# generated using pymatgen
data_Y5Er3Ga12CoCu3
_symmetry_space_group_name_H-M   'P 1'
_cell_length_a   7.04279328
_cell_length_b   8.77462466
_cell_length_c   8.76448533
_cell_angle_alpha   120.10421021
_cell_angle_beta   90.06808885
_cell_angle_gamma   89.89016669
_symmetry_Int_Tables_number   1
_chemical_formula_structural   Y5Er3Ga12CoCu3
_chemical_formula_sum   'Y5 Er3 Ga12 Co1 Cu3'
_cell_volume   468.56810146
_cell_formula_units_Z   1
loop_
 _symmetry_equiv_pos_site_id
 _symmetry_equiv_pos_as_xyz
  1  'x, y, z'
loop_
 _atom_site_type_symbol
 _atom_site_label
 _atom_site_symmetry_multiplicity
 _atom_site_fract_x
 _atom_site_fract_y
 _atom_site_fract_z
 _atom_site_occupancy
  Y  Y0  1  0.745579  0.999745  0.999767  1
  Y  Y1  1  0.253580  0.999810  0.999962  1
  Y  Y2  1  0.749776  0.486665  0.514052  1
  Y  Y3  1  0.254395  0.520745  0.479548  1
  Y  Y4  1  0.749770  0.026938  0.513715  1
  Er  Er5  1  0.255693  0.957775  0.478847  1
  Er  Er6  1  0.749273  0.487165  0.974080  1
  Er  Er7  1  0.255880  0.521134  0.041834  1
  Ga  Ga8  1  0.965935  0.831151  0.168087  1
  Ga  Ga9  1  0.039885  0.170769  0.829789  1
  Ga  Ga10  1  0.964501  0.337004  0.167741  1
  Ga  Ga11  1  0.462993  0.170504  0.830031  1
  Ga  Ga12  1  0.037963  0.659446  0.830538  1
  Ga  Ga13  1  0.536036  0.826543  0.172537  1
  Ga  Ga14  1  0.966508  0.831421  0.662179  1
  Ga  Ga15  1  0.465118  0.659409  0.830199  1
  Ga  Ga16  1  0.039212  0.169964  0.341119  1
  Ga  Ga17  1  0.536893  0.347187  0.172676  1
  Ga  Ga18  1  0.463858  0.170109  0.340914  1
  Ga  Ga19  1  0.535270  0.826685  0.652364  1
  Co  Co20  1  0.513576  0.667036  0.331311  1
  Cu  Cu21  1  0.951572  0.665930  0.331754  1
  Cu  Cu22  1  0.043779  0.333086  0.668173  1
  Cu  Cu23  1  0.462953  0.333773  0.668787  1
