# generated using pymatgen
data_TbHo(CuNi)5
_symmetry_space_group_name_H-M   'P 1'
_cell_length_a   4.04535000
_cell_length_b   4.89785600
_cell_length_c   8.50283600
_cell_angle_alpha   90.00000000
_cell_angle_beta   90.00000000
_cell_angle_gamma   90.00000000
_symmetry_Int_Tables_number   1
_chemical_formula_structural   TbHo(CuNi)5
_chemical_formula_sum   'Tb1 Ho1 Cu5 Ni5'
_cell_volume   168.47129625
_cell_formula_units_Z   1
loop_
 _symmetry_equiv_pos_site_id
 _symmetry_equiv_pos_as_xyz
  1  'x, y, z'
loop_
 _atom_site_type_symbol
 _atom_site_label
 _atom_site_symmetry_multiplicity
 _atom_site_fract_x
 _atom_site_fract_y
 _atom_site_fract_z
 _atom_site_occupancy
  Tb  Tb0  1  0.000000  0.500000  0.000000  1
  Ho  Ho1  1  0.000000  0.000000  0.500000  1
  Cu  Cu2  1  0.500000  0.000000  0.000000  1
  Cu  Cu3  1  0.500000  0.749843  0.251979  1
  Cu  Cu4  1  0.500000  0.250157  0.748021  1
  Cu  Cu5  1  0.500000  0.250157  0.251979  1
  Cu  Cu6  1  0.500000  0.749843  0.748021  1
  Ni  Ni7  1  0.000000  0.500000  0.337898  1
  Ni  Ni8  1  0.000000  0.000000  0.833858  1
  Ni  Ni9  1  0.000000  0.000000  0.166142  1
  Ni  Ni10  1  0.000000  0.500000  0.662102  1
  Ni  Ni11  1  0.500000  0.500000  0.500000  1
