# generated using pymatgen
data_Dy3Ho2Tc3(P3Ir4)4
_symmetry_space_group_name_H-M   'P 1'
_cell_length_a   12.65695300
_cell_length_b   12.65386477
_cell_length_c   3.98174100
_cell_angle_alpha   90.00000000
_cell_angle_beta   90.00000000
_cell_angle_gamma   120.00807095
_symmetry_Int_Tables_number   1
_chemical_formula_structural   Dy3Ho2Tc3(P3Ir4)4
_chemical_formula_sum   'Dy3 Ho2 Tc3 P12 Ir16'
_cell_volume   552.23085574
_cell_formula_units_Z   1
loop_
 _symmetry_equiv_pos_site_id
 _symmetry_equiv_pos_as_xyz
  1  'x, y, z'
loop_
 _atom_site_type_symbol
 _atom_site_label
 _atom_site_symmetry_multiplicity
 _atom_site_fract_x
 _atom_site_fract_y
 _atom_site_fract_z
 _atom_site_occupancy
  Dy  Dy0  1  0.333340  0.666692  0.500000  1
  Dy  Dy1  1  0.666648  0.333308  0.500000  1
  Dy  Dy2  1  0.817246  0.000000  0.000000  1
  Ho  Ho3  1  0.000052  0.817350  0.000000  1
  Ho  Ho4  1  0.182702  0.182650  0.000000  1
  Tc  Tc5  1  0.000016  0.455092  0.500000  1
  Tc  Tc6  1  0.544924  0.544908  0.500000  1
  Tc  Tc7  1  0.455002  0.000000  0.500000  1
  P  P8  1  0.999988  0.638782  0.500000  1
  P  P9  1  0.361206  0.361218  0.500000  1
  P  P10  1  0.638638  0.000000  0.500000  1
  P  P11  1  0.515729  0.685357  0.000000  1
  P  P12  1  0.314692  0.830396  0.000000  1
  P  P13  1  0.169606  0.484299  0.000000  1
  P  P14  1  0.484296  0.169604  0.000000  1
  P  P15  1  0.685306  0.515701  0.000000  1
  P  P16  1  0.830372  0.314643  0.000000  1
  P  P17  1  0.000153  0.176157  0.500000  1
  P  P18  1  0.823996  0.823843  0.500000  1
  P  P19  1  0.176089  0.000000  0.500000  1
  Ir  Ir20  1  0.509933  0.868370  0.000000  1
  Ir  Ir21  1  0.131672  0.641629  0.000000  1
  Ir  Ir22  1  0.358363  0.490034  0.000000  1
  Ir  Ir23  1  0.490044  0.358371  0.000000  1
  Ir  Ir24  1  0.868330  0.509966  0.000000  1
  Ir  Ir25  1  0.641564  0.131630  0.000000  1
  Ir  Ir26  1  0.000042  0.290959  0.000000  1
  Ir  Ir27  1  0.709083  0.709041  0.000000  1
  Ir  Ir28  1  0.290921  0.000000  0.000000  1
  Ir  Ir29  1  0.626680  0.805723  0.500000  1
  Ir  Ir30  1  0.193981  0.820928  0.500000  1
  Ir  Ir31  1  0.179080  0.373046  0.500000  1
  Ir  Ir32  1  0.373053  0.179072  0.500000  1
  Ir  Ir33  1  0.806034  0.626954  0.500000  1
  Ir  Ir34  1  0.820957  0.194277  0.500000  1
  Ir  Ir35  1  0.000263  0.000000  0.500000  1
