# generated using pymatgen
data_Mn7Nb8Si14Tc
_symmetry_space_group_name_H-M   'P 1'
_cell_length_a   9.44327076
_cell_length_b   9.44377962
_cell_length_c   9.41200085
_cell_angle_alpha   94.07735040
_cell_angle_beta   94.06609271
_cell_angle_gamma   149.14454947
_symmetry_Int_Tables_number   1
_chemical_formula_structural   Mn7Nb8Si14Tc
_chemical_formula_sum   'Mn7 Nb8 Si14 Tc1'
_cell_volume   414.86986889
_cell_formula_units_Z   1
loop_
 _symmetry_equiv_pos_site_id
 _symmetry_equiv_pos_as_xyz
  1  'x, y, z'
loop_
 _atom_site_type_symbol
 _atom_site_label
 _atom_site_symmetry_multiplicity
 _atom_site_fract_x
 _atom_site_fract_y
 _atom_site_fract_z
 _atom_site_occupancy
  Mn  Mn0  1  0.900048  0.400045  0.800079  1
  Mn  Mn1  1  0.598603  0.098601  0.197174  1
  Mn  Mn2  1  0.103623  0.603622  0.207301  1
  Mn  Mn3  1  0.101771  0.897764  0.500662  1
  Mn  Mn4  1  0.398871  0.602892  0.500669  1
  Mn  Mn5  1  0.596760  0.400134  0.497919  1
  Mn  Mn6  1  0.901143  0.097784  0.497920  1
  Nb  Nb7  1  0.135509  0.135511  0.271002  1
  Nb  Nb8  1  0.864822  0.864819  0.729657  1
  Nb  Nb9  1  0.863778  0.132340  0.001106  1
  Nb  Nb10  1  0.137348  0.868769  0.001108  1
  Nb  Nb11  1  0.500761  0.690215  0.192509  1
  Nb  Nb12  1  0.497010  0.308794  0.809121  1
  Nb  Nb13  1  0.312121  0.500331  0.809122  1
  Nb  Nb14  1  0.691749  0.502315  0.192511  1
  Si  Si15  1  0.292767  0.292772  0.585579  1
  Si  Si16  1  0.707161  0.707163  0.414325  1
  Si  Si17  1  0.719021  0.309828  0.004228  1
  Si  Si18  1  0.285252  0.694448  0.004284  1
  Si  Si19  1  0.993828  0.285561  0.292186  1
  Si  Si20  1  0.981058  0.694865  0.706875  1
  Si  Si21  1  0.725834  0.012020  0.706886  1
  Si  Si22  1  0.298340  0.006583  0.292160  1
  Si  Si23  1  0.517071  0.921075  0.406887  1
  Si  Si24  1  0.520352  0.116625  0.587450  1
  Si  Si25  1  0.067087  0.470812  0.587452  1
  Si  Si26  1  0.889822  0.485838  0.406907  1
  Si  Si27  1  0.751530  0.751424  0.000756  1
  Si  Si28  1  0.249243  0.249338  0.000752  1
  Tc  Tc29  1  0.397714  0.897710  0.795410  1
