# generated using pymatgen
data_Sr4PdAu3
_symmetry_space_group_name_H-M   'P 1'
_cell_length_a   4.74192000
_cell_length_b   6.18294168
_cell_length_c   8.13086225
_cell_angle_alpha   89.97495097
_cell_angle_beta   90.00000000
_cell_angle_gamma   90.00000000
_symmetry_Int_Tables_number   1
_chemical_formula_structural   Sr4PdAu3
_chemical_formula_sum   'Sr4 Pd1 Au3'
_cell_volume   238.38884790
_cell_formula_units_Z   1
loop_
 _symmetry_equiv_pos_site_id
 _symmetry_equiv_pos_as_xyz
  1  'x, y, z'
loop_
 _atom_site_type_symbol
 _atom_site_label
 _atom_site_symmetry_multiplicity
 _atom_site_fract_x
 _atom_site_fract_y
 _atom_site_fract_z
 _atom_site_occupancy
  Sr  Sr0  1  0.250000  0.364376  0.679575  1
  Sr  Sr1  1  0.250000  0.133737  0.185315  1
  Sr  Sr2  1  0.750000  0.638321  0.322379  1
  Sr  Sr3  1  0.750000  0.863941  0.812665  1
  Pd  Pd4  1  0.250000  0.868353  0.535125  1
  Au  Au5  1  0.250000  0.636632  0.039665  1
  Au  Au6  1  0.750000  0.131570  0.463931  1
  Au  Au7  1  0.750000  0.363070  0.961345  1
