# generated using pymatgen
data_Ho2Fe5P6Ir5
_symmetry_space_group_name_H-M   'P 1'
_cell_length_a   3.81878400
_cell_length_b   10.35481300
_cell_length_c   12.25661600
_cell_angle_alpha   90.00000000
_cell_angle_beta   90.00000000
_cell_angle_gamma   90.00000000
_symmetry_Int_Tables_number   1
_chemical_formula_structural   Ho2Fe5P6Ir5
_chemical_formula_sum   'Ho4 Fe10 P12 Ir10'
_cell_volume   484.66084417
_cell_formula_units_Z   2
loop_
 _symmetry_equiv_pos_site_id
 _symmetry_equiv_pos_as_xyz
  1  'x, y, z'
loop_
 _atom_site_type_symbol
 _atom_site_label
 _atom_site_symmetry_multiplicity
 _atom_site_fract_x
 _atom_site_fract_y
 _atom_site_fract_z
 _atom_site_occupancy
  Ho  Ho0  1  0.250000  0.584201  0.714904  1
  Ho  Ho1  1  0.250000  0.915799  0.214904  1
  Ho  Ho2  1  0.750000  0.423950  0.288411  1
  Ho  Ho3  1  0.750000  0.076050  0.788411  1
  Fe  Fe4  1  0.750000  0.774468  0.829297  1
  Fe  Fe5  1  0.750000  0.725532  0.329297  1
  Fe  Fe6  1  0.250000  0.873077  0.695788  1
  Fe  Fe7  1  0.250000  0.626923  0.195788  1
  Fe  Fe8  1  0.750000  0.120400  0.302822  1
  Fe  Fe9  1  0.750000  0.379600  0.802822  1
  Fe  Fe10  1  0.250000  0.457462  0.937315  1
  Fe  Fe11  1  0.250000  0.042538  0.437315  1
  Fe  Fe12  1  0.750000  0.542384  0.063221  1
  Fe  Fe13  1  0.750000  0.957616  0.563221  1
  P  P14  1  0.250000  0.440517  0.112641  1
  P  P15  1  0.250000  0.059483  0.612641  1
  P  P16  1  0.750000  0.570109  0.886973  1
  P  P17  1  0.750000  0.929891  0.386973  1
  P  P18  1  0.250000  0.271346  0.862096  1
  P  P19  1  0.250000  0.228654  0.362096  1
  P  P20  1  0.750000  0.726951  0.147738  1
  P  P21  1  0.750000  0.773049  0.647738  1
  P  P22  1  0.250000  0.608633  0.374012  1
  P  P23  1  0.250000  0.891367  0.874012  1
  P  P24  1  0.750000  0.405039  0.621473  1
  P  P25  1  0.750000  0.094961  0.121473  1
  Ir  Ir26  1  0.250000  0.708866  0.983136  1
  Ir  Ir27  1  0.250000  0.791134  0.483136  1
  Ir  Ir28  1  0.750000  0.283225  0.009397  1
  Ir  Ir29  1  0.750000  0.216775  0.509397  1
  Ir  Ir30  1  0.250000  0.413168  0.474056  1
  Ir  Ir31  1  0.250000  0.086832  0.974056  1
  Ir  Ir32  1  0.750000  0.598847  0.523489  1
  Ir  Ir33  1  0.750000  0.901153  0.023489  1
  Ir  Ir34  1  0.250000  0.229134  0.173230  1
  Ir  Ir35  1  0.250000  0.270866  0.673230  1
