# generated using pymatgen
data_PrSi2TcRh
_symmetry_space_group_name_H-M   'P 1'
_cell_length_a   5.80663254
_cell_length_b   5.80663274
_cell_length_c   5.80663189
_cell_angle_alpha   137.05746480
_cell_angle_beta   137.05746720
_cell_angle_gamma   62.34964959
_symmetry_Int_Tables_number   1
_chemical_formula_structural   PrSi2TcRh
_chemical_formula_sum   'Pr1 Si2 Tc1 Rh1'
_cell_volume   89.77261040
_cell_formula_units_Z   1
loop_
 _symmetry_equiv_pos_site_id
 _symmetry_equiv_pos_as_xyz
  1  'x, y, z'
loop_
 _atom_site_type_symbol
 _atom_site_label
 _atom_site_symmetry_multiplicity
 _atom_site_fract_x
 _atom_site_fract_y
 _atom_site_fract_z
 _atom_site_occupancy
  Pr  Pr0  1  0.000000  0.000000  0.000000  1
  Si  Si1  1  0.634213  0.634213  0.000000  1
  Si  Si2  1  0.365787  0.365787  0.000000  1
  Tc  Tc3  1  0.750000  0.250000  0.500000  1
  Rh  Rh4  1  0.250000  0.750000  0.500000  1
