# generated using pymatgen
data_Ce2Ho2TmRu2
_symmetry_space_group_name_H-M   'P 1'
_cell_length_a   6.34446401
_cell_length_b   7.01436745
_cell_length_c   8.77813277
_cell_angle_alpha   95.64686974
_cell_angle_beta   111.18489985
_cell_angle_gamma   90.00000152
_symmetry_Int_Tables_number   1
_chemical_formula_structural   Ce2Ho2TmRu2
_chemical_formula_sum   'Ce4 Ho4 Tm2 Ru4'
_cell_volume   362.21377303
_cell_formula_units_Z   2
loop_
 _symmetry_equiv_pos_site_id
 _symmetry_equiv_pos_as_xyz
  1  'x, y, z'
loop_
 _atom_site_type_symbol
 _atom_site_label
 _atom_site_symmetry_multiplicity
 _atom_site_fract_x
 _atom_site_fract_y
 _atom_site_fract_z
 _atom_site_occupancy
  Ce  Ce0  1  0.789588  0.094830  0.810077  1
  Ce  Ce1  1  0.979511  0.405170  0.189923  1
  Ce  Ce2  1  0.210412  0.905170  0.189923  1
  Ce  Ce3  1  0.020489  0.594830  0.810077  1
  Ho  Ho4  1  0.206403  0.185230  0.566796  1
  Ho  Ho5  1  0.639607  0.314770  0.433204  1
  Ho  Ho6  1  0.793597  0.814770  0.433204  1
  Ho  Ho7  1  0.360393  0.685230  0.566796  1
  Tm  Tm8  1  0.418661  0.250000  0.000000  1
  Tm  Tm9  1  0.581339  0.750000  0.000000  1
  Ru  Ru10  1  0.624387  0.407545  0.779607  1
  Ru  Ru11  1  0.844779  0.092455  0.220393  1
  Ru  Ru12  1  0.375613  0.592455  0.220393  1
  Ru  Ru13  1  0.155221  0.907545  0.779607  1
