# generated using pymatgen
data_Zr3CrTc2P3
_symmetry_space_group_name_H-M   'P 1'
_cell_length_a   6.77672342
_cell_length_b   6.72374223
_cell_length_c   3.49481900
_cell_angle_alpha   90.00000000
_cell_angle_beta   90.00000000
_cell_angle_gamma   119.74170562
_symmetry_Int_Tables_number   1
_chemical_formula_structural   Zr3CrTc2P3
_chemical_formula_sum   'Zr3 Cr1 Tc2 P3'
_cell_volume   138.26447874
_cell_formula_units_Z   1
loop_
 _symmetry_equiv_pos_site_id
 _symmetry_equiv_pos_as_xyz
  1  'x, y, z'
loop_
 _atom_site_type_symbol
 _atom_site_label
 _atom_site_symmetry_multiplicity
 _atom_site_fract_x
 _atom_site_fract_y
 _atom_site_fract_z
 _atom_site_occupancy
  Zr  Zr0  1  0.404803  0.404743  0.500000  1
  Zr  Zr1  1  0.595197  0.999940  0.500000  1
  Zr  Zr2  1  0.000000  0.591260  0.500000  1
  Cr  Cr3  1  0.000000  0.246990  0.000000  1
  Tc  Tc4  1  0.755220  0.754603  0.000000  1
  Tc  Tc5  1  0.244780  0.999383  0.000000  1
  P  P6  1  0.670810  0.330709  0.000000  1
  P  P7  1  0.329190  0.659900  0.000000  1
  P  P8  1  0.000000  0.012470  0.500000  1
