# generated using pymatgen
data_Nd2TmMg3Sn2Hg
_symmetry_space_group_name_H-M   'P 1'
_cell_length_a   7.65836600
_cell_length_b   7.56794693
_cell_length_c   4.64785500
_cell_angle_alpha   90.00000000
_cell_angle_beta   90.00000000
_cell_angle_gamma   120.39600033
_symmetry_Int_Tables_number   1
_chemical_formula_structural   Nd2TmMg3Sn2Hg
_chemical_formula_sum   'Nd2 Tm1 Mg3 Sn2 Hg1'
_cell_volume   232.35420626
_cell_formula_units_Z   1
loop_
 _symmetry_equiv_pos_site_id
 _symmetry_equiv_pos_as_xyz
  1  'x, y, z'
loop_
 _atom_site_type_symbol
 _atom_site_label
 _atom_site_symmetry_multiplicity
 _atom_site_fract_x
 _atom_site_fract_y
 _atom_site_fract_z
 _atom_site_occupancy
  Nd  Nd0  1  0.002975  0.583165  0.000000  1
  Nd  Nd1  1  0.419809  0.416835  0.000000  1
  Tm  Tm2  1  0.581774  0.000000  0.000000  1
  Mg  Mg3  1  0.000917  0.239757  0.500000  1
  Mg  Mg4  1  0.761159  0.760243  0.500000  1
  Mg  Mg5  1  0.238001  0.000000  0.500000  1
  Sn  Sn6  1  0.665163  0.324171  0.500000  1
  Sn  Sn7  1  0.340992  0.675829  0.500000  1
  Hg  Hg8  1  0.989210  0.000000  0.000000  1
