# generated using pymatgen
data_Ac8Si12IrPt3
_symmetry_space_group_name_H-M   'P 1'
_cell_length_a   8.47694800
_cell_length_b   8.47694859
_cell_length_c   8.88980600
_cell_angle_alpha   90.00000000
_cell_angle_beta   90.00000000
_cell_angle_gamma   119.99999768
_symmetry_Int_Tables_number   1
_chemical_formula_structural   Ac8Si12IrPt3
_chemical_formula_sum   'Ac8 Si12 Ir1 Pt3'
_cell_volume   553.22525033
_cell_formula_units_Z   1
loop_
 _symmetry_equiv_pos_site_id
 _symmetry_equiv_pos_as_xyz
  1  'x, y, z'
loop_
 _atom_site_type_symbol
 _atom_site_label
 _atom_site_symmetry_multiplicity
 _atom_site_fract_x
 _atom_site_fract_y
 _atom_site_fract_z
 _atom_site_occupancy
  Ac  Ac0  1  0.501058  0.498942  0.751635  1
  Ac  Ac1  1  0.501632  0.498368  0.248423  1
  Ac  Ac2  1  0.997886  0.498942  0.751635  1
  Ac  Ac3  1  0.996738  0.498368  0.248423  1
  Ac  Ac4  1  0.501058  0.002114  0.751635  1
  Ac  Ac5  1  0.501632  0.003262  0.248423  1
  Ac  Ac6  1  0.000000  0.000000  0.749669  1
  Ac  Ac7  1  0.000000  0.000000  0.250198  1
  Si  Si8  1  0.832234  0.167766  0.000491  1
  Si  Si9  1  0.165261  0.834739  0.999671  1
  Si  Si10  1  0.335531  0.167766  0.000491  1
  Si  Si11  1  0.165436  0.834564  0.500650  1
  Si  Si12  1  0.669478  0.834739  0.999671  1
  Si  Si13  1  0.834376  0.165624  0.499040  1
  Si  Si14  1  0.832234  0.664469  0.000491  1
  Si  Si15  1  0.669128  0.834564  0.500650  1
  Si  Si16  1  0.165261  0.330522  0.999671  1
  Si  Si17  1  0.331249  0.165624  0.499040  1
  Si  Si18  1  0.165436  0.330872  0.500650  1
  Si  Si19  1  0.834376  0.668751  0.499040  1
  Ir  Ir20  1  0.666667  0.333333  0.998672  1
  Pt  Pt21  1  0.333333  0.666667  0.000843  1
  Pt  Pt22  1  0.333333  0.666667  0.499154  1
  Pt  Pt23  1  0.666667  0.333333  0.501737  1
