# generated using pymatgen
data_YEr5U4O20
_symmetry_space_group_name_H-M   'P 1'
_cell_length_a   6.63317272
_cell_length_b   7.48268573
_cell_length_c   8.39922500
_cell_angle_alpha   100.76075777
_cell_angle_beta   97.77989724
_cell_angle_gamma   107.32743453
_symmetry_Int_Tables_number   1
_chemical_formula_structural   YEr5U4O20
_chemical_formula_sum   'Y1 Er5 U4 O20'
_cell_volume   382.77747816
_cell_formula_units_Z   1
loop_
 _symmetry_equiv_pos_site_id
 _symmetry_equiv_pos_as_xyz
  1  'x, y, z'
loop_
 _atom_site_type_symbol
 _atom_site_label
 _atom_site_symmetry_multiplicity
 _atom_site_fract_x
 _atom_site_fract_y
 _atom_site_fract_z
 _atom_site_occupancy
  Y  Y0  1  0.000000  0.500000  0.500000  1
  Er  Er1  1  0.615324  0.704613  0.699423  1
  Er  Er2  1  0.384676  0.295387  0.300577  1
  Er  Er3  1  0.197165  0.897023  0.891840  1
  Er  Er4  1  0.802835  0.102977  0.108160  1
  Er  Er5  1  0.000000  0.000000  0.500000  1
  U  U6  1  0.402289  0.804933  0.301779  1
  U  U7  1  0.199106  0.399368  0.899291  1
  U  U8  1  0.800894  0.600632  0.100709  1
  U  U9  1  0.597711  0.195067  0.698221  1
  O  O10  1  0.439747  0.531020  0.138132  1
  O  O11  1  0.554721  0.985365  0.841930  1
  O  O12  1  0.267115  0.141775  0.744722  1
  O  O13  1  0.362192  0.593135  0.442643  1
  O  O14  1  0.053609  0.730480  0.334161  1
  O  O15  1  0.445279  0.014635  0.158070  1
  O  O16  1  0.150345  0.181842  0.032617  1
  O  O17  1  0.560253  0.468980  0.861868  1
  O  O18  1  0.854222  0.334913  0.950838  1
  O  O19  1  0.258767  0.609143  0.760262  1
  O  O20  1  0.953069  0.774808  0.654021  1
  O  O21  1  0.352887  0.063503  0.452979  1
  O  O22  1  0.647113  0.936497  0.547021  1
  O  O23  1  0.046931  0.225192  0.345979  1
  O  O24  1  0.741233  0.390857  0.239738  1
  O  O25  1  0.145778  0.665087  0.049162  1
  O  O26  1  0.849655  0.818158  0.967383  1
  O  O27  1  0.946391  0.269520  0.665839  1
  O  O28  1  0.637808  0.406865  0.557357  1
  O  O29  1  0.732885  0.858225  0.255278  1
