# generated using pymatgen
data_Lu4TlRh
_symmetry_space_group_name_H-M   'P 1'
_cell_length_a   9.48252651
_cell_length_b   9.48252692
_cell_length_c   9.48252700
_cell_angle_alpha   60.00000322
_cell_angle_beta   60.00000179
_cell_angle_gamma   60.00000061
_symmetry_Int_Tables_number   1
_chemical_formula_structural   Lu4TlRh
_chemical_formula_sum   'Lu16 Tl4 Rh4'
_cell_volume   602.91662393
_cell_formula_units_Z   4
loop_
 _symmetry_equiv_pos_site_id
 _symmetry_equiv_pos_as_xyz
  1  'x, y, z'
loop_
 _atom_site_type_symbol
 _atom_site_label
 _atom_site_symmetry_multiplicity
 _atom_site_fract_x
 _atom_site_fract_y
 _atom_site_fract_z
 _atom_site_occupancy
  Lu  Lu0  1  0.599605  0.599605  0.599605  1
  Lu  Lu1  1  0.599605  0.599605  0.201185  1
  Lu  Lu2  1  0.599605  0.201185  0.599605  1
  Lu  Lu3  1  0.201185  0.599605  0.599605  1
  Lu  Lu4  1  0.062097  0.437903  0.437903  1
  Lu  Lu5  1  0.437903  0.062097  0.062097  1
  Lu  Lu6  1  0.437903  0.062097  0.437903  1
  Lu  Lu7  1  0.062097  0.437903  0.062097  1
  Lu  Lu8  1  0.437903  0.437903  0.062097  1
  Lu  Lu9  1  0.062097  0.062097  0.437903  1
  Lu  Lu10  1  0.188777  0.811223  0.811223  1
  Lu  Lu11  1  0.811223  0.188777  0.188777  1
  Lu  Lu12  1  0.811223  0.188777  0.811223  1
  Lu  Lu13  1  0.188777  0.811223  0.188777  1
  Lu  Lu14  1  0.811223  0.811223  0.188777  1
  Lu  Lu15  1  0.188777  0.188777  0.811223  1
  Tl  Tl16  1  0.835854  0.835854  0.835854  1
  Tl  Tl17  1  0.835854  0.835854  0.492438  1
  Tl  Tl18  1  0.835854  0.492438  0.835854  1
  Tl  Tl19  1  0.492438  0.835854  0.835854  1
  Rh  Rh20  1  0.392817  0.392817  0.392817  1
  Rh  Rh21  1  0.392817  0.392817  0.821547  1
  Rh  Rh22  1  0.392817  0.821547  0.392817  1
  Rh  Rh23  1  0.821547  0.392817  0.392817  1
