# generated using pymatgen
data_Nd4Ta3NbN8
_symmetry_space_group_name_H-M   'P 1'
_cell_length_a   3.38590500
_cell_length_b   5.82196547
_cell_length_c   11.09008270
_cell_angle_alpha   90.10558227
_cell_angle_beta   90.00000000
_cell_angle_gamma   90.00000000
_symmetry_Int_Tables_number   1
_chemical_formula_structural   Nd4Ta3NbN8
_chemical_formula_sum   'Nd4 Ta3 Nb1 N8'
_cell_volume   218.61423717
_cell_formula_units_Z   1
loop_
 _symmetry_equiv_pos_site_id
 _symmetry_equiv_pos_as_xyz
  1  'x, y, z'
loop_
 _atom_site_type_symbol
 _atom_site_label
 _atom_site_symmetry_multiplicity
 _atom_site_fract_x
 _atom_site_fract_y
 _atom_site_fract_z
 _atom_site_occupancy
  Nd  Nd0  1  0.250000  0.587080  0.862466  1
  Nd  Nd1  1  0.750000  0.413966  0.138083  1
  Nd  Nd2  1  0.750000  0.916432  0.363472  1
  Nd  Nd3  1  0.250000  0.086613  0.636704  1
  Ta  Ta4  1  0.250000  0.917810  0.110929  1
  Ta  Ta5  1  0.750000  0.082017  0.888017  1
  Ta  Ta6  1  0.750000  0.580368  0.608703  1
  Nb  Nb7  1  0.250000  0.419123  0.390472  1
  N  N8  1  0.250000  0.665030  0.244141  1
  N  N9  1  0.750000  0.337149  0.754613  1
  N  N10  1  0.750000  0.836269  0.747087  1
  N  N11  1  0.250000  0.159804  0.250277  1
  N  N12  1  0.250000  0.725961  0.515369  1
  N  N13  1  0.750000  0.272396  0.490817  1
  N  N14  1  0.750000  0.778307  0.013335  1
  N  N15  1  0.250000  0.221675  0.985514  1
