# generated using pymatgen
data_Na4Cr3FeAs4(O4F)4
_symmetry_space_group_name_H-M   'P 1'
_cell_length_a   6.83684699
_cell_length_b   8.85087600
_cell_length_c   7.48127100
_cell_angle_alpha   89.99998705
_cell_angle_beta   115.91476715
_cell_angle_gamma   89.99999401
_symmetry_Int_Tables_number   1
_chemical_formula_structural   Na4Cr3FeAs4(O4F)4
_chemical_formula_sum   'Na4 Cr3 Fe1 As4 O16 F4'
_cell_volume   407.18539978
_cell_formula_units_Z   1
loop_
 _symmetry_equiv_pos_site_id
 _symmetry_equiv_pos_as_xyz
  1  'x, y, z'
loop_
 _atom_site_type_symbol
 _atom_site_label
 _atom_site_symmetry_multiplicity
 _atom_site_fract_x
 _atom_site_fract_y
 _atom_site_fract_z
 _atom_site_occupancy
  Na  Na0  1  0.500130  0.831987  0.750191  1
  Na  Na1  1  0.000251  0.331861  0.750312  1
  Na  Na2  1  0.499863  0.168038  0.249795  1
  Na  Na3  1  0.999746  0.668139  0.249678  1
  Cr  Cr4  1  0.500115  0.499974  0.000060  1
  Cr  Cr5  1  0.000040  0.999957  0.499950  1
  Cr  Cr6  1  0.000080  0.000002  0.999987  1
  Fe  Fe7  1  0.499998  0.500027  0.500010  1
  As  As8  1  0.500303  0.185991  0.750291  1
  As  As9  1  0.000952  0.686768  0.750365  1
  As  As10  1  0.499675  0.814009  0.249686  1
  As  As11  1  0.999040  0.313222  0.249644  1
  O  O12  1  0.607655  0.293998  0.621969  1
  O  O13  1  0.107820  0.794489  0.621115  1
  O  O14  1  0.392345  0.706035  0.378021  1
  O  O15  1  0.892195  0.205531  0.378864  1
  O  O16  1  0.392336  0.294167  0.877981  1
  O  O17  1  0.892597  0.794420  0.878333  1
  O  O18  1  0.607670  0.705841  0.122025  1
  O  O19  1  0.107362  0.205541  0.121652  1
  O  O20  1  0.690885  0.064349  0.914924  1
  O  O21  1  0.190612  0.564715  0.914553  1
  O  O22  1  0.309083  0.935662  0.085055  1
  O  O23  1  0.809377  0.435306  0.085490  1
  O  O24  1  0.309085  0.064753  0.585630  1
  O  O25  1  0.808248  0.565536  0.586884  1
  O  O26  1  0.690841  0.935263  0.414360  1
  O  O27  1  0.191715  0.434481  0.413050  1
  F  F28  1  0.499819  0.576325  0.752469  1
  F  F29  1  0.000028  0.075421  0.750058  1
  F  F30  1  0.500182  0.423674  0.247594  1
  F  F31  1  0.999954  0.924517  0.250002  1
