# generated using pymatgen
data_Dy7Ho4Tm5(InIr)4
_symmetry_space_group_name_H-M   'P 1'
_cell_length_a   9.61500628
_cell_length_b   9.61500693
_cell_length_c   9.62751300
_cell_angle_alpha   59.95696098
_cell_angle_beta   59.95695874
_cell_angle_gamma   60.01696458
_symmetry_Int_Tables_number   1
_chemical_formula_structural   Dy7Ho4Tm5(InIr)4
_chemical_formula_sum   'Dy7 Ho4 Tm5 In4 Ir4'
_cell_volume   629.02952301
_cell_formula_units_Z   1
loop_
 _symmetry_equiv_pos_site_id
 _symmetry_equiv_pos_as_xyz
  1  'x, y, z'
loop_
 _atom_site_type_symbol
 _atom_site_label
 _atom_site_symmetry_multiplicity
 _atom_site_fract_x
 _atom_site_fract_y
 _atom_site_fract_z
 _atom_site_occupancy
  Dy  Dy0  1  0.060375  0.060375  0.439625  1
  Dy  Dy1  1  0.190553  0.809533  0.810312  1
  Dy  Dy2  1  0.809533  0.190553  0.189600  1
  Dy  Dy3  1  0.809533  0.190553  0.810312  1
  Dy  Dy4  1  0.190553  0.809533  0.189600  1
  Dy  Dy5  1  0.810182  0.810182  0.189818  1
  Dy  Dy6  1  0.190434  0.190434  0.809566  1
  Ho  Ho7  1  0.598944  0.598944  0.598517  1
  Ho  Ho8  1  0.598944  0.598944  0.203595  1
  Ho  Ho9  1  0.599057  0.203253  0.598845  1
  Ho  Ho10  1  0.203253  0.599057  0.598845  1
  Tm  Tm11  1  0.059859  0.439700  0.440190  1
  Tm  Tm12  1  0.439700  0.059859  0.060253  1
  Tm  Tm13  1  0.439700  0.059859  0.440190  1
  Tm  Tm14  1  0.059859  0.439700  0.060253  1
  Tm  Tm15  1  0.439087  0.439087  0.060913  1
  In  In16  1  0.832961  0.832961  0.833565  1
  In  In17  1  0.832961  0.832961  0.500513  1
  In  In18  1  0.832660  0.501674  0.832833  1
  In  In19  1  0.501674  0.832660  0.832833  1
  Ir  Ir20  1  0.390355  0.390355  0.390986  1
  Ir  Ir21  1  0.390355  0.390355  0.828305  1
  Ir  Ir22  1  0.392345  0.827123  0.390267  1
  Ir  Ir23  1  0.827123  0.392345  0.390267  1
