# generated using pymatgen
data_Sc10In3Co4Sn5
_symmetry_space_group_name_H-M   'P 1'
_cell_length_a   3.34636200
_cell_length_b   7.64646822
_cell_length_c   17.12463346
_cell_angle_alpha   89.97302082
_cell_angle_beta   90.00000000
_cell_angle_gamma   90.00000000
_symmetry_Int_Tables_number   1
_chemical_formula_structural   Sc10In3Co4Sn5
_chemical_formula_sum   'Sc10 In3 Co4 Sn5'
_cell_volume   438.18251536
_cell_formula_units_Z   1
loop_
 _symmetry_equiv_pos_site_id
 _symmetry_equiv_pos_as_xyz
  1  'x, y, z'
loop_
 _atom_site_type_symbol
 _atom_site_label
 _atom_site_symmetry_multiplicity
 _atom_site_fract_x
 _atom_site_fract_y
 _atom_site_fract_z
 _atom_site_occupancy
  Sc  Sc0  1  0.500000  0.497462  0.495122  1
  Sc  Sc1  1  0.500000  0.002210  0.000814  1
  Sc  Sc2  1  0.500000  0.875982  0.414916  1
  Sc  Sc3  1  0.500000  0.114185  0.586316  1
  Sc  Sc4  1  0.500000  0.617796  0.914064  1
  Sc  Sc5  1  0.500000  0.383867  0.086512  1
  Sc  Sc6  1  0.500000  0.268053  0.279892  1
  Sc  Sc7  1  0.500000  0.735805  0.723607  1
  Sc  Sc8  1  0.500000  0.236816  0.776756  1
  Sc  Sc9  1  0.500000  0.772597  0.219411  1
  In  In10  1  0.000000  0.415015  0.653016  1
  In  In11  1  0.000000  0.915174  0.846283  1
  In  In12  1  0.000000  0.092445  0.156658  1
  Co  Co13  1  0.000000  0.968702  0.309164  1
  Co  Co14  1  0.000000  0.025670  0.691641  1
  Co  Co15  1  0.000000  0.525925  0.808104  1
  Co  Co16  1  0.000000  0.474385  0.193424  1
  Sn  Sn17  1  0.000000  0.197559  0.432259  1
  Sn  Sn18  1  0.000000  0.787472  0.570377  1
  Sn  Sn19  1  0.000000  0.292076  0.930051  1
  Sn  Sn20  1  0.000000  0.708156  0.069108  1
  Sn  Sn21  1  0.000000  0.592649  0.342504  1
