# generated using pymatgen
data_K4InGa11Te20
_symmetry_space_group_name_H-M   'P 1'
_cell_length_a   10.90445546
_cell_length_b   10.89479953
_cell_length_c   10.95469943
_cell_angle_alpha   90.85980250
_cell_angle_beta   90.71277929
_cell_angle_gamma   90.28657704
_symmetry_Int_Tables_number   1
_chemical_formula_structural   K4InGa11Te20
_chemical_formula_sum   'K4 In1 Ga11 Te20'
_cell_volume   1301.17387946
_cell_formula_units_Z   1
loop_
 _symmetry_equiv_pos_site_id
 _symmetry_equiv_pos_as_xyz
  1  'x, y, z'
loop_
 _atom_site_type_symbol
 _atom_site_label
 _atom_site_symmetry_multiplicity
 _atom_site_fract_x
 _atom_site_fract_y
 _atom_site_fract_z
 _atom_site_occupancy
  K  K0  1  0.254799  0.001418  0.747223  1
  K  K1  1  0.746496  0.252516  0.999231  1
  K  K2  1  0.999389  0.745770  0.250731  1
  K  K3  1  0.498137  0.498748  0.501150  1
  In  In4  1  0.840021  0.882190  0.575812  1
  Ga  Ga5  1  0.572475  0.834257  0.888068  1
  Ga  Ga6  1  0.885935  0.574161  0.840204  1
  Ga  Ga7  1  0.165927  0.425418  0.114349  1
  Ga  Ga8  1  0.117967  0.166451  0.423105  1
  Ga  Ga9  1  0.425817  0.115166  0.164692  1
  Ga  Ga10  1  0.741354  0.162717  0.349076  1
  Ga  Ga11  1  0.347404  0.744014  0.160931  1
  Ga  Ga12  1  0.159892  0.349148  0.743699  1
  Ga  Ga13  1  0.256620  0.651445  0.839817  1
  Ga  Ga14  1  0.838208  0.258999  0.650172  1
  Ga  Ga15  1  0.649837  0.836913  0.254552  1
  Te  Te16  1  0.184173  0.816019  0.999873  1
  Te  Te17  1  0.813274  0.999264  0.187327  1
  Te  Te18  1  0.180133  0.180290  0.178322  1
  Te  Te19  1  0.820179  0.819263  0.834997  1
  Te  Te20  1  0.999200  0.184858  0.812517  1
  Te  Te21  1  0.935819  0.497073  0.066322  1
  Te  Te22  1  0.080977  0.935113  0.491587  1
  Te  Te23  1  0.499881  0.064399  0.936635  1
  Te  Te24  1  0.737830  0.693913  0.424950  1
  Te  Te25  1  0.435608  0.739462  0.707145  1
  Te  Te26  1  0.706461  0.438952  0.741106  1
  Te  Te27  1  0.260353  0.564940  0.293464  1
  Te  Te28  1  0.294602  0.262423  0.565059  1
  Te  Te29  1  0.563334  0.296735  0.257703  1
  Te  Te30  1  0.674478  0.084941  0.574138  1
  Te  Te31  1  0.571523  0.679547  0.074982  1
  Te  Te32  1  0.074037  0.575914  0.684550  1
  Te  Te33  1  0.318087  0.424945  0.923600  1
  Te  Te34  1  0.924238  0.317647  0.425323  1
  Te  Te35  1  0.425534  0.924971  0.317587  1
