# generated using pymatgen
data_Tb11YOsPt3
_symmetry_space_group_name_H-M   'P 1'
_cell_length_a   6.44816870
_cell_length_b   7.16722297
_cell_length_c   9.57463800
_cell_angle_alpha   90.00000000
_cell_angle_beta   90.00000000
_cell_angle_gamma   89.98423100
_symmetry_Int_Tables_number   1
_chemical_formula_structural   Tb11YOsPt3
_chemical_formula_sum   'Tb11 Y1 Os1 Pt3'
_cell_volume   442.49630996
_cell_formula_units_Z   1
loop_
 _symmetry_equiv_pos_site_id
 _symmetry_equiv_pos_as_xyz
  1  'x, y, z'
loop_
 _atom_site_type_symbol
 _atom_site_label
 _atom_site_symmetry_multiplicity
 _atom_site_fract_x
 _atom_site_fract_y
 _atom_site_fract_z
 _atom_site_occupancy
  Tb  Tb0  1  0.627245  0.036885  0.250000  1
  Tb  Tb1  1  0.131604  0.470591  0.750000  1
  Tb  Tb2  1  0.866928  0.528658  0.250000  1
  Tb  Tb3  1  0.179874  0.182288  0.063444  1
  Tb  Tb4  1  0.826451  0.819867  0.938417  1
  Tb  Tb5  1  0.671624  0.318964  0.943670  1
  Tb  Tb6  1  0.826451  0.819867  0.561583  1
  Tb  Tb7  1  0.325906  0.676588  0.064020  1
  Tb  Tb8  1  0.179874  0.182288  0.436556  1
  Tb  Tb9  1  0.325906  0.676588  0.435980  1
  Tb  Tb10  1  0.671624  0.318964  0.556330  1
  Y  Y11  1  0.366375  0.970023  0.750000  1
  Os  Os12  1  0.450345  0.386687  0.250000  1
  Pt  Pt13  1  0.556512  0.611646  0.750000  1
  Pt  Pt14  1  0.944319  0.113738  0.750000  1
  Pt  Pt15  1  0.048962  0.886356  0.250000  1
