# generated using pymatgen
data_Ce7IrOs2
_symmetry_space_group_name_H-M   'P 1'
_cell_length_a   6.13006193
_cell_length_b   9.82000794
_cell_length_c   9.82000792
_cell_angle_alpha   120.34876841
_cell_angle_beta   90.09753845
_cell_angle_gamma   89.90246176
_symmetry_Int_Tables_number   1
_chemical_formula_structural   Ce7IrOs2
_chemical_formula_sum   'Ce14 Ir2 Os4'
_cell_volume   510.13049653
_cell_formula_units_Z   2
loop_
 _symmetry_equiv_pos_site_id
 _symmetry_equiv_pos_as_xyz
  1  'x, y, z'
loop_
 _atom_site_type_symbol
 _atom_site_label
 _atom_site_symmetry_multiplicity
 _atom_site_fract_x
 _atom_site_fract_y
 _atom_site_fract_z
 _atom_site_occupancy
  Ce  Ce0  1  0.459038  0.332455  0.667545  1
  Ce  Ce1  1  0.965498  0.666708  0.333292  1
  Ce  Ce2  1  0.241190  0.127166  0.872834  1
  Ce  Ce3  1  0.239828  0.745870  0.873213  1
  Ce  Ce4  1  0.239828  0.126787  0.254130  1
  Ce  Ce5  1  0.741331  0.869987  0.130013  1
  Ce  Ce6  1  0.740939  0.257008  0.125872  1
  Ce  Ce7  1  0.740939  0.874128  0.742992  1
  Ce  Ce8  1  0.455414  0.538559  0.461441  1
  Ce  Ce9  1  0.454566  0.924151  0.463263  1
  Ce  Ce10  1  0.454566  0.536737  0.075849  1
  Ce  Ce11  1  0.959017  0.464387  0.535613  1
  Ce  Ce12  1  0.956936  0.073289  0.538324  1
  Ce  Ce13  1  0.956936  0.461676  0.926711  1
  Ir  Ir14  1  0.702167  0.626549  0.812066  1
  Ir  Ir15  1  0.702167  0.187934  0.373451  1
  Os  Os16  1  0.202812  0.815015  0.184985  1
  Os  Os17  1  0.201669  0.370420  0.186311  1
  Os  Os18  1  0.201669  0.813689  0.629580  1
  Os  Os19  1  0.701484  0.187485  0.812515  1
