# generated using pymatgen
data_CaSmEr4(SiRh2)6
_symmetry_space_group_name_H-M   'P 1'
_cell_length_a   5.56336812
_cell_length_b   5.56447322
_cell_length_c   15.07492400
_cell_angle_alpha   90.00000000
_cell_angle_beta   90.00000000
_cell_angle_gamma   119.97005320
_symmetry_Int_Tables_number   1
_chemical_formula_structural   CaSmEr4(SiRh2)6
_chemical_formula_sum   'Ca1 Sm1 Er4 Si6 Rh12'
_cell_volume   404.27658823
_cell_formula_units_Z   1
loop_
 _symmetry_equiv_pos_site_id
 _symmetry_equiv_pos_as_xyz
  1  'x, y, z'
loop_
 _atom_site_type_symbol
 _atom_site_label
 _atom_site_symmetry_multiplicity
 _atom_site_fract_x
 _atom_site_fract_y
 _atom_site_fract_z
 _atom_site_occupancy
  Ca  Ca0  1  0.333348  0.666678  0.750000  1
  Sm  Sm1  1  0.666665  0.333347  0.250000  1
  Er  Er2  1  0.333294  0.666716  0.538702  1
  Er  Er3  1  0.666707  0.333292  0.463927  1
  Er  Er4  1  0.666707  0.333292  0.036073  1
  Er  Er5  1  0.333294  0.666716  0.961298  1
  Si  Si6  1  0.000044  0.999986  0.250000  1
  Si  Si7  1  0.999995  0.999995  0.750000  1
  Si  Si8  1  0.333304  0.666716  0.250000  1
  Si  Si9  1  0.666702  0.333281  0.750000  1
  Si  Si10  1  0.000001  0.000015  0.000325  1
  Si  Si11  1  0.000001  0.000015  0.499675  1
  Rh  Rh12  1  0.167202  0.334340  0.129285  1
  Rh  Rh13  1  0.833201  0.666485  0.871003  1
  Rh  Rh14  1  0.665644  0.832776  0.129283  1
  Rh  Rh15  1  0.833201  0.666485  0.628997  1
  Rh  Rh16  1  0.333528  0.166799  0.870994  1
  Rh  Rh17  1  0.167202  0.334340  0.370715  1
  Rh  Rh18  1  0.167148  0.832817  0.129258  1
  Rh  Rh19  1  0.333528  0.166799  0.629006  1
  Rh  Rh20  1  0.833247  0.166759  0.871004  1
  Rh  Rh21  1  0.665644  0.832776  0.370717  1
  Rh  Rh22  1  0.833247  0.166759  0.628996  1
  Rh  Rh23  1  0.167148  0.832817  0.370742  1
