# generated using pymatgen
data_Sr4ZnAu17
_symmetry_space_group_name_H-M   'P 1'
_cell_length_a   9.21540055
_cell_length_b   8.92518460
_cell_length_c   8.92518654
_cell_angle_alpha   58.18617027
_cell_angle_beta   58.61603216
_cell_angle_gamma   58.61602474
_symmetry_Int_Tables_number   1
_chemical_formula_structural   Sr4ZnAu17
_chemical_formula_sum   'Sr4 Zn1 Au17'
_cell_volume   500.92166309
_cell_formula_units_Z   1
loop_
 _symmetry_equiv_pos_site_id
 _symmetry_equiv_pos_as_xyz
  1  'x, y, z'
loop_
 _atom_site_type_symbol
 _atom_site_label
 _atom_site_symmetry_multiplicity
 _atom_site_fract_x
 _atom_site_fract_y
 _atom_site_fract_z
 _atom_site_occupancy
  Sr  Sr0  1  0.373411  0.392551  0.423725  1
  Sr  Sr1  1  0.879385  0.925821  0.893268  1
  Sr  Sr2  1  0.620615  0.606732  0.574179  1
  Sr  Sr3  1  0.126589  0.076275  0.107449  1
  Zn  Zn4  1  0.750000  0.569884  0.930116  1
  Au  Au5  1  0.053826  0.243498  0.451255  1
  Au  Au6  1  0.446174  0.048745  0.256502  1
  Au  Au7  1  0.250000  0.432516  0.067484  1
  Au  Au8  1  0.936598  0.755337  0.559063  1
  Au  Au9  1  0.563402  0.940937  0.744663  1
  Au  Au10  1  0.971178  0.332995  0.750206  1
  Au  Au11  1  0.735686  0.000784  0.322255  1
  Au  Au12  1  0.374610  0.699011  0.983871  1
  Au  Au13  1  0.235014  0.822474  0.496564  1
  Au  Au14  1  0.478004  0.242745  0.826108  1
  Au  Au15  1  0.869220  0.482435  0.193733  1
  Au  Au16  1  0.021996  0.673892  0.257255  1
  Au  Au17  1  0.264986  0.003436  0.677526  1
  Au  Au18  1  0.630780  0.306267  0.017565  1
  Au  Au19  1  0.764314  0.177745  0.499216  1
  Au  Au20  1  0.528822  0.749794  0.167005  1
  Au  Au21  1  0.125390  0.516129  0.800989  1
