# generated using pymatgen
data_Tb2ScAlAu5
_symmetry_space_group_name_H-M   'P 1'
_cell_length_a   8.37968916
_cell_length_b   8.37968933
_cell_length_c   13.44068700
_cell_angle_alpha   90.00000000
_cell_angle_beta   90.00000000
_cell_angle_gamma   128.29468040
_symmetry_Int_Tables_number   1
_chemical_formula_structural   Tb2ScAlAu5
_chemical_formula_sum   'Tb8 Sc4 Al4 Au20'
_cell_volume   740.72167552
_cell_formula_units_Z   4
loop_
 _symmetry_equiv_pos_site_id
 _symmetry_equiv_pos_as_xyz
  1  'x, y, z'
loop_
 _atom_site_type_symbol
 _atom_site_label
 _atom_site_symmetry_multiplicity
 _atom_site_fract_x
 _atom_site_fract_y
 _atom_site_fract_z
 _atom_site_occupancy
  Tb  Tb0  1  0.928070  0.071930  0.250000  1
  Tb  Tb1  1  0.071930  0.928070  0.750000  1
  Tb  Tb2  1  0.321736  0.678264  0.250000  1
  Tb  Tb3  1  0.678264  0.321736  0.750000  1
  Tb  Tb4  1  0.881251  0.118749  0.950851  1
  Tb  Tb5  1  0.118749  0.881251  0.049149  1
  Tb  Tb6  1  0.881251  0.118749  0.549149  1
  Tb  Tb7  1  0.118749  0.881251  0.450851  1
  Sc  Sc8  1  0.630479  0.369521  0.465451  1
  Sc  Sc9  1  0.369521  0.630479  0.534549  1
  Sc  Sc10  1  0.630479  0.369521  0.034549  1
  Sc  Sc11  1  0.369521  0.630479  0.965451  1
  Al  Al12  1  0.719178  0.280822  0.250000  1
  Al  Al13  1  0.280822  0.719178  0.750000  1
  Al  Al14  1  0.534006  0.465994  0.250000  1
  Al  Al15  1  0.465994  0.534006  0.750000  1
  Au  Au16  1  0.321168  0.068782  0.250000  1
  Au  Au17  1  0.068782  0.321168  0.750000  1
  Au  Au18  1  0.678832  0.931218  0.750000  1
  Au  Au19  1  0.931218  0.678832  0.250000  1
  Au  Au20  1  0.569841  0.007353  0.398856  1
  Au  Au21  1  0.007353  0.569841  0.601144  1
  Au  Au22  1  0.569841  0.007353  0.101144  1
  Au  Au23  1  0.007353  0.569841  0.898856  1
  Au  Au24  1  0.430159  0.992647  0.601144  1
  Au  Au25  1  0.992647  0.430159  0.398856  1
  Au  Au26  1  0.430159  0.992647  0.898856  1
  Au  Au27  1  0.992647  0.430159  0.101144  1
  Au  Au28  1  0.678138  0.734133  0.397539  1
  Au  Au29  1  0.734133  0.678138  0.602461  1
  Au  Au30  1  0.678138  0.734133  0.102461  1
  Au  Au31  1  0.734133  0.678138  0.897539  1
  Au  Au32  1  0.321862  0.265867  0.602461  1
  Au  Au33  1  0.265867  0.321862  0.397539  1
  Au  Au34  1  0.321862  0.265867  0.897539  1
  Au  Au35  1  0.265867  0.321862  0.102461  1
