# generated using pymatgen
data_Nd2Cu2PPt6
_symmetry_space_group_name_H-M   'P 1'
_cell_length_a   9.17395466
_cell_length_b   9.17395349
_cell_length_c   4.10462300
_cell_angle_alpha   90.00000000
_cell_angle_beta   90.00000000
_cell_angle_gamma   145.52960720
_symmetry_Int_Tables_number   1
_chemical_formula_structural   Nd2Cu2PPt6
_chemical_formula_sum   'Nd2 Cu2 P1 Pt6'
_cell_volume   195.51843525
_cell_formula_units_Z   1
loop_
 _symmetry_equiv_pos_site_id
 _symmetry_equiv_pos_as_xyz
  1  'x, y, z'
loop_
 _atom_site_type_symbol
 _atom_site_label
 _atom_site_symmetry_multiplicity
 _atom_site_fract_x
 _atom_site_fract_y
 _atom_site_fract_z
 _atom_site_occupancy
  Nd  Nd0  1  0.617854  0.373239  0.500000  1
  Nd  Nd1  1  0.373239  0.617854  0.500000  1
  Cu  Cu2  1  0.193939  0.791644  0.500000  1
  Cu  Cu3  1  0.791644  0.193939  0.500000  1
  P  P4  1  0.226395  0.226395  0.000000  1
  Pt  Pt5  1  0.112301  0.885259  0.000000  1
  Pt  Pt6  1  0.885259  0.112301  0.000000  1
  Pt  Pt7  1  0.489203  0.984548  0.000000  1
  Pt  Pt8  1  0.984548  0.489203  0.000000  1
  Pt  Pt9  1  0.000979  0.000979  0.500000  1
  Pt  Pt10  1  0.638236  0.638236  0.000000  1
