# generated using pymatgen
data_HoErGa5Co3
_symmetry_space_group_name_H-M   'P 1'
_cell_length_a   8.30929977
_cell_length_b   8.30929945
_cell_length_c   5.50067011
_cell_angle_alpha   70.68722490
_cell_angle_beta   70.68723088
_cell_angle_gamma   96.83619413
_symmetry_Int_Tables_number   1
_chemical_formula_structural   HoErGa5Co3
_chemical_formula_sum   'Ho2 Er2 Ga10 Co6'
_cell_volume   326.93675325
_cell_formula_units_Z   2
loop_
 _symmetry_equiv_pos_site_id
 _symmetry_equiv_pos_as_xyz
  1  'x, y, z'
loop_
 _atom_site_type_symbol
 _atom_site_label
 _atom_site_symmetry_multiplicity
 _atom_site_fract_x
 _atom_site_fract_y
 _atom_site_fract_z
 _atom_site_occupancy
  Ho  Ho0  1  0.424313  0.130606  0.722148  1
  Ho  Ho1  1  0.130606  0.424313  0.222148  1
  Er  Er2  1  0.575371  0.869322  0.278064  1
  Er  Er3  1  0.869322  0.575371  0.778064  1
  Ga  Ga4  1  0.263948  0.101183  0.317311  1
  Ga  Ga5  1  0.898353  0.735932  0.182979  1
  Ga  Ga6  1  0.735932  0.898353  0.682979  1
  Ga  Ga7  1  0.101183  0.263948  0.817311  1
  Ga  Ga8  1  0.201840  0.797902  0.749818  1
  Ga  Ga9  1  0.797902  0.201840  0.249818  1
  Ga  Ga10  1  0.500366  0.500351  0.749639  1
  Ga  Ga11  1  0.500351  0.500366  0.249639  1
  Ga  Ga12  1  0.798096  0.201652  0.750433  1
  Ga  Ga13  1  0.201652  0.798096  0.250433  1
  Co  Co14  1  0.999953  0.999791  0.750127  1
  Co  Co15  1  0.999791  0.999953  0.250127  1
  Co  Co16  1  0.734346  0.432176  0.416994  1
  Co  Co17  1  0.432176  0.734346  0.916994  1
  Co  Co18  1  0.266218  0.568281  0.582487  1
  Co  Co19  1  0.568281  0.266218  0.082487  1
