# generated using pymatgen
data_Dy20Bi8Ir3Pt
_symmetry_space_group_name_H-M   'P 1'
_cell_length_a   8.02904500
_cell_length_b   9.00730600
_cell_length_c   12.49936001
_cell_angle_alpha   90.00000000
_cell_angle_beta   90.00387182
_cell_angle_gamma   90.00000000
_symmetry_Int_Tables_number   1
_chemical_formula_structural   Dy20Bi8Ir3Pt
_chemical_formula_sum   'Dy20 Bi8 Ir3 Pt1'
_cell_volume   903.95452916
_cell_formula_units_Z   1
loop_
 _symmetry_equiv_pos_site_id
 _symmetry_equiv_pos_as_xyz
  1  'x, y, z'
loop_
 _atom_site_type_symbol
 _atom_site_label
 _atom_site_symmetry_multiplicity
 _atom_site_fract_x
 _atom_site_fract_y
 _atom_site_fract_z
 _atom_site_occupancy
  Dy  Dy0  1  0.841598  0.750000  0.794041  1
  Dy  Dy1  1  0.158708  0.250000  0.206379  1
  Dy  Dy2  1  0.340600  0.250000  0.707120  1
  Dy  Dy3  1  0.661069  0.750000  0.290583  1
  Dy  Dy4  1  0.374421  0.750000  0.695887  1
  Dy  Dy5  1  0.623329  0.250000  0.306317  1
  Dy  Dy6  1  0.877161  0.250000  0.806290  1
  Dy  Dy7  1  0.123333  0.750000  0.193861  1
  Dy  Dy8  1  0.949359  0.750000  0.500881  1
  Dy  Dy9  1  0.053105  0.250000  0.499180  1
  Dy  Dy10  1  0.446039  0.250000  0.998727  1
  Dy  Dy11  1  0.553582  0.750000  0.000878  1
  Dy  Dy12  1  0.677074  0.046129  0.566710  1
  Dy  Dy13  1  0.321777  0.960152  0.432940  1
  Dy  Dy14  1  0.175949  0.957419  0.934109  1
  Dy  Dy15  1  0.321777  0.539848  0.432940  1
  Dy  Dy16  1  0.823841  0.042300  0.066038  1
  Dy  Dy17  1  0.677074  0.453871  0.566710  1
  Dy  Dy18  1  0.823841  0.457700  0.066038  1
  Dy  Dy19  1  0.175949  0.542581  0.934109  1
  Bi  Bi20  1  0.568678  0.491064  0.827001  1
  Bi  Bi21  1  0.431431  0.509101  0.172830  1
  Bi  Bi22  1  0.068979  0.509326  0.672381  1
  Bi  Bi23  1  0.431431  0.990899  0.172830  1
  Bi  Bi24  1  0.930722  0.490927  0.327552  1
  Bi  Bi25  1  0.568678  0.008936  0.827001  1
  Bi  Bi26  1  0.930722  0.009073  0.327552  1
  Bi  Bi27  1  0.068979  0.990674  0.672381  1
  Ir  Ir28  1  0.429522  0.250000  0.490852  1
  Ir  Ir29  1  0.070799  0.250000  0.990784  1
  Ir  Ir30  1  0.929187  0.750000  0.009511  1
  Pt  Pt31  1  0.571285  0.750000  0.509587  1
