# generated using pymatgen
data_Tb7Co5Sn23Ru
_symmetry_space_group_name_H-M   'P 1'
_cell_length_a   9.76328420
_cell_length_b   9.76328366
_cell_length_c   9.98014886
_cell_angle_alpha   90.18756793
_cell_angle_beta   89.81243004
_cell_angle_gamma   119.94467082
_symmetry_Int_Tables_number   1
_chemical_formula_structural   Tb7Co5Sn23Ru
_chemical_formula_sum   'Tb7 Co5 Sn23 Ru1'
_cell_volume   824.32457770
_cell_formula_units_Z   1
loop_
 _symmetry_equiv_pos_site_id
 _symmetry_equiv_pos_as_xyz
  1  'x, y, z'
loop_
 _atom_site_type_symbol
 _atom_site_label
 _atom_site_symmetry_multiplicity
 _atom_site_fract_x
 _atom_site_fract_y
 _atom_site_fract_z
 _atom_site_occupancy
  Tb  Tb0  1  0.997086  0.002914  0.002850  1
  Tb  Tb1  1  0.479134  0.520866  0.306675  1
  Tb  Tb2  1  0.521176  0.478824  0.694292  1
  Tb  Tb3  1  0.479690  0.958192  0.305912  1
  Tb  Tb4  1  0.520299  0.042375  0.694484  1
  Tb  Tb5  1  0.041808  0.520310  0.305912  1
  Tb  Tb6  1  0.957625  0.479701  0.694484  1
  Co  Co7  1  0.167160  0.832840  0.804416  1
  Co  Co8  1  0.832520  0.664196  0.195696  1
  Co  Co9  1  0.169395  0.334437  0.801472  1
  Co  Co10  1  0.335804  0.167480  0.195696  1
  Co  Co11  1  0.665563  0.830605  0.801472  1
  Sn  Sn12  1  0.345041  0.999230  0.000091  1
  Sn  Sn13  1  0.649408  0.995918  0.995307  1
  Sn  Sn14  1  0.004082  0.350592  0.995307  1
  Sn  Sn15  1  0.000770  0.654959  0.000091  1
  Sn  Sn16  1  0.653159  0.653481  0.999484  1
  Sn  Sn17  1  0.346519  0.346841  0.999484  1
  Sn  Sn18  1  0.333407  0.666593  0.816322  1
  Sn  Sn19  1  0.665355  0.334645  0.182569  1
  Sn  Sn20  1  0.999092  0.000908  0.501869  1
  Sn  Sn21  1  0.779879  0.220121  0.456518  1
  Sn  Sn22  1  0.218404  0.781596  0.550145  1
  Sn  Sn23  1  0.781143  0.562911  0.450518  1
  Sn  Sn24  1  0.218582  0.437283  0.549426  1
  Sn  Sn25  1  0.437089  0.218857  0.450518  1
  Sn  Sn26  1  0.562717  0.781418  0.549426  1
  Sn  Sn27  1  0.333613  0.666387  0.117441  1
  Sn  Sn28  1  0.666245  0.333755  0.881348  1
  Sn  Sn29  1  0.116939  0.883061  0.273543  1
  Sn  Sn30  1  0.882303  0.117697  0.726190  1
  Sn  Sn31  1  0.123269  0.235860  0.276524  1
  Sn  Sn32  1  0.883476  0.765283  0.725537  1
  Sn  Sn33  1  0.764140  0.876731  0.276524  1
  Sn  Sn34  1  0.234717  0.116524  0.725537  1
  Ru  Ru35  1  0.833389  0.166611  0.196917  1
