# generated using pymatgen
data_Ca20CdHg11
_symmetry_space_group_name_H-M   'P 1'
_cell_length_a   8.22030800
_cell_length_b   8.22030800
_cell_length_c   14.86694300
_cell_angle_alpha   90.00000000
_cell_angle_beta   90.00000000
_cell_angle_gamma   90.00000000
_symmetry_Int_Tables_number   1
_chemical_formula_structural   Ca20CdHg11
_chemical_formula_sum   'Ca20 Cd1 Hg11'
_cell_volume   1004.61083187
_cell_formula_units_Z   1
loop_
 _symmetry_equiv_pos_site_id
 _symmetry_equiv_pos_as_xyz
  1  'x, y, z'
loop_
 _atom_site_type_symbol
 _atom_site_label
 _atom_site_symmetry_multiplicity
 _atom_site_fract_x
 _atom_site_fract_y
 _atom_site_fract_z
 _atom_site_occupancy
  Ca  Ca0  1  0.663327  0.165147  0.101501  1
  Ca  Ca1  1  0.165440  0.664526  0.601916  1
  Ca  Ca2  1  0.336673  0.834853  0.101501  1
  Ca  Ca3  1  0.834560  0.335474  0.601916  1
  Ca  Ca4  1  0.834853  0.663327  0.101501  1
  Ca  Ca5  1  0.335474  0.165440  0.601916  1
  Ca  Ca6  1  0.165147  0.336673  0.101501  1
  Ca  Ca7  1  0.664526  0.834560  0.601916  1
  Ca  Ca8  1  0.834853  0.336673  0.898499  1
  Ca  Ca9  1  0.335474  0.834560  0.398084  1
  Ca  Ca10  1  0.165147  0.663327  0.898499  1
  Ca  Ca11  1  0.664526  0.165440  0.398084  1
  Ca  Ca12  1  0.663327  0.834853  0.898499  1
  Ca  Ca13  1  0.165440  0.335474  0.398084  1
  Ca  Ca14  1  0.336673  0.165147  0.898499  1
  Ca  Ca15  1  0.834560  0.664526  0.398084  1
  Ca  Ca16  1  0.500000  0.500000  0.752459  1
  Ca  Ca17  1  0.000000  0.000000  0.250008  1
  Ca  Ca18  1  0.000000  0.000000  0.749992  1
  Ca  Ca19  1  0.500000  0.500000  0.247541  1
  Cd  Cd20  1  0.000000  0.000000  0.000000  1
  Hg  Hg21  1  0.500000  0.500000  0.500000  1
  Hg  Hg22  1  0.500000  0.500000  0.000000  1
  Hg  Hg23  1  0.000000  0.000000  0.500000  1
  Hg  Hg24  1  0.634369  0.134375  0.750577  1
  Hg  Hg25  1  0.134375  0.634369  0.249423  1
  Hg  Hg26  1  0.865625  0.365631  0.249423  1
  Hg  Hg27  1  0.365631  0.865625  0.750577  1
  Hg  Hg28  1  0.865625  0.634369  0.750577  1
  Hg  Hg29  1  0.365631  0.134375  0.249423  1
  Hg  Hg30  1  0.134375  0.365631  0.750577  1
  Hg  Hg31  1  0.634369  0.865625  0.249423  1
