# generated using pymatgen
data_Er2SnRh5
_symmetry_space_group_name_H-M   'P 1'
_cell_length_a   5.69947718
_cell_length_b   5.69947652
_cell_length_c   8.55819800
_cell_angle_alpha   90.00000000
_cell_angle_beta   90.00000000
_cell_angle_gamma   97.21658155
_symmetry_Int_Tables_number   1
_chemical_formula_structural   Er2SnRh5
_chemical_formula_sum   'Er4 Sn2 Rh10'
_cell_volume   275.80256861
_cell_formula_units_Z   2
loop_
 _symmetry_equiv_pos_site_id
 _symmetry_equiv_pos_as_xyz
  1  'x, y, z'
loop_
 _atom_site_type_symbol
 _atom_site_label
 _atom_site_symmetry_multiplicity
 _atom_site_fract_x
 _atom_site_fract_y
 _atom_site_fract_z
 _atom_site_occupancy
  Er  Er0  1  0.780633  0.219367  0.500000  1
  Er  Er1  1  0.219367  0.780633  0.000000  1
  Er  Er2  1  0.219367  0.780633  0.500000  1
  Er  Er3  1  0.780633  0.219367  0.000000  1
  Sn  Sn4  1  0.500830  0.500830  0.750000  1
  Sn  Sn5  1  0.499170  0.499170  0.250000  1
  Rh  Rh6  1  0.724257  0.724257  0.000451  1
  Rh  Rh7  1  0.724257  0.724257  0.499549  1
  Rh  Rh8  1  0.275743  0.275743  0.999549  1
  Rh  Rh9  1  0.275743  0.275743  0.500451  1
  Rh  Rh10  1  0.500010  0.000088  0.750000  1
  Rh  Rh11  1  0.499990  0.999912  0.250000  1
  Rh  Rh12  1  0.999992  0.999992  0.250000  1
  Rh  Rh13  1  0.000008  0.000008  0.750000  1
  Rh  Rh14  1  0.000088  0.500010  0.750000  1
  Rh  Rh15  1  0.999912  0.499990  0.250000  1
