# generated using pymatgen
data_Hf9TaReW2Se
_symmetry_space_group_name_H-M   'P 1'
_cell_length_a   8.71341200
_cell_length_b   8.77165957
_cell_length_c   8.68377100
_cell_angle_alpha   90.00000000
_cell_angle_beta   90.00000000
_cell_angle_gamma   119.78426561
_symmetry_Int_Tables_number   1
_chemical_formula_structural   Hf9TaReW2Se
_chemical_formula_sum   'Hf18 Ta2 Re2 W4 Se2'
_cell_volume   576.03519378
_cell_formula_units_Z   2
loop_
 _symmetry_equiv_pos_site_id
 _symmetry_equiv_pos_as_xyz
  1  'x, y, z'
loop_
 _atom_site_type_symbol
 _atom_site_label
 _atom_site_symmetry_multiplicity
 _atom_site_fract_x
 _atom_site_fract_y
 _atom_site_fract_z
 _atom_site_occupancy
  Hf  Hf0  1  0.193221  0.386431  0.050635  1
  Hf  Hf1  1  0.806779  0.613569  0.550635  1
  Hf  Hf2  1  0.614084  0.807922  0.047425  1
  Hf  Hf3  1  0.193841  0.807938  0.047384  1
  Hf  Hf4  1  0.806159  0.192062  0.547384  1
  Hf  Hf5  1  0.385916  0.192078  0.547425  1
  Hf  Hf6  1  0.806779  0.613569  0.949365  1
  Hf  Hf7  1  0.806159  0.192062  0.952616  1
  Hf  Hf8  1  0.385916  0.192078  0.952575  1
  Hf  Hf9  1  0.614084  0.807922  0.452575  1
  Hf  Hf10  1  0.193841  0.807938  0.452616  1
  Hf  Hf11  1  0.193221  0.386431  0.449365  1
  Hf  Hf12  1  0.541793  0.083580  0.250000  1
  Hf  Hf13  1  0.458207  0.916420  0.750000  1
  Hf  Hf14  1  0.916493  0.456976  0.250000  1
  Hf  Hf15  1  0.540511  0.456941  0.250000  1
  Hf  Hf16  1  0.459489  0.543059  0.750000  1
  Hf  Hf17  1  0.083507  0.543024  0.750000  1
  Ta  Ta18  1  0.890533  0.781068  0.250000  1
  Ta  Ta19  1  0.109467  0.218932  0.750000  1
  Re  Re20  1  0.000000  0.000000  0.000000  1
  Re  Re21  1  0.000000  0.000000  0.500000  1
  W  W22  1  0.219489  0.110421  0.250000  1
  W  W23  1  0.890889  0.110417  0.250000  1
  W  W24  1  0.109111  0.889583  0.750000  1
  W  W25  1  0.780511  0.889579  0.750000  1
  Se  Se26  1  0.333714  0.667620  0.250000  1
  Se  Se27  1  0.666286  0.332380  0.750000  1
