# generated using pymatgen
data_La4ReCl4
_symmetry_space_group_name_H-M   'P 1'
_cell_length_a   12.91552900
_cell_length_b   12.91552900
_cell_length_c   6.64179800
_cell_angle_alpha   90.00000000
_cell_angle_beta   90.00000000
_cell_angle_gamma   90.00000000
_symmetry_Int_Tables_number   1
_chemical_formula_structural   La4ReCl4
_chemical_formula_sum   'La16 Re4 Cl16'
_cell_volume   1107.92423126
_cell_formula_units_Z   4
loop_
 _symmetry_equiv_pos_site_id
 _symmetry_equiv_pos_as_xyz
  1  'x, y, z'
loop_
 _atom_site_type_symbol
 _atom_site_label
 _atom_site_symmetry_multiplicity
 _atom_site_fract_x
 _atom_site_fract_y
 _atom_site_fract_z
 _atom_site_occupancy
  La  La0  1  0.181366  0.078139  0.007123  1
  La  La1  1  0.578139  0.318634  0.007123  1
  La  La2  1  0.421861  0.681366  0.007123  1
  La  La3  1  0.818634  0.921862  0.007123  1
  La  La4  1  0.078139  0.181366  0.492878  1
  La  La5  1  0.681366  0.421861  0.492878  1
  La  La6  1  0.318634  0.578139  0.492878  1
  La  La7  1  0.921862  0.818634  0.492878  1
  La  La8  1  0.818634  0.078139  0.507122  1
  La  La9  1  0.421861  0.318634  0.507122  1
  La  La10  1  0.578139  0.681366  0.507122  1
  La  La11  1  0.181366  0.921862  0.507122  1
  La  La12  1  0.921862  0.181366  0.992877  1
  La  La13  1  0.318634  0.421861  0.992877  1
  La  La14  1  0.681366  0.578139  0.992877  1
  La  La15  1  0.078139  0.818634  0.992877  1
  Re  Re16  1  0.000000  0.000000  0.250000  1
  Re  Re17  1  0.500000  0.500000  0.250000  1
  Re  Re18  1  0.000000  0.000000  0.749999  1
  Re  Re19  1  0.500000  0.500000  0.749999  1
  Cl  Cl20  1  0.113247  0.298024  0.082003  1
  Cl  Cl21  1  0.798024  0.386753  0.082003  1
  Cl  Cl22  1  0.201977  0.613247  0.082003  1
  Cl  Cl23  1  0.886753  0.701977  0.082003  1
  Cl  Cl24  1  0.298024  0.113247  0.417996  1
  Cl  Cl25  1  0.613247  0.201977  0.417996  1
  Cl  Cl26  1  0.386753  0.798024  0.417996  1
  Cl  Cl27  1  0.701977  0.886753  0.417996  1
  Cl  Cl28  1  0.886753  0.298024  0.582004  1
  Cl  Cl29  1  0.201977  0.386753  0.582004  1
  Cl  Cl30  1  0.798024  0.613247  0.582004  1
  Cl  Cl31  1  0.113247  0.701977  0.582004  1
  Cl  Cl32  1  0.701977  0.113247  0.917997  1
  Cl  Cl33  1  0.386753  0.201977  0.917997  1
  Cl  Cl34  1  0.613247  0.798024  0.917997  1
  Cl  Cl35  1  0.298024  0.886753  0.917997  1
