# generated using pymatgen
data_Tm5Mg3(P3Ir4)4
_symmetry_space_group_name_H-M   'P 1'
_cell_length_a   12.78907100
_cell_length_b   12.78907042
_cell_length_c   3.96715500
_cell_angle_alpha   90.00000000
_cell_angle_beta   90.00000000
_cell_angle_gamma   119.99999890
_symmetry_Int_Tables_number   1
_chemical_formula_structural   Tm5Mg3(P3Ir4)4
_chemical_formula_sum   'Tm5 Mg3 P12 Ir16'
_cell_volume   561.93719953
_cell_formula_units_Z   1
loop_
 _symmetry_equiv_pos_site_id
 _symmetry_equiv_pos_as_xyz
  1  'x, y, z'
loop_
 _atom_site_type_symbol
 _atom_site_label
 _atom_site_symmetry_multiplicity
 _atom_site_fract_x
 _atom_site_fract_y
 _atom_site_fract_z
 _atom_site_occupancy
  Tm  Tm0  1  0.333333  0.666667  0.500000  1
  Tm  Tm1  1  0.666667  0.333333  0.500000  1
  Tm  Tm2  1  0.000000  0.809607  0.000000  1
  Tm  Tm3  1  0.190393  0.190393  0.000000  1
  Tm  Tm4  1  0.809607  0.000000  0.000000  1
  Mg  Mg5  1  0.000000  0.445042  0.500000  1
  Mg  Mg6  1  0.554958  0.554958  0.500000  1
  Mg  Mg7  1  0.445042  0.000000  0.500000  1
  P  P8  1  0.000000  0.642138  0.500000  1
  P  P9  1  0.357862  0.357862  0.500000  1
  P  P10  1  0.642138  0.000000  0.500000  1
  P  P11  1  0.515581  0.688192  0.000000  1
  P  P12  1  0.311808  0.827389  0.000000  1
  P  P13  1  0.172611  0.484419  0.000000  1
  P  P14  1  0.484419  0.172611  0.000000  1
  P  P15  1  0.688192  0.515581  0.000000  1
  P  P16  1  0.827389  0.311808  0.000000  1
  P  P17  1  0.000000  0.176757  0.500000  1
  P  P18  1  0.823243  0.823243  0.500000  1
  P  P19  1  0.176757  0.000000  0.500000  1
  Ir  Ir20  1  0.508090  0.867366  0.000000  1
  Ir  Ir21  1  0.132634  0.640726  0.000000  1
  Ir  Ir22  1  0.359274  0.491910  0.000000  1
  Ir  Ir23  1  0.491910  0.359274  0.000000  1
  Ir  Ir24  1  0.867366  0.508090  0.000000  1
  Ir  Ir25  1  0.640726  0.132634  0.000000  1
  Ir  Ir26  1  0.000000  0.278723  0.000000  1
  Ir  Ir27  1  0.721277  0.721277  0.000000  1
  Ir  Ir28  1  0.278723  0.000000  0.000000  1
  Ir  Ir29  1  0.628731  0.807330  0.500000  1
  Ir  Ir30  1  0.192670  0.821401  0.500000  1
  Ir  Ir31  1  0.178599  0.371269  0.500000  1
  Ir  Ir32  1  0.371269  0.178599  0.500000  1
  Ir  Ir33  1  0.807330  0.628731  0.500000  1
  Ir  Ir34  1  0.821401  0.192670  0.500000  1
  Ir  Ir35  1  0.000000  0.000000  0.500000  1
