# generated using pymatgen
data_Ca3Bi(Ru2O7)2
_symmetry_space_group_name_H-M   'P 1'
_cell_length_a   7.27525305
_cell_length_b   7.27525235
_cell_length_c   7.27525291
_cell_angle_alpha   60.21787701
_cell_angle_beta   60.21788106
_cell_angle_gamma   60.21787860
_symmetry_Int_Tables_number   1
_chemical_formula_structural   Ca3Bi(Ru2O7)2
_chemical_formula_sum   'Ca3 Bi1 Ru4 O14'
_cell_volume   273.63168431
_cell_formula_units_Z   1
loop_
 _symmetry_equiv_pos_site_id
 _symmetry_equiv_pos_as_xyz
  1  'x, y, z'
loop_
 _atom_site_type_symbol
 _atom_site_label
 _atom_site_symmetry_multiplicity
 _atom_site_fract_x
 _atom_site_fract_y
 _atom_site_fract_z
 _atom_site_occupancy
  Ca  Ca0  1  0.000000  0.500000  0.000000  1
  Ca  Ca1  1  0.500000  0.000000  0.000000  1
  Ca  Ca2  1  0.000000  0.000000  0.500000  1
  Bi  Bi3  1  0.000000  0.000000  0.000000  1
  Ru  Ru4  1  0.500000  0.500000  0.500000  1
  Ru  Ru5  1  0.500000  0.000000  0.500000  1
  Ru  Ru6  1  0.000000  0.500000  0.500000  1
  Ru  Ru7  1  0.500000  0.500000  0.000000  1
  O  O8  1  0.431004  0.431004  0.821355  1
  O  O9  1  0.821355  0.431004  0.431004  1
  O  O10  1  0.431004  0.821355  0.431004  1
  O  O11  1  0.827791  0.827791  0.415703  1
  O  O12  1  0.415703  0.827791  0.827791  1
  O  O13  1  0.827791  0.415703  0.827791  1
  O  O14  1  0.568996  0.568996  0.178645  1
  O  O15  1  0.178645  0.568996  0.568996  1
  O  O16  1  0.568996  0.178645  0.568996  1
  O  O17  1  0.172209  0.172209  0.584297  1
  O  O18  1  0.584297  0.172209  0.172209  1
  O  O19  1  0.172209  0.584297  0.172209  1
  O  O20  1  0.123947  0.123947  0.123947  1
  O  O21  1  0.876053  0.876053  0.876053  1
