# generated using pymatgen
data_Ba6SmU(PbSe6)2
_symmetry_space_group_name_H-M   'P 1'
_cell_length_a   8.94064213
_cell_length_b   8.94064023
_cell_length_c   8.94064300
_cell_angle_alpha   91.87933735
_cell_angle_beta   91.87934336
_cell_angle_gamma   91.87934619
_symmetry_Int_Tables_number   1
_chemical_formula_structural   Ba6SmU(PbSe6)2
_chemical_formula_sum   'Ba6 Sm1 U1 Pb2 Se12'
_cell_volume   713.49175357
_cell_formula_units_Z   1
loop_
 _symmetry_equiv_pos_site_id
 _symmetry_equiv_pos_as_xyz
  1  'x, y, z'
loop_
 _atom_site_type_symbol
 _atom_site_label
 _atom_site_symmetry_multiplicity
 _atom_site_fract_x
 _atom_site_fract_y
 _atom_site_fract_z
 _atom_site_occupancy
  Ba  Ba0  1  0.868865  0.624467  0.254749  1
  Ba  Ba1  1  0.254749  0.868865  0.624467  1
  Ba  Ba2  1  0.624467  0.254749  0.868865  1
  Ba  Ba3  1  0.745251  0.131135  0.375533  1
  Ba  Ba4  1  0.375533  0.745251  0.131135  1
  Ba  Ba5  1  0.131135  0.375533  0.745251  1
  Sm  Sm6  1  0.500000  0.500000  0.500000  1
  U  U7  1  0.000000  0.000000  0.000000  1
  Pb  Pb8  1  0.257216  0.257216  0.257216  1
  Pb  Pb9  1  0.742784  0.742784  0.742784  1
  Se  Se10  1  0.193282  0.556198  0.410664  1
  Se  Se11  1  0.410664  0.193282  0.556198  1
  Se  Se12  1  0.556198  0.410664  0.193282  1
  Se  Se13  1  0.924656  0.052590  0.704496  1
  Se  Se14  1  0.704496  0.924656  0.052590  1
  Se  Se15  1  0.052590  0.704496  0.924656  1
  Se  Se16  1  0.806718  0.443802  0.589336  1
  Se  Se17  1  0.589336  0.806718  0.443802  1
  Se  Se18  1  0.443802  0.589336  0.806718  1
  Se  Se19  1  0.075344  0.947410  0.295504  1
  Se  Se20  1  0.295504  0.075344  0.947410  1
  Se  Se21  1  0.947410  0.295504  0.075344  1
