# generated using pymatgen
data_Er10CoHg3
_symmetry_space_group_name_H-M   'P 1'
_cell_length_a   9.51961500
_cell_length_b   9.51961525
_cell_length_c   9.44026600
_cell_angle_alpha   90.00000000
_cell_angle_beta   90.00000000
_cell_angle_gamma   119.99999566
_symmetry_Int_Tables_number   1
_chemical_formula_structural   Er10CoHg3
_chemical_formula_sum   'Er20 Co2 Hg6'
_cell_volume   740.88988051
_cell_formula_units_Z   2
loop_
 _symmetry_equiv_pos_site_id
 _symmetry_equiv_pos_as_xyz
  1  'x, y, z'
loop_
 _atom_site_type_symbol
 _atom_site_label
 _atom_site_symmetry_multiplicity
 _atom_site_fract_x
 _atom_site_fract_y
 _atom_site_fract_z
 _atom_site_occupancy
  Er  Er0  1  0.000000  0.000000  0.500000  1
  Er  Er1  1  0.000000  0.000000  0.000000  1
  Er  Er2  1  0.542017  0.457983  0.250000  1
  Er  Er3  1  0.542017  0.084035  0.250000  1
  Er  Er4  1  0.915965  0.457983  0.250000  1
  Er  Er5  1  0.457983  0.542017  0.750000  1
  Er  Er6  1  0.457983  0.915965  0.750000  1
  Er  Er7  1  0.084035  0.542017  0.750000  1
  Er  Er8  1  0.211170  0.788830  0.435385  1
  Er  Er9  1  0.211170  0.422341  0.435385  1
  Er  Er10  1  0.577659  0.788830  0.435385  1
  Er  Er11  1  0.788830  0.211170  0.564615  1
  Er  Er12  1  0.788830  0.577659  0.564615  1
  Er  Er13  1  0.422341  0.211170  0.564615  1
  Er  Er14  1  0.788830  0.211170  0.935385  1
  Er  Er15  1  0.788830  0.577659  0.935385  1
  Er  Er16  1  0.422341  0.211170  0.935385  1
  Er  Er17  1  0.211170  0.788830  0.064615  1
  Er  Er18  1  0.211170  0.422341  0.064615  1
  Er  Er19  1  0.577659  0.788830  0.064615  1
  Co  Co20  1  0.333333  0.666667  0.250000  1
  Co  Co21  1  0.666667  0.333333  0.750000  1
  Hg  Hg22  1  0.880093  0.119907  0.250000  1
  Hg  Hg23  1  0.880093  0.760187  0.250000  1
  Hg  Hg24  1  0.239813  0.119907  0.250000  1
  Hg  Hg25  1  0.119907  0.880093  0.750000  1
  Hg  Hg26  1  0.119907  0.239813  0.750000  1
  Hg  Hg27  1  0.760187  0.880093  0.750000  1
