# generated using pymatgen
data_Sr8Fe2CoN8
_symmetry_space_group_name_H-M   'P 1'
_cell_length_a   9.75185366
_cell_length_b   9.75185363
_cell_length_c   7.45376949
_cell_angle_alpha   75.17623219
_cell_angle_beta   75.17623479
_cell_angle_gamma   31.95299836
_symmetry_Int_Tables_number   1
_chemical_formula_structural   Sr8Fe2CoN8
_chemical_formula_sum   'Sr8 Fe2 Co1 N8'
_cell_volume   361.60844649
_cell_formula_units_Z   1
loop_
 _symmetry_equiv_pos_site_id
 _symmetry_equiv_pos_as_xyz
  1  'x, y, z'
loop_
 _atom_site_type_symbol
 _atom_site_label
 _atom_site_symmetry_multiplicity
 _atom_site_fract_x
 _atom_site_fract_y
 _atom_site_fract_z
 _atom_site_occupancy
  Sr  Sr0  1  0.404360  0.404360  0.961642  1
  Sr  Sr1  1  0.334183  0.334183  0.471210  1
  Sr  Sr2  1  0.970790  0.970790  0.266905  1
  Sr  Sr3  1  0.200335  0.200335  0.193667  1
  Sr  Sr4  1  0.799665  0.799665  0.806333  1
  Sr  Sr5  1  0.029210  0.029210  0.733095  1
  Sr  Sr6  1  0.665817  0.665817  0.528790  1
  Sr  Sr7  1  0.595640  0.595640  0.038358  1
  Fe  Fe8  1  0.812468  0.812468  0.206103  1
  Fe  Fe9  1  0.187532  0.187532  0.793897  1
  Co  Co10  1  0.500000  0.500000  0.500000  1
  N  N11  1  0.276034  0.276034  0.831817  1
  N  N12  1  0.822257  0.822257  0.431483  1
  N  N13  1  0.107711  0.107711  0.984304  1
  N  N14  1  0.892289  0.892289  0.015696  1
  N  N15  1  0.177743  0.177743  0.568517  1
  N  N16  1  0.474374  0.474374  0.284609  1
  N  N17  1  0.723966  0.723966  0.168183  1
  N  N18  1  0.525626  0.525626  0.715391  1
