# generated using pymatgen
data_Dy7YRe(TcB8)3
_symmetry_space_group_name_H-M   'P 1'
_cell_length_a   3.69289100
_cell_length_b   9.17905591
_cell_length_c   11.56482101
_cell_angle_alpha   90.02791325
_cell_angle_beta   90.00000000
_cell_angle_gamma   90.00000000
_symmetry_Int_Tables_number   1
_chemical_formula_structural   Dy7YRe(TcB8)3
_chemical_formula_sum   'Dy7 Y1 Re1 Tc3 B24'
_cell_volume   392.01561687
_cell_formula_units_Z   1
loop_
 _symmetry_equiv_pos_site_id
 _symmetry_equiv_pos_as_xyz
  1  'x, y, z'
loop_
 _atom_site_type_symbol
 _atom_site_label
 _atom_site_symmetry_multiplicity
 _atom_site_fract_x
 _atom_site_fract_y
 _atom_site_fract_z
 _atom_site_occupancy
  Dy  Dy0  1  0.000000  0.676155  0.585858  1
  Dy  Dy1  1  0.000000  0.823922  0.085994  1
  Dy  Dy2  1  0.000000  0.176266  0.914291  1
  Dy  Dy3  1  0.000000  0.942499  0.369024  1
  Dy  Dy4  1  0.000000  0.058003  0.630004  1
  Dy  Dy5  1  0.000000  0.442522  0.130917  1
  Dy  Dy6  1  0.000000  0.556364  0.869630  1
  Y  Y7  1  0.000000  0.324138  0.414155  1
  Re  Re8  1  0.000000  0.861508  0.820694  1
  Tc  Tc9  1  0.000000  0.638731  0.320636  1
  Tc  Tc10  1  0.000000  0.361451  0.679368  1
  Tc  Tc11  1  0.000000  0.138574  0.179349  1
  B  B12  1  0.500000  0.553667  0.432945  1
  B  B13  1  0.500000  0.446873  0.567254  1
  B  B14  1  0.500000  0.053426  0.067207  1
  B  B15  1  0.500000  0.946769  0.933082  1
  B  B16  1  0.500000  0.748765  0.418414  1
  B  B17  1  0.500000  0.251548  0.581607  1
  B  B18  1  0.500000  0.248609  0.081595  1
  B  B19  1  0.500000  0.750939  0.918576  1
  B  B20  1  0.500000  0.791599  0.265184  1
  B  B21  1  0.500000  0.208355  0.734639  1
  B  B22  1  0.500000  0.291579  0.234773  1
  B  B23  1  0.500000  0.708039  0.765317  1
  B  B24  1  0.500000  0.630813  0.185726  1
  B  B25  1  0.500000  0.368918  0.814301  1
  B  B26  1  0.500000  0.130739  0.314269  1
  B  B27  1  0.500000  0.869347  0.685506  1
  B  B28  1  0.500000  0.982451  0.211532  1
  B  B29  1  0.500000  0.017854  0.788199  1
  B  B30  1  0.500000  0.482608  0.288385  1
  B  B31  1  0.500000  0.517479  0.711733  1
  B  B32  1  0.500000  0.600098  0.028137  1
  B  B33  1  0.500000  0.399244  0.972132  1
  B  B34  1  0.500000  0.100253  0.471699  1
  B  B35  1  0.500000  0.899894  0.527866  1
