# generated using pymatgen
data_LaThSn5Ir3
_symmetry_space_group_name_H-M   'P 1'
_cell_length_a   13.60587200
_cell_length_b   13.60587186
_cell_length_c   7.32166500
_cell_angle_alpha   90.00000000
_cell_angle_beta   90.00000000
_cell_angle_gamma   161.00388625
_symmetry_Int_Tables_number   1
_chemical_formula_structural   LaThSn5Ir3
_chemical_formula_sum   'La2 Th2 Sn10 Ir6'
_cell_volume   441.18320293
_cell_formula_units_Z   2
loop_
 _symmetry_equiv_pos_site_id
 _symmetry_equiv_pos_as_xyz
  1  'x, y, z'
loop_
 _atom_site_type_symbol
 _atom_site_label
 _atom_site_symmetry_multiplicity
 _atom_site_fract_x
 _atom_site_fract_y
 _atom_site_fract_z
 _atom_site_occupancy
  La  La0  1  0.172949  0.827051  0.756355  1
  La  La1  1  0.827051  0.172949  0.256355  1
  Th  Th2  1  0.475372  0.524628  0.735465  1
  Th  Th3  1  0.524628  0.475372  0.235465  1
  Sn  Sn4  1  0.877922  0.122078  0.734766  1
  Sn  Sn5  1  0.122078  0.877922  0.234766  1
  Sn  Sn6  1  0.705000  0.295000  0.050960  1
  Sn  Sn7  1  0.295000  0.705000  0.550960  1
  Sn  Sn8  1  0.597760  0.402240  0.608955  1
  Sn  Sn9  1  0.402240  0.597760  0.108955  1
  Sn  Sn10  1  0.950447  0.049553  0.394801  1
  Sn  Sn11  1  0.049553  0.950447  0.894801  1
  Sn  Sn12  1  0.290101  0.709899  0.976258  1
  Sn  Sn13  1  0.709899  0.290101  0.476258  1
  Ir  Ir14  1  0.049128  0.950872  0.515504  1
  Ir  Ir15  1  0.950872  0.049128  0.015504  1
  Ir  Ir16  1  0.776569  0.223431  0.766084  1
  Ir  Ir17  1  0.223431  0.776569  0.266084  1
  Ir  Ir18  1  0.396037  0.603963  0.488851  1
  Ir  Ir19  1  0.603963  0.396037  0.988851  1
