# generated using pymatgen
data_Li4Yb2Lu3Pt4
_symmetry_space_group_name_H-M   'P 1'
_cell_length_a   8.15136456
_cell_length_b   8.15223948
_cell_length_c   8.13339894
_cell_angle_alpha   93.90297569
_cell_angle_beta   93.87609450
_cell_angle_gamma   149.81319836
_symmetry_Int_Tables_number   1
_chemical_formula_structural   Li4Yb2Lu3Pt4
_chemical_formula_sum   'Li4 Yb2 Lu3 Pt4'
_cell_volume   262.38125809
_cell_formula_units_Z   1
loop_
 _symmetry_equiv_pos_site_id
 _symmetry_equiv_pos_as_xyz
  1  'x, y, z'
loop_
 _atom_site_type_symbol
 _atom_site_label
 _atom_site_symmetry_multiplicity
 _atom_site_fract_x
 _atom_site_fract_y
 _atom_site_fract_z
 _atom_site_occupancy
  Li  Li0  1  0.605829  0.077327  0.683153  1
  Li  Li1  1  0.922670  0.604860  0.527527  1
  Li  Li2  1  0.078428  0.394677  0.473156  1
  Li  Li3  1  0.395514  0.921918  0.317443  1
  Yb  Yb4  1  0.871755  0.206298  0.078002  1
  Yb  Yb5  1  0.794675  0.872469  0.666957  1
  Lu  Lu6  1  0.126704  0.795460  0.922034  1
  Lu  Lu7  1  0.205426  0.127211  0.332623  1
  Lu  Lu8  1  0.498560  0.499673  0.998475  1
  Pt  Pt9  1  0.441666  0.251403  0.693195  1
  Pt  Pt10  1  0.567317  0.742748  0.310047  1
  Pt  Pt11  1  0.249168  0.565657  0.814761  1
  Pt  Pt12  1  0.742290  0.440299  0.182627  1
