# generated using pymatgen
data_HoRuI18
_symmetry_space_group_name_H-M   'P 1'
_cell_length_a   10.21001717
_cell_length_b   10.23545972
_cell_length_c   10.20842510
_cell_angle_alpha   88.69157244
_cell_angle_beta   88.72972641
_cell_angle_gamma   88.51592982
_symmetry_Int_Tables_number   1
_chemical_formula_structural   HoRuI18
_chemical_formula_sum   'Ho1 Ru1 I18'
_cell_volume   1065.93905662
_cell_formula_units_Z   1
loop_
 _symmetry_equiv_pos_site_id
 _symmetry_equiv_pos_as_xyz
  1  'x, y, z'
loop_
 _atom_site_type_symbol
 _atom_site_label
 _atom_site_symmetry_multiplicity
 _atom_site_fract_x
 _atom_site_fract_y
 _atom_site_fract_z
 _atom_site_occupancy
  Ho  Ho0  1  0.000000  0.000000  0.000000  1
  Ru  Ru1  1  0.500000  0.500000  0.500000  1
  I  I2  1  0.763988  0.480956  0.501463  1
  I  I3  1  0.500614  0.763249  0.480763  1
  I  I4  1  0.481294  0.501536  0.763971  1
  I  I5  1  0.236012  0.519044  0.498537  1
  I  I6  1  0.499386  0.236751  0.519237  1
  I  I7  1  0.518706  0.498464  0.236029  1
  I  I8  1  0.878286  0.381173  0.744762  1
  I  I9  1  0.743321  0.877283  0.381299  1
  I  I10  1  0.381848  0.744071  0.878528  1
  I  I11  1  0.121714  0.618827  0.255238  1
  I  I12  1  0.256679  0.122717  0.618701  1
  I  I13  1  0.618152  0.255929  0.121472  1
  I  I14  1  0.022301  0.971741  0.705078  1
  I  I15  1  0.705120  0.021923  0.969815  1
  I  I16  1  0.970726  0.705912  0.020197  1
  I  I17  1  0.977699  0.028259  0.294922  1
  I  I18  1  0.294880  0.978077  0.030185  1
  I  I19  1  0.029274  0.294088  0.979803  1
