# generated using pymatgen
data_AgBi3Ru3RhO14
_symmetry_space_group_name_H-M   'P 1'
_cell_length_a   7.39170585
_cell_length_b   7.22187386
_cell_length_c   7.39170500
_cell_angle_alpha   59.21898788
_cell_angle_beta   59.99999933
_cell_angle_gamma   59.21898544
_symmetry_Int_Tables_number   1
_chemical_formula_structural   AgBi3Ru3RhO14
_chemical_formula_sum   'Ag1 Bi3 Ru3 Rh1 O14'
_cell_volume   275.67360264
_cell_formula_units_Z   1
loop_
 _symmetry_equiv_pos_site_id
 _symmetry_equiv_pos_as_xyz
  1  'x, y, z'
loop_
 _atom_site_type_symbol
 _atom_site_label
 _atom_site_symmetry_multiplicity
 _atom_site_fract_x
 _atom_site_fract_y
 _atom_site_fract_z
 _atom_site_occupancy
  Ag  Ag0  1  0.125000  0.625000  0.125000  1
  Bi  Bi1  1  0.125000  0.125000  0.125000  1
  Bi  Bi2  1  0.625000  0.125000  0.125000  1
  Bi  Bi3  1  0.125000  0.125000  0.625000  1
  Ru  Ru4  1  0.625000  0.625000  0.625000  1
  Ru  Ru5  1  0.625000  0.625000  0.125000  1
  Ru  Ru6  1  0.125000  0.625000  0.625000  1
  Rh  Rh7  1  0.625000  0.125000  0.625000  1
  O  O8  1  0.245543  0.263370  0.245543  1
  O  O9  1  0.304878  0.703331  0.304878  1
  O  O10  1  0.958154  0.959090  0.541378  1
  O  O11  1  0.541378  0.959090  0.541378  1
  O  O12  1  0.686914  0.703331  0.304878  1
  O  O13  1  0.945122  0.546669  0.563086  1
  O  O14  1  0.708622  0.290910  0.708622  1
  O  O15  1  0.291846  0.290910  0.708622  1
  O  O16  1  0.708622  0.290910  0.291846  1
  O  O17  1  0.304878  0.703331  0.686914  1
  O  O18  1  0.945122  0.546669  0.945122  1
  O  O19  1  0.563086  0.546669  0.945122  1
  O  O20  1  0.004457  0.986630  0.004457  1
  O  O21  1  0.541378  0.959090  0.958154  1
