# generated using pymatgen
data_Y3Lu3Th2(MgIr)2
_symmetry_space_group_name_H-M   'P 1'
_cell_length_a   9.73069469
_cell_length_b   9.73069439
_cell_length_c   9.73069500
_cell_angle_alpha   60.00000133
_cell_angle_beta   60.00000235
_cell_angle_gamma   60.00000447
_symmetry_Int_Tables_number   1
_chemical_formula_structural   Y3Lu3Th2(MgIr)2
_chemical_formula_sum   'Y6 Lu6 Th4 Mg4 Ir4'
_cell_volume   651.50322302
_cell_formula_units_Z   2
loop_
 _symmetry_equiv_pos_site_id
 _symmetry_equiv_pos_as_xyz
  1  'x, y, z'
loop_
 _atom_site_type_symbol
 _atom_site_label
 _atom_site_symmetry_multiplicity
 _atom_site_fract_x
 _atom_site_fract_y
 _atom_site_fract_z
 _atom_site_occupancy
  Y  Y0  1  0.185864  0.814136  0.814136  1
  Y  Y1  1  0.814136  0.185864  0.185864  1
  Y  Y2  1  0.814136  0.185864  0.814136  1
  Y  Y3  1  0.185864  0.814136  0.185864  1
  Y  Y4  1  0.814136  0.814136  0.185864  1
  Y  Y5  1  0.185864  0.185864  0.814136  1
  Lu  Lu6  1  0.064974  0.435026  0.435026  1
  Lu  Lu7  1  0.435026  0.064974  0.064974  1
  Lu  Lu8  1  0.435026  0.064974  0.435026  1
  Lu  Lu9  1  0.064974  0.435026  0.064974  1
  Lu  Lu10  1  0.435026  0.435026  0.064974  1
  Lu  Lu11  1  0.064974  0.064974  0.435026  1
  Th  Th12  1  0.598687  0.598687  0.598687  1
  Th  Th13  1  0.598687  0.598687  0.203937  1
  Th  Th14  1  0.598687  0.203937  0.598687  1
  Th  Th15  1  0.203937  0.598687  0.598687  1
  Mg  Mg16  1  0.830449  0.830449  0.830449  1
  Mg  Mg17  1  0.830449  0.830449  0.508654  1
  Mg  Mg18  1  0.830449  0.508654  0.830449  1
  Mg  Mg19  1  0.508654  0.830449  0.830449  1
  Ir  Ir20  1  0.392035  0.392035  0.392035  1
  Ir  Ir21  1  0.392035  0.392035  0.823894  1
  Ir  Ir22  1  0.392035  0.823894  0.392035  1
  Ir  Ir23  1  0.823894  0.392035  0.392035  1
