# generated using pymatgen
data_Tb2CeY5(ReB6)4
_symmetry_space_group_name_H-M   'P 1'
_cell_length_a   3.70168900
_cell_length_b   9.19898329
_cell_length_c   11.58874504
_cell_angle_alpha   90.04414565
_cell_angle_beta   90.00000000
_cell_angle_gamma   90.00000000
_symmetry_Int_Tables_number   1
_chemical_formula_structural   Tb2CeY5(ReB6)4
_chemical_formula_sum   'Tb2 Ce1 Y5 Re4 B24'
_cell_volume   394.61722428
_cell_formula_units_Z   1
loop_
 _symmetry_equiv_pos_site_id
 _symmetry_equiv_pos_as_xyz
  1  'x, y, z'
loop_
 _atom_site_type_symbol
 _atom_site_label
 _atom_site_symmetry_multiplicity
 _atom_site_fract_x
 _atom_site_fract_y
 _atom_site_fract_z
 _atom_site_occupancy
  Tb  Tb0  1  0.000000  0.823309  0.085583  1
  Tb  Tb1  1  0.000000  0.176157  0.913990  1
  Ce  Ce2  1  0.000000  0.323305  0.414045  1
  Y  Y3  1  0.000000  0.677444  0.586526  1
  Y  Y4  1  0.000000  0.442800  0.128974  1
  Y  Y5  1  0.000000  0.557494  0.870251  1
  Y  Y6  1  0.000000  0.942152  0.370146  1
  Y  Y7  1  0.000000  0.056814  0.630355  1
  Re  Re8  1  0.000000  0.138774  0.179642  1
  Re  Re9  1  0.000000  0.861969  0.821124  1
  Re  Re10  1  0.000000  0.637386  0.320925  1
  Re  Re11  1  0.000000  0.362413  0.678514  1
  B  B12  1  0.500000  0.053269  0.067333  1
  B  B13  1  0.500000  0.946907  0.932770  1
  B  B14  1  0.500000  0.553422  0.432092  1
  B  B15  1  0.500000  0.446334  0.567737  1
  B  B16  1  0.500000  0.248192  0.081456  1
  B  B17  1  0.500000  0.751450  0.918101  1
  B  B18  1  0.500000  0.748521  0.418069  1
  B  B19  1  0.500000  0.251870  0.582633  1
  B  B20  1  0.500000  0.290685  0.234161  1
  B  B21  1  0.500000  0.708694  0.765372  1
  B  B22  1  0.500000  0.791099  0.265539  1
  B  B23  1  0.500000  0.209118  0.734910  1
  B  B24  1  0.500000  0.130691  0.313843  1
  B  B25  1  0.500000  0.869217  0.686083  1
  B  B26  1  0.500000  0.630962  0.185369  1
  B  B27  1  0.500000  0.369809  0.814216  1
  B  B28  1  0.500000  0.483261  0.287736  1
  B  B29  1  0.500000  0.518054  0.712399  1
  B  B30  1  0.500000  0.982472  0.211709  1
  B  B31  1  0.500000  0.017358  0.788324  1
  B  B32  1  0.500000  0.100366  0.472007  1
  B  B33  1  0.500000  0.898006  0.528709  1
  B  B34  1  0.500000  0.600734  0.027901  1
  B  B35  1  0.500000  0.399494  0.971457  1
