# generated using pymatgen
data_Dy4Sn10PdRh5
_symmetry_space_group_name_H-M   'P 1'
_cell_length_a   13.47720881
_cell_length_b   13.47720859
_cell_length_c   7.30352899
_cell_angle_alpha   90.15577111
_cell_angle_beta   89.84422923
_cell_angle_gamma   161.05307141
_symmetry_Int_Tables_number   1
_chemical_formula_structural   Dy4Sn10PdRh5
_chemical_formula_sum   'Dy4 Sn10 Pd1 Rh5'
_cell_volume   430.72777934
_cell_formula_units_Z   1
loop_
 _symmetry_equiv_pos_site_id
 _symmetry_equiv_pos_as_xyz
  1  'x, y, z'
loop_
 _atom_site_type_symbol
 _atom_site_label
 _atom_site_symmetry_multiplicity
 _atom_site_fract_x
 _atom_site_fract_y
 _atom_site_fract_z
 _atom_site_occupancy
  Dy  Dy0  1  0.173206  0.826794  0.755948  1
  Dy  Dy1  1  0.827269  0.172731  0.255734  1
  Dy  Dy2  1  0.475196  0.524804  0.740835  1
  Dy  Dy3  1  0.523516  0.476484  0.233547  1
  Sn  Sn4  1  0.879831  0.120169  0.730803  1
  Sn  Sn5  1  0.120955  0.879045  0.227404  1
  Sn  Sn6  1  0.704550  0.295450  0.047864  1
  Sn  Sn7  1  0.295732  0.704268  0.548463  1
  Sn  Sn8  1  0.597889  0.402111  0.616654  1
  Sn  Sn9  1  0.403056  0.596944  0.112947  1
  Sn  Sn10  1  0.951388  0.048612  0.396140  1
  Sn  Sn11  1  0.047406  0.952594  0.902424  1
  Sn  Sn12  1  0.290820  0.709180  0.977721  1
  Sn  Sn13  1  0.709428  0.290572  0.477716  1
  Pd  Pd14  1  0.049745  0.950255  0.516457  1
  Rh  Rh15  1  0.950003  0.049997  0.016140  1
  Rh  Rh16  1  0.776288  0.223712  0.766107  1
  Rh  Rh17  1  0.223467  0.776533  0.266079  1
  Rh  Rh18  1  0.395001  0.604999  0.482859  1
  Rh  Rh19  1  0.605254  0.394746  0.984154  1
