# generated using pymatgen
data_HoTm(CoOs)2
_symmetry_space_group_name_H-M   'P 1'
_cell_length_a   5.22495004
_cell_length_b   5.20721408
_cell_length_c   5.20721344
_cell_angle_alpha   58.39928092
_cell_angle_beta   59.88725401
_cell_angle_gamma   59.88724836
_symmetry_Int_Tables_number   1
_chemical_formula_structural   HoTm(CoOs)2
_chemical_formula_sum   'Ho1 Tm1 Co2 Os2'
_cell_volume   98.74666413
_cell_formula_units_Z   1
loop_
 _symmetry_equiv_pos_site_id
 _symmetry_equiv_pos_as_xyz
  1  'x, y, z'
loop_
 _atom_site_type_symbol
 _atom_site_label
 _atom_site_symmetry_multiplicity
 _atom_site_fract_x
 _atom_site_fract_y
 _atom_site_fract_z
 _atom_site_occupancy
  Ho  Ho0  1  0.252820  0.247180  0.247180  1
  Tm  Tm1  1  0.997535  0.002465  0.002465  1
  Co  Co2  1  0.124924  0.625151  0.625151  1
  Co  Co3  1  0.624775  0.625151  0.625151  1
  Os  Os4  1  0.624973  0.624960  0.125095  1
  Os  Os5  1  0.624973  0.125095  0.624960  1
