# generated using pymatgen
data_Tb10Pr7Tm3Pb16
_symmetry_space_group_name_H-M   'P 1'
_cell_length_a   8.33085525
_cell_length_b   8.51688217
_cell_length_c   16.08261300
_cell_angle_alpha   90.02349852
_cell_angle_beta   90.27684952
_cell_angle_gamma   89.72720348
_symmetry_Int_Tables_number   1
_chemical_formula_structural   Tb10Pr7Tm3Pb16
_chemical_formula_sum   'Tb10 Pr7 Tm3 Pb16'
_cell_volume   1141.08189403
_cell_formula_units_Z   1
loop_
 _symmetry_equiv_pos_site_id
 _symmetry_equiv_pos_as_xyz
  1  'x, y, z'
loop_
 _atom_site_type_symbol
 _atom_site_label
 _atom_site_symmetry_multiplicity
 _atom_site_fract_x
 _atom_site_fract_y
 _atom_site_fract_z
 _atom_site_occupancy
  Tb  Tb0  1  0.358799  0.838582  0.876970  1
  Tb  Tb1  1  0.855924  0.662218  0.623202  1
  Tb  Tb2  1  0.642597  0.162028  0.376408  1
  Tb  Tb3  1  0.139994  0.339331  0.121913  1
  Tb  Tb4  1  0.640086  0.161639  0.122589  1
  Tb  Tb5  1  0.142575  0.338090  0.376980  1
  Tb  Tb6  1  0.358313  0.839003  0.624414  1
  Tb  Tb7  1  0.859006  0.661006  0.878125  1
  Tb  Tb8  1  0.521434  0.321819  0.901753  1
  Tb  Tb9  1  0.192275  0.501813  0.751131  1
  Pr  Pr10  1  0.016077  0.178599  0.598282  1
  Pr  Pr11  1  0.484098  0.678347  0.403128  1
  Pr  Pr12  1  0.983206  0.821174  0.096600  1
  Pr  Pr13  1  0.482141  0.677468  0.096803  1
  Pr  Pr14  1  0.984253  0.821879  0.403278  1
  Pr  Pr15  1  0.514912  0.321911  0.596140  1
  Pr  Pr16  1  0.016713  0.178987  0.902691  1
  Tm  Tm17  1  0.691673  0.996134  0.751056  1
  Tm  Tm18  1  0.807039  0.496675  0.249355  1
  Tm  Tm19  1  0.308046  0.003816  0.249524  1
  Pb  Pb20  1  0.300081  0.039627  0.042800  1
  Pb  Pb21  1  0.801605  0.459513  0.456828  1
  Pb  Pb22  1  0.698282  0.961246  0.543382  1
  Pb  Pb23  1  0.206806  0.535166  0.955931  1
  Pb  Pb24  1  0.698816  0.963098  0.956278  1
  Pb  Pb25  1  0.197440  0.542371  0.542690  1
  Pb  Pb26  1  0.301892  0.039604  0.457334  1
  Pb  Pb27  1  0.795688  0.458265  0.041530  1
  Pb  Pb28  1  0.554374  0.626620  0.750676  1
  Pb  Pb29  1  0.052130  0.872326  0.750414  1
  Pb  Pb30  1  0.446155  0.372217  0.249672  1
  Pb  Pb31  1  0.947147  0.128477  0.249306  1
  Pb  Pb32  1  0.331664  0.151536  0.752138  1
  Pb  Pb33  1  0.825519  0.350175  0.750557  1
  Pb  Pb34  1  0.671698  0.849263  0.249974  1
  Pb  Pb35  1  0.171545  0.649974  0.250149  1
