# generated using pymatgen
data_Ba2NaRe2H17
_symmetry_space_group_name_H-M   'P 1'
_cell_length_a   5.33611826
_cell_length_b   5.33611824
_cell_length_c   9.63259877
_cell_angle_alpha   89.60830320
_cell_angle_beta   90.39169720
_cell_angle_gamma   119.08424472
_symmetry_Int_Tables_number   1
_chemical_formula_structural   Ba2NaRe2H17
_chemical_formula_sum   'Ba2 Na1 Re2 H17'
_cell_volume   239.68749976
_cell_formula_units_Z   1
loop_
 _symmetry_equiv_pos_site_id
 _symmetry_equiv_pos_as_xyz
  1  'x, y, z'
loop_
 _atom_site_type_symbol
 _atom_site_label
 _atom_site_symmetry_multiplicity
 _atom_site_fract_x
 _atom_site_fract_y
 _atom_site_fract_z
 _atom_site_occupancy
  Ba  Ba0  1  0.993855  0.006145  0.987990  1
  Ba  Ba1  1  0.994130  0.005870  0.491056  1
  Na  Na2  1  0.662095  0.337905  0.233132  1
  Re  Re3  1  0.321694  0.678306  0.254500  1
  Re  Re4  1  0.646095  0.353905  0.749523  1
  H  H5  1  0.521960  0.478040  0.881888  1
  H  H6  1  0.443132  0.556868  0.391146  1
  H  H7  1  0.520449  0.479551  0.618882  1
  H  H8  1  0.485503  0.959308  0.371721  1
  H  H9  1  0.909205  0.486704  0.626247  1
  H  H10  1  0.464937  0.911343  0.115807  1
  H  H11  1  0.918744  0.486452  0.870536  1
  H  H12  1  0.513296  0.090795  0.626247  1
  H  H13  1  0.040692  0.514497  0.371721  1
  H  H14  1  0.513548  0.081256  0.870536  1
  H  H15  1  0.088657  0.535063  0.115807  1
  H  H16  1  0.666760  0.756903  0.221158  1
  H  H17  1  0.802682  0.714596  0.746627  1
  H  H18  1  0.285404  0.197318  0.746627  1
  H  H19  1  0.243097  0.333240  0.221158  1
  H  H20  1  0.136324  0.863676  0.242730  1
  H  H21  1  0.827739  0.172261  0.744964  1
