# generated using pymatgen
data_Tb2HoAl12Ru3Rh
_symmetry_space_group_name_H-M   'P 1'
_cell_length_a   8.80089081
_cell_length_b   8.80089096
_cell_length_c   9.55801300
_cell_angle_alpha   90.00000000
_cell_angle_beta   90.00000000
_cell_angle_gamma   119.55107411
_symmetry_Int_Tables_number   1
_chemical_formula_structural   Tb2HoAl12Ru3Rh
_chemical_formula_sum   'Tb4 Ho2 Al24 Ru6 Rh2'
_cell_volume   644.01859524
_cell_formula_units_Z   2
loop_
 _symmetry_equiv_pos_site_id
 _symmetry_equiv_pos_as_xyz
  1  'x, y, z'
loop_
 _atom_site_type_symbol
 _atom_site_label
 _atom_site_symmetry_multiplicity
 _atom_site_fract_x
 _atom_site_fract_y
 _atom_site_fract_z
 _atom_site_occupancy
  Tb  Tb0  1  0.189302  0.386120  0.250000  1
  Tb  Tb1  1  0.810698  0.613880  0.750000  1
  Tb  Tb2  1  0.613880  0.810698  0.250000  1
  Tb  Tb3  1  0.386120  0.189302  0.750000  1
  Ho  Ho4  1  0.194698  0.805302  0.250000  1
  Ho  Ho5  1  0.805302  0.194698  0.750000  1
  Al  Al6  1  0.332074  0.667926  0.018769  1
  Al  Al7  1  0.667926  0.332074  0.981231  1
  Al  Al8  1  0.667926  0.332074  0.518769  1
  Al  Al9  1  0.332074  0.667926  0.481231  1
  Al  Al10  1  0.161155  0.323603  0.578375  1
  Al  Al11  1  0.838845  0.676397  0.421625  1
  Al  Al12  1  0.676397  0.838845  0.578375  1
  Al  Al13  1  0.838845  0.676397  0.078375  1
  Al  Al14  1  0.323603  0.161155  0.421625  1
  Al  Al15  1  0.161155  0.323603  0.921625  1
  Al  Al16  1  0.163108  0.836892  0.577685  1
  Al  Al17  1  0.323603  0.161155  0.078375  1
  Al  Al18  1  0.836892  0.163108  0.422315  1
  Al  Al19  1  0.676397  0.838845  0.921625  1
  Al  Al20  1  0.836892  0.163108  0.077685  1
  Al  Al21  1  0.163108  0.836892  0.922315  1
  Al  Al22  1  0.560133  0.122991  0.250000  1
  Al  Al23  1  0.439867  0.877009  0.750000  1
  Al  Al24  1  0.877009  0.439867  0.250000  1
  Al  Al25  1  0.122991  0.560133  0.750000  1
  Al  Al26  1  0.560948  0.439052  0.250000  1
  Al  Al27  1  0.439052  0.560948  0.750000  1
  Al  Al28  1  0.999563  0.000437  0.250000  1
  Al  Al29  1  0.000437  0.999563  0.750000  1
  Ru  Ru30  1  0.500000  0.000000  0.000000  1
  Ru  Ru31  1  0.000000  0.500000  0.000000  1
  Ru  Ru32  1  0.500000  0.000000  0.500000  1
  Ru  Ru33  1  0.000000  0.500000  0.500000  1
  Ru  Ru34  1  0.000000  0.000000  0.000000  1
  Ru  Ru35  1  0.000000  0.000000  0.500000  1
  Rh  Rh36  1  0.500000  0.500000  0.000000  1
  Rh  Rh37  1  0.500000  0.500000  0.500000  1
