# generated using pymatgen
data_Ho8Ti8Nb3Si16Hg
_symmetry_space_group_name_H-M   'P 1'
_cell_length_a   7.07725915
_cell_length_b   7.07725840
_cell_length_c   12.94885028
_cell_angle_alpha   90.16757323
_cell_angle_beta   89.83242407
_cell_angle_gamma   89.60789022
_symmetry_Int_Tables_number   1
_chemical_formula_structural   Ho8Ti8Nb3Si16Hg
_chemical_formula_sum   'Ho8 Ti8 Nb3 Si16 Hg1'
_cell_volume   648.55595331
_cell_formula_units_Z   1
loop_
 _symmetry_equiv_pos_site_id
 _symmetry_equiv_pos_as_xyz
  1  'x, y, z'
loop_
 _atom_site_type_symbol
 _atom_site_label
 _atom_site_symmetry_multiplicity
 _atom_site_fract_x
 _atom_site_fract_y
 _atom_site_fract_z
 _atom_site_occupancy
  Ho  Ho0  1  0.342367  0.000980  0.467149  1
  Ho  Ho1  1  0.498436  0.840150  0.716127  1
  Ho  Ho2  1  0.500563  0.156712  0.215657  1
  Ho  Ho3  1  0.840150  0.498436  0.283873  1
  Ho  Ho4  1  0.156712  0.500563  0.784343  1
  Ho  Ho5  1  0.657127  0.001014  0.968314  1
  Ho  Ho6  1  0.000980  0.342367  0.532851  1
  Ho  Ho7  1  0.001014  0.657127  0.031686  1
  Ti  Ti8  1  0.147097  0.008639  0.876273  1
  Ti  Ti9  1  0.495245  0.650369  0.123872  1
  Ti  Ti10  1  0.508313  0.351517  0.624280  1
  Ti  Ti11  1  0.650369  0.495245  0.876128  1
  Ti  Ti12  1  0.351517  0.508313  0.375720  1
  Ti  Ti13  1  0.848185  0.990655  0.373995  1
  Ti  Ti14  1  0.008639  0.147097  0.123727  1
  Ti  Ti15  1  0.990655  0.848185  0.626005  1
  Nb  Nb16  1  0.173105  0.826541  0.250617  1
  Nb  Nb17  1  0.826541  0.173105  0.749383  1
  Nb  Nb18  1  0.673308  0.673308  0.500000  1
  Si  Si19  1  0.202607  0.131875  0.683517  1
  Si  Si20  1  0.373798  0.724610  0.926876  1
  Si  Si21  1  0.631535  0.293699  0.432983  1
  Si  Si22  1  0.724610  0.373798  0.073124  1
  Si  Si23  1  0.293699  0.631535  0.567017  1
  Si  Si24  1  0.797145  0.867231  0.182852  1
  Si  Si25  1  0.131875  0.202607  0.316483  1
  Si  Si26  1  0.867231  0.797145  0.817148  1
  Si  Si27  1  0.287493  0.933992  0.066073  1
  Si  Si28  1  0.547290  0.792455  0.313591  1
  Si  Si29  1  0.456525  0.205474  0.805589  1
  Si  Si30  1  0.792455  0.547290  0.686409  1
  Si  Si31  1  0.205474  0.456525  0.194411  1
  Si  Si32  1  0.708564  0.047741  0.563119  1
  Si  Si33  1  0.933992  0.287493  0.933927  1
  Si  Si34  1  0.047741  0.708564  0.436881  1
  Hg  Hg35  1  0.327641  0.327641  0.000000  1
