# generated using pymatgen
data_SnHg(PO4)2
_symmetry_space_group_name_H-M   'P 1'
_cell_length_a   5.00728260
_cell_length_b   5.00728260
_cell_length_c   7.73932533
_cell_angle_alpha   82.80996789
_cell_angle_beta   82.80997318
_cell_angle_gamma   65.03940561
_symmetry_Int_Tables_number   1
_chemical_formula_structural   SnHg(PO4)2
_chemical_formula_sum   'Sn1 Hg1 P2 O8'
_cell_volume   173.97400061
_cell_formula_units_Z   1
loop_
 _symmetry_equiv_pos_site_id
 _symmetry_equiv_pos_as_xyz
  1  'x, y, z'
loop_
 _atom_site_type_symbol
 _atom_site_label
 _atom_site_symmetry_multiplicity
 _atom_site_fract_x
 _atom_site_fract_y
 _atom_site_fract_z
 _atom_site_occupancy
  Sn  Sn0  1  0.000000  0.000000  0.500000  1
  Hg  Hg1  1  0.000000  0.000000  0.000000  1
  P  P2  1  0.670545  0.670545  0.290626  1
  P  P3  1  0.329455  0.329455  0.709373  1
  O  O4  1  0.761542  0.761542  0.101629  1
  O  O5  1  0.796487  0.325845  0.306352  1
  O  O6  1  0.325845  0.796487  0.306352  1
  O  O7  1  0.773921  0.773921  0.437376  1
  O  O8  1  0.226078  0.226078  0.562624  1
  O  O9  1  0.674155  0.203514  0.693649  1
  O  O10  1  0.203514  0.674155  0.693649  1
  O  O11  1  0.238458  0.238458  0.898371  1
