# generated using pymatgen
data_HoLu2NiSn3Rh2
_symmetry_space_group_name_H-M   'P 1'
_cell_length_a   7.46746255
_cell_length_b   7.46746285
_cell_length_c   3.78718200
_cell_angle_alpha   90.00000000
_cell_angle_beta   90.00000000
_cell_angle_gamma   120.32237662
_symmetry_Int_Tables_number   1
_chemical_formula_structural   HoLu2NiSn3Rh2
_chemical_formula_sum   'Ho1 Lu2 Ni1 Sn3 Rh2'
_cell_volume   182.29424109
_cell_formula_units_Z   1
loop_
 _symmetry_equiv_pos_site_id
 _symmetry_equiv_pos_as_xyz
  1  'x, y, z'
loop_
 _atom_site_type_symbol
 _atom_site_label
 _atom_site_symmetry_multiplicity
 _atom_site_fract_x
 _atom_site_fract_y
 _atom_site_fract_z
 _atom_site_occupancy
  Ho  Ho0  1  0.405305  0.405305  0.500000  1
  Lu  Lu1  1  0.594664  0.999897  0.500000  1
  Lu  Lu2  1  0.999897  0.594664  0.500000  1
  Ni  Ni3  1  0.999729  0.999729  0.500000  1
  Sn  Sn4  1  0.745312  0.745312  0.000000  1
  Sn  Sn5  1  0.254608  0.998839  0.000000  1
  Sn  Sn6  1  0.998839  0.254608  0.000000  1
  Rh  Rh7  1  0.669438  0.332210  0.000000  1
  Rh  Rh8  1  0.332210  0.669438  0.000000  1
