# generated using pymatgen
data_Tm12ZnInCoNi3
_symmetry_space_group_name_H-M   'P 1'
_cell_length_a   8.23045671
_cell_length_b   8.23045615
_cell_length_c   8.23045660
_cell_angle_alpha   111.92361098
_cell_angle_beta   109.81100858
_cell_angle_gamma   106.72097968
_symmetry_Int_Tables_number   1
_chemical_formula_structural   Tm12ZnInCoNi3
_chemical_formula_sum   'Tm12 Zn1 In1 Co1 Ni3'
_cell_volume   428.29974312
_cell_formula_units_Z   1
loop_
 _symmetry_equiv_pos_site_id
 _symmetry_equiv_pos_as_xyz
  1  'x, y, z'
loop_
 _atom_site_type_symbol
 _atom_site_label
 _atom_site_symmetry_multiplicity
 _atom_site_fract_x
 _atom_site_fract_y
 _atom_site_fract_z
 _atom_site_occupancy
  Tm  Tm0  1  0.428711  0.229206  0.199505  1
  Tm  Tm1  1  0.571041  0.770408  0.800633  1
  Tm  Tm2  1  0.029701  0.229206  0.800495  1
  Tm  Tm3  1  0.969775  0.770408  0.199367  1
  Tm  Tm4  1  0.180541  0.284522  0.468658  1
  Tm  Tm5  1  0.815863  0.711882  0.531342  1
  Tm  Tm6  1  0.180541  0.711882  0.896020  1
  Tm  Tm7  1  0.815863  0.284522  0.103980  1
  Tm  Tm8  1  0.323215  0.628322  0.305108  1
  Tm  Tm9  1  0.680678  0.373319  0.692641  1
  Tm  Tm10  1  0.323215  0.018105  0.694892  1
  Tm  Tm11  1  0.680678  0.988038  0.307359  1
  Zn  Zn12  1  0.999660  0.999660  0.000000  1
  In  In13  1  0.499872  0.499872  0.000000  1
  Co  Co14  1  0.883099  0.383099  0.500000  1
  Ni  Ni15  1  0.355163  0.999057  0.356107  1
  Ni  Ni16  1  0.642951  0.999057  0.643893  1
  Ni  Ni17  1  0.119434  0.619434  0.500000  1
