# generated using pymatgen
data_La6NpPaH24
_symmetry_space_group_name_H-M   'P 1'
_cell_length_a   6.96922800
_cell_length_b   6.96922800
_cell_length_c   6.96922800
_cell_angle_alpha   90.00000000
_cell_angle_beta   90.00000000
_cell_angle_gamma   90.00000000
_symmetry_Int_Tables_number   1
_chemical_formula_structural   La6NpPaH24
_chemical_formula_sum   'La6 Np1 Pa1 H24'
_cell_volume   338.49637210
_cell_formula_units_Z   1
loop_
 _symmetry_equiv_pos_site_id
 _symmetry_equiv_pos_as_xyz
  1  'x, y, z'
loop_
 _atom_site_type_symbol
 _atom_site_label
 _atom_site_symmetry_multiplicity
 _atom_site_fract_x
 _atom_site_fract_y
 _atom_site_fract_z
 _atom_site_occupancy
  La  La0  1  0.247711  0.000000  0.500000  1
  La  La1  1  0.752289  0.000000  0.500000  1
  La  La2  1  0.000000  0.500000  0.247711  1
  La  La3  1  0.000000  0.500000  0.752289  1
  La  La4  1  0.500000  0.752289  0.000000  1
  La  La5  1  0.500000  0.247711  0.000000  1
  Np  Np6  1  0.000000  0.000000  0.000000  1
  Pa  Pa7  1  0.500000  0.500000  0.500000  1
  H  H8  1  0.000000  0.152310  0.298842  1
  H  H9  1  0.500000  0.212796  0.649883  1
  H  H10  1  0.500000  0.787204  0.350117  1
  H  H11  1  0.787204  0.649883  0.500000  1
  H  H12  1  0.212796  0.649883  0.500000  1
  H  H13  1  0.350117  0.500000  0.787204  1
  H  H14  1  0.649883  0.500000  0.787204  1
  H  H15  1  0.298842  0.000000  0.152310  1
  H  H16  1  0.152310  0.298842  0.000000  1
  H  H17  1  0.847690  0.701158  0.000000  1
  H  H18  1  0.298842  0.000000  0.847690  1
  H  H19  1  0.847690  0.298842  0.000000  1
  H  H20  1  0.701158  0.000000  0.152310  1
  H  H21  1  0.701158  0.000000  0.847690  1
  H  H22  1  0.152310  0.701158  0.000000  1
  H  H23  1  0.000000  0.847690  0.701158  1
  H  H24  1  0.000000  0.152310  0.701158  1
  H  H25  1  0.000000  0.847690  0.298842  1
  H  H26  1  0.649883  0.500000  0.212796  1
  H  H27  1  0.350117  0.500000  0.212796  1
  H  H28  1  0.787204  0.350117  0.500000  1
  H  H29  1  0.212796  0.350117  0.500000  1
  H  H30  1  0.500000  0.787204  0.649883  1
  H  H31  1  0.500000  0.212796  0.350117  1
