# generated using pymatgen
data_Tm3Lu(MgPt)4
_symmetry_space_group_name_H-M   'P 1'
_cell_length_a   4.18684800
_cell_length_b   7.00098792
_cell_length_c   8.54885472
_cell_angle_alpha   89.73674513
_cell_angle_beta   90.00000000
_cell_angle_gamma   90.00000000
_symmetry_Int_Tables_number   1
_chemical_formula_structural   Tm3Lu(MgPt)4
_chemical_formula_sum   'Tm3 Lu1 Mg4 Pt4'
_cell_volume   250.58200256
_cell_formula_units_Z   1
loop_
 _symmetry_equiv_pos_site_id
 _symmetry_equiv_pos_as_xyz
  1  'x, y, z'
loop_
 _atom_site_type_symbol
 _atom_site_label
 _atom_site_symmetry_multiplicity
 _atom_site_fract_x
 _atom_site_fract_y
 _atom_site_fract_z
 _atom_site_occupancy
  Tm  Tm0  1  0.250000  0.533187  0.173495  1
  Tm  Tm1  1  0.750000  0.466280  0.826944  1
  Tm  Tm2  1  0.750000  0.966290  0.673187  1
  Lu  Lu3  1  0.250000  0.034358  0.326535  1
  Mg  Mg4  1  0.250000  0.638257  0.561220  1
  Mg  Mg5  1  0.750000  0.362053  0.438409  1
  Mg  Mg6  1  0.750000  0.861908  0.061781  1
  Mg  Mg7  1  0.250000  0.138003  0.938952  1
  Pt  Pt8  1  0.250000  0.745240  0.875227  1
  Pt  Pt9  1  0.750000  0.253405  0.125574  1
  Pt  Pt10  1  0.750000  0.756259  0.375366  1
  Pt  Pt11  1  0.250000  0.244760  0.623311  1
