# generated using pymatgen
data_CrIn3Ag4(P2O7)4
_symmetry_space_group_name_H-M   'P 1'
_cell_length_a   8.35921229
_cell_length_b   7.53556876
_cell_length_c   9.88832296
_cell_angle_alpha   68.32424564
_cell_angle_beta   90.08057748
_cell_angle_gamma   89.73353209
_symmetry_Int_Tables_number   1
_chemical_formula_structural   CrIn3Ag4(P2O7)4
_chemical_formula_sum   'Cr1 In3 Ag4 P8 O28'
_cell_volume   578.82550219
_cell_formula_units_Z   1
loop_
 _symmetry_equiv_pos_site_id
 _symmetry_equiv_pos_as_xyz
  1  'x, y, z'
loop_
 _atom_site_type_symbol
 _atom_site_label
 _atom_site_symmetry_multiplicity
 _atom_site_fract_x
 _atom_site_fract_y
 _atom_site_fract_z
 _atom_site_occupancy
  Cr  Cr0  1  0.994334  0.755827  0.747239  1
  In  In1  1  0.495914  0.243023  0.752381  1
  In  In2  1  0.003522  0.242798  0.252824  1
  In  In3  1  0.505159  0.758660  0.247533  1
  Ag  Ag4  1  0.031115  0.205067  0.806616  1
  Ag  Ag5  1  0.529273  0.794086  0.693142  1
  Ag  Ag6  1  0.973282  0.793508  0.193229  1
  Ag  Ag7  1  0.470848  0.206604  0.307159  1
  P  P8  1  0.241491  0.427903  0.955867  1
  P  P9  1  0.753365  0.574698  0.545584  1
  P  P10  1  0.758095  0.583665  0.035156  1
  P  P11  1  0.253054  0.423350  0.460660  1
  P  P12  1  0.284438  0.823455  0.946115  1
  P  P13  1  0.790644  0.168968  0.552870  1
  P  P14  1  0.712089  0.177869  0.048664  1
  P  P15  1  0.207175  0.823006  0.455373  1
  O  O16  1  0.358169  0.315327  0.902474  1
  O  O17  1  0.875330  0.676452  0.603875  1
  O  O18  1  0.635205  0.692078  0.087146  1
  O  O19  1  0.134401  0.315294  0.406223  1
  O  O20  1  0.209085  0.321368  0.117496  1
  O  O21  1  0.720342  0.680902  0.383049  1
  O  O22  1  0.798088  0.688259  0.874410  1
  O  O23  1  0.285267  0.318138  0.622594  1
  O  O24  1  0.088196  0.490304  0.860566  1
  O  O25  1  0.597217  0.526358  0.635897  1
  O  O26  1  0.908105  0.527924  0.133686  1
  O  O27  1  0.407788  0.475615  0.367837  1
  O  O28  1  0.407957  0.954801  0.844918  1
  O  O29  1  0.913307  0.030880  0.652718  1
  O  O30  1  0.586424  0.051194  0.152171  1
  O  O31  1  0.086055  0.953668  0.348732  1
  O  O32  1  0.292089  0.812789  0.103835  1
  O  O33  1  0.796568  0.190766  0.393092  1
  O  O34  1  0.703060  0.186441  0.892256  1
  O  O35  1  0.190144  0.808172  0.613073  1
  O  O36  1  0.110655  0.859741  0.886820  1
  O  O37  1  0.616186  0.128669  0.606750  1
  O  O38  1  0.885554  0.130955  0.104453  1
  O  O39  1  0.382959  0.864631  0.403536  1
  O  O40  1  0.338116  0.619177  0.941068  1
  O  O41  1  0.839315  0.371305  0.566298  1
  O  O42  1  0.667985  0.385963  0.051974  1
  O  O43  1  0.162634  0.620342  0.442643  1
