# generated using pymatgen
data_Pu8Si12Ni2PdAu
_symmetry_space_group_name_H-M   'P 1'
_cell_length_a   8.13513500
_cell_length_b   8.13513489
_cell_length_c   8.16128100
_cell_angle_alpha   90.00000000
_cell_angle_beta   90.00000000
_cell_angle_gamma   120.00002079
_symmetry_Int_Tables_number   1
_chemical_formula_structural   Pu8Si12Ni2PdAu
_chemical_formula_sum   'Pu8 Si12 Ni2 Pd1 Au1'
_cell_volume   467.75495268
_cell_formula_units_Z   1
loop_
 _symmetry_equiv_pos_site_id
 _symmetry_equiv_pos_as_xyz
  1  'x, y, z'
loop_
 _atom_site_type_symbol
 _atom_site_label
 _atom_site_symmetry_multiplicity
 _atom_site_fract_x
 _atom_site_fract_y
 _atom_site_fract_z
 _atom_site_occupancy
  Pu  Pu0  1  0.506212  0.012423  0.252372  1
  Pu  Pu1  1  0.505167  0.010335  0.747641  1
  Pu  Pu2  1  0.987577  0.493789  0.252372  1
  Pu  Pu3  1  0.989665  0.494833  0.747641  1
  Pu  Pu4  1  0.506211  0.493789  0.252372  1
  Pu  Pu5  1  0.505167  0.494833  0.747640  1
  Pu  Pu6  1  0.000000  0.000000  0.250710  1
  Pu  Pu7  1  0.000000  0.000000  0.749078  1
  Si  Si8  1  0.160500  0.321001  0.998582  1
  Si  Si9  1  0.828800  0.657600  0.998952  1
  Si  Si10  1  0.678999  0.839500  0.998582  1
  Si  Si11  1  0.830690  0.661382  0.501192  1
  Si  Si12  1  0.342400  0.171200  0.998952  1
  Si  Si13  1  0.164078  0.328157  0.501506  1
  Si  Si14  1  0.160500  0.839500  0.998582  1
  Si  Si15  1  0.338618  0.169310  0.501192  1
  Si  Si16  1  0.828800  0.171200  0.998952  1
  Si  Si17  1  0.671843  0.835922  0.501506  1
  Si  Si18  1  0.830690  0.169310  0.501192  1
  Si  Si19  1  0.164078  0.835922  0.501506  1
  Ni  Ni20  1  0.666665  0.333334  0.001873  1
  Ni  Ni21  1  0.666667  0.333334  0.499535  1
  Pd  Pd22  1  0.333333  0.666667  0.495851  1
  Au  Au23  1  0.333333  0.666667  0.002220  1
