# generated using pymatgen
data_Yb3AsI3
_symmetry_space_group_name_H-M   'P 1'
_cell_length_a   10.78649299
_cell_length_b   10.78649313
_cell_length_c   10.78649300
_cell_angle_alpha   109.47122227
_cell_angle_beta   109.47122253
_cell_angle_gamma   109.47121583
_symmetry_Int_Tables_number   1
_chemical_formula_structural   Yb3AsI3
_chemical_formula_sum   'Yb12 As4 I12'
_cell_volume   966.09296303
_cell_formula_units_Z   4
loop_
 _symmetry_equiv_pos_site_id
 _symmetry_equiv_pos_as_xyz
  1  'x, y, z'
loop_
 _atom_site_type_symbol
 _atom_site_label
 _atom_site_symmetry_multiplicity
 _atom_site_fract_x
 _atom_site_fract_y
 _atom_site_fract_z
 _atom_site_occupancy
  Yb  Yb0  1  0.470314  0.485157  0.235157  1
  Yb  Yb1  1  0.750000  0.235157  0.264843  1
  Yb  Yb2  1  0.750000  0.014843  0.485157  1
  Yb  Yb3  1  0.235157  0.470314  0.485157  1
  Yb  Yb4  1  0.264843  0.750000  0.235157  1
  Yb  Yb5  1  0.029686  0.264843  0.014843  1
  Yb  Yb6  1  0.014843  0.029686  0.264843  1
  Yb  Yb7  1  0.485157  0.750000  0.014843  1
  Yb  Yb8  1  0.485157  0.235157  0.470314  1
  Yb  Yb9  1  0.014843  0.485157  0.750000  1
  Yb  Yb10  1  0.264843  0.014843  0.029686  1
  Yb  Yb11  1  0.235157  0.264843  0.750000  1
  As  As12  1  0.250000  0.250000  0.250000  1
  As  As13  1  0.500000  0.000000  0.250000  1
  As  As14  1  0.000000  0.250000  0.500000  1
  As  As15  1  0.250000  0.500000  0.000000  1
  I  I16  1  0.250000  0.753323  0.746677  1
  I  I17  1  0.506644  0.503323  0.753323  1
  I  I18  1  0.993356  0.746677  0.996677  1
  I  I19  1  0.746677  0.250000  0.753323  1
  I  I20  1  0.996677  0.993356  0.746677  1
  I  I21  1  0.250000  0.996677  0.503323  1
  I  I22  1  0.753323  0.506644  0.503323  1
  I  I23  1  0.503323  0.250000  0.996677  1
  I  I24  1  0.753323  0.746677  0.250000  1
  I  I25  1  0.746677  0.996677  0.993356  1
  I  I26  1  0.996677  0.503323  0.250000  1
  I  I27  1  0.503323  0.753323  0.506644  1
