# generated using pymatgen
data_Ho2Er4TaBiO14
_symmetry_space_group_name_H-M   'P 1'
_cell_length_a   6.41845265
_cell_length_b   6.46734163
_cell_length_c   7.60694525
_cell_angle_alpha   106.63355105
_cell_angle_beta   89.90769630
_cell_angle_gamma   98.04229907
_symmetry_Int_Tables_number   1
_chemical_formula_structural   Ho2Er4TaBiO14
_chemical_formula_sum   'Ho2 Er4 Ta1 Bi1 O14'
_cell_volume   299.33199910
_cell_formula_units_Z   1
loop_
 _symmetry_equiv_pos_site_id
 _symmetry_equiv_pos_as_xyz
  1  'x, y, z'
loop_
 _atom_site_type_symbol
 _atom_site_label
 _atom_site_symmetry_multiplicity
 _atom_site_fract_x
 _atom_site_fract_y
 _atom_site_fract_z
 _atom_site_occupancy
  Ho  Ho0  1  0.733493  0.460526  0.113849  1
  Ho  Ho1  1  0.730903  0.467066  0.605963  1
  Er  Er2  1  0.541699  0.994466  0.754781  1
  Er  Er3  1  0.457786  0.005263  0.245122  1
  Er  Er4  1  0.269515  0.534513  0.394987  1
  Er  Er5  1  0.266612  0.539697  0.886255  1
  Ta  Ta6  1  0.000463  0.000310  0.000001  1
  Bi  Bi7  1  0.000489  0.000417  0.500276  1
  O  O8  1  0.695489  0.073532  0.488184  1
  O  O9  1  0.926245  0.687896  0.979554  1
  O  O10  1  0.709309  0.073464  0.053985  1
  O  O11  1  0.931210  0.643796  0.383985  1
  O  O12  1  0.885795  0.911549  0.736456  1
  O  O13  1  0.555496  0.349962  0.834081  1
  O  O14  1  0.541604  0.360235  0.342507  1
  O  O15  1  0.456232  0.639943  0.657722  1
  O  O16  1  0.442000  0.649683  0.165817  1
  O  O17  1  0.113830  0.088585  0.263408  1
  O  O18  1  0.071035  0.356077  0.616511  1
  O  O19  1  0.290881  0.925815  0.946185  1
  O  O20  1  0.074894  0.311485  0.018971  1
  O  O21  1  0.305020  0.925721  0.511399  1
