# generated using pymatgen
data_Na4PaSbTe6
_symmetry_space_group_name_H-M   'P 1'
_cell_length_a   7.82403386
_cell_length_b   7.82403453
_cell_length_c   7.85123100
_cell_angle_alpha   80.47226821
_cell_angle_beta   80.47226739
_cell_angle_gamma   120.41709076
_symmetry_Int_Tables_number   1
_chemical_formula_structural   Na4PaSbTe6
_chemical_formula_sum   'Na4 Pa1 Sb1 Te6'
_cell_volume   390.78904571
_cell_formula_units_Z   1
loop_
 _symmetry_equiv_pos_site_id
 _symmetry_equiv_pos_as_xyz
  1  'x, y, z'
loop_
 _atom_site_type_symbol
 _atom_site_label
 _atom_site_symmetry_multiplicity
 _atom_site_fract_x
 _atom_site_fract_y
 _atom_site_fract_z
 _atom_site_occupancy
  Na  Na0  1  0.000172  0.999828  0.000000  1
  Na  Na1  1  0.503660  0.496340  0.500000  1
  Na  Na2  1  0.838046  0.161954  0.500000  1
  Na  Na3  1  0.158729  0.841271  0.500000  1
  Pa  Pa4  1  0.332822  0.667178  0.000000  1
  Sb  Sb5  1  0.668410  0.331590  0.000000  1
  Te  Te6  1  0.271745  0.277675  0.231857  1
  Te  Te7  1  0.427741  0.072044  0.767986  1
  Te  Te8  1  0.081395  0.433003  0.768555  1
  Te  Te9  1  0.722325  0.728255  0.768143  1
  Te  Te10  1  0.566997  0.918605  0.231445  1
  Te  Te11  1  0.927956  0.572259  0.232014  1
