# generated using pymatgen
data_Y6Er10MgNi4Ag3
_symmetry_space_group_name_H-M   'P 1'
_cell_length_a   9.41525730
_cell_length_b   9.43671024
_cell_length_c   9.43670900
_cell_angle_alpha   59.99999385
_cell_angle_beta   59.92459201
_cell_angle_gamma   59.92459922
_symmetry_Int_Tables_number   1
_chemical_formula_structural   Y6Er10MgNi4Ag3
_chemical_formula_sum   'Y6 Er10 Mg1 Ni4 Ag3'
_cell_volume   592.19186245
_cell_formula_units_Z   1
loop_
 _symmetry_equiv_pos_site_id
 _symmetry_equiv_pos_as_xyz
  1  'x, y, z'
loop_
 _atom_site_type_symbol
 _atom_site_label
 _atom_site_symmetry_multiplicity
 _atom_site_fract_x
 _atom_site_fract_y
 _atom_site_fract_z
 _atom_site_occupancy
  Y  Y0  1  0.186143  0.813635  0.813635  1
  Y  Y1  1  0.814174  0.186298  0.186298  1
  Y  Y2  1  0.814174  0.186298  0.813228  1
  Y  Y3  1  0.186143  0.813635  0.186589  1
  Y  Y4  1  0.814174  0.813228  0.186298  1
  Y  Y5  1  0.186143  0.186589  0.813635  1
  Er  Er6  1  0.598548  0.596979  0.596979  1
  Er  Er7  1  0.598548  0.596979  0.207496  1
  Er  Er8  1  0.598548  0.207496  0.596979  1
  Er  Er9  1  0.192865  0.602378  0.602378  1
  Er  Er10  1  0.059397  0.438937  0.438937  1
  Er  Er11  1  0.434739  0.064424  0.064424  1
  Er  Er12  1  0.434739  0.064424  0.436411  1
  Er  Er13  1  0.059397  0.438937  0.062730  1
  Er  Er14  1  0.434739  0.436411  0.064424  1
  Er  Er15  1  0.059397  0.062730  0.438937  1
  Mg  Mg16  1  0.539762  0.820079  0.820079  1
  Ni  Ni17  1  0.389030  0.393981  0.393981  1
  Ni  Ni18  1  0.389030  0.393981  0.823008  1
  Ni  Ni19  1  0.389030  0.823008  0.393981  1
  Ni  Ni20  1  0.824606  0.391797  0.391797  1
  Ag  Ag21  1  0.832224  0.832970  0.832970  1
  Ag  Ag22  1  0.832224  0.832970  0.501834  1
  Ag  Ag23  1  0.832224  0.501834  0.832970  1
