# generated using pymatgen
data_Ba4TbHo(GaS5)2
_symmetry_space_group_name_H-M   'P 1'
_cell_length_a   7.15044864
_cell_length_b   8.46307506
_cell_length_c   9.18030433
_cell_angle_alpha   103.57429715
_cell_angle_beta   103.13167004
_cell_angle_gamma   107.43529229
_symmetry_Int_Tables_number   1
_chemical_formula_structural   Ba4TbHo(GaS5)2
_chemical_formula_sum   'Ba4 Tb1 Ho1 Ga2 S10'
_cell_volume   487.98366078
_cell_formula_units_Z   1
loop_
 _symmetry_equiv_pos_site_id
 _symmetry_equiv_pos_as_xyz
  1  'x, y, z'
loop_
 _atom_site_type_symbol
 _atom_site_label
 _atom_site_symmetry_multiplicity
 _atom_site_fract_x
 _atom_site_fract_y
 _atom_site_fract_z
 _atom_site_occupancy
  Ba  Ba0  1  0.632713  0.977207  0.288603  1
  Ba  Ba1  1  0.367491  0.023032  0.711472  1
  Ba  Ba2  1  0.338887  0.509873  0.705698  1
  Ba  Ba3  1  0.660693  0.489770  0.294042  1
  Tb  Tb4  1  0.997247  0.728804  0.998029  1
  Ho  Ho5  1  0.002675  0.270937  0.001935  1
  Ga  Ga6  1  0.806920  0.872621  0.689262  1
  Ga  Ga7  1  0.193087  0.127746  0.310622  1
  S  S8  1  0.988047  0.689563  0.688094  1
  S  S9  1  0.011623  0.310204  0.309502  1
  S  S10  1  0.984948  0.149754  0.693642  1
  S  S11  1  0.015374  0.851629  0.308930  1
  S  S12  1  0.717446  0.909866  0.923637  1
  S  S13  1  0.282420  0.092541  0.076423  1
  S  S14  1  0.713041  0.411277  0.947589  1
  S  S15  1  0.287357  0.585146  0.052502  1
  S  S16  1  0.498933  0.745168  0.496752  1
  S  S17  1  0.501098  0.254861  0.503264  1
