# generated using pymatgen
data_DyErTcC2
_symmetry_space_group_name_H-M   'P 1'
_cell_length_a   5.07461900
_cell_length_b   6.56017100
_cell_length_c   9.82819400
_cell_angle_alpha   90.00000000
_cell_angle_beta   90.00000000
_cell_angle_gamma   90.00000000
_symmetry_Int_Tables_number   1
_chemical_formula_structural   DyErTcC2
_chemical_formula_sum   'Dy4 Er4 Tc4 C8'
_cell_volume   327.18419897
_cell_formula_units_Z   4
loop_
 _symmetry_equiv_pos_site_id
 _symmetry_equiv_pos_as_xyz
  1  'x, y, z'
loop_
 _atom_site_type_symbol
 _atom_site_label
 _atom_site_symmetry_multiplicity
 _atom_site_fract_x
 _atom_site_fract_y
 _atom_site_fract_z
 _atom_site_occupancy
  Dy  Dy0  1  0.250000  0.467590  0.215848  1
  Dy  Dy1  1  0.250000  0.967590  0.284152  1
  Dy  Dy2  1  0.750000  0.532410  0.784152  1
  Dy  Dy3  1  0.750000  0.032410  0.715848  1
  Er  Er4  1  0.250000  0.823033  0.942007  1
  Er  Er5  1  0.250000  0.323033  0.557993  1
  Er  Er6  1  0.750000  0.176967  0.057993  1
  Er  Er7  1  0.750000  0.676967  0.442007  1
  Tc  Tc8  1  0.250000  0.279223  0.866587  1
  Tc  Tc9  1  0.250000  0.779223  0.633413  1
  Tc  Tc10  1  0.750000  0.720777  0.133413  1
  Tc  Tc11  1  0.750000  0.220777  0.366587  1
  C  C12  1  0.250000  0.046941  0.741080  1
  C  C13  1  0.250000  0.546941  0.758920  1
  C  C14  1  0.750000  0.953059  0.258920  1
  C  C15  1  0.750000  0.453059  0.241080  1
  C  C16  1  0.250000  0.675322  0.450502  1
  C  C17  1  0.250000  0.175322  0.049498  1
  C  C18  1  0.750000  0.324678  0.549498  1
  C  C19  1  0.750000  0.824678  0.950502  1
