# generated using pymatgen
data_Er12Co2SnRh3
_symmetry_space_group_name_H-M   'P 1'
_cell_length_a   8.28140951
_cell_length_b   8.28187109
_cell_length_c   8.28141100
_cell_angle_alpha   109.91945047
_cell_angle_beta   112.90591256
_cell_angle_gamma   105.66713517
_symmetry_Int_Tables_number   1
_chemical_formula_structural   Er12Co2SnRh3
_chemical_formula_sum   'Er12 Co2 Sn1 Rh3'
_cell_volume   435.49569435
_cell_formula_units_Z   1
loop_
 _symmetry_equiv_pos_site_id
 _symmetry_equiv_pos_as_xyz
  1  'x, y, z'
loop_
 _atom_site_type_symbol
 _atom_site_label
 _atom_site_symmetry_multiplicity
 _atom_site_fract_x
 _atom_site_fract_y
 _atom_site_fract_z
 _atom_site_occupancy
  Er  Er0  1  0.281496  0.178728  0.460250  1
  Er  Er1  1  0.718504  0.821272  0.539750  1
  Er  Er2  1  0.281523  0.821272  0.102768  1
  Er  Er3  1  0.718477  0.178728  0.897232  1
  Er  Er4  1  0.631070  0.317859  0.313216  1
  Er  Er5  1  0.368930  0.682141  0.686784  1
  Er  Er6  1  0.004644  0.317859  0.686789  1
  Er  Er7  1  0.995356  0.682141  0.313211  1
  Er  Er8  1  0.230059  0.418478  0.188418  1
  Er  Er9  1  0.769941  0.581522  0.811582  1
  Er  Er10  1  0.230069  0.041656  0.811587  1
  Er  Er11  1  0.769931  0.958344  0.188413  1
  Co  Co12  1  0.387905  0.887916  0.500011  1
  Co  Co13  1  0.612095  0.112084  0.499989  1
  Sn  Sn14  1  0.500000  0.500000  0.000000  1
  Rh  Rh15  1  0.999996  0.339630  0.339633  1
  Rh  Rh16  1  0.000004  0.660370  0.660367  1
  Rh  Rh17  1  0.000000  0.000000  0.000000  1
