# generated using pymatgen
data_Dy3Sn3HgRuRh
_symmetry_space_group_name_H-M   'P 1'
_cell_length_a   7.72343300
_cell_length_b   7.72343432
_cell_length_c   3.91041100
_cell_angle_alpha   90.00000000
_cell_angle_beta   90.00000000
_cell_angle_gamma   119.99999005
_symmetry_Int_Tables_number   1
_chemical_formula_structural   Dy3Sn3HgRuRh
_chemical_formula_sum   'Dy3 Sn3 Hg1 Ru1 Rh1'
_cell_volume   202.01049019
_cell_formula_units_Z   1
loop_
 _symmetry_equiv_pos_site_id
 _symmetry_equiv_pos_as_xyz
  1  'x, y, z'
loop_
 _atom_site_type_symbol
 _atom_site_label
 _atom_site_symmetry_multiplicity
 _atom_site_fract_x
 _atom_site_fract_y
 _atom_site_fract_z
 _atom_site_occupancy
  Dy  Dy0  1  0.390702  0.412359  0.500000  1
  Dy  Dy1  1  0.587641  0.978343  0.500000  1
  Dy  Dy2  1  0.021657  0.609298  0.500000  1
  Sn  Sn3  1  0.742658  0.750406  0.000000  1
  Sn  Sn4  1  0.249594  0.992253  0.000000  1
  Sn  Sn5  1  0.007747  0.257342  0.000000  1
  Hg  Hg6  1  0.666667  0.333333  0.000000  1
  Ru  Ru7  1  0.000000  0.000000  0.500000  1
  Rh  Rh8  1  0.333333  0.666667  0.000000  1
