# generated using pymatgen
data_Ta2Ti5Co8Si14Tc
_symmetry_space_group_name_H-M   'P 1'
_cell_length_a   9.13958682
_cell_length_b   9.13965870
_cell_length_c   9.16310291
_cell_angle_alpha   94.18502285
_cell_angle_beta   94.18893669
_cell_angle_gamma   148.60510559
_symmetry_Int_Tables_number   1
_chemical_formula_structural   Ta2Ti5Co8Si14Tc
_chemical_formula_sum   'Ta2 Ti5 Co8 Si14 Tc1'
_cell_volume   383.93964358
_cell_formula_units_Z   1
loop_
 _symmetry_equiv_pos_site_id
 _symmetry_equiv_pos_as_xyz
  1  'x, y, z'
loop_
 _atom_site_type_symbol
 _atom_site_label
 _atom_site_symmetry_multiplicity
 _atom_site_fract_x
 _atom_site_fract_y
 _atom_site_fract_z
 _atom_site_occupancy
  Ta  Ta0  1  0.867925  0.867769  0.735760  1
  Ta  Ta1  1  0.864615  0.133473  0.998065  1
  Ti  Ti2  1  0.133801  0.863197  0.996970  1
  Ti  Ti3  1  0.498467  0.691445  0.189888  1
  Ti  Ti4  1  0.500204  0.310850  0.811066  1
  Ti  Ti5  1  0.310343  0.500585  0.810862  1
  Ti  Ti6  1  0.692093  0.500064  0.192183  1
  Co  Co7  1  0.399841  0.900059  0.798892  1
  Co  Co8  1  0.100473  0.601055  0.201635  1
  Co  Co9  1  0.100418  0.900644  0.499078  1
  Co  Co10  1  0.399015  0.598961  0.499139  1
  Co  Co11  1  0.598439  0.398675  0.499078  1
  Co  Co12  1  0.900175  0.100128  0.499145  1
  Co  Co13  1  0.898800  0.399016  0.798886  1
  Co  Co14  1  0.600598  0.101178  0.201643  1
  Si  Si15  1  0.294264  0.294385  0.588706  1
  Si  Si16  1  0.705480  0.705588  0.411029  1
  Si  Si17  1  0.705104  0.295041  0.000155  1
  Si  Si18  1  0.293585  0.706151  0.999721  1
  Si  Si19  1  0.002797  0.292143  0.294924  1
  Si  Si20  1  0.999540  0.703696  0.703240  1
  Si  Si21  1  0.702354  0.999098  0.701454  1
  Si  Si22  1  0.291734  0.001805  0.293549  1
  Si  Si23  1  0.499863  0.905710  0.405609  1
  Si  Si24  1  0.499553  0.094580  0.594141  1
  Si  Si25  1  0.094651  0.499979  0.594616  1
  Si  Si26  1  0.905842  0.500299  0.406148  1
  Si  Si27  1  0.752090  0.750832  0.004911  1
  Si  Si28  1  0.254074  0.252826  0.004895  1
  Tc  Tc29  1  0.133863  0.130774  0.264613  1
