# generated using pymatgen
data_Yb4LuScTa2O12
_symmetry_space_group_name_H-M   'P 1'
_cell_length_a   5.72311672
_cell_length_b   5.49983758
_cell_length_c   9.62953259
_cell_angle_alpha   55.20814760
_cell_angle_beta   90.25406749
_cell_angle_gamma   90.02365115
_symmetry_Int_Tables_number   1
_chemical_formula_structural   Yb4LuScTa2O12
_chemical_formula_sum   'Yb4 Lu1 Sc1 Ta2 O12'
_cell_volume   248.91264331
_cell_formula_units_Z   1
loop_
 _symmetry_equiv_pos_site_id
 _symmetry_equiv_pos_as_xyz
  1  'x, y, z'
loop_
 _atom_site_type_symbol
 _atom_site_label
 _atom_site_symmetry_multiplicity
 _atom_site_fract_x
 _atom_site_fract_y
 _atom_site_fract_z
 _atom_site_occupancy
  Yb  Yb0  1  0.444494  0.236145  0.747183  1
  Yb  Yb1  1  0.555506  0.763855  0.252817  1
  Yb  Yb2  1  0.941288  0.772436  0.743712  1
  Yb  Yb3  1  0.058712  0.227564  0.256288  1
  Lu  Lu4  1  0.000000  0.000000  0.000000  1
  Sc  Sc5  1  0.500000  0.000000  0.500000  1
  Ta  Ta6  1  0.000000  0.500000  0.500000  1
  Ta  Ta7  1  0.500000  0.500000  0.000000  1
  O  O8  1  0.042676  0.371684  0.737798  1
  O  O9  1  0.957324  0.628316  0.262202  1
  O  O10  1  0.541116  0.633913  0.757429  1
  O  O11  1  0.458884  0.366087  0.242571  1
  O  O12  1  0.685191  0.852014  0.942699  1
  O  O13  1  0.314809  0.147986  0.057301  1
  O  O14  1  0.196659  0.155031  0.552513  1
  O  O15  1  0.803341  0.844969  0.447487  1
  O  O16  1  0.208203  0.744120  0.936759  1
  O  O17  1  0.791797  0.255880  0.063241  1
  O  O18  1  0.710853  0.247717  0.558919  1
  O  O19  1  0.289147  0.752283  0.441081  1
