# generated using pymatgen
data_Lu10GaPb5
_symmetry_space_group_name_H-M   'P 1'
_cell_length_a   6.51083303
_cell_length_b   8.76598223
_cell_length_c   8.80205913
_cell_angle_alpha   119.86450244
_cell_angle_beta   90.00587959
_cell_angle_gamma   89.98818397
_symmetry_Int_Tables_number   1
_chemical_formula_structural   Lu10GaPb5
_chemical_formula_sum   'Lu10 Ga1 Pb5'
_cell_volume   435.65570017
_cell_formula_units_Z   1
loop_
 _symmetry_equiv_pos_site_id
 _symmetry_equiv_pos_as_xyz
  1  'x, y, z'
loop_
 _atom_site_type_symbol
 _atom_site_label
 _atom_site_symmetry_multiplicity
 _atom_site_fract_x
 _atom_site_fract_y
 _atom_site_fract_z
 _atom_site_occupancy
  Lu  Lu0  1  0.750011  0.241924  0.000000  1
  Lu  Lu1  1  0.749947  0.758014  0.773608  1
  Lu  Lu2  1  0.749947  0.984407  0.226392  1
  Lu  Lu3  1  0.250018  0.765679  0.000000  1
  Lu  Lu4  1  0.250077  0.235513  0.235411  1
  Lu  Lu5  1  0.250077  0.000101  0.764589  1
  Lu  Lu6  1  0.504434  0.344136  0.679061  1
  Lu  Lu7  1  0.504434  0.665075  0.320939  1
  Lu  Lu8  1  0.995502  0.664822  0.320594  1
  Lu  Lu9  1  0.995502  0.344228  0.679406  1
  Ga  Ga10  1  0.749766  0.601348  0.000000  1
  Pb  Pb11  1  0.750304  0.391634  0.393914  1
  Pb  Pb12  1  0.750304  0.997721  0.606086  1
  Pb  Pb13  1  0.250107  0.396580  0.000000  1
  Pb  Pb14  1  0.249785  0.604266  0.599714  1
  Pb  Pb15  1  0.249785  0.004551  0.400286  1
