# generated using pymatgen
data_Yb5(PdPb2)2
_symmetry_space_group_name_H-M   'P 1'
_cell_length_a   3.63377500
_cell_length_b   8.42670500
_cell_length_c   18.76897700
_cell_angle_alpha   90.00000000
_cell_angle_beta   90.00000000
_cell_angle_gamma   90.00000000
_symmetry_Int_Tables_number   1
_chemical_formula_structural   Yb5(PdPb2)2
_chemical_formula_sum   'Yb10 Pd4 Pb8'
_cell_volume   574.72015175
_cell_formula_units_Z   2
loop_
 _symmetry_equiv_pos_site_id
 _symmetry_equiv_pos_as_xyz
  1  'x, y, z'
loop_
 _atom_site_type_symbol
 _atom_site_label
 _atom_site_symmetry_multiplicity
 _atom_site_fract_x
 _atom_site_fract_y
 _atom_site_fract_z
 _atom_site_occupancy
  Yb  Yb0  1  0.000000  0.121643  0.410950  1
  Yb  Yb1  1  0.000000  0.878357  0.589050  1
  Yb  Yb2  1  0.000000  0.378357  0.910950  1
  Yb  Yb3  1  0.000000  0.621643  0.089050  1
  Yb  Yb4  1  0.000000  0.240188  0.221663  1
  Yb  Yb5  1  0.000000  0.759812  0.778337  1
  Yb  Yb6  1  0.000000  0.259812  0.721663  1
  Yb  Yb7  1  0.000000  0.740188  0.278337  1
  Yb  Yb8  1  0.000000  0.000000  0.000000  1
  Yb  Yb9  1  0.000000  0.500000  0.500000  1
  Pd  Pd10  1  0.500000  0.012898  0.302486  1
  Pd  Pd11  1  0.500000  0.987102  0.697514  1
  Pd  Pd12  1  0.500000  0.487102  0.802486  1
  Pd  Pd13  1  0.500000  0.512898  0.197514  1
  Pb  Pb14  1  0.500000  0.427111  0.348846  1
  Pb  Pb15  1  0.500000  0.572889  0.651154  1
  Pb  Pb16  1  0.500000  0.072889  0.848846  1
  Pb  Pb17  1  0.500000  0.927111  0.151154  1
  Pb  Pb18  1  0.500000  0.298693  0.070165  1
  Pb  Pb19  1  0.500000  0.701307  0.929835  1
  Pb  Pb20  1  0.500000  0.201307  0.570165  1
  Pb  Pb21  1  0.500000  0.798693  0.429835  1
