# generated using pymatgen
data_Yb3Ho(In2Pd3)4
_symmetry_space_group_name_H-M   'P 1'
_cell_length_a   4.59461100
_cell_length_b   9.77437077
_cell_length_c   10.46385831
_cell_angle_alpha   90.16143494
_cell_angle_beta   90.00000000
_cell_angle_gamma   90.00000000
_symmetry_Int_Tables_number   1
_chemical_formula_structural   Yb3Ho(In2Pd3)4
_chemical_formula_sum   'Yb3 Ho1 In8 Pd12'
_cell_volume   469.92406219
_cell_formula_units_Z   1
loop_
 _symmetry_equiv_pos_site_id
 _symmetry_equiv_pos_as_xyz
  1  'x, y, z'
loop_
 _atom_site_type_symbol
 _atom_site_label
 _atom_site_symmetry_multiplicity
 _atom_site_fract_x
 _atom_site_fract_y
 _atom_site_fract_z
 _atom_site_occupancy
  Yb  Yb0  1  0.250000  0.053723  0.224082  1
  Yb  Yb1  1  0.750000  0.553763  0.275510  1
  Yb  Yb2  1  0.750000  0.946489  0.775782  1
  Ho  Ho3  1  0.250000  0.446547  0.723707  1
  In  In4  1  0.250000  0.890300  0.515398  1
  In  In5  1  0.250000  0.609635  0.016827  1
  In  In6  1  0.750000  0.109494  0.483426  1
  In  In7  1  0.750000  0.390472  0.984212  1
  In  In8  1  0.250000  0.160002  0.890686  1
  In  In9  1  0.250000  0.339263  0.389461  1
  In  In10  1  0.750000  0.839058  0.109905  1
  In  In11  1  0.750000  0.660770  0.609817  1
  Pd  Pd12  1  0.250000  0.155520  0.618652  1
  Pd  Pd13  1  0.250000  0.344548  0.117625  1
  Pd  Pd14  1  0.750000  0.844315  0.381956  1
  Pd  Pd15  1  0.750000  0.654637  0.880997  1
  Pd  Pd16  1  0.250000  0.741831  0.740392  1
  Pd  Pd17  1  0.250000  0.758413  0.240925  1
  Pd  Pd18  1  0.750000  0.258195  0.259465  1
  Pd  Pd19  1  0.750000  0.244020  0.758885  1
  Pd  Pd20  1  0.250000  0.893562  0.974377  1
  Pd  Pd21  1  0.250000  0.605849  0.475342  1
  Pd  Pd22  1  0.750000  0.105909  0.025441  1
  Pd  Pd23  1  0.750000  0.393687  0.527129  1
