# generated using pymatgen
data_Zr3CoSn3Ir2
_symmetry_space_group_name_H-M   'P 1'
_cell_length_a   7.36158600
_cell_length_b   7.36158644
_cell_length_c   7.22633300
_cell_angle_alpha   90.00000000
_cell_angle_beta   90.00000000
_cell_angle_gamma   119.99999801
_symmetry_Int_Tables_number   1
_chemical_formula_structural   Zr3CoSn3Ir2
_chemical_formula_sum   'Zr6 Co2 Sn6 Ir4'
_cell_volume   339.14968433
_cell_formula_units_Z   2
loop_
 _symmetry_equiv_pos_site_id
 _symmetry_equiv_pos_as_xyz
  1  'x, y, z'
loop_
 _atom_site_type_symbol
 _atom_site_label
 _atom_site_symmetry_multiplicity
 _atom_site_fract_x
 _atom_site_fract_y
 _atom_site_fract_z
 _atom_site_occupancy
  Zr  Zr0  1  0.405455  0.021320  0.250000  1
  Zr  Zr1  1  0.594545  0.615866  0.750000  1
  Zr  Zr2  1  0.615866  0.594545  0.250000  1
  Zr  Zr3  1  0.978680  0.384134  0.250000  1
  Zr  Zr4  1  0.021320  0.405455  0.750000  1
  Zr  Zr5  1  0.384134  0.978680  0.750000  1
  Co  Co6  1  0.000000  0.000000  0.750000  1
  Co  Co7  1  0.000000  0.000000  0.250000  1
  Sn  Sn8  1  0.261405  0.261405  0.500000  1
  Sn  Sn9  1  0.261405  0.261405  0.000000  1
  Sn  Sn10  1  0.738595  0.000000  0.000000  1
  Sn  Sn11  1  0.000000  0.738595  0.500000  1
  Sn  Sn12  1  0.738595  0.000000  0.500000  1
  Sn  Sn13  1  0.000000  0.738595  0.000000  1
  Ir  Ir14  1  0.666667  0.333333  0.537910  1
  Ir  Ir15  1  0.666667  0.333333  0.962090  1
  Ir  Ir16  1  0.333333  0.666667  0.037910  1
  Ir  Ir17  1  0.333333  0.666667  0.462090  1
