# generated using pymatgen
data_Y4Hf3IrF28
_symmetry_space_group_name_H-M   'P 1'
_cell_length_a   5.68332128
_cell_length_b   9.02586622
_cell_length_c   12.11925284
_cell_angle_alpha   62.53576669
_cell_angle_beta   90.11928383
_cell_angle_gamma   90.05883932
_symmetry_Int_Tables_number   1
_chemical_formula_structural   Y4Hf3IrF28
_chemical_formula_sum   'Y4 Hf3 Ir1 F28'
_cell_volume   551.61485011
_cell_formula_units_Z   1
loop_
 _symmetry_equiv_pos_site_id
 _symmetry_equiv_pos_as_xyz
  1  'x, y, z'
loop_
 _atom_site_type_symbol
 _atom_site_label
 _atom_site_symmetry_multiplicity
 _atom_site_fract_x
 _atom_site_fract_y
 _atom_site_fract_z
 _atom_site_occupancy
  Y  Y0  1  0.260016  0.814259  0.268836  1
  Y  Y1  1  0.742242  0.184343  0.733664  1
  Y  Y2  1  0.757648  0.186147  0.233495  1
  Y  Y3  1  0.238885  0.813726  0.761134  1
  Hf  Hf4  1  0.756522  0.726591  0.043875  1
  Hf  Hf5  1  0.244327  0.274126  0.954626  1
  Hf  Hf6  1  0.256207  0.274622  0.456002  1
  Ir  Ir7  1  0.740765  0.727097  0.544575  1
  F  F8  1  0.934365  0.707352  0.419234  1
  F  F9  1  0.040565  0.289846  0.580522  1
  F  F10  1  0.459812  0.290742  0.079453  1
  F  F11  1  0.538478  0.710730  0.920011  1
  F  F12  1  0.485531  0.732402  0.147804  1
  F  F13  1  0.518204  0.269414  0.852108  1
  F  F14  1  0.981363  0.266434  0.354758  1
  F  F15  1  0.029601  0.728534  0.638263  1
  F  F16  1  0.966344  0.747019  0.171424  1
  F  F17  1  0.037887  0.252451  0.827156  1
  F  F18  1  0.464406  0.254109  0.328370  1
  F  F19  1  0.551672  0.743069  0.674107  1
  F  F20  1  0.773613  0.476990  0.139963  1
  F  F21  1  0.226633  0.523354  0.858494  1
  F  F22  1  0.267689  0.524134  0.360560  1
  F  F23  1  0.730763  0.484654  0.640635  1
  F  F24  1  0.951925  0.277465  0.048161  1
  F  F25  1  0.046648  0.723274  0.949156  1
  F  F26  1  0.444366  0.721282  0.456320  1
  F  F27  1  0.549507  0.281323  0.547673  1
  F  F28  1  0.743867  0.969366  0.452479  1
  F  F29  1  0.263305  0.026001  0.554950  1
  F  F30  1  0.242562  0.026124  0.058237  1
  F  F31  1  0.758797  0.975569  0.942608  1
  F  F32  1  0.577619  0.971951  0.235057  1
  F  F33  1  0.421345  0.027519  0.764897  1
  F  F34  1  0.075599  0.026644  0.270656  1
  F  F35  1  0.920925  0.971333  0.730736  1
