# generated using pymatgen
data_Ca3Th5GaPd24
_symmetry_space_group_name_H-M   'P 1'
_cell_length_a   8.44085215
_cell_length_b   8.44085255
_cell_length_c   8.44085200
_cell_angle_alpha   89.69685036
_cell_angle_beta   89.69685034
_cell_angle_gamma   90.30315018
_symmetry_Int_Tables_number   1
_chemical_formula_structural   Ca3Th5GaPd24
_chemical_formula_sum   'Ca3 Th5 Ga1 Pd24'
_cell_volume   601.36838266
_cell_formula_units_Z   1
loop_
 _symmetry_equiv_pos_site_id
 _symmetry_equiv_pos_as_xyz
  1  'x, y, z'
loop_
 _atom_site_type_symbol
 _atom_site_label
 _atom_site_symmetry_multiplicity
 _atom_site_fract_x
 _atom_site_fract_y
 _atom_site_fract_z
 _atom_site_occupancy
  Ca  Ca0  1  0.748592  0.251100  0.748900  1
  Ca  Ca1  1  0.251100  0.748592  0.748900  1
  Ca  Ca2  1  0.251100  0.251100  0.251408  1
  Th  Th3  1  0.252658  0.252658  0.747342  1
  Th  Th4  1  0.252309  0.746961  0.253039  1
  Th  Th5  1  0.746961  0.252309  0.253039  1
  Th  Th6  1  0.746961  0.746961  0.747691  1
  Th  Th7  1  0.749465  0.749465  0.250535  1
  Ga  Ga8  1  0.999746  0.999746  0.000254  1
  Pd  Pd9  1  0.500084  0.500084  0.747102  1
  Pd  Pd10  1  0.500084  0.252898  0.499916  1
  Pd  Pd11  1  0.252898  0.500084  0.499916  1
  Pd  Pd12  1  0.500902  0.500902  0.253401  1
  Pd  Pd13  1  0.500902  0.746599  0.499098  1
  Pd  Pd14  1  0.746599  0.500902  0.499098  1
  Pd  Pd15  1  0.998864  0.998864  0.708555  1
  Pd  Pd16  1  0.998864  0.291445  0.001136  1
  Pd  Pd17  1  0.291445  0.998864  0.001136  1
  Pd  Pd18  1  0.002326  0.002326  0.293127  1
  Pd  Pd19  1  0.002326  0.706873  0.997674  1
  Pd  Pd20  1  0.706873  0.002326  0.997674  1
  Pd  Pd21  1  0.999101  0.499209  0.739579  1
  Pd  Pd22  1  0.499209  0.260421  0.000899  1
  Pd  Pd23  1  0.260421  0.999101  0.500791  1
  Pd  Pd24  1  0.999101  0.260421  0.500791  1
  Pd  Pd25  1  0.499209  0.999101  0.739579  1
  Pd  Pd26  1  0.260421  0.499209  0.000899  1
  Pd  Pd27  1  0.999387  0.501060  0.259708  1
  Pd  Pd28  1  0.501060  0.740292  0.000613  1
  Pd  Pd29  1  0.999387  0.740292  0.498940  1
  Pd  Pd30  1  0.501060  0.999387  0.259708  1
  Pd  Pd31  1  0.740292  0.999387  0.498940  1
  Pd  Pd32  1  0.740292  0.501060  0.000613  1
