# generated using pymatgen
data_Lu5ScFe4Si5P
_symmetry_space_group_name_H-M   'P 1'
_cell_length_a   5.47182816
_cell_length_b   5.47182777
_cell_length_c   13.13363800
_cell_angle_alpha   90.00000000
_cell_angle_beta   90.00000000
_cell_angle_gamma   136.96143706
_symmetry_Int_Tables_number   1
_chemical_formula_structural   Lu5ScFe4Si5P
_chemical_formula_sum   'Lu5 Sc1 Fe4 Si5 P1'
_cell_volume   268.37773616
_cell_formula_units_Z   1
loop_
 _symmetry_equiv_pos_site_id
 _symmetry_equiv_pos_as_xyz
  1  'x, y, z'
loop_
 _atom_site_type_symbol
 _atom_site_label
 _atom_site_symmetry_multiplicity
 _atom_site_fract_x
 _atom_site_fract_y
 _atom_site_fract_z
 _atom_site_occupancy
  Lu  Lu0  1  0.640023  0.359977  0.250000  1
  Lu  Lu1  1  0.920577  0.079423  0.113195  1
  Lu  Lu2  1  0.079002  0.920998  0.885888  1
  Lu  Lu3  1  0.079002  0.920998  0.614112  1
  Lu  Lu4  1  0.920577  0.079423  0.386805  1
  Sc  Sc5  1  0.357607  0.642393  0.750000  1
  Fe  Fe6  1  0.787339  0.212661  0.581160  1
  Fe  Fe7  1  0.212502  0.787498  0.416460  1
  Fe  Fe8  1  0.212502  0.787498  0.083540  1
  Fe  Fe9  1  0.787339  0.212661  0.918840  1
  Si  Si10  1  0.676988  0.323012  0.750000  1
  Si  Si11  1  0.619913  0.380087  0.038772  1
  Si  Si12  1  0.378713  0.621287  0.958847  1
  Si  Si13  1  0.378713  0.621287  0.541153  1
  Si  Si14  1  0.619913  0.380087  0.461228  1
  P  P15  1  0.329288  0.670712  0.250000  1
