# generated using pymatgen
data_La2Pr(SnRh)2
_symmetry_space_group_name_H-M   'P 1'
_cell_length_a   5.99658300
_cell_length_b   8.67909200
_cell_length_c   13.91698600
_cell_angle_alpha   90.00000000
_cell_angle_beta   90.00000000
_cell_angle_gamma   90.00000000
_symmetry_Int_Tables_number   1
_chemical_formula_structural   La2Pr(SnRh)2
_chemical_formula_sum   'La8 Pr4 Sn8 Rh8'
_cell_volume   724.30808264
_cell_formula_units_Z   4
loop_
 _symmetry_equiv_pos_site_id
 _symmetry_equiv_pos_as_xyz
  1  'x, y, z'
loop_
 _atom_site_type_symbol
 _atom_site_label
 _atom_site_symmetry_multiplicity
 _atom_site_fract_x
 _atom_site_fract_y
 _atom_site_fract_z
 _atom_site_occupancy
  La  La0  1  0.174318  0.399317  0.092958  1
  La  La1  1  0.825682  0.600683  0.907042  1
  La  La2  1  0.825682  0.600683  0.592958  1
  La  La3  1  0.825682  0.899317  0.407042  1
  La  La4  1  0.174318  0.399317  0.407042  1
  La  La5  1  0.174318  0.100683  0.592958  1
  La  La6  1  0.174318  0.100683  0.907042  1
  La  La7  1  0.825682  0.899317  0.092958  1
  Pr  Pr8  1  0.638944  0.255697  0.250000  1
  Pr  Pr9  1  0.361056  0.744303  0.750000  1
  Pr  Pr10  1  0.361056  0.755697  0.250000  1
  Pr  Pr11  1  0.638944  0.244303  0.750000  1
  Sn  Sn12  1  0.136891  0.106966  0.250000  1
  Sn  Sn13  1  0.863109  0.893034  0.750000  1
  Sn  Sn14  1  0.863109  0.606966  0.250000  1
  Sn  Sn15  1  0.136891  0.393034  0.750000  1
  Sn  Sn16  1  0.666609  0.250000  0.000000  1
  Sn  Sn17  1  0.333391  0.750000  0.000000  1
  Sn  Sn18  1  0.333391  0.750000  0.500000  1
  Sn  Sn19  1  0.666609  0.250000  0.500000  1
  Rh  Rh20  1  0.386706  0.041063  0.092148  1
  Rh  Rh21  1  0.613294  0.958937  0.907852  1
  Rh  Rh22  1  0.613294  0.958937  0.592148  1
  Rh  Rh23  1  0.613294  0.541063  0.407852  1
  Rh  Rh24  1  0.386706  0.041063  0.407852  1
  Rh  Rh25  1  0.386706  0.458937  0.592148  1
  Rh  Rh26  1  0.386706  0.458937  0.907852  1
  Rh  Rh27  1  0.613294  0.541063  0.092148  1
