# generated using pymatgen
data_Hf3Nb2Sn3C
_symmetry_space_group_name_H-M   'P 1'
_cell_length_a   8.30777900
_cell_length_b   8.30777868
_cell_length_c   5.66540800
_cell_angle_alpha   90.00000000
_cell_angle_beta   90.00000000
_cell_angle_gamma   120.00000527
_symmetry_Int_Tables_number   1
_chemical_formula_structural   Hf3Nb2Sn3C
_chemical_formula_sum   'Hf6 Nb4 Sn6 C2'
_cell_volume   338.63485206
_cell_formula_units_Z   2
loop_
 _symmetry_equiv_pos_site_id
 _symmetry_equiv_pos_as_xyz
  1  'x, y, z'
loop_
 _atom_site_type_symbol
 _atom_site_label
 _atom_site_symmetry_multiplicity
 _atom_site_fract_x
 _atom_site_fract_y
 _atom_site_fract_z
 _atom_site_occupancy
  Hf  Hf0  1  0.221293  0.000000  0.750000  1
  Hf  Hf1  1  0.778707  0.000000  0.250000  1
  Hf  Hf2  1  0.000000  0.221293  0.750000  1
  Hf  Hf3  1  0.000000  0.778707  0.250000  1
  Hf  Hf4  1  0.778707  0.778707  0.750000  1
  Hf  Hf5  1  0.221293  0.221293  0.250000  1
  Nb  Nb6  1  0.333333  0.666667  0.500000  1
  Nb  Nb7  1  0.666667  0.333333  0.500000  1
  Nb  Nb8  1  0.666667  0.333333  0.000000  1
  Nb  Nb9  1  0.333333  0.666667  0.000000  1
  Sn  Sn10  1  0.592638  0.000000  0.750000  1
  Sn  Sn11  1  0.407362  0.000000  0.250000  1
  Sn  Sn12  1  0.000000  0.592638  0.750000  1
  Sn  Sn13  1  0.000000  0.407362  0.250000  1
  Sn  Sn14  1  0.407362  0.407362  0.750000  1
  Sn  Sn15  1  0.592638  0.592638  0.250000  1
  C  C16  1  0.000000  0.000000  0.500000  1
  C  C17  1  0.000000  0.000000  0.000000  1
