# generated using pymatgen
data_Eu7(YPt3)2
_symmetry_space_group_name_H-M   'P 1'
_cell_length_a   7.84005379
_cell_length_b   7.84005382
_cell_length_c   7.84005512
_cell_angle_alpha   70.07048620
_cell_angle_beta   70.07048884
_cell_angle_gamma   70.07049404
_symmetry_Int_Tables_number   1
_chemical_formula_structural   Eu7(YPt3)2
_chemical_formula_sum   'Eu7 Y2 Pt6'
_cell_volume   411.91745117
_cell_formula_units_Z   1
loop_
 _symmetry_equiv_pos_site_id
 _symmetry_equiv_pos_as_xyz
  1  'x, y, z'
loop_
 _atom_site_type_symbol
 _atom_site_label
 _atom_site_symmetry_multiplicity
 _atom_site_fract_x
 _atom_site_fract_y
 _atom_site_fract_z
 _atom_site_occupancy
  Eu  Eu0  1  0.200033  0.200033  0.200033  1
  Eu  Eu1  1  0.332696  0.604436  0.845040  1
  Eu  Eu2  1  0.845040  0.332696  0.604436  1
  Eu  Eu3  1  0.604436  0.845040  0.332696  1
  Eu  Eu4  1  0.667634  0.396117  0.153945  1
  Eu  Eu5  1  0.153945  0.667634  0.396117  1
  Eu  Eu6  1  0.396117  0.153945  0.667634  1
  Y  Y7  1  0.000549  0.000549  0.000549  1
  Y  Y8  1  0.803935  0.803935  0.803935  1
  Pt  Pt9  1  0.144853  0.954746  0.606718  1
  Pt  Pt10  1  0.606718  0.144853  0.954746  1
  Pt  Pt11  1  0.954746  0.606718  0.144853  1
  Pt  Pt12  1  0.843446  0.036229  0.409622  1
  Pt  Pt13  1  0.409622  0.843446  0.036229  1
  Pt  Pt14  1  0.036229  0.409622  0.843446  1
