# generated using pymatgen
data_Er3MgAl2Si2Pd
_symmetry_space_group_name_H-M   'P 1'
_cell_length_a   6.96989500
_cell_length_b   6.91449433
_cell_length_c   4.26952500
_cell_angle_alpha   90.00000000
_cell_angle_beta   90.00000000
_cell_angle_gamma   120.26540379
_symmetry_Int_Tables_number   1
_chemical_formula_structural   Er3MgAl2Si2Pd
_chemical_formula_sum   'Er3 Mg1 Al2 Si2 Pd1'
_cell_volume   177.71707590
_cell_formula_units_Z   1
loop_
 _symmetry_equiv_pos_site_id
 _symmetry_equiv_pos_as_xyz
  1  'x, y, z'
loop_
 _atom_site_type_symbol
 _atom_site_label
 _atom_site_symmetry_multiplicity
 _atom_site_fract_x
 _atom_site_fract_y
 _atom_site_fract_z
 _atom_site_occupancy
  Er  Er0  1  0.416318  0.000000  0.000000  1
  Er  Er1  1  0.999385  0.419241  0.000000  1
  Er  Er2  1  0.580144  0.580759  0.000000  1
  Mg  Mg3  1  0.759390  0.000000  0.500001  1
  Al  Al4  1  0.242194  0.238472  0.500001  1
  Al  Al5  1  0.003723  0.761528  0.500001  1
  Si  Si6  1  0.663173  0.340103  0.500001  1
  Si  Si7  1  0.323069  0.659897  0.500001  1
  Pd  Pd8  1  0.012602  0.000000  0.000000  1
