# generated using pymatgen
data_Sr2TmPaO6
_symmetry_space_group_name_H-M   'P 1'
_cell_length_a   6.10989600
_cell_length_b   5.98929957
_cell_length_c   10.41817058
_cell_angle_alpha   55.04413723
_cell_angle_beta   90.00000000
_cell_angle_gamma   90.00000000
_symmetry_Int_Tables_number   1
_chemical_formula_structural   Sr2TmPaO6
_chemical_formula_sum   'Sr4 Tm2 Pa2 O12'
_cell_volume   312.46393841
_cell_formula_units_Z   2
loop_
 _symmetry_equiv_pos_site_id
 _symmetry_equiv_pos_as_xyz
  1  'x, y, z'
loop_
 _atom_site_type_symbol
 _atom_site_label
 _atom_site_symmetry_multiplicity
 _atom_site_fract_x
 _atom_site_fract_y
 _atom_site_fract_z
 _atom_site_occupancy
  Sr  Sr0  1  0.041749  0.238230  0.250833  1
  Sr  Sr1  1  0.541749  0.761770  0.249167  1
  Sr  Sr2  1  0.458251  0.238230  0.750833  1
  Sr  Sr3  1  0.958251  0.761770  0.749167  1
  Tm  Tm4  1  0.500000  0.000000  0.500000  1
  Tm  Tm5  1  0.000000  0.000000  0.000000  1
  Pa  Pa6  1  0.500000  0.500000  0.000000  1
  Pa  Pa7  1  0.000000  0.500000  0.500000  1
  O  O8  1  0.535221  0.650064  0.753246  1
  O  O9  1  0.035221  0.349936  0.746754  1
  O  O10  1  0.464779  0.349936  0.246754  1
  O  O11  1  0.964779  0.650064  0.253246  1
  O  O12  1  0.798760  0.842827  0.450125  1
  O  O13  1  0.298760  0.157173  0.049875  1
  O  O14  1  0.201240  0.157173  0.549875  1
  O  O15  1  0.701240  0.842827  0.950125  1
  O  O16  1  0.208931  0.754565  0.946669  1
  O  O17  1  0.708931  0.245435  0.553331  1
  O  O18  1  0.791069  0.245435  0.053331  1
  O  O19  1  0.291069  0.754565  0.446669  1
