# generated using pymatgen
data_Yb2LuPaNi13C4
_symmetry_space_group_name_H-M   'P 1'
_cell_length_a   8.33640481
_cell_length_b   8.33640480
_cell_length_c   3.86099000
_cell_angle_alpha   90.00000000
_cell_angle_beta   90.00000000
_cell_angle_gamma   90.64652195
_symmetry_Int_Tables_number   1
_chemical_formula_structural   Yb2LuPaNi13C4
_chemical_formula_sum   'Yb2 Lu1 Pa1 Ni13 C4'
_cell_volume   268.30490869
_cell_formula_units_Z   1
loop_
 _symmetry_equiv_pos_site_id
 _symmetry_equiv_pos_as_xyz
  1  'x, y, z'
loop_
 _atom_site_type_symbol
 _atom_site_label
 _atom_site_symmetry_multiplicity
 _atom_site_fract_x
 _atom_site_fract_y
 _atom_site_fract_z
 _atom_site_occupancy
  Yb  Yb0  1  0.349106  0.352005  0.500000  1
  Yb  Yb1  1  0.647995  0.650894  0.500000  1
  Lu  Lu2  1  0.186230  0.813770  0.500000  1
  Pa  Pa3  1  0.821287  0.178713  0.500000  1
  Ni  Ni4  1  0.995808  0.004192  0.000000  1
  Ni  Ni5  1  0.217294  0.574180  0.000000  1
  Ni  Ni6  1  0.786759  0.423275  0.000000  1
  Ni  Ni7  1  0.425820  0.782706  0.000000  1
  Ni  Ni8  1  0.576725  0.213241  0.000000  1
  Ni  Ni9  1  0.998355  0.496365  0.500000  1
  Ni  Ni10  1  0.503635  0.001645  0.500000  1
  Ni  Ni11  1  0.070973  0.293124  0.000000  1
  Ni  Ni12  1  0.927409  0.711653  0.000000  1
  Ni  Ni13  1  0.706876  0.929027  0.000000  1
  Ni  Ni14  1  0.288347  0.072591  0.000000  1
  Ni  Ni15  1  0.125903  0.127929  0.500000  1
  Ni  Ni16  1  0.872071  0.874097  0.500000  1
  C  C17  1  0.001902  0.505052  0.000000  1
  C  C18  1  0.494948  0.998098  0.000000  1
  C  C19  1  0.445166  0.554834  0.000000  1
  C  C20  1  0.557389  0.442611  0.000000  1
