# generated using pymatgen
data_Co2Cu(AsO4)2
_symmetry_space_group_name_H-M   'P 1'
_cell_length_a   5.12905498
_cell_length_b   5.42947633
_cell_length_c   6.77028904
_cell_angle_alpha   109.65603136
_cell_angle_beta   87.23853667
_cell_angle_gamma   111.68985998
_symmetry_Int_Tables_number   1
_chemical_formula_structural   Co2Cu(AsO4)2
_chemical_formula_sum   'Co2 Cu1 As2 O8'
_cell_volume   164.35632707
_cell_formula_units_Z   1
loop_
 _symmetry_equiv_pos_site_id
 _symmetry_equiv_pos_as_xyz
  1  'x, y, z'
loop_
 _atom_site_type_symbol
 _atom_site_label
 _atom_site_symmetry_multiplicity
 _atom_site_fract_x
 _atom_site_fract_y
 _atom_site_fract_z
 _atom_site_occupancy
  Co  Co0  1  0.781419  0.260838  0.818781  1
  Co  Co1  1  0.218581  0.739162  0.181219  1
  Cu  Cu2  1  0.500000  0.500000  0.500000  1
  As  As3  1  0.136220  0.853528  0.718176  1
  As  As4  1  0.863780  0.146472  0.281824  1
  O  O5  1  0.733913  0.298704  0.514705  1
  O  O6  1  0.266087  0.701296  0.485295  1
  O  O7  1  0.629475  0.815644  0.154233  1
  O  O8  1  0.370525  0.184356  0.845767  1
  O  O9  1  0.911860  0.352167  0.124840  1
  O  O10  1  0.814724  0.870529  0.662359  1
  O  O11  1  0.185276  0.129471  0.337641  1
  O  O12  1  0.088140  0.647833  0.875160  1
