# generated using pymatgen
data_Pr4In2Si3Ge
_symmetry_space_group_name_H-M   'P 1'
_cell_length_a   7.55852827
_cell_length_b   7.55852827
_cell_length_c   4.35619500
_cell_angle_alpha   90.00000000
_cell_angle_beta   90.00000000
_cell_angle_gamma   90.20651733
_symmetry_Int_Tables_number   1
_chemical_formula_structural   Pr4In2Si3Ge
_chemical_formula_sum   'Pr4 In2 Si3 Ge1'
_cell_volume   248.87368316
_cell_formula_units_Z   1
loop_
 _symmetry_equiv_pos_site_id
 _symmetry_equiv_pos_as_xyz
  1  'x, y, z'
loop_
 _atom_site_type_symbol
 _atom_site_label
 _atom_site_symmetry_multiplicity
 _atom_site_fract_x
 _atom_site_fract_y
 _atom_site_fract_z
 _atom_site_occupancy
  Pr  Pr0  1  0.316876  0.819126  0.500000  1
  Pr  Pr1  1  0.820996  0.679004  0.500000  1
  Pr  Pr2  1  0.180086  0.319914  0.500000  1
  Pr  Pr3  1  0.680874  0.183124  0.500000  1
  In  In4  1  0.003335  0.001233  0.000000  1
  In  In5  1  0.498767  0.496665  0.000000  1
  Si  Si6  1  0.383755  0.116245  0.000000  1
  Si  Si7  1  0.887589  0.387072  0.000000  1
  Si  Si8  1  0.112928  0.612411  0.000000  1
  Ge  Ge9  1  0.614794  0.885206  0.000000  1
