# generated using pymatgen
data_Li3PaSe4
_symmetry_space_group_name_H-M   'P 1'
_cell_length_a   8.01394200
_cell_length_b   7.00232325
_cell_length_c   6.81004852
_cell_angle_alpha   70.09069947
_cell_angle_beta   90.00000000
_cell_angle_gamma   90.00000000
_symmetry_Int_Tables_number   1
_chemical_formula_structural   Li3PaSe4
_chemical_formula_sum   'Li6 Pa2 Se8'
_cell_volume   359.31387114
_cell_formula_units_Z   2
loop_
 _symmetry_equiv_pos_site_id
 _symmetry_equiv_pos_as_xyz
  1  'x, y, z'
loop_
 _atom_site_type_symbol
 _atom_site_label
 _atom_site_symmetry_multiplicity
 _atom_site_fract_x
 _atom_site_fract_y
 _atom_site_fract_z
 _atom_site_occupancy
  Li  Li0  1  0.613292  0.250000  0.000000  1
  Li  Li1  1  0.386708  0.750000  0.000000  1
  Li  Li2  1  0.400697  0.250000  0.500000  1
  Li  Li3  1  0.858404  0.250000  0.500000  1
  Li  Li4  1  0.599303  0.750000  0.500000  1
  Li  Li5  1  0.141596  0.750000  0.500000  1
  Pa  Pa6  1  0.143849  0.250000  0.000000  1
  Pa  Pa7  1  0.856151  0.750000  0.000000  1
  Se  Se8  1  0.374570  0.009393  0.255547  1
  Se  Se9  1  0.114644  0.501147  0.241228  1
  Se  Se10  1  0.625430  0.509393  0.255547  1
  Se  Se11  1  0.885356  0.001147  0.241228  1
  Se  Se12  1  0.114644  0.998853  0.758772  1
  Se  Se13  1  0.374570  0.490607  0.744453  1
  Se  Se14  1  0.885356  0.498853  0.758772  1
  Se  Se15  1  0.625430  0.990607  0.744453  1
