# generated using pymatgen
data_AcGa6Cu7
_symmetry_space_group_name_H-M   'P 1'
_cell_length_a   8.42093822
_cell_length_b   8.42093868
_cell_length_c   8.42093800
_cell_angle_alpha   122.15595221
_cell_angle_beta   118.59040990
_cell_angle_gamma   89.38287830
_symmetry_Int_Tables_number   1
_chemical_formula_structural   AcGa6Cu7
_chemical_formula_sum   'Ac2 Ga12 Cu14'
_cell_volume   419.32373780
_cell_formula_units_Z   2
loop_
 _symmetry_equiv_pos_site_id
 _symmetry_equiv_pos_as_xyz
  1  'x, y, z'
loop_
 _atom_site_type_symbol
 _atom_site_label
 _atom_site_symmetry_multiplicity
 _atom_site_fract_x
 _atom_site_fract_y
 _atom_site_fract_z
 _atom_site_occupancy
  Ac  Ac0  1  0.250000  0.750000  0.500000  1
  Ac  Ac1  1  0.750000  0.250000  0.500000  1
  Ga  Ga2  1  0.553953  0.546949  0.356172  1
  Ga  Ga3  1  0.446047  0.453051  0.643828  1
  Ga  Ga4  1  0.190776  0.197779  0.643828  1
  Ga  Ga5  1  0.309224  0.953051  0.007003  1
  Ga  Ga6  1  0.809224  0.802221  0.356172  1
  Ga  Ga7  1  0.690776  0.046949  0.992997  1
  Ga  Ga8  1  0.946047  0.302221  0.992997  1
  Ga  Ga9  1  0.053953  0.697779  0.007003  1
  Ga  Ga10  1  0.053076  0.308539  0.361614  1
  Ga  Ga11  1  0.946924  0.691461  0.638386  1
  Ga  Ga12  1  0.553076  0.191461  0.744536  1
  Ga  Ga13  1  0.446924  0.808539  0.255464  1
  Cu  Cu14  1  0.290599  0.296559  0.234467  1
  Cu  Cu15  1  0.709401  0.703441  0.765533  1
  Cu  Cu16  1  0.062092  0.056133  0.765533  1
  Cu  Cu17  1  0.437908  0.203441  0.994040  1
  Cu  Cu18  1  0.937908  0.943867  0.234467  1
  Cu  Cu19  1  0.562092  0.796559  0.005960  1
  Cu  Cu20  1  0.209401  0.443867  0.005960  1
  Cu  Cu21  1  0.790599  0.556133  0.994040  1
  Cu  Cu22  1  0.000000  0.000000  0.000000  1
  Cu  Cu23  1  0.500000  0.500000  0.000000  1
  Cu  Cu24  1  0.287633  0.065192  0.352826  1
  Cu  Cu25  1  0.712367  0.934808  0.647174  1
  Cu  Cu26  1  0.787633  0.434808  0.222442  1
  Cu  Cu27  1  0.212367  0.565192  0.777558  1
