# generated using pymatgen
data_Lu3U(VB4)4
_symmetry_space_group_name_H-M   'P 1'
_cell_length_a   3.42949200
_cell_length_b   5.94229944
_cell_length_c   11.50501070
_cell_angle_alpha   89.87009836
_cell_angle_beta   90.00000000
_cell_angle_gamma   90.00000000
_symmetry_Int_Tables_number   1
_chemical_formula_structural   Lu3U(VB4)4
_chemical_formula_sum   'Lu3 U1 V4 B16'
_cell_volume   234.46079728
_cell_formula_units_Z   1
loop_
 _symmetry_equiv_pos_site_id
 _symmetry_equiv_pos_as_xyz
  1  'x, y, z'
loop_
 _atom_site_type_symbol
 _atom_site_label
 _atom_site_symmetry_multiplicity
 _atom_site_fract_x
 _atom_site_fract_y
 _atom_site_fract_z
 _atom_site_occupancy
  Lu  Lu0  1  0.000000  0.374233  0.652321  1
  Lu  Lu1  1  0.000000  0.122800  0.148857  1
  Lu  Lu2  1  0.000000  0.875415  0.849419  1
  U  U3  1  0.000000  0.626270  0.348653  1
  V  V4  1  0.000000  0.626241  0.085254  1
  V  V5  1  0.000000  0.371884  0.917287  1
  V  V6  1  0.000000  0.128810  0.415279  1
  V  V7  1  0.000000  0.871308  0.581874  1
  B  B8  1  0.500000  0.785985  0.186224  1
  B  B9  1  0.500000  0.212523  0.813627  1
  B  B10  1  0.500000  0.287287  0.314038  1
  B  B11  1  0.500000  0.714430  0.687043  1
  B  B12  1  0.500000  0.866014  0.032478  1
  B  B13  1  0.500000  0.133696  0.967435  1
  B  B14  1  0.500000  0.366967  0.467091  1
  B  B15  1  0.500000  0.635273  0.532628  1
  B  B16  1  0.500000  0.886438  0.452551  1
  B  B17  1  0.500000  0.116247  0.548217  1
  B  B18  1  0.500000  0.384132  0.047121  1
  B  B19  1  0.500000  0.615781  0.952163  1
  B  B20  1  0.500000  0.974972  0.307285  1
  B  B21  1  0.500000  0.023032  0.693875  1
  B  B22  1  0.500000  0.476402  0.192525  1
  B  B23  1  0.500000  0.523861  0.806753  1
