# generated using pymatgen
data_Cs3RbCr3WN8
_symmetry_space_group_name_H-M   'P 1'
_cell_length_a   5.91753900
_cell_length_b   8.35084000
_cell_length_c   11.82435900
_cell_angle_alpha   90.00000000
_cell_angle_beta   90.00000000
_cell_angle_gamma   90.00000000
_symmetry_Int_Tables_number   1
_chemical_formula_structural   Cs3RbCr3WN8
_chemical_formula_sum   'Cs6 Rb2 Cr6 W2 N16'
_cell_volume   584.31750693
_cell_formula_units_Z   2
loop_
 _symmetry_equiv_pos_site_id
 _symmetry_equiv_pos_as_xyz
  1  'x, y, z'
loop_
 _atom_site_type_symbol
 _atom_site_label
 _atom_site_symmetry_multiplicity
 _atom_site_fract_x
 _atom_site_fract_y
 _atom_site_fract_z
 _atom_site_occupancy
  Cs  Cs0  1  0.250000  0.874203  0.000000  1
  Cs  Cs1  1  0.750000  0.125797  0.500000  1
  Cs  Cs2  1  0.740866  0.367656  0.238663  1
  Cs  Cs3  1  0.240866  0.632344  0.261337  1
  Cs  Cs4  1  0.259134  0.632344  0.738663  1
  Cs  Cs5  1  0.759134  0.367656  0.761337  1
  Rb  Rb6  1  0.750000  0.103756  0.000000  1
  Rb  Rb7  1  0.250000  0.896244  0.500000  1
  Cr  Cr8  1  0.750000  0.643033  0.000000  1
  Cr  Cr9  1  0.250000  0.356967  0.500000  1
  Cr  Cr10  1  0.243189  0.118465  0.252399  1
  Cr  Cr11  1  0.743189  0.881535  0.247601  1
  Cr  Cr12  1  0.756811  0.881535  0.752399  1
  Cr  Cr13  1  0.256811  0.118465  0.747601  1
  W  W14  1  0.250000  0.380196  0.000000  1
  W  W15  1  0.750000  0.619804  0.500000  1
  N  N16  1  0.988967  0.004232  0.249847  1
  N  N17  1  0.488967  0.995768  0.250153  1
  N  N18  1  0.011033  0.995768  0.749847  1
  N  N19  1  0.511033  0.004232  0.750153  1
  N  N20  1  0.248148  0.234715  0.378837  1
  N  N21  1  0.748148  0.765285  0.121163  1
  N  N22  1  0.751852  0.765285  0.878837  1
  N  N23  1  0.251852  0.234715  0.621163  1
  N  N24  1  0.751183  0.750792  0.629964  1
  N  N25  1  0.251183  0.249208  0.870036  1
  N  N26  1  0.248817  0.249208  0.129964  1
  N  N27  1  0.748817  0.750792  0.370036  1
  N  N28  1  0.494686  0.486098  0.499771  1
  N  N29  1  0.994686  0.513902  0.000229  1
  N  N30  1  0.505314  0.513902  0.999771  1
  N  N31  1  0.005314  0.486098  0.500229  1
