# generated using pymatgen
data_Cs3VPBr9
_symmetry_space_group_name_H-M   'P 1'
_cell_length_a   7.81802300
_cell_length_b   7.81802316
_cell_length_c   19.68165900
_cell_angle_alpha   90.00000000
_cell_angle_beta   90.00000000
_cell_angle_gamma   119.99999509
_symmetry_Int_Tables_number   1
_chemical_formula_structural   Cs3VPBr9
_chemical_formula_sum   'Cs6 V2 P2 Br18'
_cell_volume   1041.80455685
_cell_formula_units_Z   2
loop_
 _symmetry_equiv_pos_site_id
 _symmetry_equiv_pos_as_xyz
  1  'x, y, z'
loop_
 _atom_site_type_symbol
 _atom_site_label
 _atom_site_symmetry_multiplicity
 _atom_site_fract_x
 _atom_site_fract_y
 _atom_site_fract_z
 _atom_site_occupancy
  Cs  Cs0  1  0.666667  0.333333  0.910539  1
  Cs  Cs1  1  0.333333  0.666667  0.410539  1
  Cs  Cs2  1  0.666667  0.333333  0.566254  1
  Cs  Cs3  1  0.333333  0.666667  0.066254  1
  Cs  Cs4  1  0.000000  0.000000  0.762824  1
  Cs  Cs5  1  0.000000  0.000000  0.262824  1
  V  V6  1  0.666667  0.333333  0.339111  1
  V  V7  1  0.333333  0.666667  0.839111  1
  P  P8  1  0.333333  0.666667  0.653375  1
  P  P9  1  0.666667  0.333333  0.153375  1
  Br  Br10  1  0.822154  0.644306  0.409495  1
  Br  Br11  1  0.177846  0.355694  0.909495  1
  Br  Br12  1  0.177846  0.822154  0.909495  1
  Br  Br13  1  0.182486  0.364973  0.590147  1
  Br  Br14  1  0.644306  0.822154  0.909495  1
  Br  Br15  1  0.355694  0.177846  0.409495  1
  Br  Br16  1  0.027806  0.513903  0.756323  1
  Br  Br17  1  0.822154  0.177846  0.409495  1
  Br  Br18  1  0.513903  0.027806  0.256323  1
  Br  Br19  1  0.486097  0.513903  0.756323  1
  Br  Br20  1  0.513903  0.486097  0.256323  1
  Br  Br21  1  0.972194  0.486097  0.256323  1
  Br  Br22  1  0.364973  0.182486  0.090147  1
  Br  Br23  1  0.486097  0.972194  0.756323  1
  Br  Br24  1  0.817514  0.635027  0.090147  1
  Br  Br25  1  0.182486  0.817514  0.590147  1
  Br  Br26  1  0.635027  0.817514  0.590147  1
  Br  Br27  1  0.817514  0.182486  0.090147  1
