# generated using pymatgen
data_Tb15Y(Tl3Rh)2
_symmetry_space_group_name_H-M   'P 1'
_cell_length_a   10.49286700
_cell_length_b   10.49286692
_cell_length_c   7.09173300
_cell_angle_alpha   90.00000000
_cell_angle_beta   90.00000000
_cell_angle_gamma   120.00000340
_symmetry_Int_Tables_number   1
_chemical_formula_structural   Tb15Y(Tl3Rh)2
_chemical_formula_sum   'Tb15 Y1 Tl6 Rh2'
_cell_volume   676.19402041
_cell_formula_units_Z   1
loop_
 _symmetry_equiv_pos_site_id
 _symmetry_equiv_pos_as_xyz
  1  'x, y, z'
loop_
 _atom_site_type_symbol
 _atom_site_label
 _atom_site_symmetry_multiplicity
 _atom_site_fract_x
 _atom_site_fract_y
 _atom_site_fract_z
 _atom_site_occupancy
  Tb  Tb0  1  0.465936  0.534064  0.479914  1
  Tb  Tb1  1  0.068127  0.534064  0.479914  1
  Tb  Tb2  1  0.465936  0.931873  0.479914  1
  Tb  Tb3  1  0.534097  0.465903  0.980096  1
  Tb  Tb4  1  0.931808  0.465903  0.980096  1
  Tb  Tb5  1  0.534097  0.068192  0.980096  1
  Tb  Tb6  1  0.824348  0.175652  0.275716  1
  Tb  Tb7  1  0.351303  0.175652  0.275716  1
  Tb  Tb8  1  0.824348  0.648697  0.275716  1
  Tb  Tb9  1  0.175769  0.824231  0.775916  1
  Tb  Tb10  1  0.648461  0.824231  0.775916  1
  Tb  Tb11  1  0.175769  0.351539  0.775916  1
  Tb  Tb12  1  0.333333  0.666667  0.099799  1
  Tb  Tb13  1  0.666667  0.333333  0.600488  1
  Tb  Tb14  1  0.000000  0.000000  0.496073  1
  Y  Y15  1  0.000000  0.000000  0.995955  1
  Tl  Tl16  1  0.163020  0.836980  0.232996  1
  Tl  Tl17  1  0.673961  0.836980  0.232996  1
  Tl  Tl18  1  0.163020  0.326039  0.232996  1
  Tl  Tl19  1  0.837019  0.162981  0.733611  1
  Tl  Tl20  1  0.325962  0.162981  0.733611  1
  Tl  Tl21  1  0.837019  0.674038  0.733611  1
  Rh  Rh22  1  0.333333  0.666667  0.708147  1
  Rh  Rh23  1  0.666667  0.333333  0.209350  1
