# generated using pymatgen
data_Li4Au3
_symmetry_space_group_name_H-M   'P 1'
_cell_length_a   2.91821836
_cell_length_b   4.69461705
_cell_length_c   10.38171944
_cell_angle_alpha   87.16378852
_cell_angle_beta   81.75461257
_cell_angle_gamma   128.43801155
_symmetry_Int_Tables_number   1
_chemical_formula_structural   Li4Au3
_chemical_formula_sum   'Li4 Au3'
_cell_volume   108.47592144
_cell_formula_units_Z   1
loop_
 _symmetry_equiv_pos_site_id
 _symmetry_equiv_pos_as_xyz
  1  'x, y, z'
loop_
 _atom_site_type_symbol
 _atom_site_label
 _atom_site_symmetry_multiplicity
 _atom_site_fract_x
 _atom_site_fract_y
 _atom_site_fract_z
 _atom_site_occupancy
  Li  Li0  1  0.077456  0.608062  0.957503  1
  Li  Li1  1  0.644099  0.889119  0.389841  1
  Li  Li2  1  0.925013  0.030867  0.109155  1
  Li  Li3  1  0.343949  0.748749  0.676672  1
  Au  Au4  1  0.203596  0.175313  0.828946  1
  Au  Au5  1  0.494377  0.318951  0.533234  1
  Au  Au6  1  0.793411  0.463640  0.237623  1
