# generated using pymatgen
data_YEr4(FeB3)2
_symmetry_space_group_name_H-M   'P 1'
_cell_length_a   8.25506024
_cell_length_b   8.25506060
_cell_length_c   8.25505930
_cell_angle_alpha   38.15071291
_cell_angle_beta   38.15071944
_cell_angle_gamma   38.15070980
_symmetry_Int_Tables_number   1
_chemical_formula_structural   YEr4(FeB3)2
_chemical_formula_sum   'Y1 Er4 Fe2 B6'
_cell_volume   192.74641216
_cell_formula_units_Z   1
loop_
 _symmetry_equiv_pos_site_id
 _symmetry_equiv_pos_as_xyz
  1  'x, y, z'
loop_
 _atom_site_type_symbol
 _atom_site_label
 _atom_site_symmetry_multiplicity
 _atom_site_fract_x
 _atom_site_fract_y
 _atom_site_fract_z
 _atom_site_occupancy
  Y  Y0  1  0.000000  0.000000  0.000000  1
  Er  Er1  1  0.582933  0.582933  0.582933  1
  Er  Er2  1  0.417067  0.417067  0.417067  1
  Er  Er3  1  0.749274  0.749274  0.749274  1
  Er  Er4  1  0.250726  0.250726  0.250726  1
  Fe  Fe5  1  0.881928  0.881928  0.881928  1
  Fe  Fe6  1  0.118072  0.118072  0.118072  1
  B  B7  1  0.500000  0.831707  0.168293  1
  B  B8  1  0.168293  0.500000  0.831707  1
  B  B9  1  0.831707  0.168293  0.500000  1
  B  B10  1  0.500000  0.168293  0.831707  1
  B  B11  1  0.831707  0.500000  0.168293  1
  B  B12  1  0.168293  0.831707  0.500000  1
