# generated using pymatgen
data_Sm2NiRuI2
_symmetry_space_group_name_H-M   'P 1'
_cell_length_a   4.19808800
_cell_length_b   4.19808676
_cell_length_c   11.93102500
_cell_angle_alpha   90.00000000
_cell_angle_beta   90.00000000
_cell_angle_gamma   119.99999402
_symmetry_Int_Tables_number   1
_chemical_formula_structural   Sm2NiRuI2
_chemical_formula_sum   'Sm2 Ni1 Ru1 I2'
_cell_volume   182.10059349
_cell_formula_units_Z   1
loop_
 _symmetry_equiv_pos_site_id
 _symmetry_equiv_pos_as_xyz
  1  'x, y, z'
loop_
 _atom_site_type_symbol
 _atom_site_label
 _atom_site_symmetry_multiplicity
 _atom_site_fract_x
 _atom_site_fract_y
 _atom_site_fract_z
 _atom_site_occupancy
  Sm  Sm0  1  0.000000  0.000000  0.154970  1
  Sm  Sm1  1  0.000000  0.000000  0.846198  1
  Ni  Ni2  1  0.333334  0.666668  0.996311  1
  Ru  Ru3  1  0.666667  0.333334  0.001421  1
  I  I4  1  0.333334  0.666668  0.334671  1
  I  I5  1  0.666667  0.333334  0.666426  1
