# generated using pymatgen
data_Y2Tm2MgSn4
_symmetry_space_group_name_H-M   'P 1'
_cell_length_a   7.66042100
_cell_length_b   8.18069600
_cell_length_c   15.24573800
_cell_angle_alpha   90.00000000
_cell_angle_beta   90.00000000
_cell_angle_gamma   90.00000000
_symmetry_Int_Tables_number   1
_chemical_formula_structural   Y2Tm2MgSn4
_chemical_formula_sum   'Y8 Tm8 Mg4 Sn16'
_cell_volume   955.41343615
_cell_formula_units_Z   4
loop_
 _symmetry_equiv_pos_site_id
 _symmetry_equiv_pos_as_xyz
  1  'x, y, z'
loop_
 _atom_site_type_symbol
 _atom_site_label
 _atom_site_symmetry_multiplicity
 _atom_site_fract_x
 _atom_site_fract_y
 _atom_site_fract_z
 _atom_site_occupancy
  Y  Y0  1  0.504341  0.318124  0.907806  1
  Y  Y1  1  0.004341  0.181876  0.592194  1
  Y  Y2  1  0.495659  0.681876  0.407806  1
  Y  Y3  1  0.995659  0.818124  0.092194  1
  Y  Y4  1  0.495659  0.681876  0.092194  1
  Y  Y5  1  0.995659  0.818124  0.407806  1
  Y  Y6  1  0.504341  0.318124  0.592194  1
  Y  Y7  1  0.004341  0.181876  0.907806  1
  Tm  Tm8  1  0.342083  0.829102  0.871938  1
  Tm  Tm9  1  0.842083  0.670898  0.628062  1
  Tm  Tm10  1  0.657917  0.170898  0.371938  1
  Tm  Tm11  1  0.157917  0.329102  0.128062  1
  Tm  Tm12  1  0.657917  0.170898  0.128062  1
  Tm  Tm13  1  0.157917  0.329102  0.371938  1
  Tm  Tm14  1  0.342083  0.829102  0.628062  1
  Tm  Tm15  1  0.842083  0.670898  0.871938  1
  Mg  Mg16  1  0.168406  0.497444  0.750000  1
  Mg  Mg17  1  0.668406  0.002556  0.750000  1
  Mg  Mg18  1  0.831594  0.502556  0.250000  1
  Mg  Mg19  1  0.331594  0.997444  0.250000  1
  Sn  Sn20  1  0.316667  0.038893  0.036953  1
  Sn  Sn21  1  0.816667  0.461107  0.463047  1
  Sn  Sn22  1  0.683333  0.961107  0.536953  1
  Sn  Sn23  1  0.183333  0.538893  0.963047  1
  Sn  Sn24  1  0.683333  0.961107  0.963047  1
  Sn  Sn25  1  0.183333  0.538893  0.536953  1
  Sn  Sn26  1  0.316667  0.038893  0.463047  1
  Sn  Sn27  1  0.816667  0.461107  0.036953  1
  Sn  Sn28  1  0.531682  0.597047  0.750000  1
  Sn  Sn29  1  0.031682  0.902953  0.750000  1
  Sn  Sn30  1  0.468318  0.402953  0.250000  1
  Sn  Sn31  1  0.968318  0.097047  0.250000  1
  Sn  Sn32  1  0.310611  0.149282  0.750000  1
  Sn  Sn33  1  0.810611  0.350718  0.750000  1
  Sn  Sn34  1  0.689389  0.850718  0.250000  1
  Sn  Sn35  1  0.189389  0.649282  0.250000  1
