# generated using pymatgen
data_La3Pr3(RuCl3)2
_symmetry_space_group_name_H-M   'P 1'
_cell_length_a   10.32218979
_cell_length_b   10.34402772
_cell_length_c   10.34402800
_cell_angle_alpha   108.67760669
_cell_angle_beta   109.49174011
_cell_angle_gamma   110.33596982
_symmetry_Int_Tables_number   1
_chemical_formula_structural   La3Pr3(RuCl3)2
_chemical_formula_sum   'La6 Pr6 Ru4 Cl12'
_cell_volume   849.11961862
_cell_formula_units_Z   2
loop_
 _symmetry_equiv_pos_site_id
 _symmetry_equiv_pos_as_xyz
  1  'x, y, z'
loop_
 _atom_site_type_symbol
 _atom_site_label
 _atom_site_symmetry_multiplicity
 _atom_site_fract_x
 _atom_site_fract_y
 _atom_site_fract_z
 _atom_site_occupancy
  La  La0  1  0.473183  0.486517  0.235777  1
  La  La1  1  0.744316  0.232763  0.261679  1
  La  La2  1  0.755684  0.017363  0.488446  1
  La  La3  1  0.233916  0.474660  0.491851  1
  La  La4  1  0.266084  0.757936  0.240745  1
  La  La5  1  0.026817  0.262593  0.013333  1
  Pr  Pr6  1  0.014114  0.023548  0.259832  1
  Pr  Pr7  1  0.485886  0.745718  0.009433  1
  Pr  Pr8  1  0.486517  0.241700  0.477499  1
  Pr  Pr9  1  0.013483  0.490983  0.755183  1
  Pr  Pr10  1  0.262171  0.010482  0.023946  1
  Pr  Pr11  1  0.237829  0.261774  0.748312  1
  Ru  Ru12  1  0.251312  0.253836  0.249291  1
  Ru  Ru13  1  0.499973  0.999291  0.251686  1
  Ru  Ru14  1  0.000027  0.251713  0.499318  1
  Ru  Ru15  1  0.248688  0.497980  0.002524  1
  Cl  Cl16  1  0.249820  0.749398  0.751026  1
  Cl  Cl17  1  0.501845  0.497318  0.751875  1
  Cl  Cl18  1  0.998155  0.750028  0.995472  1
  Cl  Cl19  1  0.751636  0.254821  0.750909  1
  Cl  Cl20  1  0.004542  0.001083  0.749226  1
  Cl  Cl21  1  0.250180  0.001207  0.499578  1
  Cl  Cl22  1  0.748364  0.499272  0.503186  1
  Cl  Cl23  1  0.495458  0.244684  0.996540  1
  Cl  Cl24  1  0.749246  0.750108  0.244578  1
  Cl  Cl25  1  0.750754  0.995331  0.000863  1
  Cl  Cl26  1  0.999642  0.497477  0.250060  1
  Cl  Cl27  1  0.500358  0.750418  0.497834  1
