# generated using pymatgen
data_Li4Mn3Cr4GeO16
_symmetry_space_group_name_H-M   'P 1'
_cell_length_a   5.91095366
_cell_length_b   5.91220000
_cell_length_c   8.32083693
_cell_angle_alpha   90.00000000
_cell_angle_beta   90.05427657
_cell_angle_gamma   90.00000000
_symmetry_Int_Tables_number   1
_chemical_formula_structural   Li4Mn3Cr4GeO16
_chemical_formula_sum   'Li4 Mn3 Cr4 Ge1 O16'
_cell_volume   290.78599647
_cell_formula_units_Z   1
loop_
 _symmetry_equiv_pos_site_id
 _symmetry_equiv_pos_as_xyz
  1  'x, y, z'
loop_
 _atom_site_type_symbol
 _atom_site_label
 _atom_site_symmetry_multiplicity
 _atom_site_fract_x
 _atom_site_fract_y
 _atom_site_fract_z
 _atom_site_occupancy
  Li  Li0  1  0.252030  0.252590  0.124987  1
  Li  Li1  1  0.253076  0.747283  0.375536  1
  Li  Li2  1  0.747970  0.252590  0.875013  1
  Li  Li3  1  0.746924  0.747283  0.624464  1
  Mn  Mn4  1  0.000000  0.754310  0.000000  1
  Mn  Mn5  1  0.754438  0.999640  0.249760  1
  Mn  Mn6  1  0.245562  0.999640  0.750240  1
  Cr  Cr7  1  0.244102  0.499986  0.750179  1
  Cr  Cr8  1  0.500000  0.243554  0.500000  1
  Cr  Cr9  1  0.500000  0.755995  0.000000  1
  Cr  Cr10  1  0.755898  0.499986  0.249821  1
  Ge  Ge11  1  0.000000  0.247900  0.500000  1
  O  O12  1  0.239396  0.465046  0.507036  1
  O  O13  1  0.465357  0.240761  0.741932  1
  O  O14  1  0.758573  0.980852  0.016417  1
  O  O15  1  0.240975  0.534605  0.991858  1
  O  O16  1  0.980657  0.758566  0.233440  1
  O  O17  1  0.019343  0.758566  0.766560  1
  O  O18  1  0.761168  0.019865  0.484329  1
  O  O19  1  0.534643  0.240761  0.258068  1
  O  O20  1  0.465508  0.759190  0.758277  1
  O  O21  1  0.241427  0.980852  0.983583  1
  O  O22  1  0.982317  0.240736  0.267075  1
  O  O23  1  0.017683  0.240736  0.732925  1
  O  O24  1  0.760604  0.465046  0.492964  1
  O  O25  1  0.238832  0.019865  0.515671  1
  O  O26  1  0.534492  0.759190  0.241723  1
  O  O27  1  0.759025  0.534605  0.008142  1
