# generated using pymatgen
data_FeReF6
_symmetry_space_group_name_H-M   'P 1'
_cell_length_a   5.59048512
_cell_length_b   5.59048486
_cell_length_c   5.59048602
_cell_angle_alpha   56.17676688
_cell_angle_beta   56.17677949
_cell_angle_gamma   56.17676744
_symmetry_Int_Tables_number   1
_chemical_formula_structural   FeReF6
_chemical_formula_sum   'Fe1 Re1 F6'
_cell_volume   112.61322592
_cell_formula_units_Z   1
loop_
 _symmetry_equiv_pos_site_id
 _symmetry_equiv_pos_as_xyz
  1  'x, y, z'
loop_
 _atom_site_type_symbol
 _atom_site_label
 _atom_site_symmetry_multiplicity
 _atom_site_fract_x
 _atom_site_fract_y
 _atom_site_fract_z
 _atom_site_occupancy
  Fe  Fe0  1  0.500000  0.500000  0.500000  1
  Re  Re1  1  0.000000  0.000000  0.000000  1
  F  F2  1  0.110741  0.373697  0.761428  1
  F  F3  1  0.761428  0.110741  0.373697  1
  F  F4  1  0.626303  0.238572  0.889259  1
  F  F5  1  0.238572  0.889259  0.626303  1
  F  F6  1  0.889259  0.626303  0.238572  1
  F  F7  1  0.373697  0.761428  0.110741  1
