# generated using pymatgen
data_Er6Hf7Al9Ir7
_symmetry_space_group_name_H-M   'P 1'
_cell_length_a   9.25050721
_cell_length_b   9.25049228
_cell_length_c   9.25054134
_cell_angle_alpha   59.45232493
_cell_angle_beta   59.45208900
_cell_angle_gamma   59.45209857
_symmetry_Int_Tables_number   1
_chemical_formula_structural   Er6Hf7Al9Ir7
_chemical_formula_sum   'Er6 Hf7 Al9 Ir7'
_cell_volume   552.75928148
_cell_formula_units_Z   1
loop_
 _symmetry_equiv_pos_site_id
 _symmetry_equiv_pos_as_xyz
  1  'x, y, z'
loop_
 _atom_site_type_symbol
 _atom_site_label
 _atom_site_symmetry_multiplicity
 _atom_site_fract_x
 _atom_site_fract_y
 _atom_site_fract_z
 _atom_site_occupancy
  Er  Er0  1  0.690252  0.690253  0.312442  1
  Er  Er1  1  0.305158  0.701246  0.305154  1
  Er  Er2  1  0.701246  0.305160  0.305152  1
  Er  Er3  1  0.305158  0.305152  0.701248  1
  Er  Er4  1  0.690247  0.312445  0.690257  1
  Er  Er5  1  0.312444  0.690250  0.690255  1
  Hf  Hf6  1  0.881317  0.881318  0.363917  1
  Hf  Hf7  1  0.881320  0.363918  0.881317  1
  Hf  Hf8  1  0.363919  0.881317  0.881317  1
  Hf  Hf9  1  0.876967  0.876966  0.876965  1
  Hf  Hf10  1  0.123246  0.123248  0.631273  1
  Hf  Hf11  1  0.123245  0.631277  0.123246  1
  Hf  Hf12  1  0.631276  0.123245  0.123246  1
  Al  Al13  1  0.118790  0.118786  0.118801  1
  Al  Al14  1  0.664520  0.664523  0.006968  1
  Al  Al15  1  0.664522  0.006971  0.664517  1
  Al  Al16  1  0.006974  0.664519  0.664517  1
  Al  Al17  1  0.663782  0.663782  0.663780  1
  Al  Al18  1  0.328484  0.328486  0.002579  1
  Al  Al19  1  0.328488  0.002571  0.328490  1
  Al  Al20  1  0.002570  0.328488  0.328490  1
  Al  Al21  1  0.334448  0.334448  0.334449  1
  Ir  Ir22  1  0.997601  0.997602  0.997600  1
  Ir  Ir23  1  0.000382  0.000382  0.499575  1
  Ir  Ir24  1  0.501263  0.001158  0.501265  1
  Ir  Ir25  1  0.001157  0.501266  0.501263  1
  Ir  Ir26  1  0.501265  0.501265  0.001156  1
  Ir  Ir27  1  0.000380  0.499578  0.000382  1
  Ir  Ir28  1  0.499577  0.000381  0.000382  1
