# generated using pymatgen
data_Sm2CoNiH8
_symmetry_space_group_name_H-M   'P 1'
_cell_length_a   6.12750464
_cell_length_b   6.12750485
_cell_length_c   4.79372100
_cell_angle_alpha   90.00000000
_cell_angle_beta   90.00000000
_cell_angle_gamma   144.73120007
_symmetry_Int_Tables_number   1
_chemical_formula_structural   Sm2CoNiH8
_chemical_formula_sum   'Sm2 Co1 Ni1 H8'
_cell_volume   103.92659797
_cell_formula_units_Z   1
loop_
 _symmetry_equiv_pos_site_id
 _symmetry_equiv_pos_as_xyz
  1  'x, y, z'
loop_
 _atom_site_type_symbol
 _atom_site_label
 _atom_site_symmetry_multiplicity
 _atom_site_fract_x
 _atom_site_fract_y
 _atom_site_fract_z
 _atom_site_occupancy
  Sm  Sm0  1  0.867637  0.132363  0.750000  1
  Sm  Sm1  1  0.131086  0.868914  0.250000  1
  Co  Co2  1  0.404689  0.595311  0.250000  1
  Ni  Ni3  1  0.596335  0.403665  0.750000  1
  H  H4  1  0.086138  0.913862  0.750000  1
  H  H5  1  0.913319  0.086681  0.250000  1
  H  H6  1  0.691558  0.308442  0.500139  1
  H  H7  1  0.308761  0.691239  0.493148  1
  H  H8  1  0.691558  0.308442  0.999861  1
  H  H9  1  0.308761  0.691239  0.006852  1
  H  H10  1  0.500079  0.499921  0.000700  1
  H  H11  1  0.500079  0.499921  0.499300  1
