# generated using pymatgen
data_DyLu2Hf(Al3Ir)6
_symmetry_space_group_name_H-M   'P 1'
_cell_length_a   7.52032316
_cell_length_b   7.51655439
_cell_length_c   9.37338500
_cell_angle_alpha   90.00000000
_cell_angle_beta   90.00000000
_cell_angle_gamma   119.58910240
_symmetry_Int_Tables_number   1
_chemical_formula_structural   DyLu2Hf(Al3Ir)6
_chemical_formula_sum   'Dy1 Lu2 Hf1 Al18 Ir6'
_cell_volume   460.75041114
_cell_formula_units_Z   1
loop_
 _symmetry_equiv_pos_site_id
 _symmetry_equiv_pos_as_xyz
  1  'x, y, z'
loop_
 _atom_site_type_symbol
 _atom_site_label
 _atom_site_symmetry_multiplicity
 _atom_site_fract_x
 _atom_site_fract_y
 _atom_site_fract_z
 _atom_site_occupancy
  Dy  Dy0  1  0.005794  0.327450  0.750000  1
  Lu  Lu1  1  0.671974  0.996072  0.250000  1
  Lu  Lu2  1  0.328164  0.006262  0.750000  1
  Hf  Hf3  1  0.997972  0.673750  0.250000  1
  Al  Al4  1  0.125992  0.123688  0.250000  1
  Al  Al5  1  0.871029  0.869477  0.750000  1
  Al  Al6  1  0.999665  0.337308  0.080104  1
  Al  Al7  1  0.999692  0.665548  0.927730  1
  Al  Al8  1  0.999692  0.665548  0.572270  1
  Al  Al9  1  0.333382  0.998386  0.420543  1
  Al  Al10  1  0.999665  0.337308  0.419896  1
  Al  Al11  1  0.663507  0.998146  0.574848  1
  Al  Al12  1  0.663507  0.998146  0.925152  1
  Al  Al13  1  0.333382  0.998386  0.079457  1
  Al  Al14  1  0.333878  0.333161  0.552385  1
  Al  Al15  1  0.668833  0.667198  0.441908  1
  Al  Al16  1  0.668833  0.667198  0.058092  1
  Al  Al17  1  0.333878  0.333161  0.947615  1
  Al  Al18  1  0.336891  0.550153  0.250000  1
  Al  Al19  1  0.659784  0.451160  0.750000  1
  Al  Al20  1  0.554914  0.343647  0.250000  1
  Al  Al21  1  0.451073  0.660576  0.750000  1
  Ir  Ir22  1  0.672501  0.327994  0.001149  1
  Ir  Ir23  1  0.327658  0.672837  0.001948  1
  Ir  Ir24  1  0.327658  0.672837  0.498052  1
  Ir  Ir25  1  0.672501  0.327994  0.498851  1
  Ir  Ir26  1  0.999090  0.998306  0.001528  1
  Ir  Ir27  1  0.999090  0.998306  0.498472  1
