# generated using pymatgen
data_PrPuCo17
_symmetry_space_group_name_H-M   'P 1'
_cell_length_a   6.29638333
_cell_length_b   6.29638337
_cell_length_c   6.29638341
_cell_angle_alpha   83.12232086
_cell_angle_beta   83.12231761
_cell_angle_gamma   83.12233089
_symmetry_Int_Tables_number   1
_chemical_formula_structural   PrPuCo17
_chemical_formula_sum   'Pr1 Pu1 Co17'
_cell_volume   244.62609564
_cell_formula_units_Z   1
loop_
 _symmetry_equiv_pos_site_id
 _symmetry_equiv_pos_as_xyz
  1  'x, y, z'
loop_
 _atom_site_type_symbol
 _atom_site_label
 _atom_site_symmetry_multiplicity
 _atom_site_fract_x
 _atom_site_fract_y
 _atom_site_fract_z
 _atom_site_occupancy
  Pr  Pr0  1  0.656378  0.656378  0.656378  1
  Pu  Pu1  1  0.344360  0.344360  0.344360  1
  Co  Co2  1  0.285987  0.710927  0.002795  1
  Co  Co3  1  0.710927  0.002795  0.285987  1
  Co  Co4  1  0.002795  0.285987  0.710927  1
  Co  Co5  1  0.285987  0.002795  0.710927  1
  Co  Co6  1  0.002795  0.710927  0.285987  1
  Co  Co7  1  0.710927  0.285987  0.002795  1
  Co  Co8  1  0.343339  0.343339  0.856649  1
  Co  Co9  1  0.343339  0.856649  0.343339  1
  Co  Co10  1  0.856649  0.343339  0.343339  1
  Co  Co11  1  0.651398  0.651398  0.151819  1
  Co  Co12  1  0.651398  0.151819  0.651398  1
  Co  Co13  1  0.151819  0.651398  0.651398  1
  Co  Co14  1  0.000488  0.000488  0.499466  1
  Co  Co15  1  0.000488  0.499466  0.000488  1
  Co  Co16  1  0.499466  0.000488  0.000488  1
  Co  Co17  1  0.904079  0.904079  0.904079  1
  Co  Co18  1  0.097381  0.097381  0.097381  1
