# generated using pymatgen
data_ScPaAl3Tc
_symmetry_space_group_name_H-M   'P 1'
_cell_length_a   5.30184800
_cell_length_b   5.30184932
_cell_length_c   9.01289100
_cell_angle_alpha   90.00000000
_cell_angle_beta   90.00000000
_cell_angle_gamma   120.00000425
_symmetry_Int_Tables_number   1
_chemical_formula_structural   ScPaAl3Tc
_chemical_formula_sum   'Sc2 Pa2 Al6 Tc2'
_cell_volume   219.40644731
_cell_formula_units_Z   2
loop_
 _symmetry_equiv_pos_site_id
 _symmetry_equiv_pos_as_xyz
  1  'x, y, z'
loop_
 _atom_site_type_symbol
 _atom_site_label
 _atom_site_symmetry_multiplicity
 _atom_site_fract_x
 _atom_site_fract_y
 _atom_site_fract_z
 _atom_site_occupancy
  Sc  Sc0  1  0.666667  0.333333  0.939472  1
  Sc  Sc1  1  0.333333  0.666667  0.060528  1
  Pa  Pa2  1  0.333333  0.666667  0.464526  1
  Pa  Pa3  1  0.666667  0.333333  0.535474  1
  Al  Al4  1  0.834488  0.165512  0.239260  1
  Al  Al5  1  0.834488  0.668977  0.239260  1
  Al  Al6  1  0.331023  0.165512  0.239260  1
  Al  Al7  1  0.165512  0.834488  0.760740  1
  Al  Al8  1  0.165512  0.331023  0.760740  1
  Al  Al9  1  0.668977  0.834488  0.760740  1
  Tc  Tc10  1  0.000000  0.000000  0.500000  1
  Tc  Tc11  1  0.000000  0.000000  0.000000  1
