# generated using pymatgen
data_Sr2GaFe3Br16
_symmetry_space_group_name_H-M   'P 1'
_cell_length_a   7.52857196
_cell_length_b   8.51128471
_cell_length_c   13.67095890
_cell_angle_alpha   85.47693417
_cell_angle_beta   89.99291124
_cell_angle_gamma   89.92583885
_symmetry_Int_Tables_number   1
_chemical_formula_structural   Sr2GaFe3Br16
_chemical_formula_sum   'Sr2 Ga1 Fe3 Br16'
_cell_volume   873.27633217
_cell_formula_units_Z   1
loop_
 _symmetry_equiv_pos_site_id
 _symmetry_equiv_pos_as_xyz
  1  'x, y, z'
loop_
 _atom_site_type_symbol
 _atom_site_label
 _atom_site_symmetry_multiplicity
 _atom_site_fract_x
 _atom_site_fract_y
 _atom_site_fract_z
 _atom_site_occupancy
  Sr  Sr0  1  0.150193  0.499197  0.250860  1
  Sr  Sr1  1  0.848076  0.498065  0.749834  1
  Ga  Ga2  1  0.260622  0.671806  0.579440  1
  Fe  Fe3  1  0.739712  0.672384  0.080119  1
  Fe  Fe4  1  0.740291  0.327087  0.420362  1
  Fe  Fe5  1  0.260068  0.327767  0.920018  1
  Br  Br6  1  0.531162  0.736146  0.655166  1
  Br  Br7  1  0.300767  0.734620  0.408544  1
  Br  Br8  1  0.818919  0.406677  0.115651  1
  Br  Br9  1  0.180909  0.593257  0.883682  1
  Br  Br10  1  0.468546  0.270708  0.344171  1
  Br  Br11  1  0.296475  0.269488  0.090945  1
  Br  Br12  1  0.701870  0.267782  0.590898  1
  Br  Br13  1  0.467560  0.729003  0.156115  1
  Br  Br14  1  0.180228  0.405310  0.615136  1
  Br  Br15  1  0.532165  0.269661  0.844927  1
  Br  Br16  1  0.820119  0.592643  0.385281  1
  Br  Br17  1  0.977324  0.817373  0.142071  1
  Br  Br18  1  0.703506  0.730219  0.909147  1
  Br  Br19  1  0.022587  0.182010  0.858361  1
  Br  Br20  1  0.977644  0.181558  0.358167  1
  Br  Br21  1  0.021258  0.817239  0.641105  1
