# generated using pymatgen
data_Lu2Tc2B4Ru3
_symmetry_space_group_name_H-M   'P 1'
_cell_length_a   3.07938500
_cell_length_b   8.69699100
_cell_length_c   10.11387900
_cell_angle_alpha   89.99933649
_cell_angle_beta   90.00000000
_cell_angle_gamma   90.00000000
_symmetry_Int_Tables_number   1
_chemical_formula_structural   Lu2Tc2B4Ru3
_chemical_formula_sum   'Lu4 Tc4 B8 Ru6'
_cell_volume   270.86367360
_cell_formula_units_Z   2
loop_
 _symmetry_equiv_pos_site_id
 _symmetry_equiv_pos_as_xyz
  1  'x, y, z'
loop_
 _atom_site_type_symbol
 _atom_site_label
 _atom_site_symmetry_multiplicity
 _atom_site_fract_x
 _atom_site_fract_y
 _atom_site_fract_z
 _atom_site_occupancy
  Lu  Lu0  1  0.500000  0.840943  0.181853  1
  Lu  Lu1  1  0.500000  0.159057  0.818147  1
  Lu  Lu2  1  0.500000  0.659090  0.681780  1
  Lu  Lu3  1  0.500000  0.340910  0.318220  1
  Tc  Tc4  1  0.000000  0.658764  0.953344  1
  Tc  Tc5  1  0.000000  0.341236  0.046656  1
  Tc  Tc6  1  0.000000  0.841235  0.453301  1
  Tc  Tc7  1  0.000000  0.158765  0.546699  1
  B  B8  1  0.500000  0.965927  0.586897  1
  B  B9  1  0.500000  0.034073  0.413103  1
  B  B10  1  0.500000  0.848855  0.901106  1
  B  B11  1  0.500000  0.151145  0.098894  1
  B  B12  1  0.500000  0.651105  0.401030  1
  B  B13  1  0.500000  0.348895  0.598970  1
  B  B14  1  0.500000  0.466092  0.913061  1
  B  B15  1  0.500000  0.533908  0.086939  1
  Ru  Ru16  1  0.000000  0.000000  0.000000  1
  Ru  Ru17  1  0.000000  0.406164  0.760527  1
  Ru  Ru18  1  0.000000  0.593836  0.239473  1
  Ru  Ru19  1  0.000000  0.500000  0.500000  1
  Ru  Ru20  1  0.000000  0.906112  0.739499  1
  Ru  Ru21  1  0.000000  0.093888  0.260501  1
