# generated using pymatgen
data_NpNiI18
_symmetry_space_group_name_H-M   'P 1'
_cell_length_a   10.22948808
_cell_length_b   10.33807432
_cell_length_c   10.33544146
_cell_angle_alpha   90.81741205
_cell_angle_beta   91.08312694
_cell_angle_gamma   90.84357297
_symmetry_Int_Tables_number   1
_chemical_formula_structural   NpNiI18
_chemical_formula_sum   'Np1 Ni1 I18'
_cell_volume   1092.57670680
_cell_formula_units_Z   1
loop_
 _symmetry_equiv_pos_site_id
 _symmetry_equiv_pos_as_xyz
  1  'x, y, z'
loop_
 _atom_site_type_symbol
 _atom_site_label
 _atom_site_symmetry_multiplicity
 _atom_site_fract_x
 _atom_site_fract_y
 _atom_site_fract_z
 _atom_site_occupancy
  Np  Np0  1  0.000000  0.000000  0.000000  1
  Ni  Ni1  1  0.500000  0.500000  0.500000  1
  I  I2  1  0.763373  0.467046  0.511227  1
  I  I3  1  0.509207  0.760215  0.466229  1
  I  I4  1  0.466843  0.510157  0.760836  1
  I  I5  1  0.236627  0.532954  0.488773  1
  I  I6  1  0.490793  0.239785  0.533771  1
  I  I7  1  0.533157  0.489843  0.239164  1
  I  I8  1  0.881612  0.380218  0.745493  1
  I  I9  1  0.744185  0.878796  0.379873  1
  I  I10  1  0.381531  0.743359  0.879639  1
  I  I11  1  0.118388  0.619782  0.254507  1
  I  I12  1  0.255815  0.121204  0.620127  1
  I  I13  1  0.618469  0.256641  0.120361  1
  I  I14  1  0.014839  0.966153  0.710319  1
  I  I15  1  0.707708  0.017241  0.964842  1
  I  I16  1  0.963958  0.710377  0.013824  1
  I  I17  1  0.985161  0.033847  0.289681  1
  I  I18  1  0.292292  0.982759  0.035158  1
  I  I19  1  0.036042  0.289623  0.986176  1
