# generated using pymatgen
data_Tm6HfCo17P12
_symmetry_space_group_name_H-M   'P 1'
_cell_length_a   3.68440000
_cell_length_b   10.54814500
_cell_length_c   12.23100100
_cell_angle_alpha   90.00000000
_cell_angle_beta   90.00000000
_cell_angle_gamma   90.00000000
_symmetry_Int_Tables_number   1
_chemical_formula_structural   Tm6HfCo17P12
_chemical_formula_sum   'Tm6 Hf1 Co17 P12'
_cell_volume   475.34055236
_cell_formula_units_Z   1
loop_
 _symmetry_equiv_pos_site_id
 _symmetry_equiv_pos_as_xyz
  1  'x, y, z'
loop_
 _atom_site_type_symbol
 _atom_site_label
 _atom_site_symmetry_multiplicity
 _atom_site_fract_x
 _atom_site_fract_y
 _atom_site_fract_z
 _atom_site_occupancy
  Tm  Tm0  1  0.000000  0.500000  0.529417  1
  Tm  Tm1  1  0.500000  0.000000  0.476864  1
  Tm  Tm2  1  0.500000  0.821685  0.207526  1
  Tm  Tm3  1  0.500000  0.178315  0.207526  1
  Tm  Tm4  1  0.000000  0.682467  0.796020  1
  Tm  Tm5  1  0.000000  0.317533  0.796020  1
  Hf  Hf6  1  0.500000  0.500000  0.154655  1
  Co  Co7  1  0.000000  0.000000  0.836068  1
  Co  Co8  1  0.500000  0.500000  0.702239  1
  Co  Co9  1  0.000000  0.000000  0.296741  1
  Co  Co10  1  0.000000  0.500000  0.983954  1
  Co  Co11  1  0.500000  0.000000  0.014323  1
  Co  Co12  1  0.500000  0.327431  0.988232  1
  Co  Co13  1  0.500000  0.672569  0.988232  1
  Co  Co14  1  0.000000  0.162047  0.001761  1
  Co  Co15  1  0.000000  0.837953  0.001761  1
  Co  Co16  1  0.500000  0.294171  0.434634  1
  Co  Co17  1  0.500000  0.705829  0.434634  1
  Co  Co18  1  0.000000  0.201645  0.570347  1
  Co  Co19  1  0.000000  0.798355  0.570347  1
  Co  Co20  1  0.500000  0.879624  0.707030  1
  Co  Co21  1  0.500000  0.120376  0.707030  1
  Co  Co22  1  0.000000  0.623202  0.296419  1
  Co  Co23  1  0.000000  0.376798  0.296419  1
  P  P24  1  0.500000  0.500000  0.880489  1
  P  P25  1  0.000000  0.000000  0.117638  1
  P  P26  1  0.500000  0.500000  0.362588  1
  P  P27  1  0.000000  0.000000  0.653221  1
  P  P28  1  0.500000  0.310533  0.618422  1
  P  P29  1  0.500000  0.689467  0.618422  1
  P  P30  1  0.000000  0.187036  0.385875  1
  P  P31  1  0.000000  0.812964  0.385875  1
  P  P32  1  0.500000  0.852087  0.887789  1
  P  P33  1  0.500000  0.147913  0.887789  1
  P  P34  1  0.000000  0.665285  0.101845  1
  P  P35  1  0.000000  0.334715  0.101845  1
