# generated using pymatgen
data_Ti24SiAs7
_symmetry_space_group_name_H-M   'P 1'
_cell_length_a   7.63210895
_cell_length_b   7.64139991
_cell_length_c   14.38721266
_cell_angle_alpha   89.82009627
_cell_angle_beta   89.85002971
_cell_angle_gamma   38.94161517
_symmetry_Int_Tables_number   1
_chemical_formula_structural   Ti24SiAs7
_chemical_formula_sum   'Ti24 Si1 As7'
_cell_volume   527.37158550
_cell_formula_units_Z   1
loop_
 _symmetry_equiv_pos_site_id
 _symmetry_equiv_pos_as_xyz
  1  'x, y, z'
loop_
 _atom_site_type_symbol
 _atom_site_label
 _atom_site_symmetry_multiplicity
 _atom_site_fract_x
 _atom_site_fract_y
 _atom_site_fract_z
 _atom_site_occupancy
  Ti  Ti0  1  0.122636  0.044291  0.808554  1
  Ti  Ti1  1  0.421748  0.461117  0.834257  1
  Ti  Ti2  1  0.955641  0.877061  0.691566  1
  Ti  Ti3  1  0.460600  0.422866  0.333642  1
  Ti  Ti4  1  0.051999  0.474281  0.906646  1
  Ti  Ti5  1  0.538721  0.577908  0.665518  1
  Ti  Ti6  1  0.438387  0.874887  0.989393  1
  Ti  Ti7  1  0.204840  0.698403  0.017303  1
  Ti  Ti8  1  0.558522  0.128560  0.012422  1
  Ti  Ti9  1  0.124526  0.562449  0.510592  1
  Ti  Ti10  1  0.953403  0.522982  0.094115  1
  Ti  Ti11  1  0.876033  0.437398  0.489065  1
  Ti  Ti12  1  0.015274  0.517975  0.299926  1
  Ti  Ti13  1  0.986968  0.481099  0.699588  1
  Ti  Ti14  1  0.796343  0.298698  0.983564  1
  Ti  Ti15  1  0.526821  0.947748  0.592933  1
  Ti  Ti16  1  0.044505  0.122807  0.308600  1
  Ti  Ti17  1  0.701289  0.202179  0.516714  1
  Ti  Ti18  1  0.298934  0.798154  0.483143  1
  Ti  Ti19  1  0.877636  0.952998  0.191137  1
  Ti  Ti20  1  0.478765  0.991524  0.198611  1
  Ti  Ti21  1  0.575230  0.538386  0.165304  1
  Ti  Ti22  1  0.519147  0.012208  0.800358  1
  Ti  Ti23  1  0.472475  0.053329  0.406312  1
  Si  Si24  1  0.334082  0.419725  0.167463  1
  As  As25  1  0.892109  0.935012  0.873093  1
  As  As26  1  0.106691  0.064979  0.127333  1
  As  As27  1  0.666255  0.580317  0.833424  1
  As  As28  1  0.581073  0.666910  0.332657  1
  As  As29  1  0.419184  0.333658  0.666745  1
  As  As30  1  0.934818  0.893056  0.372595  1
  As  As31  1  0.065346  0.107037  0.627427  1
