# generated using pymatgen
data_Ba14TiBi11
_symmetry_space_group_name_H-M   'P 1'
_cell_length_a   18.23619184
_cell_length_b   18.23619249
_cell_length_c   18.23619200
_cell_angle_alpha   117.45216529
_cell_angle_beta   117.45216635
_cell_angle_gamma   94.47270462
_symmetry_Int_Tables_number   1
_chemical_formula_structural   Ba14TiBi11
_chemical_formula_sum   'Ba56 Ti4 Bi44'
_cell_volume   4438.83548120
_cell_formula_units_Z   4
loop_
 _symmetry_equiv_pos_site_id
 _symmetry_equiv_pos_as_xyz
  1  'x, y, z'
loop_
 _atom_site_type_symbol
 _atom_site_label
 _atom_site_symmetry_multiplicity
 _atom_site_fract_x
 _atom_site_fract_y
 _atom_site_fract_z
 _atom_site_occupancy
  Ba  Ba0  1  0.590865  0.869343  0.366484  1
  Ba  Ba1  1  0.123308  0.963169  0.523281  1
  Ba  Ba2  1  0.769237  0.375000  0.894237  1
  Ba  Ba3  1  0.125000  0.730763  0.105763  1
  Ba  Ba4  1  0.850027  0.189889  0.976719  1
  Ba  Ba5  1  0.126692  0.149973  0.339862  1
  Ba  Ba6  1  0.354003  0.748092  0.352459  1
  Ba  Ba7  1  0.899973  0.060111  0.523281  1
  Ba  Ba8  1  0.939889  0.463169  0.839862  1
  Ba  Ba9  1  0.036831  0.560111  0.160138  1
  Ba  Ba10  1  0.159135  0.380657  0.133516  1
  Ba  Ba11  1  0.002859  0.369343  0.278477  1
  Ba  Ba12  1  0.439889  0.600027  0.476719  1
  Ba  Ba13  1  0.310111  0.649973  0.023281  1
  Ba  Ba14  1  0.619343  0.752859  0.778477  1
  Ba  Ba15  1  0.247141  0.025619  0.866484  1
  Ba  Ba16  1  0.125000  0.230763  0.605763  1
  Ba  Ba17  1  0.498456  0.104367  0.352459  1
  Ba  Ba18  1  0.395633  0.001544  0.647541  1
  Ba  Ba19  1  0.354367  0.248456  0.852459  1
  Ba  Ba20  1  0.623308  0.100027  0.160138  1
  Ba  Ba21  1  0.480763  0.875000  0.105763  1
  Ba  Ba22  1  0.275619  0.997141  0.366484  1
  Ba  Ba23  1  0.751544  0.604003  0.105912  1
  Ba  Ba24  1  0.625000  0.019237  0.894237  1
  Ba  Ba25  1  0.498092  0.645633  0.894088  1
  Ba  Ba26  1  0.974381  0.840865  0.221523  1
  Ba  Ba27  1  0.998456  0.645997  0.394088  1
  Ba  Ba28  1  0.251544  0.145633  0.147541  1
  Ba  Ba29  1  0.399973  0.876692  0.839862  1
  Ba  Ba30  1  0.625000  0.519237  0.394237  1
  Ba  Ba31  1  0.998092  0.104003  0.852459  1
  Ba  Ba32  1  0.659135  0.525619  0.778477  1
  Ba  Ba33  1  0.630657  0.909135  0.633516  1
  Ba  Ba34  1  0.775619  0.409135  0.278477  1
  Ba  Ba35  1  0.213169  0.873308  0.023281  1
  Ba  Ba36  1  0.895633  0.248092  0.394088  1
  Ba  Ba37  1  0.810111  0.786831  0.660138  1
  Ba  Ba38  1  0.854003  0.501544  0.605912  1
  Ba  Ba39  1  0.747141  0.880657  0.221523  1
  Ba  Ba40  1  0.626692  0.286831  0.976719  1
  Ba  Ba41  1  0.751908  0.145997  0.647541  1
  Ba  Ba42  1  0.130657  0.497141  0.721523  1
  Ba  Ba43  1  0.980763  0.875000  0.605763  1
  Ba  Ba44  1  0.090865  0.724381  0.721523  1
  Ba  Ba45  1  0.119343  0.340865  0.866484  1
  Ba  Ba46  1  0.251908  0.604367  0.605912  1
  Ba  Ba47  1  0.395997  0.501908  0.147541  1
  Ba  Ba48  1  0.350027  0.373308  0.660138  1
  Ba  Ba49  1  0.854367  0.001908  0.105912  1
  Ba  Ba50  1  0.474381  0.252859  0.133516  1
  Ba  Ba51  1  0.269237  0.375000  0.394237  1
  Ba  Ba52  1  0.502859  0.224381  0.633516  1
  Ba  Ba53  1  0.536831  0.376692  0.476719  1
  Ba  Ba54  1  0.895997  0.748456  0.894088  1
  Ba  Ba55  1  0.713169  0.689889  0.339862  1
  Ti  Ti56  1  0.000000  0.000000  0.000000  1
  Ti  Ti57  1  0.250000  0.750000  0.500000  1
  Ti  Ti58  1  0.750000  0.250000  0.500000  1
  Ti  Ti59  1  0.500000  0.500000  0.000000  1
  Bi  Bi60  1  0.554134  0.697600  0.408373  1
  Bi  Bi61  1  0.130652  0.369348  0.500000  1
  Bi  Bi62  1  0.439271  0.810117  0.634559  1
  Bi  Bi63  1  0.054712  0.925558  0.865441  1
  Bi  Bi64  1  0.310729  0.439883  0.865441  1
  Bi  Bi65  1  0.854239  0.445866  0.143466  1
  Bi  Bi66  1  0.369348  0.869348  0.238696  1
  Bi  Bi67  1  0.250000  0.250000  0.000000  1
  Bi  Bi68  1  0.074442  0.939883  0.129154  1
  Bi  Bi69  1  0.960773  0.052400  0.356534  1
  Bi  Bi70  1  0.302400  0.710773  0.856534  1
  Bi  Bi71  1  0.630652  0.130652  0.761304  1
  Bi  Bi72  1  0.789227  0.197600  0.143466  1
  Bi  Bi73  1  0.880652  0.619348  0.000000  1
  Bi  Bi74  1  0.447600  0.539227  0.643466  1
  Bi  Bi75  1  0.395761  0.039227  0.091627  1
  Bi  Bi76  1  0.289227  0.145761  0.591627  1
  Bi  Bi77  1  0.554712  0.689271  0.129154  1
  Bi  Bi78  1  0.939271  0.304712  0.629154  1
  Bi  Bi79  1  0.695288  0.324442  0.634559  1
  Bi  Bi80  1  0.500000  0.000000  0.500000  1
  Bi  Bi81  1  0.619348  0.880652  0.000000  1
  Bi  Bi82  1  0.460773  0.104239  0.908373  1
  Bi  Bi83  1  0.947600  0.304134  0.908373  1
  Bi  Bi84  1  0.380652  0.380652  0.261304  1
  Bi  Bi85  1  0.189883  0.824442  0.629154  1
  Bi  Bi86  1  0.195866  0.552400  0.091627  1
  Bi  Bi87  1  0.802400  0.945866  0.591627  1
  Bi  Bi88  1  0.689883  0.060729  0.365441  1
  Bi  Bi89  1  0.695866  0.604239  0.643466  1
  Bi  Bi90  1  0.574442  0.445288  0.134559  1
  Bi  Bi91  1  0.895761  0.804134  0.356534  1
  Bi  Bi92  1  0.054134  0.645761  0.856534  1
  Bi  Bi93  1  0.675558  0.310117  0.370846  1
  Bi  Bi94  1  0.810729  0.945288  0.870846  1
  Bi  Bi95  1  0.060117  0.189271  0.134559  1
  Bi  Bi96  1  0.560117  0.425558  0.870846  1
  Bi  Bi97  1  0.175558  0.804712  0.365441  1
  Bi  Bi98  1  0.869348  0.630652  0.500000  1
  Bi  Bi99  1  0.750000  0.750000  0.000000  1
  Bi  Bi100  1  0.119348  0.119348  0.738696  1
  Bi  Bi101  1  0.195288  0.560729  0.370846  1
  Bi  Bi102  1  0.000000  0.500000  0.500000  1
  Bi  Bi103  1  0.354239  0.210773  0.408373  1
