# generated using pymatgen
data_AgIrF6
_symmetry_space_group_name_H-M   'P 1'
_cell_length_a   5.34249754
_cell_length_b   5.36452876
_cell_length_c   10.69097225
_cell_angle_alpha   75.69708610
_cell_angle_beta   75.89233074
_cell_angle_gamma   60.02744629
_symmetry_Int_Tables_number   1
_chemical_formula_structural   AgIrF6
_chemical_formula_sum   'Ag2 Ir2 F12'
_cell_volume   254.54279077
_cell_formula_units_Z   2
loop_
 _symmetry_equiv_pos_site_id
 _symmetry_equiv_pos_as_xyz
  1  'x, y, z'
loop_
 _atom_site_type_symbol
 _atom_site_label
 _atom_site_symmetry_multiplicity
 _atom_site_fract_x
 _atom_site_fract_y
 _atom_site_fract_z
 _atom_site_occupancy
  Ag  Ag0  1  0.500000  0.500000  0.500000  1
  Ag  Ag1  1  0.000000  0.000000  0.000000  1
  Ir  Ir2  1  0.731401  0.763538  0.749894  1
  Ir  Ir3  1  0.268599  0.236462  0.250106  1
  F  F4  1  0.470572  0.807011  0.639451  1
  F  F5  1  0.529428  0.192989  0.360549  1
  F  F6  1  0.776250  0.088864  0.640847  1
  F  F7  1  0.223750  0.911136  0.359153  1
  F  F8  1  0.688519  0.439894  0.860067  1
  F  F9  1  0.311481  0.560106  0.139933  1
  F  F10  1  0.991914  0.718493  0.861067  1
  F  F11  1  0.008086  0.281507  0.138933  1
  F  F12  1  0.594830  0.975873  0.140829  1
  F  F13  1  0.405170  0.024127  0.859171  1
  F  F14  1  0.945726  0.491896  0.361281  1
  F  F15  1  0.054274  0.508104  0.638719  1
