# generated using pymatgen
data_Yb2Tc2Ge2C
_symmetry_space_group_name_H-M   'P 1'
_cell_length_a   5.85271841
_cell_length_b   5.85271799
_cell_length_c   7.20716807
_cell_angle_alpha   124.33707876
_cell_angle_beta   124.33707683
_cell_angle_gamma   39.69700429
_symmetry_Int_Tables_number   1
_chemical_formula_structural   Yb2Tc2Ge2C
_chemical_formula_sum   'Yb2 Tc2 Ge2 C1'
_cell_volume   126.18666466
_cell_formula_units_Z   1
loop_
 _symmetry_equiv_pos_site_id
 _symmetry_equiv_pos_as_xyz
  1  'x, y, z'
loop_
 _atom_site_type_symbol
 _atom_site_label
 _atom_site_symmetry_multiplicity
 _atom_site_fract_x
 _atom_site_fract_y
 _atom_site_fract_z
 _atom_site_occupancy
  Yb  Yb0  1  0.569710  0.569710  0.295444  1
  Yb  Yb1  1  0.430290  0.430290  0.704555  1
  Tc  Tc2  1  0.199546  0.199546  0.078767  1
  Tc  Tc3  1  0.800455  0.800455  0.921234  1
  Ge  Ge4  1  0.855075  0.855075  0.316600  1
  Ge  Ge5  1  0.144925  0.144925  0.683401  1
  C  C6  1  0.000000  0.000000  0.000000  1
