# generated using pymatgen
data_CaNd4CdAu4
_symmetry_space_group_name_H-M   'P 1'
_cell_length_a   3.91074600
_cell_length_b   8.30219600
_cell_length_c   8.30219600
_cell_angle_alpha   90.00000000
_cell_angle_beta   90.00000000
_cell_angle_gamma   90.00000000
_symmetry_Int_Tables_number   1
_chemical_formula_structural   CaNd4CdAu4
_chemical_formula_sum   'Ca1 Nd4 Cd1 Au4'
_cell_volume   269.55387157
_cell_formula_units_Z   1
loop_
 _symmetry_equiv_pos_site_id
 _symmetry_equiv_pos_as_xyz
  1  'x, y, z'
loop_
 _atom_site_type_symbol
 _atom_site_label
 _atom_site_symmetry_multiplicity
 _atom_site_fract_x
 _atom_site_fract_y
 _atom_site_fract_z
 _atom_site_occupancy
  Ca  Ca0  1  0.000000  0.000000  0.000000  1
  Nd  Nd1  1  0.500000  0.189701  0.638410  1
  Nd  Nd2  1  0.500000  0.810299  0.361590  1
  Nd  Nd3  1  0.500000  0.361590  0.189701  1
  Nd  Nd4  1  0.500000  0.638410  0.810299  1
  Cd  Cd5  1  0.000000  0.500000  0.500000  1
  Au  Au6  1  0.000000  0.641458  0.120702  1
  Au  Au7  1  0.000000  0.358542  0.879298  1
  Au  Au8  1  0.000000  0.879298  0.641458  1
  Au  Au9  1  0.000000  0.120702  0.358542  1
