# generated using pymatgen
data_YTm5(RuO7)2
_symmetry_space_group_name_H-M   'P 1'
_cell_length_a   6.39845700
_cell_length_b   6.39845681
_cell_length_c   7.37495200
_cell_angle_alpha   90.00064473
_cell_angle_beta   89.99935527
_cell_angle_gamma   108.94636931
_symmetry_Int_Tables_number   1
_chemical_formula_structural   YTm5(RuO7)2
_chemical_formula_sum   'Y1 Tm5 Ru2 O14'
_cell_volume   285.57456444
_cell_formula_units_Z   1
loop_
 _symmetry_equiv_pos_site_id
 _symmetry_equiv_pos_as_xyz
  1  'x, y, z'
loop_
 _atom_site_type_symbol
 _atom_site_label
 _atom_site_symmetry_multiplicity
 _atom_site_fract_x
 _atom_site_fract_y
 _atom_site_fract_z
 _atom_site_occupancy
  Y  Y0  1  0.519790  0.519789  0.250000  1
  Tm  Tm1  1  0.473463  0.473463  0.750000  1
  Tm  Tm2  1  0.000169  0.463941  0.497285  1
  Tm  Tm3  1  0.536077  0.999433  0.504714  1
  Tm  Tm4  1  0.999434  0.536077  0.995286  1
  Tm  Tm5  1  0.463941  0.000169  0.002715  1
  Ru  Ru6  1  0.000644  0.000644  0.250000  1
  Ru  Ru7  1  0.999202  0.999202  0.750000  1
  O  O8  1  0.063981  0.316855  0.214836  1
  O  O9  1  0.684640  0.937257  0.785394  1
  O  O10  1  0.937257  0.684640  0.714606  1
  O  O11  1  0.316854  0.063981  0.285165  1
  O  O12  1  0.674146  0.923285  0.222096  1
  O  O13  1  0.080448  0.326910  0.777494  1
  O  O14  1  0.326910  0.080448  0.722505  1
  O  O15  1  0.923286  0.674146  0.277904  1
  O  O16  1  0.368149  0.631474  0.503762  1
  O  O17  1  0.631473  0.368150  0.996239  1
  O  O18  1  0.360573  0.639445  0.996413  1
  O  O19  1  0.639445  0.360574  0.503586  1
  O  O20  1  0.926602  0.073515  0.499966  1
  O  O21  1  0.073515  0.926603  0.000034  1
