# generated using pymatgen
data_Pa4CuTe12
_symmetry_space_group_name_H-M   'P 1'
_cell_length_a   7.52049445
_cell_length_b   7.52049485
_cell_length_c   11.14501065
_cell_angle_alpha   70.41620583
_cell_angle_beta   70.41620354
_cell_angle_gamma   68.17601231
_symmetry_Int_Tables_number   1
_chemical_formula_structural   Pa4CuTe12
_chemical_formula_sum   'Pa4 Cu1 Te12'
_cell_volume   535.09397207
_cell_formula_units_Z   1
loop_
 _symmetry_equiv_pos_site_id
 _symmetry_equiv_pos_as_xyz
  1  'x, y, z'
loop_
 _atom_site_type_symbol
 _atom_site_label
 _atom_site_symmetry_multiplicity
 _atom_site_fract_x
 _atom_site_fract_y
 _atom_site_fract_z
 _atom_site_occupancy
  Pa  Pa0  1  0.811514  0.811514  0.830921  1
  Pa  Pa1  1  0.313454  0.313454  0.832934  1
  Pa  Pa2  1  0.691139  0.186304  0.168030  1
  Pa  Pa3  1  0.186304  0.691139  0.168030  1
  Cu  Cu4  1  0.815641  0.815641  0.530868  1
  Te  Te5  1  0.014282  0.014282  0.326287  1
  Te  Te6  1  0.502085  0.502085  0.329578  1
  Te  Te7  1  0.485995  0.992340  0.672710  1
  Te  Te8  1  0.992340  0.485995  0.672710  1
  Te  Te9  1  0.257888  0.257888  0.331958  1
  Te  Te10  1  0.750426  0.750426  0.331119  1
  Te  Te11  1  0.244155  0.742695  0.671648  1
  Te  Te12  1  0.742695  0.244155  0.671648  1
  Te  Te13  1  0.022595  0.022595  0.940838  1
  Te  Te14  1  0.521125  0.521125  0.942724  1
  Te  Te15  1  0.480265  0.979395  0.056199  1
  Te  Te16  1  0.979395  0.480265  0.056199  1
