# generated using pymatgen
data_HoEr7In3Ni
_symmetry_space_group_name_H-M   'P 1'
_cell_length_a   10.34909152
_cell_length_b   10.34909168
_cell_length_c   6.89444101
_cell_angle_alpha   89.99347529
_cell_angle_beta   90.00652744
_cell_angle_gamma   120.02105145
_symmetry_Int_Tables_number   1
_chemical_formula_structural   HoEr7In3Ni
_chemical_formula_sum   'Ho2 Er14 In6 Ni2'
_cell_volume   639.35488063
_cell_formula_units_Z   2
loop_
 _symmetry_equiv_pos_site_id
 _symmetry_equiv_pos_as_xyz
  1  'x, y, z'
loop_
 _atom_site_type_symbol
 _atom_site_label
 _atom_site_symmetry_multiplicity
 _atom_site_fract_x
 _atom_site_fract_y
 _atom_site_fract_z
 _atom_site_occupancy
  Ho  Ho0  1  0.532640  0.065445  0.794605  1
  Ho  Ho1  1  0.934555  0.467360  0.794605  1
  Er  Er2  1  0.532779  0.467221  0.794980  1
  Er  Er3  1  0.467177  0.934109  0.294385  1
  Er  Er4  1  0.065891  0.532823  0.294385  1
  Er  Er5  1  0.467236  0.532764  0.294959  1
  Er  Er6  1  0.822810  0.645676  0.500961  1
  Er  Er7  1  0.354324  0.177190  0.500961  1
  Er  Er8  1  0.822823  0.177177  0.500754  1
  Er  Er9  1  0.177513  0.354514  0.001331  1
  Er  Er10  1  0.645486  0.822487  0.001331  1
  Er  Er11  1  0.177092  0.822908  0.001413  1
  Er  Er12  1  0.666597  0.333403  0.178905  1
  Er  Er13  1  0.333446  0.666554  0.679145  1
  Er  Er14  1  0.000010  0.999990  0.776805  1
  Er  Er15  1  0.999986  0.000014  0.277123  1
  In  In16  1  0.836948  0.674224  0.035801  1
  In  In17  1  0.325776  0.163052  0.035801  1
  In  In18  1  0.837278  0.162722  0.036188  1
  In  In19  1  0.162534  0.325735  0.536010  1
  In  In20  1  0.674265  0.837466  0.536010  1
  In  In21  1  0.163176  0.836824  0.535665  1
  Ni  Ni22  1  0.666403  0.333597  0.566767  1
  Ni  Ni23  1  0.333261  0.666739  0.067017  1
