# generated using pymatgen
data_GdIn(BrO3)6
_symmetry_space_group_name_H-M   'P 1'
_cell_length_a   7.27711473
_cell_length_b   9.48661555
_cell_length_c   8.98246258
_cell_angle_alpha   57.07811646
_cell_angle_beta   89.22416182
_cell_angle_gamma   89.19514748
_symmetry_Int_Tables_number   1
_chemical_formula_structural   GdIn(BrO3)6
_chemical_formula_sum   'Gd1 In1 Br6 O18'
_cell_volume   520.46039571
_cell_formula_units_Z   1
loop_
 _symmetry_equiv_pos_site_id
 _symmetry_equiv_pos_as_xyz
  1  'x, y, z'
loop_
 _atom_site_type_symbol
 _atom_site_label
 _atom_site_symmetry_multiplicity
 _atom_site_fract_x
 _atom_site_fract_y
 _atom_site_fract_z
 _atom_site_occupancy
  Gd  Gd0  1  0.493688  0.318641  0.347664  1
  In  In1  1  0.955765  0.690818  0.643655  1
  Br  Br2  1  0.774209  0.693393  0.990599  1
  Br  Br3  1  0.771436  0.303075  0.725840  1
  Br  Br4  1  0.661452  0.969920  0.291484  1
  Br  Br5  1  0.242899  0.362783  0.942928  1
  Br  Br6  1  0.169685  0.664566  0.317603  1
  Br  Br7  1  0.264488  0.923740  0.726324  1
  O  O8  1  0.658476  0.507528  0.100173  1
  O  O9  1  0.686342  0.327493  0.537635  1
  O  O10  1  0.659844  0.103651  0.363561  1
  O  O11  1  0.114568  0.539936  0.891923  1
  O  O12  1  0.163260  0.595100  0.540460  1
  O  O13  1  0.127294  0.905688  0.584103  1
  O  O14  1  0.746995  0.753815  0.771663  1
  O  O15  1  0.755514  0.501643  0.684771  1
  O  O16  1  0.868073  0.865283  0.371642  1
  O  O17  1  0.310455  0.293997  0.151813  1
  O  O18  1  0.346855  0.550070  0.313952  1
  O  O19  1  0.321114  0.130053  0.592945  1
  O  O20  1  0.645541  0.831779  0.999601  1
  O  O21  1  0.615042  0.201172  0.881592  1
  O  O22  1  0.095009  0.223981  0.963464  1
  O  O23  1  0.128079  0.910363  0.881748  1
  O  O24  1  0.495305  0.836575  0.401589  1
  O  O25  1  0.983614  0.585936  0.289267  1
