# generated using pymatgen
data_Rb5Fe3S7
_symmetry_space_group_name_H-M   'P 1'
_cell_length_a   10.34561057
_cell_length_b   10.34561011
_cell_length_c   8.75145061
_cell_angle_alpha   77.85600293
_cell_angle_beta   77.85600081
_cell_angle_gamma   73.84188767
_symmetry_Int_Tables_number   1
_chemical_formula_structural   Rb5Fe3S7
_chemical_formula_sum   'Rb10 Fe6 S14'
_cell_volume   867.97456238
_cell_formula_units_Z   2
loop_
 _symmetry_equiv_pos_site_id
 _symmetry_equiv_pos_as_xyz
  1  'x, y, z'
loop_
 _atom_site_type_symbol
 _atom_site_label
 _atom_site_symmetry_multiplicity
 _atom_site_fract_x
 _atom_site_fract_y
 _atom_site_fract_z
 _atom_site_occupancy
  Rb  Rb0  1  0.034169  0.432776  0.723582  1
  Rb  Rb1  1  0.432776  0.034169  0.723582  1
  Rb  Rb2  1  0.965831  0.567224  0.276418  1
  Rb  Rb3  1  0.567224  0.965831  0.276418  1
  Rb  Rb4  1  0.294756  0.705244  0.000000  1
  Rb  Rb5  1  0.705244  0.294756  0.000000  1
  Rb  Rb6  1  0.847774  0.152226  0.500000  1
  Rb  Rb7  1  0.152226  0.847774  0.500000  1
  Rb  Rb8  1  0.430778  0.430778  0.685692  1
  Rb  Rb9  1  0.569222  0.569222  0.314308  1
  Fe  Fe10  1  0.208489  0.208489  0.181660  1
  Fe  Fe11  1  0.791511  0.791511  0.818340  1
  Fe  Fe12  1  0.068982  0.068982  0.056016  1
  Fe  Fe13  1  0.931018  0.931018  0.943984  1
  Fe  Fe14  1  0.336762  0.336762  0.327154  1
  Fe  Fe15  1  0.663238  0.663238  0.672846  1
  S  S16  1  0.004391  0.275646  0.115528  1
  S  S17  1  0.275646  0.004391  0.115528  1
  S  S18  1  0.995609  0.724354  0.884472  1
  S  S19  1  0.724354  0.995609  0.884472  1
  S  S20  1  0.196601  0.196601  0.438945  1
  S  S21  1  0.803399  0.803399  0.561055  1
  S  S22  1  0.061931  0.061931  0.812443  1
  S  S23  1  0.938069  0.938069  0.187557  1
  S  S24  1  0.344846  0.344846  0.064197  1
  S  S25  1  0.655154  0.655154  0.935803  1
  S  S26  1  0.248322  0.544951  0.392920  1
  S  S27  1  0.544951  0.248322  0.392920  1
  S  S28  1  0.751678  0.455049  0.607080  1
  S  S29  1  0.455049  0.751678  0.607080  1
