# generated using pymatgen
data_PrEr(Si7Ir3)2
_symmetry_space_group_name_H-M   'P 1'
_cell_length_a   8.08355707
_cell_length_b   8.08355712
_cell_length_c   8.08355733
_cell_angle_alpha   56.50626143
_cell_angle_beta   56.50626437
_cell_angle_gamma   56.50626088
_symmetry_Int_Tables_number   1
_chemical_formula_structural   PrEr(Si7Ir3)2
_chemical_formula_sum   'Pr1 Er1 Si14 Ir6'
_cell_volume   343.34127758
_cell_formula_units_Z   1
loop_
 _symmetry_equiv_pos_site_id
 _symmetry_equiv_pos_as_xyz
  1  'x, y, z'
loop_
 _atom_site_type_symbol
 _atom_site_label
 _atom_site_symmetry_multiplicity
 _atom_site_fract_x
 _atom_site_fract_y
 _atom_site_fract_z
 _atom_site_occupancy
  Pr  Pr0  1  0.000000  0.000000  0.000000  1
  Er  Er1  1  0.500000  0.500000  0.500000  1
  Si  Si2  1  0.065051  0.849458  0.671932  1
  Si  Si3  1  0.671932  0.065051  0.849458  1
  Si  Si4  1  0.849458  0.671932  0.065051  1
  Si  Si5  1  0.173785  0.351617  0.562473  1
  Si  Si6  1  0.562473  0.173785  0.351617  1
  Si  Si7  1  0.351617  0.562473  0.173785  1
  Si  Si8  1  0.934949  0.150542  0.328068  1
  Si  Si9  1  0.328068  0.934949  0.150542  1
  Si  Si10  1  0.150542  0.328068  0.934949  1
  Si  Si11  1  0.826215  0.648383  0.437527  1
  Si  Si12  1  0.437527  0.826215  0.648383  1
  Si  Si13  1  0.648383  0.437527  0.826215  1
  Si  Si14  1  0.750212  0.750212  0.750212  1
  Si  Si15  1  0.249788  0.249788  0.249788  1
  Ir  Ir16  1  0.071412  0.747469  0.432627  1
  Ir  Ir17  1  0.432627  0.071412  0.747469  1
  Ir  Ir18  1  0.747469  0.432627  0.071412  1
  Ir  Ir19  1  0.928588  0.252531  0.567373  1
  Ir  Ir20  1  0.567373  0.928588  0.252531  1
  Ir  Ir21  1  0.252531  0.567373  0.928588  1
