# generated using pymatgen
data_Pr6Ho10Cd4PdRu3
_symmetry_space_group_name_H-M   'P 1'
_cell_length_a   9.68785936
_cell_length_b   9.80000274
_cell_length_c   9.80000200
_cell_angle_alpha   60.00000250
_cell_angle_beta   59.61633824
_cell_angle_gamma   59.61634074
_symmetry_Int_Tables_number   1
_chemical_formula_structural   Pr6Ho10Cd4PdRu3
_chemical_formula_sum   'Pr6 Ho10 Cd4 Pd1 Ru3'
_cell_volume   654.06697064
_cell_formula_units_Z   1
loop_
 _symmetry_equiv_pos_site_id
 _symmetry_equiv_pos_as_xyz
  1  'x, y, z'
loop_
 _atom_site_type_symbol
 _atom_site_label
 _atom_site_symmetry_multiplicity
 _atom_site_fract_x
 _atom_site_fract_y
 _atom_site_fract_z
 _atom_site_occupancy
  Pr  Pr0  1  0.936440  0.561131  0.561131  1
  Pr  Pr1  1  0.555718  0.940793  0.940793  1
  Pr  Pr2  1  0.555718  0.940793  0.562696  1
  Pr  Pr3  1  0.936440  0.561131  0.941299  1
  Pr  Pr4  1  0.555718  0.562696  0.940793  1
  Pr  Pr5  1  0.936440  0.941299  0.561131  1
  Ho  Ho6  1  0.341885  0.349485  0.349485  1
  Ho  Ho7  1  0.341885  0.349485  0.959146  1
  Ho  Ho8  1  0.341885  0.959146  0.349485  1
  Ho  Ho9  1  0.970671  0.343110  0.343110  1
  Ho  Ho10  1  0.819642  0.186630  0.186630  1
  Ho  Ho11  1  0.184309  0.814465  0.814465  1
  Ho  Ho12  1  0.184309  0.814465  0.186761  1
  Ho  Ho13  1  0.819642  0.186630  0.807099  1
  Ho  Ho14  1  0.184309  0.186761  0.814465  1
  Ho  Ho15  1  0.819642  0.807099  0.186630  1
  Cd  Cd16  1  0.579390  0.578161  0.578161  1
  Cd  Cd17  1  0.579390  0.578161  0.264287  1
  Cd  Cd18  1  0.579390  0.264287  0.578161  1
  Cd  Cd19  1  0.261618  0.579460  0.579460  1
  Pd  Pd20  1  0.576000  0.141334  0.141334  1
  Ru  Ru21  1  0.146519  0.137535  0.137535  1
  Ru  Ru22  1  0.146519  0.137535  0.578410  1
  Ru  Ru23  1  0.146519  0.578410  0.137535  1
