# generated using pymatgen
data_Hf18Ta2Re3As2W3
_symmetry_space_group_name_H-M   'P 1'
_cell_length_a   8.65927951
_cell_length_b   8.73000952
_cell_length_c   8.72675100
_cell_angle_alpha   90.00000000
_cell_angle_beta   90.00000000
_cell_angle_gamma   119.92018113
_symmetry_Int_Tables_number   1
_chemical_formula_structural   Hf18Ta2Re3As2W3
_chemical_formula_sum   'Hf18 Ta2 Re3 As2 W3'
_cell_volume   571.77931029
_cell_formula_units_Z   1
loop_
 _symmetry_equiv_pos_site_id
 _symmetry_equiv_pos_as_xyz
  1  'x, y, z'
loop_
 _atom_site_type_symbol
 _atom_site_label
 _atom_site_symmetry_multiplicity
 _atom_site_fract_x
 _atom_site_fract_y
 _atom_site_fract_z
 _atom_site_occupancy
  Hf  Hf0  1  0.194821  0.389657  0.049352  1
  Hf  Hf1  1  0.804984  0.610308  0.548292  1
  Hf  Hf2  1  0.611127  0.806014  0.046247  1
  Hf  Hf3  1  0.194999  0.805886  0.046265  1
  Hf  Hf4  1  0.804926  0.194057  0.545261  1
  Hf  Hf5  1  0.388252  0.193697  0.544500  1
  Hf  Hf6  1  0.804984  0.610308  0.951708  1
  Hf  Hf7  1  0.804926  0.194057  0.954739  1
  Hf  Hf8  1  0.388252  0.193697  0.955500  1
  Hf  Hf9  1  0.611127  0.806014  0.453753  1
  Hf  Hf10  1  0.194999  0.805886  0.453735  1
  Hf  Hf11  1  0.194821  0.389657  0.450648  1
  Hf  Hf12  1  0.539485  0.080424  0.250000  1
  Hf  Hf13  1  0.460337  0.920851  0.750000  1
  Hf  Hf14  1  0.920498  0.458659  0.250000  1
  Hf  Hf15  1  0.537578  0.457633  0.250000  1
  Hf  Hf16  1  0.462107  0.540971  0.750000  1
  Hf  Hf17  1  0.078898  0.541108  0.750000  1
  Ta  Ta18  1  0.892117  0.782780  0.250000  1
  Ta  Ta19  1  0.109326  0.218335  0.750000  1
  Re  Re20  1  0.000077  0.000151  0.999719  1
  Re  Re21  1  0.000077  0.000151  0.500281  1
  Re  Re22  1  0.221065  0.111123  0.250000  1
  As  As23  1  0.333062  0.666804  0.250000  1
  As  As24  1  0.666198  0.332729  0.750000  1
  W  W25  1  0.891755  0.110667  0.250000  1
  W  W26  1  0.109135  0.889367  0.750000  1
  W  W27  1  0.780064  0.889012  0.750000  1
