# generated using pymatgen
data_KRb5Dy2F12
_symmetry_space_group_name_H-M   'P 1'
_cell_length_a   6.84180519
_cell_length_b   6.60292404
_cell_length_c   11.45038656
_cell_angle_alpha   55.28271336
_cell_angle_beta   90.05519870
_cell_angle_gamma   90.20351294
_symmetry_Int_Tables_number   1
_chemical_formula_structural   KRb5Dy2F12
_chemical_formula_sum   'K1 Rb5 Dy2 F12'
_cell_volume   425.18820404
_cell_formula_units_Z   1
loop_
 _symmetry_equiv_pos_site_id
 _symmetry_equiv_pos_as_xyz
  1  'x, y, z'
loop_
 _atom_site_type_symbol
 _atom_site_label
 _atom_site_symmetry_multiplicity
 _atom_site_fract_x
 _atom_site_fract_y
 _atom_site_fract_z
 _atom_site_occupancy
  K  K0  1  0.000000  0.500000  0.500000  1
  Rb  Rb1  1  0.500000  0.500000  0.000000  1
  Rb  Rb2  1  0.049772  0.735166  0.751513  1
  Rb  Rb3  1  0.950228  0.264834  0.248487  1
  Rb  Rb4  1  0.550805  0.268240  0.745594  1
  Rb  Rb5  1  0.449195  0.731760  0.254406  1
  Dy  Dy6  1  0.500000  0.000000  0.500000  1
  Dy  Dy7  1  0.000000  0.000000  0.000000  1
  F  F8  1  0.764570  0.769333  0.562116  1
  F  F9  1  0.235430  0.230667  0.437884  1
  F  F10  1  0.265723  0.227299  0.935867  1
  F  F11  1  0.734277  0.772701  0.064133  1
  F  F12  1  0.449730  0.886520  0.718263  1
  F  F13  1  0.550270  0.113480  0.281737  1
  F  F14  1  0.951451  0.120116  0.778637  1
  F  F15  1  0.048549  0.879884  0.221363  1
  F  F16  1  0.322754  0.683731  0.544823  1
  F  F17  1  0.677246  0.316269  0.455177  1
  F  F18  1  0.829352  0.318010  0.953455  1
  F  F19  1  0.170648  0.681990  0.046545  1
