# generated using pymatgen
data_Ho7Er3(InSb2)2
_symmetry_space_group_name_H-M   'P 1'
_cell_length_a   8.93041323
_cell_length_b   8.92694923
_cell_length_c   6.41100702
_cell_angle_alpha   89.99037041
_cell_angle_beta   90.00481705
_cell_angle_gamma   119.98716757
_symmetry_Int_Tables_number   1
_chemical_formula_structural   Ho7Er3(InSb2)2
_chemical_formula_sum   'Ho7 Er3 In2 Sb4'
_cell_volume   442.67769668
_cell_formula_units_Z   1
loop_
 _symmetry_equiv_pos_site_id
 _symmetry_equiv_pos_as_xyz
  1  'x, y, z'
loop_
 _atom_site_type_symbol
 _atom_site_label
 _atom_site_symmetry_multiplicity
 _atom_site_fract_x
 _atom_site_fract_y
 _atom_site_fract_z
 _atom_site_occupancy
  Ho  Ho0  1  0.002201  0.760400  0.750031  1
  Ho  Ho1  1  0.002201  0.241802  0.249969  1
  Ho  Ho2  1  0.758221  0.759511  0.249999  1
  Ho  Ho3  1  0.758221  0.998709  0.750001  1
  Ho  Ho4  1  0.240844  0.237499  0.750037  1
  Ho  Ho5  1  0.240844  0.003345  0.249963  1
  Ho  Ho6  1  0.334420  0.667210  0.500000  1
  Er  Er7  1  0.663179  0.331589  0.000000  1
  Er  Er8  1  0.663120  0.331559  0.500000  1
  Er  Er9  1  0.334421  0.667211  0.000000  1
  In  In10  1  0.395255  0.998651  0.750227  1
  In  In11  1  0.395255  0.396604  0.249773  1
  Sb  Sb12  1  0.998863  0.607196  0.249863  1
  Sb  Sb13  1  0.998863  0.391667  0.750137  1
  Sb  Sb14  1  0.607046  0.606485  0.750127  1
  Sb  Sb15  1  0.607046  0.000561  0.249873  1
