# generated using pymatgen
data_CsLu3Te5
_symmetry_space_group_name_H-M   'P 1'
_cell_length_a   4.34284800
_cell_length_b   13.19295200
_cell_length_c   23.42749700
_cell_angle_alpha   90.00000000
_cell_angle_beta   90.00000000
_cell_angle_gamma   90.00000000
_symmetry_Int_Tables_number   1
_chemical_formula_structural   CsLu3Te5
_chemical_formula_sum   'Cs4 Lu12 Te20'
_cell_volume   1342.27809406
_cell_formula_units_Z   4
loop_
 _symmetry_equiv_pos_site_id
 _symmetry_equiv_pos_as_xyz
  1  'x, y, z'
loop_
 _atom_site_type_symbol
 _atom_site_label
 _atom_site_symmetry_multiplicity
 _atom_site_fract_x
 _atom_site_fract_y
 _atom_site_fract_z
 _atom_site_occupancy
  Cs  Cs0  1  0.250000  0.355326  0.088721  1
  Cs  Cs1  1  0.750000  0.644674  0.911279  1
  Cs  Cs2  1  0.750000  0.855326  0.411279  1
  Cs  Cs3  1  0.250000  0.144674  0.588721  1
  Lu  Lu4  1  0.250000  0.453605  0.697642  1
  Lu  Lu5  1  0.750000  0.546395  0.302358  1
  Lu  Lu6  1  0.750000  0.953605  0.802358  1
  Lu  Lu7  1  0.250000  0.046395  0.197642  1
  Lu  Lu8  1  0.250000  0.796645  0.674901  1
  Lu  Lu9  1  0.750000  0.203355  0.325099  1
  Lu  Lu10  1  0.750000  0.296645  0.825099  1
  Lu  Lu11  1  0.250000  0.703355  0.174901  1
  Lu  Lu12  1  0.250000  0.392195  0.444102  1
  Lu  Lu13  1  0.750000  0.607805  0.555898  1
  Lu  Lu14  1  0.750000  0.892195  0.055898  1
  Lu  Lu15  1  0.250000  0.107805  0.944102  1
  Te  Te16  1  0.250000  0.445859  0.568809  1
  Te  Te17  1  0.750000  0.554141  0.431191  1
  Te  Te18  1  0.750000  0.945859  0.931191  1
  Te  Te19  1  0.250000  0.054141  0.068809  1
  Te  Te20  1  0.250000  0.767534  0.547359  1
  Te  Te21  1  0.750000  0.232466  0.452641  1
  Te  Te22  1  0.750000  0.267534  0.952641  1
  Te  Te23  1  0.250000  0.732466  0.047359  1
  Te  Te24  1  0.250000  0.799540  0.802828  1
  Te  Te25  1  0.750000  0.200460  0.197172  1
  Te  Te26  1  0.750000  0.299540  0.697172  1
  Te  Te27  1  0.250000  0.700460  0.302828  1
  Te  Te28  1  0.250000  0.452582  0.826048  1
  Te  Te29  1  0.750000  0.547418  0.173952  1
  Te  Te30  1  0.750000  0.952582  0.673952  1
  Te  Te31  1  0.250000  0.047418  0.326048  1
  Te  Te32  1  0.250000  0.375533  0.313740  1
  Te  Te33  1  0.750000  0.624467  0.686260  1
  Te  Te34  1  0.750000  0.875533  0.186260  1
  Te  Te35  1  0.250000  0.124467  0.813740  1
