# generated using pymatgen
data_Ba2Li4Th(BiSb)2
_symmetry_space_group_name_H-M   'P 1'
_cell_length_a   9.29989181
_cell_length_b   9.29989294
_cell_length_c   9.29989294
_cell_angle_alpha   150.29438507
_cell_angle_beta   126.81000249
_cell_angle_gamma   62.11189795
_symmetry_Int_Tables_number   1
_chemical_formula_structural   Ba2Li4Th(BiSb)2
_chemical_formula_sum   'Ba2 Li4 Th1 Bi2 Sb2'
_cell_volume   316.28881251
_cell_formula_units_Z   1
loop_
 _symmetry_equiv_pos_site_id
 _symmetry_equiv_pos_as_xyz
  1  'x, y, z'
loop_
 _atom_site_type_symbol
 _atom_site_label
 _atom_site_symmetry_multiplicity
 _atom_site_fract_x
 _atom_site_fract_y
 _atom_site_fract_z
 _atom_site_occupancy
  Ba  Ba0  1  0.618797  0.118797  0.500000  1
  Ba  Ba1  1  0.381203  0.881203  0.500000  1
  Li  Li2  1  0.989889  0.671565  0.318323  1
  Li  Li3  1  0.010111  0.328435  0.681677  1
  Li  Li4  1  0.646758  0.328435  0.318323  1
  Li  Li5  1  0.353242  0.671565  0.681677  1
  Th  Th6  1  0.000000  0.000000  0.000000  1
  Bi  Bi7  1  0.788595  0.788595  0.000000  1
  Bi  Bi8  1  0.211405  0.211405  0.000000  1
  Sb  Sb9  1  0.742974  0.500000  0.242974  1
  Sb  Sb10  1  0.257026  0.500000  0.757026  1
