# generated using pymatgen
data_Zr5AlSn2Bi
_symmetry_space_group_name_H-M   'P 1'
_cell_length_a   8.79443629
_cell_length_b   8.79049253
_cell_length_c   5.93184600
_cell_angle_alpha   90.00000000
_cell_angle_beta   90.00000000
_cell_angle_gamma   119.98516333
_symmetry_Int_Tables_number   1
_chemical_formula_structural   Zr5AlSn2Bi
_chemical_formula_sum   'Zr10 Al2 Sn4 Bi2'
_cell_volume   397.19760883
_cell_formula_units_Z   2
loop_
 _symmetry_equiv_pos_site_id
 _symmetry_equiv_pos_as_xyz
  1  'x, y, z'
loop_
 _atom_site_type_symbol
 _atom_site_label
 _atom_site_symmetry_multiplicity
 _atom_site_fract_x
 _atom_site_fract_y
 _atom_site_fract_z
 _atom_site_occupancy
  Zr  Zr0  1  0.328875  0.664438  0.000000  1
  Zr  Zr1  1  0.667668  0.333834  0.500000  1
  Zr  Zr2  1  0.667668  0.333834  0.000000  1
  Zr  Zr3  1  0.328875  0.664438  0.500000  1
  Zr  Zr4  1  0.267730  0.000005  0.250000  1
  Zr  Zr5  1  0.267730  0.267726  0.750000  1
  Zr  Zr6  1  0.004243  0.730838  0.750000  1
  Zr  Zr7  1  0.004243  0.273405  0.250000  1
  Zr  Zr8  1  0.732548  0.728405  0.250000  1
  Zr  Zr9  1  0.732548  0.004143  0.750000  1
  Al  Al10  1  0.000522  0.000261  0.000000  1
  Al  Al11  1  0.000522  0.000261  0.500000  1
  Sn  Sn12  1  0.000166  0.386664  0.750000  1
  Sn  Sn13  1  0.000166  0.613502  0.250000  1
  Sn  Sn14  1  0.385554  0.385222  0.250000  1
  Sn  Sn15  1  0.385554  0.000332  0.750000  1
  Bi  Bi16  1  0.612693  0.999739  0.250000  1
  Bi  Bi17  1  0.612693  0.612953  0.750000  1
