# generated using pymatgen
data_LaTb4Y2MnI12
_symmetry_space_group_name_H-M   'P 1'
_cell_length_a   9.93359197
_cell_length_b   9.92020382
_cell_length_c   9.74963564
_cell_angle_alpha   107.32738752
_cell_angle_beta   106.66008661
_cell_angle_gamma   107.03455705
_symmetry_Int_Tables_number   1
_chemical_formula_structural   LaTb4Y2MnI12
_chemical_formula_sum   'La1 Tb4 Y2 Mn1 I12'
_cell_volume   799.94940259
_cell_formula_units_Z   1
loop_
 _symmetry_equiv_pos_site_id
 _symmetry_equiv_pos_as_xyz
  1  'x, y, z'
loop_
 _atom_site_type_symbol
 _atom_site_label
 _atom_site_symmetry_multiplicity
 _atom_site_fract_x
 _atom_site_fract_y
 _atom_site_fract_z
 _atom_site_occupancy
  La  La0  1  0.978012  0.912585  0.729307  1
  Tb  Tb1  1  0.703804  0.976138  0.905447  1
  Tb  Tb2  1  0.095648  0.298136  0.022231  1
  Tb  Tb3  1  0.022248  0.089412  0.276042  1
  Tb  Tb4  1  0.296295  0.023830  0.096290  1
  Y  Y5  1  0.903955  0.702847  0.976225  1
  Y  Y6  1  0.500511  0.500407  0.501194  1
  Mn  Mn7  1  0.998785  0.993297  0.978552  1
  I  I8  1  0.777827  0.320137  0.928440  1
  I  I9  1  0.928867  0.780733  0.316805  1
  I  I10  1  0.329247  0.928842  0.781924  1
  I  I11  1  0.222066  0.681923  0.074074  1
  I  I12  1  0.076843  0.236487  0.684705  1
  I  I13  1  0.689315  0.075524  0.229307  1
  I  I14  1  0.538958  0.615050  0.842075  1
  I  I15  1  0.829321  0.525541  0.612449  1
  I  I16  1  0.603905  0.833847  0.534689  1
  I  I17  1  0.461437  0.384338  0.160293  1
  I  I18  1  0.162828  0.458367  0.387239  1
  I  I19  1  0.380129  0.162561  0.462714  1
