# generated using pymatgen
data_Sm4Zn3Ga3Pt8
_symmetry_space_group_name_H-M   'P 1'
_cell_length_a   8.29551227
_cell_length_b   8.29551265
_cell_length_c   7.65310700
_cell_angle_alpha   89.98543347
_cell_angle_beta   89.98543347
_cell_angle_gamma   140.07323973
_symmetry_Int_Tables_number   1
_chemical_formula_structural   Sm4Zn3Ga3Pt8
_chemical_formula_sum   'Sm4 Zn3 Ga3 Pt8'
_cell_volume   338.00968397
_cell_formula_units_Z   1
loop_
 _symmetry_equiv_pos_site_id
 _symmetry_equiv_pos_as_xyz
  1  'x, y, z'
loop_
 _atom_site_type_symbol
 _atom_site_label
 _atom_site_symmetry_multiplicity
 _atom_site_fract_x
 _atom_site_fract_y
 _atom_site_fract_z
 _atom_site_occupancy
  Sm  Sm0  1  0.607728  0.384571  0.912631  1
  Sm  Sm1  1  0.390719  0.615269  0.091388  1
  Sm  Sm2  1  0.884731  0.109281  0.408612  1
  Sm  Sm3  1  0.115429  0.892272  0.587369  1
  Zn  Zn4  1  0.523500  0.976500  0.750000  1
  Zn  Zn5  1  0.976638  0.523362  0.250000  1
  Zn  Zn6  1  0.476854  0.023146  0.250000  1
  Ga  Ga7  1  0.499104  0.498913  0.500238  1
  Ga  Ga8  1  0.001087  0.000896  0.999762  1
  Ga  Ga9  1  0.022754  0.477246  0.750000  1
  Pt  Pt10  1  0.692907  0.807093  0.750000  1
  Pt  Pt11  1  0.807330  0.692670  0.250000  1
  Pt  Pt12  1  0.308203  0.191797  0.250000  1
  Pt  Pt13  1  0.190834  0.309166  0.750000  1
  Pt  Pt14  1  0.685904  0.327031  0.528749  1
  Pt  Pt15  1  0.317461  0.674151  0.475463  1
  Pt  Pt16  1  0.825849  0.182539  0.024537  1
  Pt  Pt17  1  0.172969  0.814096  0.971251  1
