# generated using pymatgen
data_Er2Mn3Si6Ni9P
_symmetry_space_group_name_H-M   'P 1'
_cell_length_a   9.20559556
_cell_length_b   9.19951878
_cell_length_c   3.68033000
_cell_angle_alpha   90.00000000
_cell_angle_beta   90.00000000
_cell_angle_gamma   119.94434584
_symmetry_Int_Tables_number   1
_chemical_formula_structural   Er2Mn3Si6Ni9P
_chemical_formula_sum   'Er2 Mn3 Si6 Ni9 P1'
_cell_volume   270.07082892
_cell_formula_units_Z   1
loop_
 _symmetry_equiv_pos_site_id
 _symmetry_equiv_pos_as_xyz
  1  'x, y, z'
loop_
 _atom_site_type_symbol
 _atom_site_label
 _atom_site_symmetry_multiplicity
 _atom_site_fract_x
 _atom_site_fract_y
 _atom_site_fract_z
 _atom_site_occupancy
  Er  Er0  1  0.336553  0.665617  0.000000  1
  Er  Er1  1  0.002301  0.001199  0.500000  1
  Mn  Mn2  1  0.780473  0.232950  0.500000  1
  Mn  Mn3  1  0.759884  0.552087  0.500000  1
  Mn  Mn4  1  0.452200  0.217307  0.500000  1
  Si  Si5  1  0.782251  0.041128  0.000000  1
  Si  Si6  1  0.957915  0.739008  0.000000  1
  Si  Si7  1  0.261887  0.219230  0.000000  1
  Si  Si8  1  0.374291  0.927707  0.500000  1
  Si  Si9  1  0.072428  0.447407  0.500000  1
  Si  Si10  1  0.665445  0.333925  0.000000  1
  Ni  Ni11  1  0.044488  0.276812  0.000000  1
  Ni  Ni12  1  0.723189  0.766001  0.000000  1
  Ni  Ni13  1  0.232828  0.956510  0.000000  1
  Ni  Ni14  1  0.542167  0.051084  0.000000  1
  Ni  Ni15  1  0.946351  0.488509  0.000000  1
  Ni  Ni16  1  0.510956  0.461268  0.000000  1
  Ni  Ni17  1  0.615451  0.895673  0.500000  1
  Ni  Ni18  1  0.099817  0.715202  0.500000  1
  Ni  Ni19  1  0.286303  0.386491  0.500000  1
  P  P20  1  0.552820  0.624889  0.500000  1
