# generated using pymatgen
data_Hf3(MgTc12)2
_symmetry_space_group_name_H-M   'P 1'
_cell_length_a   8.40262505
_cell_length_b   8.37503595
_cell_length_c   8.37769900
_cell_angle_alpha   109.36724540
_cell_angle_beta   109.52180477
_cell_angle_gamma   109.49822266
_symmetry_Int_Tables_number   1
_chemical_formula_structural   Hf3(MgTc12)2
_chemical_formula_sum   'Hf3 Mg2 Tc24'
_cell_volume   453.98886106
_cell_formula_units_Z   1
loop_
 _symmetry_equiv_pos_site_id
 _symmetry_equiv_pos_as_xyz
  1  'x, y, z'
loop_
 _atom_site_type_symbol
 _atom_site_label
 _atom_site_symmetry_multiplicity
 _atom_site_fract_x
 _atom_site_fract_y
 _atom_site_fract_z
 _atom_site_occupancy
  Hf  Hf0  1  0.000480  0.631375  0.999771  1
  Hf  Hf1  1  0.001171  0.000215  0.631261  1
  Hf  Hf2  1  0.369212  0.368354  0.368516  1
  Mg  Mg3  1  0.996940  0.000063  0.999893  1
  Mg  Mg4  1  0.632384  0.000235  0.000443  1
  Tc  Tc5  1  0.625307  0.818370  0.627409  1
  Tc  Tc6  1  0.393106  0.672711  0.999840  1
  Tc  Tc7  1  0.719888  0.327115  0.327180  1
  Tc  Tc8  1  0.393751  0.999755  0.672719  1
  Tc  Tc9  1  0.674881  0.393205  0.999728  1
  Tc  Tc10  1  0.996473  0.390574  0.672511  1
  Tc  Tc11  1  0.323403  0.716661  0.326561  1
  Tc  Tc12  1  0.324095  0.327529  0.717473  1
  Tc  Tc13  1  0.996540  0.672420  0.390392  1
  Tc  Tc14  1  0.674837  0.000142  0.393982  1
  Tc  Tc15  1  0.605992  0.609561  0.282168  1
  Tc  Tc16  1  0.282191  0.606903  0.606772  1
  Tc  Tc17  1  0.606415  0.282961  0.610134  1
  Tc  Tc18  1  0.376128  0.192717  0.999722  1
  Tc  Tc19  1  0.183213  0.807125  0.806975  1
  Tc  Tc20  1  0.376093  0.999859  0.193238  1
  Tc  Tc21  1  0.195181  0.373112  0.999625  1
  Tc  Tc22  1  0.997371  0.372034  0.190553  1
  Tc  Tc23  1  0.807188  0.181724  0.809515  1
  Tc  Tc24  1  0.807278  0.809876  0.182225  1
  Tc  Tc25  1  0.997400  0.190456  0.372311  1
  Tc  Tc26  1  0.195587  0.999816  0.373570  1
  Tc  Tc27  1  0.625597  0.628298  0.818974  1
  Tc  Tc28  1  0.821898  0.626830  0.626539  1
