# generated using pymatgen
data_Ti8Tc4Os3Pd
_symmetry_space_group_name_H-M   'P 1'
_cell_length_a   6.20212000
_cell_length_b   4.40131100
_cell_length_c   8.78794800
_cell_angle_alpha   90.00000000
_cell_angle_beta   89.99976255
_cell_angle_gamma   90.00000000
_symmetry_Int_Tables_number   1
_chemical_formula_structural   Ti8Tc4Os3Pd
_chemical_formula_sum   'Ti8 Tc4 Os3 Pd1'
_cell_volume   239.88865004
_cell_formula_units_Z   1
loop_
 _symmetry_equiv_pos_site_id
 _symmetry_equiv_pos_as_xyz
  1  'x, y, z'
loop_
 _atom_site_type_symbol
 _atom_site_label
 _atom_site_symmetry_multiplicity
 _atom_site_fract_x
 _atom_site_fract_y
 _atom_site_fract_z
 _atom_site_occupancy
  Ti  Ti0  1  0.992493  0.749999  0.124998  1
  Ti  Ti1  1  0.507533  0.749999  0.124999  1
  Ti  Ti2  1  0.996840  0.249999  0.379972  1
  Ti  Ti3  1  0.503183  0.249999  0.379971  1
  Ti  Ti4  1  0.498555  0.749999  0.625000  1
  Ti  Ti5  1  0.001416  0.749999  0.625002  1
  Ti  Ti6  1  0.503164  0.249999  0.870026  1
  Ti  Ti7  1  0.996814  0.249999  0.870030  1
  Tc  Tc8  1  0.750013  0.249999  0.125005  1
  Tc  Tc9  1  0.250010  0.749999  0.373461  1
  Tc  Tc10  1  0.749993  0.249999  0.625004  1
  Tc  Tc11  1  0.249986  0.749999  0.876529  1
  Os  Os12  1  0.750012  0.749999  0.374785  1
  Os  Os13  1  0.249987  0.249999  0.625005  1
  Os  Os14  1  0.749987  0.749999  0.875208  1
  Pd  Pd15  1  0.250014  0.249999  0.125005  1
