# generated using pymatgen
data_Zn2Bi3Sb3O14
_symmetry_space_group_name_H-M   'P 1'
_cell_length_a   7.32623197
_cell_length_b   7.32623826
_cell_length_c   7.32625184
_cell_angle_alpha   62.04613937
_cell_angle_beta   62.04606147
_cell_angle_gamma   62.04613557
_symmetry_Int_Tables_number   1
_chemical_formula_structural   Zn2Bi3Sb3O14
_chemical_formula_sum   'Zn2 Bi3 Sb3 O14'
_cell_volume   290.77491260
_cell_formula_units_Z   1
loop_
 _symmetry_equiv_pos_site_id
 _symmetry_equiv_pos_as_xyz
  1  'x, y, z'
loop_
 _atom_site_type_symbol
 _atom_site_label
 _atom_site_symmetry_multiplicity
 _atom_site_fract_x
 _atom_site_fract_y
 _atom_site_fract_z
 _atom_site_occupancy
  Zn  Zn0  1  0.000000  0.500004  0.999990  1
  Zn  Zn1  1  0.499993  0.999944  0.500068  1
  Bi  Bi2  1  0.000002  0.000000  0.500000  1
  Bi  Bi3  1  0.500005  0.000008  0.000004  1
  Bi  Bi4  1  0.499995  0.499997  0.499997  1
  Sb  Sb5  1  0.500001  0.500006  0.999994  1
  Sb  Sb6  1  0.000001  0.500002  0.499989  1
  Sb  Sb7  1  0.000000  0.000008  0.999995  1
  O  O8  1  0.608891  0.108886  0.608899  1
  O  O9  1  0.391110  0.891105  0.391118  1
  O  O10  1  0.078052  0.180696  0.680692  1
  O  O11  1  0.680697  0.180699  0.078036  1
  O  O12  1  0.680693  0.578060  0.680690  1
  O  O13  1  0.921950  0.819307  0.319303  1
  O  O14  1  0.319308  0.819310  0.921936  1
  O  O15  1  0.319304  0.421962  0.319301  1
  O  O16  1  0.652882  0.589782  0.089780  1
  O  O17  1  0.089782  0.589782  0.652878  1
  O  O18  1  0.089781  0.152883  0.089781  1
  O  O19  1  0.347118  0.410220  0.910217  1
  O  O20  1  0.910219  0.410219  0.347116  1
  O  O21  1  0.910218  0.847120  0.910217  1
