# generated using pymatgen
data_Rb2Cu(NO3)4
_symmetry_space_group_name_H-M   'P 1'
_cell_length_a   16.03296700
_cell_length_b   8.19361861
_cell_length_c   9.74070200
_cell_angle_alpha   88.66602983
_cell_angle_beta   90.00000000
_cell_angle_gamma   90.00000000
_symmetry_Int_Tables_number   1
_chemical_formula_structural   Rb2Cu(NO3)4
_chemical_formula_sum   'Rb8 Cu4 N16 O48'
_cell_volume   1279.26990594
_cell_formula_units_Z   4
loop_
 _symmetry_equiv_pos_site_id
 _symmetry_equiv_pos_as_xyz
  1  'x, y, z'
loop_
 _atom_site_type_symbol
 _atom_site_label
 _atom_site_symmetry_multiplicity
 _atom_site_fract_x
 _atom_site_fract_y
 _atom_site_fract_z
 _atom_site_occupancy
  Rb  Rb0  1  0.838674  0.223722  0.017154  1
  Rb  Rb1  1  0.661326  0.223722  0.517154  1
  Rb  Rb2  1  0.092236  0.255748  0.560743  1
  Rb  Rb3  1  0.907764  0.744252  0.439257  1
  Rb  Rb4  1  0.161326  0.776278  0.982846  1
  Rb  Rb5  1  0.407764  0.255748  0.060743  1
  Rb  Rb6  1  0.592236  0.744252  0.939257  1
  Rb  Rb7  1  0.338674  0.776278  0.482846  1
  Cu  Cu8  1  0.881005  0.729814  0.816184  1
  Cu  Cu9  1  0.618995  0.729814  0.316184  1
  Cu  Cu10  1  0.118995  0.270186  0.183816  1
  Cu  Cu11  1  0.381005  0.270186  0.683816  1
  N  N12  1  0.192231  0.561303  0.282422  1
  N  N13  1  0.967121  0.427205  0.235831  1
  N  N14  1  0.807769  0.438697  0.717578  1
  N  N15  1  0.043278  0.964847  0.235736  1
  N  N16  1  0.456722  0.964847  0.735736  1
  N  N17  1  0.761476  0.893975  0.208983  1
  N  N18  1  0.738524  0.893975  0.708983  1
  N  N19  1  0.467121  0.572795  0.264169  1
  N  N20  1  0.307769  0.561303  0.782422  1
  N  N21  1  0.543278  0.035153  0.264264  1
  N  N22  1  0.692231  0.438697  0.217578  1
  N  N23  1  0.956722  0.035153  0.764264  1
  N  N24  1  0.238524  0.106025  0.791017  1
  N  N25  1  0.532879  0.427205  0.735831  1
  N  N26  1  0.261476  0.106025  0.291017  1
  N  N27  1  0.032879  0.572795  0.764169  1
  O  O28  1  0.003498  0.448227  0.347562  1
  O  O29  1  0.102545  0.513498  0.792599  1
  O  O30  1  0.834539  0.946738  0.215000  1
  O  O31  1  0.199025  0.480473  0.391590  1
  O  O32  1  0.526907  0.180276  0.288439  1
  O  O33  1  0.473093  0.819724  0.711561  1
  O  O34  1  0.800975  0.519527  0.608410  1
  O  O35  1  0.589386  0.956033  0.355701  1
  O  O36  1  0.089386  0.043967  0.144299  1
  O  O37  1  0.165461  0.053262  0.785000  1
  O  O38  1  0.496502  0.448227  0.847562  1
  O  O39  1  0.334539  0.053262  0.285000  1
  O  O40  1  0.502796  0.662880  0.357324  1
  O  O41  1  0.518916  0.963403  0.159932  1
  O  O42  1  0.219168  0.703773  0.266368  1
  O  O43  1  0.845139  0.501498  0.824121  1
  O  O44  1  0.665461  0.946738  0.715000  1
  O  O45  1  0.762288  0.794362  0.809025  1
  O  O46  1  0.237712  0.205638  0.190975  1
  O  O47  1  0.712069  0.930907  0.114453  1
  O  O48  1  0.997204  0.662880  0.857324  1
  O  O49  1  0.787931  0.930907  0.614453  1
  O  O50  1  0.287931  0.069093  0.885547  1
  O  O51  1  0.981084  0.963403  0.659932  1
  O  O52  1  0.497204  0.337120  0.642676  1
  O  O53  1  0.345139  0.498502  0.675879  1
  O  O54  1  0.910614  0.956033  0.855701  1
  O  O55  1  0.719168  0.296227  0.233632  1
  O  O56  1  0.154861  0.498502  0.175879  1
  O  O57  1  0.654861  0.501498  0.324121  1
  O  O58  1  0.973093  0.180276  0.788439  1
  O  O59  1  0.300975  0.480473  0.891590  1
  O  O60  1  0.503498  0.551773  0.152438  1
  O  O61  1  0.737712  0.794362  0.309025  1
  O  O62  1  0.699025  0.519527  0.108410  1
  O  O63  1  0.018916  0.036597  0.340068  1
  O  O64  1  0.410614  0.043967  0.644299  1
  O  O65  1  0.897455  0.486502  0.207401  1
  O  O66  1  0.280832  0.703773  0.766368  1
  O  O67  1  0.026907  0.819724  0.211561  1
  O  O68  1  0.212069  0.069093  0.385547  1
  O  O69  1  0.397455  0.513498  0.292599  1
  O  O70  1  0.481084  0.036597  0.840068  1
  O  O71  1  0.996502  0.551773  0.652438  1
  O  O72  1  0.262288  0.205638  0.690975  1
  O  O73  1  0.002796  0.337120  0.142676  1
  O  O74  1  0.780832  0.296227  0.733632  1
  O  O75  1  0.602545  0.486502  0.707401  1
