# generated using pymatgen
data_Sc5Sn2BiS
_symmetry_space_group_name_H-M   'P 1'
_cell_length_a   8.63754700
_cell_length_b   8.63754579
_cell_length_c   6.27008000
_cell_angle_alpha   90.00000000
_cell_angle_beta   90.00000000
_cell_angle_gamma   120.29565580
_symmetry_Int_Tables_number   1
_chemical_formula_structural   Sc5Sn2BiS
_chemical_formula_sum   'Sc10 Sn4 Bi2 S2'
_cell_volume   403.90842749
_cell_formula_units_Z   2
loop_
 _symmetry_equiv_pos_site_id
 _symmetry_equiv_pos_as_xyz
  1  'x, y, z'
loop_
 _atom_site_type_symbol
 _atom_site_label
 _atom_site_symmetry_multiplicity
 _atom_site_fract_x
 _atom_site_fract_y
 _atom_site_fract_z
 _atom_site_occupancy
  Sc  Sc0  1  0.241475  0.994144  0.750000  1
  Sc  Sc1  1  0.758525  0.005856  0.250000  1
  Sc  Sc2  1  0.994144  0.241475  0.750000  1
  Sc  Sc3  1  0.005856  0.758525  0.250000  1
  Sc  Sc4  1  0.760602  0.760602  0.750000  1
  Sc  Sc5  1  0.239398  0.239398  0.250000  1
  Sc  Sc6  1  0.328882  0.671118  0.500000  1
  Sc  Sc7  1  0.671118  0.328882  0.500000  1
  Sc  Sc8  1  0.671118  0.328882  0.000000  1
  Sc  Sc9  1  0.328882  0.671118  0.000000  1
  Sn  Sn10  1  0.599664  0.998002  0.750000  1
  Sn  Sn11  1  0.400336  0.001998  0.250000  1
  Sn  Sn12  1  0.998002  0.599664  0.750000  1
  Sn  Sn13  1  0.001998  0.400336  0.250000  1
  Bi  Bi14  1  0.396806  0.396806  0.750000  1
  Bi  Bi15  1  0.603194  0.603194  0.250000  1
  S  S16  1  0.000000  0.000000  0.500000  1
  S  S17  1  0.000000  0.000000  0.000000  1
