# generated using pymatgen
data_Er20PtRh11
_symmetry_space_group_name_H-M   'P 1'
_cell_length_a   10.88824316
_cell_length_b   10.88824203
_cell_length_c   6.31066900
_cell_angle_alpha   89.99007555
_cell_angle_beta   89.99007555
_cell_angle_gamma   89.81811108
_symmetry_Int_Tables_number   1
_chemical_formula_structural   Er20PtRh11
_chemical_formula_sum   'Er20 Pt1 Rh11'
_cell_volume   748.15016745
_cell_formula_units_Z   1
loop_
 _symmetry_equiv_pos_site_id
 _symmetry_equiv_pos_as_xyz
  1  'x, y, z'
loop_
 _atom_site_type_symbol
 _atom_site_label
 _atom_site_symmetry_multiplicity
 _atom_site_fract_x
 _atom_site_fract_y
 _atom_site_fract_z
 _atom_site_occupancy
  Er  Er0  1  0.291069  0.089545  0.378556  1
  Er  Er1  1  0.291313  0.913332  0.878896  1
  Er  Er2  1  0.708780  0.088797  0.878516  1
  Er  Er3  1  0.708636  0.910916  0.378600  1
  Er  Er4  1  0.590575  0.792094  0.879852  1
  Er  Er5  1  0.589315  0.208255  0.377858  1
  Er  Er6  1  0.412267  0.792852  0.375701  1
  Er  Er7  1  0.410552  0.209213  0.878373  1
  Er  Er8  1  0.207906  0.409425  0.620148  1
  Er  Er9  1  0.207148  0.587733  0.124299  1
  Er  Er10  1  0.791745  0.410685  0.122142  1
  Er  Er11  1  0.790787  0.589448  0.621627  1
  Er  Er12  1  0.910455  0.708931  0.121444  1
  Er  Er13  1  0.911203  0.291220  0.621484  1
  Er  Er14  1  0.086668  0.708687  0.621104  1
  Er  Er15  1  0.089084  0.291364  0.121400  1
  Er  Er16  1  0.999846  0.000074  0.499780  1
  Er  Er17  1  0.999926  0.000154  0.000220  1
  Er  Er18  1  0.501452  0.498558  0.000490  1
  Er  Er19  1  0.501442  0.498548  0.499510  1
  Pt  Pt20  1  0.345487  0.654513  0.750000  1
  Rh  Rh21  1  0.845998  0.154002  0.250000  1
  Rh  Rh22  1  0.846263  0.846265  0.749805  1
  Rh  Rh23  1  0.153735  0.153737  0.750195  1
  Rh  Rh24  1  0.154522  0.845478  0.250000  1
  Rh  Rh25  1  0.655015  0.344985  0.750000  1
  Rh  Rh26  1  0.653686  0.654085  0.249597  1
  Rh  Rh27  1  0.345915  0.346314  0.250403  1
  Rh  Rh28  1  0.499591  0.000243  0.124883  1
  Rh  Rh29  1  0.500238  0.000376  0.625907  1
  Rh  Rh30  1  0.999624  0.499762  0.874093  1
  Rh  Rh31  1  0.999757  0.500409  0.375117  1
