# generated using pymatgen
data_Ho5Er3Re2(B12Os)2
_symmetry_space_group_name_H-M   'P 1'
_cell_length_a   3.65242200
_cell_length_b   9.13029011
_cell_length_c   11.51396000
_cell_angle_alpha   90.13925219
_cell_angle_beta   90.00000000
_cell_angle_gamma   90.00000000
_symmetry_Int_Tables_number   1
_chemical_formula_structural   Ho5Er3Re2(B12Os)2
_chemical_formula_sum   'Ho5 Er3 Re2 B24 Os2'
_cell_volume   383.96263278
_cell_formula_units_Z   1
loop_
 _symmetry_equiv_pos_site_id
 _symmetry_equiv_pos_as_xyz
  1  'x, y, z'
loop_
 _atom_site_type_symbol
 _atom_site_label
 _atom_site_symmetry_multiplicity
 _atom_site_fract_x
 _atom_site_fract_y
 _atom_site_fract_z
 _atom_site_occupancy
  Ho  Ho0  1  0.000000  0.320767  0.412488  1
  Ho  Ho1  1  0.000000  0.679257  0.587570  1
  Ho  Ho2  1  0.000000  0.824480  0.084693  1
  Ho  Ho3  1  0.000000  0.175519  0.915239  1
  Ho  Ho4  1  0.000000  0.943512  0.370834  1
  Er  Er5  1  0.000000  0.056491  0.629302  1
  Er  Er6  1  0.000000  0.442684  0.128756  1
  Er  Er7  1  0.000000  0.557292  0.871231  1
  Re  Re8  1  0.000000  0.138679  0.179496  1
  Re  Re9  1  0.000000  0.861476  0.820371  1
  B  B10  1  0.500000  0.553730  0.433186  1
  B  B11  1  0.500000  0.446213  0.566835  1
  B  B12  1  0.500000  0.053164  0.066748  1
  B  B13  1  0.500000  0.946845  0.933212  1
  B  B14  1  0.500000  0.748853  0.418925  1
  B  B15  1  0.500000  0.250924  0.581097  1
  B  B16  1  0.500000  0.249192  0.080873  1
  B  B17  1  0.500000  0.750832  0.919122  1
  B  B18  1  0.500000  0.790851  0.265739  1
  B  B19  1  0.500000  0.208949  0.734191  1
  B  B20  1  0.500000  0.292153  0.234673  1
  B  B21  1  0.500000  0.707920  0.765316  1
  B  B22  1  0.500000  0.630777  0.185838  1
  B  B23  1  0.500000  0.369198  0.814137  1
  B  B24  1  0.500000  0.131479  0.314921  1
  B  B25  1  0.500000  0.868719  0.684997  1
  B  B26  1  0.500000  0.982560  0.212421  1
  B  B27  1  0.500000  0.017572  0.787409  1
  B  B28  1  0.500000  0.482833  0.287889  1
  B  B29  1  0.500000  0.517147  0.712103  1
  B  B30  1  0.500000  0.602763  0.028720  1
  B  B31  1  0.500000  0.397240  0.971271  1
  B  B32  1  0.500000  0.103445  0.471759  1
  B  B33  1  0.500000  0.896739  0.528641  1
  Os  Os34  1  0.000000  0.637338  0.321759  1
  Os  Os35  1  0.000000  0.362408  0.678237  1
