# generated using pymatgen
data_SrZnInAg4
_symmetry_space_group_name_H-M   'P 1'
_cell_length_a   5.65084500
_cell_length_b   9.18742900
_cell_length_c   11.84295800
_cell_angle_alpha   90.00000000
_cell_angle_beta   90.00000000
_cell_angle_gamma   90.00000000
_symmetry_Int_Tables_number   1
_chemical_formula_structural   SrZnInAg4
_chemical_formula_sum   'Sr4 Zn4 In4 Ag16'
_cell_volume   614.84773848
_cell_formula_units_Z   4
loop_
 _symmetry_equiv_pos_site_id
 _symmetry_equiv_pos_as_xyz
  1  'x, y, z'
loop_
 _atom_site_type_symbol
 _atom_site_label
 _atom_site_symmetry_multiplicity
 _atom_site_fract_x
 _atom_site_fract_y
 _atom_site_fract_z
 _atom_site_occupancy
  Sr  Sr0  1  0.250000  0.755711  0.063182  1
  Sr  Sr1  1  0.750000  0.244289  0.936818  1
  Sr  Sr2  1  0.750000  0.744289  0.563182  1
  Sr  Sr3  1  0.250000  0.255711  0.436818  1
  Zn  Zn4  1  0.250000  0.819488  0.742417  1
  Zn  Zn5  1  0.750000  0.180512  0.257583  1
  Zn  Zn6  1  0.750000  0.680512  0.242417  1
  Zn  Zn7  1  0.250000  0.319488  0.757583  1
  In  In8  1  0.250000  0.641315  0.359457  1
  In  In9  1  0.750000  0.358685  0.640543  1
  In  In10  1  0.750000  0.858685  0.859457  1
  In  In11  1  0.250000  0.141315  0.140543  1
  Ag  Ag12  1  0.501730  0.572201  0.805542  1
  Ag  Ag13  1  0.498270  0.427799  0.194458  1
  Ag  Ag14  1  0.498270  0.927799  0.305542  1
  Ag  Ag15  1  0.001730  0.427799  0.194458  1
  Ag  Ag16  1  0.501730  0.072201  0.694458  1
  Ag  Ag17  1  0.998270  0.572201  0.805542  1
  Ag  Ag18  1  0.998270  0.072201  0.694458  1
  Ag  Ag19  1  0.001730  0.927799  0.305542  1
  Ag  Ag20  1  0.250000  0.557931  0.590265  1
  Ag  Ag21  1  0.750000  0.442069  0.409735  1
  Ag  Ag22  1  0.750000  0.942069  0.090265  1
  Ag  Ag23  1  0.250000  0.057931  0.909735  1
  Ag  Ag24  1  0.250000  0.905152  0.518487  1
  Ag  Ag25  1  0.750000  0.094848  0.481513  1
  Ag  Ag26  1  0.750000  0.594848  0.018487  1
  Ag  Ag27  1  0.250000  0.405152  0.981513  1
