# generated using pymatgen
data_Tm6HfP12Rh17
_symmetry_space_group_name_H-M   'P 1'
_cell_length_a   3.92314000
_cell_length_b   11.19633000
_cell_length_c   12.79277000
_cell_angle_alpha   90.00000000
_cell_angle_beta   90.00000000
_cell_angle_gamma   90.00000000
_symmetry_Int_Tables_number   1
_chemical_formula_structural   Tm6HfP12Rh17
_chemical_formula_sum   'Tm6 Hf1 P12 Rh17'
_cell_volume   561.91948089
_cell_formula_units_Z   1
loop_
 _symmetry_equiv_pos_site_id
 _symmetry_equiv_pos_as_xyz
  1  'x, y, z'
loop_
 _atom_site_type_symbol
 _atom_site_label
 _atom_site_symmetry_multiplicity
 _atom_site_fract_x
 _atom_site_fract_y
 _atom_site_fract_z
 _atom_site_occupancy
  Tm  Tm0  1  0.000000  0.500000  0.522992  1
  Tm  Tm1  1  0.500000  0.000000  0.476850  1
  Tm  Tm2  1  0.500000  0.817000  0.206341  1
  Tm  Tm3  1  0.500000  0.183000  0.206341  1
  Tm  Tm4  1  0.000000  0.681681  0.797507  1
  Tm  Tm5  1  0.000000  0.318319  0.797507  1
  Hf  Hf6  1  0.500000  0.500000  0.156767  1
  P  P7  1  0.500000  0.500000  0.875047  1
  P  P8  1  0.000000  0.000000  0.123358  1
  P  P9  1  0.500000  0.500000  0.360866  1
  P  P10  1  0.000000  0.000000  0.646942  1
  P  P11  1  0.500000  0.316126  0.619708  1
  P  P12  1  0.500000  0.683874  0.619708  1
  P  P13  1  0.000000  0.184708  0.383422  1
  P  P14  1  0.000000  0.815292  0.383422  1
  P  P15  1  0.500000  0.849894  0.888276  1
  P  P16  1  0.500000  0.150106  0.888276  1
  P  P17  1  0.000000  0.660368  0.107418  1
  P  P18  1  0.000000  0.339632  0.107418  1
  Rh  Rh19  1  0.000000  0.000000  0.829658  1
  Rh  Rh20  1  0.500000  0.500000  0.699236  1
  Rh  Rh21  1  0.000000  0.000000  0.300288  1
  Rh  Rh22  1  0.000000  0.500000  0.983710  1
  Rh  Rh23  1  0.500000  0.000000  0.022828  1
  Rh  Rh24  1  0.500000  0.329987  0.986791  1
  Rh  Rh25  1  0.500000  0.670013  0.986791  1
  Rh  Rh26  1  0.000000  0.164114  0.007211  1
  Rh  Rh27  1  0.000000  0.835886  0.007211  1
  Rh  Rh28  1  0.500000  0.291138  0.434138  1
  Rh  Rh29  1  0.500000  0.708862  0.434138  1
  Rh  Rh30  1  0.000000  0.201587  0.570184  1
  Rh  Rh31  1  0.000000  0.798413  0.570184  1
  Rh  Rh32  1  0.500000  0.873272  0.709147  1
  Rh  Rh33  1  0.500000  0.126728  0.709147  1
  Rh  Rh34  1  0.000000  0.628412  0.290587  1
  Rh  Rh35  1  0.000000  0.371588  0.290587  1
