# generated using pymatgen
data_HoAl2ZnCu2
_symmetry_space_group_name_H-M   'P 1'
_cell_length_a   5.23926096
_cell_length_b   5.23926224
_cell_length_c   4.11000600
_cell_angle_alpha   90.00000000
_cell_angle_beta   90.00000000
_cell_angle_gamma   119.94108014
_symmetry_Int_Tables_number   1
_chemical_formula_structural   HoAl2ZnCu2
_chemical_formula_sum   'Ho1 Al2 Zn1 Cu2'
_cell_volume   97.76216177
_cell_formula_units_Z   1
loop_
 _symmetry_equiv_pos_site_id
 _symmetry_equiv_pos_as_xyz
  1  'x, y, z'
loop_
 _atom_site_type_symbol
 _atom_site_label
 _atom_site_symmetry_multiplicity
 _atom_site_fract_x
 _atom_site_fract_y
 _atom_site_fract_z
 _atom_site_occupancy
  Ho  Ho0  1  0.000000  0.000000  0.000000  1
  Al  Al1  1  0.500000  0.000000  0.500000  1
  Al  Al2  1  0.000000  0.500000  0.500000  1
  Zn  Zn3  1  0.500000  0.500000  0.500000  1
  Cu  Cu4  1  0.668062  0.331938  0.000000  1
  Cu  Cu5  1  0.331938  0.668062  0.000000  1
