# generated using pymatgen
data_Zr16Pd5Rh3O4
_symmetry_space_group_name_H-M   'P 1'
_cell_length_a   8.87602240
_cell_length_b   8.86733288
_cell_length_c   8.87602300
_cell_angle_alpha   59.96757980
_cell_angle_beta   60.00000150
_cell_angle_gamma   59.96757930
_symmetry_Int_Tables_number   1
_chemical_formula_structural   Zr16Pd5Rh3O4
_chemical_formula_sum   'Zr16 Pd5 Rh3 O4'
_cell_volume   493.74400399
_cell_formula_units_Z   1
loop_
 _symmetry_equiv_pos_site_id
 _symmetry_equiv_pos_as_xyz
  1  'x, y, z'
loop_
 _atom_site_type_symbol
 _atom_site_label
 _atom_site_symmetry_multiplicity
 _atom_site_fract_x
 _atom_site_fract_y
 _atom_site_fract_z
 _atom_site_occupancy
  Zr  Zr0  1  0.317240  0.682236  0.317240  1
  Zr  Zr1  1  0.933325  0.568679  0.933325  1
  Zr  Zr2  1  0.682123  0.317775  0.682123  1
  Zr  Zr3  1  0.682123  0.317775  0.317980  1
  Zr  Zr4  1  0.317240  0.682236  0.683285  1
  Zr  Zr5  1  0.637587  0.117862  0.122275  1
  Zr  Zr6  1  0.933414  0.933334  0.566626  1
  Zr  Zr7  1  0.683285  0.682236  0.317240  1
  Zr  Zr8  1  0.117758  0.646725  0.117758  1
  Zr  Zr9  1  0.122275  0.117862  0.637587  1
  Zr  Zr10  1  0.317980  0.317775  0.682123  1
  Zr  Zr11  1  0.122275  0.117862  0.122275  1
  Zr  Zr12  1  0.564671  0.568679  0.933325  1
  Zr  Zr13  1  0.566626  0.933334  0.933414  1
  Zr  Zr14  1  0.933325  0.568679  0.564671  1
  Zr  Zr15  1  0.566626  0.933334  0.566626  1
  Pd  Pd16  1  0.339446  0.981661  0.339446  1
  Pd  Pd17  1  0.338564  0.339809  0.338564  1
  Pd  Pd18  1  0.983062  0.339809  0.338564  1
  Pd  Pd19  1  0.338564  0.339809  0.983062  1
  Pd  Pd20  1  0.907077  0.278771  0.907077  1
  Rh  Rh21  1  0.293398  0.904615  0.900994  1
  Rh  Rh22  1  0.900994  0.904615  0.900994  1
  Rh  Rh23  1  0.900994  0.904615  0.293398  1
  O  O24  1  0.625108  0.624847  0.625108  1
  O  O25  1  0.124937  0.624847  0.625108  1
  O  O26  1  0.625108  0.624847  0.124937  1
  O  O27  1  0.624875  0.125374  0.624875  1
