# generated using pymatgen
data_CaHo3As6Ir7
_symmetry_space_group_name_H-M   'P 1'
_cell_length_a   7.29222131
_cell_length_b   7.29222156
_cell_length_c   7.26190200
_cell_angle_alpha   109.38701755
_cell_angle_beta   109.38701823
_cell_angle_gamma   109.55529488
_symmetry_Int_Tables_number   1
_chemical_formula_structural   CaHo3As6Ir7
_chemical_formula_sum   'Ca1 Ho3 As6 Ir7'
_cell_volume   297.57635955
_cell_formula_units_Z   1
loop_
 _symmetry_equiv_pos_site_id
 _symmetry_equiv_pos_as_xyz
  1  'x, y, z'
loop_
 _atom_site_type_symbol
 _atom_site_label
 _atom_site_symmetry_multiplicity
 _atom_site_fract_x
 _atom_site_fract_y
 _atom_site_fract_z
 _atom_site_occupancy
  Ca  Ca0  1  0.000000  0.000000  0.500000  1
  Ho  Ho1  1  0.500000  0.000000  0.000000  1
  Ho  Ho2  1  0.000000  0.500000  0.000000  1
  Ho  Ho3  1  0.500000  0.500000  0.500000  1
  As  As4  1  0.681603  0.681603  0.001835  1
  As  As5  1  0.318397  0.318397  0.998165  1
  As  As6  1  0.000000  0.681603  0.679768  1
  As  As7  1  0.000000  0.318397  0.320232  1
  As  As8  1  0.681603  0.000000  0.679768  1
  As  As9  1  0.318397  0.000000  0.320232  1
  Ir  Ir10  1  0.000000  0.000000  0.000000  1
  Ir  Ir11  1  0.252078  0.504156  0.752078  1
  Ir  Ir12  1  0.747922  0.252078  0.500000  1
  Ir  Ir13  1  0.504156  0.252078  0.752078  1
  Ir  Ir14  1  0.495844  0.747922  0.247922  1
  Ir  Ir15  1  0.747922  0.495844  0.247922  1
  Ir  Ir16  1  0.252078  0.747922  0.500000  1
