# generated using pymatgen
data_Sr6TcMoO12
_symmetry_space_group_name_H-M   'P 1'
_cell_length_a   6.13444681
_cell_length_b   5.85855250
_cell_length_c   10.29854600
_cell_angle_alpha   55.01508034
_cell_angle_beta   89.94614682
_cell_angle_gamma   90.17440232
_symmetry_Int_Tables_number   1
_chemical_formula_structural   Sr6TcMoO12
_chemical_formula_sum   'Sr6 Tc1 Mo1 O12'
_cell_volume   303.23675193
_cell_formula_units_Z   1
loop_
 _symmetry_equiv_pos_site_id
 _symmetry_equiv_pos_as_xyz
  1  'x, y, z'
loop_
 _atom_site_type_symbol
 _atom_site_label
 _atom_site_symmetry_multiplicity
 _atom_site_fract_x
 _atom_site_fract_y
 _atom_site_fract_z
 _atom_site_occupancy
  Sr  Sr0  1  0.500000  0.500000  0.500000  1
  Sr  Sr1  1  0.948036  0.726607  0.257346  1
  Sr  Sr2  1  0.447496  0.265776  0.248005  1
  Sr  Sr3  1  0.000000  0.500000  0.000000  1
  Sr  Sr4  1  0.552504  0.734224  0.751995  1
  Sr  Sr5  1  0.051964  0.273393  0.742654  1
  Tc  Tc6  1  0.000000  0.000000  0.500000  1
  Mo  Mo7  1  0.500000  0.000000  0.000000  1
  O  O8  1  0.450700  0.113907  0.782154  1
  O  O9  1  0.235900  0.763640  0.068453  1
  O  O10  1  0.175854  0.312774  0.454959  1
  O  O11  1  0.674229  0.683748  0.045303  1
  O  O12  1  0.736520  0.235309  0.434719  1
  O  O13  1  0.953466  0.885417  0.716234  1
  O  O14  1  0.046534  0.114583  0.283766  1
  O  O15  1  0.263480  0.764691  0.565281  1
  O  O16  1  0.325771  0.316252  0.954697  1
  O  O17  1  0.824146  0.687226  0.545041  1
  O  O18  1  0.764100  0.236360  0.931547  1
  O  O19  1  0.549300  0.886093  0.217846  1
