# generated using pymatgen
data_Ca2Eu3(GaP3)2
_symmetry_space_group_name_H-M   'P 1'
_cell_length_a   4.10774500
_cell_length_b   11.03485848
_cell_length_c   12.77581900
_cell_angle_alpha   89.91043360
_cell_angle_beta   90.00000000
_cell_angle_gamma   90.00000000
_symmetry_Int_Tables_number   1
_chemical_formula_structural   Ca2Eu3(GaP3)2
_chemical_formula_sum   'Ca4 Eu6 Ga4 P12'
_cell_volume   579.10653166
_cell_formula_units_Z   2
loop_
 _symmetry_equiv_pos_site_id
 _symmetry_equiv_pos_as_xyz
  1  'x, y, z'
loop_
 _atom_site_type_symbol
 _atom_site_label
 _atom_site_symmetry_multiplicity
 _atom_site_fract_x
 _atom_site_fract_y
 _atom_site_fract_z
 _atom_site_occupancy
  Ca  Ca0  1  0.500000  0.000000  0.500000  1
  Ca  Ca1  1  0.500000  0.500000  0.000000  1
  Ca  Ca2  1  0.500000  0.414831  0.254226  1
  Ca  Ca3  1  0.500000  0.585169  0.745774  1
  Eu  Eu4  1  0.500000  0.673703  0.481558  1
  Eu  Eu5  1  0.500000  0.326297  0.518442  1
  Eu  Eu6  1  0.500000  0.824736  0.980234  1
  Eu  Eu7  1  0.500000  0.175264  0.019766  1
  Eu  Eu8  1  0.500000  0.916440  0.244323  1
  Eu  Eu9  1  0.500000  0.083560  0.755677  1
  Ga  Ga10  1  0.000000  0.326627  0.716458  1
  Ga  Ga11  1  0.000000  0.673373  0.283542  1
  Ga  Ga12  1  0.000000  0.826272  0.781684  1
  Ga  Ga13  1  0.000000  0.173728  0.218316  1
  P  P14  1  0.000000  0.983363  0.087529  1
  P  P15  1  0.000000  0.016637  0.912471  1
  P  P16  1  0.000000  0.484126  0.412253  1
  P  P17  1  0.000000  0.515874  0.587747  1
  P  P18  1  0.500000  0.165242  0.320085  1
  P  P19  1  0.500000  0.834758  0.679915  1
  P  P20  1  0.500000  0.660440  0.182027  1
  P  P21  1  0.500000  0.339560  0.817973  1
  P  P22  1  0.000000  0.346452  0.102407  1
  P  P23  1  0.000000  0.653548  0.897593  1
  P  P24  1  0.000000  0.846032  0.400054  1
  P  P25  1  0.000000  0.153968  0.599946  1
