# generated using pymatgen
data_Ho2PaTiGa2Ir3
_symmetry_space_group_name_H-M   'P 1'
_cell_length_a   7.07964526
_cell_length_b   7.03011199
_cell_length_c   4.01067400
_cell_angle_alpha   90.00000000
_cell_angle_beta   90.00000000
_cell_angle_gamma   117.76269699
_symmetry_Int_Tables_number   1
_chemical_formula_structural   Ho2PaTiGa2Ir3
_chemical_formula_sum   'Ho2 Pa1 Ti1 Ga2 Ir3'
_cell_volume   176.63536433
_cell_formula_units_Z   1
loop_
 _symmetry_equiv_pos_site_id
 _symmetry_equiv_pos_as_xyz
  1  'x, y, z'
loop_
 _atom_site_type_symbol
 _atom_site_label
 _atom_site_symmetry_multiplicity
 _atom_site_fract_x
 _atom_site_fract_y
 _atom_site_fract_z
 _atom_site_occupancy
  Ho  Ho0  1  0.425834  0.013480  0.000000  1
  Ho  Ho1  1  0.997992  0.394399  0.000000  1
  Pa  Pa2  1  0.572160  0.583184  0.000000  1
  Ti  Ti3  1  0.011887  0.764372  0.500000  1
  Ga  Ga4  1  0.236872  0.230952  0.500000  1
  Ga  Ga5  1  0.749420  0.007045  0.500000  1
  Ir  Ir6  1  0.986016  0.966576  0.000000  1
  Ir  Ir7  1  0.680612  0.376943  0.500000  1
  Ir  Ir8  1  0.339206  0.663049  0.500000  1
