# generated using pymatgen
data_U8Nb11Si16Os
_symmetry_space_group_name_H-M   'P 1'
_cell_length_a   7.02148205
_cell_length_b   7.02833295
_cell_length_c   12.95429531
_cell_angle_alpha   89.89601139
_cell_angle_beta   90.00247335
_cell_angle_gamma   90.01300183
_symmetry_Int_Tables_number   1
_chemical_formula_structural   U8Nb11Si16Os
_chemical_formula_sum   'U8 Nb11 Si16 Os1'
_cell_volume   639.28451247
_cell_formula_units_Z   1
loop_
 _symmetry_equiv_pos_site_id
 _symmetry_equiv_pos_as_xyz
  1  'x, y, z'
loop_
 _atom_site_type_symbol
 _atom_site_label
 _atom_site_symmetry_multiplicity
 _atom_site_fract_x
 _atom_site_fract_y
 _atom_site_fract_z
 _atom_site_occupancy
  U  U0  1  0.997009  0.333888  0.221537  1
  U  U1  1  0.007405  0.670777  0.716932  1
  U  U2  1  0.166265  0.497535  0.468957  1
  U  U3  1  0.503662  0.831623  0.033712  1
  U  U4  1  0.831053  0.505778  0.969388  1
  U  U5  1  0.495289  0.165454  0.528748  1
  U  U6  1  0.329707  0.993968  0.779804  1
  U  U7  1  0.670082  0.003680  0.279637  1
  Nb  Nb8  1  0.167825  0.167051  0.001416  1
  Nb  Nb9  1  0.830956  0.832935  0.499463  1
  Nb  Nb10  1  0.328782  0.666354  0.250215  1
  Nb  Nb11  1  0.668550  0.331269  0.749240  1
  Nb  Nb12  1  0.843401  0.001448  0.874139  1
  Nb  Nb13  1  0.495598  0.658148  0.623169  1
  Nb  Nb14  1  0.343737  0.499434  0.875798  1
  Nb  Nb15  1  0.495967  0.338623  0.126170  1
  Nb  Nb16  1  0.658439  0.497714  0.375381  1
  Nb  Nb17  1  0.999371  0.157953  0.626139  1
  Nb  Nb18  1  0.996741  0.841083  0.123584  1
  Si  Si19  1  0.292370  0.036243  0.188989  1
  Si  Si20  1  0.703052  0.959711  0.683886  1
  Si  Si21  1  0.458113  0.796156  0.432750  1
  Si  Si22  1  0.203281  0.538764  0.065364  1
  Si  Si23  1  0.539597  0.202663  0.935195  1
  Si  Si24  1  0.794424  0.460246  0.564761  1
  Si  Si25  1  0.040708  0.297712  0.815496  1
  Si  Si26  1  0.965081  0.714829  0.316201  1
  Si  Si27  1  0.370445  0.290147  0.317580  1
  Si  Si28  1  0.629158  0.707031  0.815635  1
  Si  Si29  1  0.203547  0.872235  0.561924  1
  Si  Si30  1  0.128928  0.793257  0.933927  1
  Si  Si31  1  0.793182  0.130352  0.066906  1
  Si  Si32  1  0.879178  0.200984  0.433508  1
  Si  Si33  1  0.293888  0.370118  0.683190  1
  Si  Si34  1  0.706413  0.624942  0.184683  1
  Os  Os35  1  0.168792  0.009896  0.376574  1
