# generated using pymatgen
data_Tm5P12Ru18Au
_symmetry_space_group_name_H-M   'P 1'
_cell_length_a   12.54057000
_cell_length_b   12.54057019
_cell_length_c   3.97755800
_cell_angle_alpha   90.00000000
_cell_angle_beta   90.00000000
_cell_angle_gamma   119.99999421
_symmetry_Int_Tables_number   1
_chemical_formula_structural   Tm5P12Ru18Au
_chemical_formula_sum   'Tm5 P12 Ru18 Au1'
_cell_volume   541.72856760
_cell_formula_units_Z   1
loop_
 _symmetry_equiv_pos_site_id
 _symmetry_equiv_pos_as_xyz
  1  'x, y, z'
loop_
 _atom_site_type_symbol
 _atom_site_label
 _atom_site_symmetry_multiplicity
 _atom_site_fract_x
 _atom_site_fract_y
 _atom_site_fract_z
 _atom_site_occupancy
  Tm  Tm0  1  0.333333  0.666667  0.500000  1
  Tm  Tm1  1  0.666667  0.333333  0.500000  1
  Tm  Tm2  1  0.195836  0.195836  0.000000  1
  Tm  Tm3  1  0.804164  0.000000  0.000000  1
  Tm  Tm4  1  0.000000  0.804164  0.000000  1
  P  P5  1  0.306240  0.827580  0.000000  1
  P  P6  1  0.172420  0.478660  0.000000  1
  P  P7  1  0.521340  0.693760  0.000000  1
  P  P8  1  0.827580  0.306240  0.000000  1
  P  P9  1  0.478660  0.172420  0.000000  1
  P  P10  1  0.693760  0.521340  0.000000  1
  P  P11  1  0.373201  0.373201  0.500000  1
  P  P12  1  0.626799  0.000000  0.500000  1
  P  P13  1  0.000000  0.626799  0.500000  1
  P  P14  1  0.809078  0.809078  0.500000  1
  P  P15  1  0.190922  0.000000  0.500000  1
  P  P16  1  0.000000  0.190922  0.500000  1
  Ru  Ru17  1  0.191025  0.814222  0.500000  1
  Ru  Ru18  1  0.185778  0.376803  0.500000  1
  Ru  Ru19  1  0.623197  0.808975  0.500000  1
  Ru  Ru20  1  0.814222  0.191025  0.500000  1
  Ru  Ru21  1  0.376803  0.185778  0.500000  1
  Ru  Ru22  1  0.808975  0.623197  0.500000  1
  Ru  Ru23  1  0.126902  0.633815  0.000000  1
  Ru  Ru24  1  0.366185  0.493086  0.000000  1
  Ru  Ru25  1  0.506914  0.873098  0.000000  1
  Ru  Ru26  1  0.633815  0.126902  0.000000  1
  Ru  Ru27  1  0.493086  0.366185  0.000000  1
  Ru  Ru28  1  0.873098  0.506914  0.000000  1
  Ru  Ru29  1  0.554561  0.554561  0.500000  1
  Ru  Ru30  1  0.445439  0.000000  0.500000  1
  Ru  Ru31  1  0.000000  0.445439  0.500000  1
  Ru  Ru32  1  0.717329  0.717329  0.000000  1
  Ru  Ru33  1  0.282671  0.000000  0.000000  1
  Ru  Ru34  1  0.000000  0.282671  0.000000  1
  Au  Au35  1  0.000000  0.000000  0.500000  1
