# generated using pymatgen
data_K3Mn2SbO6
_symmetry_space_group_name_H-M   'P 1'
_cell_length_a   5.69840295
_cell_length_b   9.89820336
_cell_length_c   6.40547375
_cell_angle_alpha   104.84503265
_cell_angle_beta   98.57574554
_cell_angle_gamma   90.04779460
_symmetry_Int_Tables_number   1
_chemical_formula_structural   K3Mn2SbO6
_chemical_formula_sum   'K6 Mn4 Sb2 O12'
_cell_volume   345.04212663
_cell_formula_units_Z   2
loop_
 _symmetry_equiv_pos_site_id
 _symmetry_equiv_pos_as_xyz
  1  'x, y, z'
loop_
 _atom_site_type_symbol
 _atom_site_label
 _atom_site_symmetry_multiplicity
 _atom_site_fract_x
 _atom_site_fract_y
 _atom_site_fract_z
 _atom_site_occupancy
  K  K0  1  0.249996  0.249995  0.500013  1
  K  K1  1  0.750008  0.750006  0.500003  1
  K  K2  1  0.760809  0.413802  0.500778  1
  K  K3  1  0.260876  0.913778  0.500782  1
  K  K4  1  0.739190  0.086200  0.499232  1
  K  K5  1  0.239145  0.586210  0.499213  1
  Mn  Mn6  1  0.500696  0.832798  0.999851  1
  Mn  Mn7  1  0.999308  0.667202  0.000157  1
  Mn  Mn8  1  0.000669  0.332773  0.999831  1
  Mn  Mn9  1  0.499337  0.167234  0.000151  1
  Sb  Sb10  1  0.499986  0.499991  0.999996  1
  Sb  Sb11  1  0.000018  0.000016  0.000020  1
  O  O12  1  0.378614  0.379119  0.182994  1
  O  O13  1  0.878602  0.879102  0.182999  1
  O  O14  1  0.121380  0.120882  0.817000  1
  O  O15  1  0.621400  0.620897  0.817000  1
  O  O16  1  0.622203  0.317969  0.819917  1
  O  O17  1  0.122210  0.817946  0.819888  1
  O  O18  1  0.877792  0.182030  0.180081  1
  O  O19  1  0.377780  0.682050  0.180095  1
  O  O20  1  0.334582  0.030651  0.180780  1
  O  O21  1  0.834580  0.530672  0.180782  1
  O  O22  1  0.165410  0.469346  0.819217  1
  O  O23  1  0.665410  0.969329  0.819220  1
