# generated using pymatgen
data_YbV4(AgO6)2
_symmetry_space_group_name_H-M   'P 1'
_cell_length_a   10.45175200
_cell_length_b   10.45175200
_cell_length_c   5.03966700
_cell_angle_alpha   90.00000000
_cell_angle_beta   90.00000000
_cell_angle_gamma   90.00000000
_symmetry_Int_Tables_number   1
_chemical_formula_structural   YbV4(AgO6)2
_chemical_formula_sum   'Yb2 V8 Ag4 O24'
_cell_volume   550.52878752
_cell_formula_units_Z   2
loop_
 _symmetry_equiv_pos_site_id
 _symmetry_equiv_pos_as_xyz
  1  'x, y, z'
loop_
 _atom_site_type_symbol
 _atom_site_label
 _atom_site_symmetry_multiplicity
 _atom_site_fract_x
 _atom_site_fract_y
 _atom_site_fract_z
 _atom_site_occupancy
  Yb  Yb0  1  0.500000  0.500000  0.500000  1
  Yb  Yb1  1  0.000000  0.000000  0.500000  1
  V  V2  1  0.225023  0.500000  0.000000  1
  V  V3  1  0.500000  0.225023  0.000000  1
  V  V4  1  0.000000  0.725023  0.000000  1
  V  V5  1  0.725023  0.000000  0.000000  1
  V  V6  1  0.274977  0.000000  0.000000  1
  V  V7  1  0.000000  0.274977  0.000000  1
  V  V8  1  0.500000  0.774977  0.000000  1
  V  V9  1  0.774977  0.500000  0.000000  1
  Ag  Ag10  1  0.250000  0.250000  0.500000  1
  Ag  Ag11  1  0.250000  0.750000  0.500000  1
  Ag  Ag12  1  0.750000  0.250000  0.500000  1
  Ag  Ag13  1  0.750000  0.750000  0.500000  1
  O  O14  1  0.431693  0.313386  0.243071  1
  O  O15  1  0.568307  0.686614  0.243071  1
  O  O16  1  0.686614  0.431693  0.243071  1
  O  O17  1  0.313386  0.568307  0.243071  1
  O  O18  1  0.313386  0.431693  0.756929  1
  O  O19  1  0.431693  0.686614  0.756929  1
  O  O20  1  0.568307  0.313386  0.756929  1
  O  O21  1  0.686614  0.568307  0.756929  1
  O  O22  1  0.068307  0.186614  0.756929  1
  O  O23  1  0.931693  0.813386  0.756929  1
  O  O24  1  0.813386  0.068307  0.756929  1
  O  O25  1  0.186614  0.931693  0.756929  1
  O  O26  1  0.186614  0.068307  0.243071  1
  O  O27  1  0.068307  0.813386  0.243071  1
  O  O28  1  0.120664  0.379336  0.146628  1
  O  O29  1  0.379336  0.879336  0.146628  1
  O  O30  1  0.620664  0.120664  0.146628  1
  O  O31  1  0.879336  0.620664  0.146628  1
  O  O32  1  0.879336  0.379336  0.853372  1
  O  O33  1  0.120664  0.620664  0.853372  1
  O  O34  1  0.379336  0.120664  0.853372  1
  O  O35  1  0.620664  0.879336  0.853372  1
  O  O36  1  0.813386  0.931693  0.243071  1
  O  O37  1  0.931693  0.186614  0.243071  1
