# generated using pymatgen
data_Tb7Y12Lu(Cd3Ru)2
_symmetry_space_group_name_H-M   'P 1'
_cell_length_a   9.64048042
_cell_length_b   9.64047968
_cell_length_c   9.88687251
_cell_angle_alpha   89.96803930
_cell_angle_beta   90.03195947
_cell_angle_gamma   120.01095527
_symmetry_Int_Tables_number   1
_chemical_formula_structural   Tb7Y12Lu(Cd3Ru)2
_chemical_formula_sum   'Tb7 Y12 Lu1 Cd6 Ru2'
_cell_volume   795.68073393
_cell_formula_units_Z   1
loop_
 _symmetry_equiv_pos_site_id
 _symmetry_equiv_pos_as_xyz
  1  'x, y, z'
loop_
 _atom_site_type_symbol
 _atom_site_label
 _atom_site_symmetry_multiplicity
 _atom_site_fract_x
 _atom_site_fract_y
 _atom_site_fract_z
 _atom_site_occupancy
  Tb  Tb0  1  0.209182  0.790818  0.439717  1
  Tb  Tb1  1  0.209150  0.418359  0.439780  1
  Tb  Tb2  1  0.581641  0.790850  0.439780  1
  Tb  Tb3  1  0.790899  0.209101  0.560153  1
  Tb  Tb4  1  0.790741  0.581632  0.560226  1
  Tb  Tb5  1  0.418368  0.209259  0.560226  1
  Tb  Tb6  1  0.789839  0.210161  0.939707  1
  Y  Y7  1  0.999984  0.000016  0.999930  1
  Y  Y8  1  0.790157  0.580424  0.940293  1
  Y  Y9  1  0.419576  0.209843  0.940293  1
  Y  Y10  1  0.209881  0.790119  0.059816  1
  Y  Y11  1  0.209918  0.419853  0.059805  1
  Y  Y12  1  0.580147  0.790082  0.059805  1
  Y  Y13  1  0.541175  0.458825  0.250266  1
  Y  Y14  1  0.541117  0.082368  0.250238  1
  Y  Y15  1  0.917632  0.458883  0.250238  1
  Y  Y16  1  0.458837  0.541163  0.749760  1
  Y  Y17  1  0.458809  0.917645  0.749749  1
  Y  Y18  1  0.082355  0.541191  0.749749  1
  Lu  Lu19  1  0.000009  0.999991  0.500060  1
  Cd  Cd20  1  0.886080  0.113920  0.251410  1
  Cd  Cd21  1  0.886049  0.772038  0.251246  1
  Cd  Cd22  1  0.227962  0.113951  0.251246  1
  Cd  Cd23  1  0.113959  0.886041  0.748775  1
  Cd  Cd24  1  0.114045  0.227921  0.748662  1
  Cd  Cd25  1  0.772079  0.885955  0.748662  1
  Ru  Ru26  1  0.333358  0.666642  0.251813  1
  Ru  Ru27  1  0.667052  0.332948  0.748593  1
