# generated using pymatgen
data_Pr8Er7Sc4Si16Hg
_symmetry_space_group_name_H-M   'P 1'
_cell_length_a   7.32847878
_cell_length_b   7.70002029
_cell_length_c   14.66224874
_cell_angle_alpha   89.88898493
_cell_angle_beta   90.04088442
_cell_angle_gamma   89.83523455
_symmetry_Int_Tables_number   1
_chemical_formula_structural   Pr8Er7Sc4Si16Hg
_chemical_formula_sum   'Pr8 Er7 Sc4 Si16 Hg1'
_cell_volume   827.37722912
_cell_formula_units_Z   1
loop_
 _symmetry_equiv_pos_site_id
 _symmetry_equiv_pos_as_xyz
  1  'x, y, z'
loop_
 _atom_site_type_symbol
 _atom_site_label
 _atom_site_symmetry_multiplicity
 _atom_site_fract_x
 _atom_site_fract_y
 _atom_site_fract_z
 _atom_site_occupancy
  Pr  Pr0  1  0.016526  0.175500  0.399770  1
  Pr  Pr1  1  0.515990  0.325678  0.398758  1
  Pr  Pr2  1  0.485464  0.685667  0.902128  1
  Pr  Pr3  1  0.483814  0.684806  0.599648  1
  Pr  Pr4  1  0.975008  0.825629  0.601254  1
  Pr  Pr5  1  0.973547  0.824319  0.898653  1
  Pr  Pr6  1  0.515780  0.326727  0.099657  1
  Pr  Pr7  1  0.016245  0.174795  0.098267  1
  Er  Er8  1  0.335378  0.175472  0.625157  1
  Er  Er9  1  0.677367  0.818297  0.372366  1
  Er  Er10  1  0.177245  0.675896  0.374209  1
  Er  Er11  1  0.818422  0.312510  0.876050  1
  Er  Er12  1  0.818740  0.313434  0.625625  1
  Er  Er13  1  0.337223  0.173495  0.876659  1
  Er  Er14  1  0.176680  0.676243  0.123832  1
  Sc  Sc15  1  0.845193  0.495345  0.246833  1
  Sc  Sc16  1  0.345737  0.006312  0.248111  1
  Sc  Sc17  1  0.677124  0.820446  0.128740  1
  Sc  Sc18  1  0.151026  0.503094  0.750209  1
  Si  Si19  1  0.261774  0.872164  0.750603  1
  Si  Si20  1  0.478742  0.615495  0.247438  1
  Si  Si21  1  0.044524  0.118894  0.750808  1
  Si  Si22  1  0.518465  0.411598  0.751053  1
  Si  Si23  1  0.147826  0.469659  0.542033  1
  Si  Si24  1  0.972651  0.885203  0.247245  1
  Si  Si25  1  0.717021  0.121980  0.248203  1
  Si  Si26  1  0.847069  0.536178  0.039233  1
  Si  Si27  1  0.358870  0.966628  0.044972  1
  Si  Si28  1  0.146987  0.470143  0.957735  1
  Si  Si29  1  0.652261  0.039264  0.526785  1
  Si  Si30  1  0.350961  0.967764  0.458132  1
  Si  Si31  1  0.852412  0.530975  0.461979  1
  Si  Si32  1  0.783892  0.604816  0.750485  1
  Si  Si33  1  0.215117  0.373558  0.248971  1
  Si  Si34  1  0.657006  0.035669  0.978044  1
  Hg  Hg35  1  0.651911  0.986346  0.750355  1
