# generated using pymatgen
data_Ho2Al9ZnOs2
_symmetry_space_group_name_H-M   'P 1'
_cell_length_a   7.61242650
_cell_length_b   7.61242678
_cell_length_c   9.47511900
_cell_angle_alpha   90.00000000
_cell_angle_beta   90.00000000
_cell_angle_gamma   119.31738259
_symmetry_Int_Tables_number   1
_chemical_formula_structural   Ho2Al9ZnOs2
_chemical_formula_sum   'Ho4 Al18 Zn2 Os4'
_cell_volume   478.74905899
_cell_formula_units_Z   2
loop_
 _symmetry_equiv_pos_site_id
 _symmetry_equiv_pos_as_xyz
  1  'x, y, z'
loop_
 _atom_site_type_symbol
 _atom_site_label
 _atom_site_symmetry_multiplicity
 _atom_site_fract_x
 _atom_site_fract_y
 _atom_site_fract_z
 _atom_site_occupancy
  Ho  Ho0  1  0.996973  0.678882  0.250000  1
  Ho  Ho1  1  0.003027  0.321118  0.750000  1
  Ho  Ho2  1  0.678882  0.996973  0.250000  1
  Ho  Ho3  1  0.321118  0.003027  0.750000  1
  Al  Al4  1  0.141092  0.141092  0.250000  1
  Al  Al5  1  0.858908  0.858908  0.750000  1
  Al  Al6  1  0.001901  0.348126  0.077032  1
  Al  Al7  1  0.998099  0.651874  0.922968  1
  Al  Al8  1  0.998099  0.651874  0.577032  1
  Al  Al9  1  0.348126  0.001901  0.422968  1
  Al  Al10  1  0.001901  0.348126  0.422968  1
  Al  Al11  1  0.651874  0.998099  0.577032  1
  Al  Al12  1  0.651874  0.998099  0.922968  1
  Al  Al13  1  0.348126  0.001901  0.077032  1
  Al  Al14  1  0.343833  0.343833  0.554731  1
  Al  Al15  1  0.656167  0.656168  0.445269  1
  Al  Al16  1  0.656167  0.656168  0.054731  1
  Al  Al17  1  0.343833  0.343833  0.945269  1
  Al  Al18  1  0.337373  0.554396  0.250000  1
  Al  Al19  1  0.662627  0.445604  0.750000  1
  Al  Al20  1  0.554396  0.337373  0.250000  1
  Al  Al21  1  0.445604  0.662627  0.750000  1
  Zn  Zn22  1  0.000000  0.000000  0.000000  1
  Zn  Zn23  1  0.000000  0.000000  0.500000  1
  Os  Os24  1  0.672121  0.327879  0.000000  1
  Os  Os25  1  0.327879  0.672121  0.000000  1
  Os  Os26  1  0.327879  0.672121  0.500000  1
  Os  Os27  1  0.672121  0.327879  0.500000  1
