# generated using pymatgen
data_Tb4Y2Al24PdRu7
_symmetry_space_group_name_H-M   'P 1'
_cell_length_a   8.82423169
_cell_length_b   8.82087124
_cell_length_c   9.57577289
_cell_angle_alpha   89.89105041
_cell_angle_beta   90.11099013
_cell_angle_gamma   119.74188525
_symmetry_Int_Tables_number   1
_chemical_formula_structural   Tb4Y2Al24PdRu7
_chemical_formula_sum   'Tb4 Y2 Al24 Pd1 Ru7'
_cell_volume   647.16569917
_cell_formula_units_Z   1
loop_
 _symmetry_equiv_pos_site_id
 _symmetry_equiv_pos_as_xyz
  1  'x, y, z'
loop_
 _atom_site_type_symbol
 _atom_site_label
 _atom_site_symmetry_multiplicity
 _atom_site_fract_x
 _atom_site_fract_y
 _atom_site_fract_z
 _atom_site_occupancy
  Tb  Tb0  1  0.808999  0.614223  0.249432  1
  Tb  Tb1  1  0.613917  0.808928  0.750519  1
  Tb  Tb2  1  0.193916  0.806059  0.752222  1
  Tb  Tb3  1  0.191050  0.386007  0.750556  1
  Y  Y4  1  0.386098  0.191196  0.249444  1
  Y  Y5  1  0.806109  0.193989  0.247740  1
  Al  Al6  1  0.439355  0.877964  0.251200  1
  Al  Al7  1  0.122183  0.560605  0.251172  1
  Al  Al8  1  0.438122  0.561723  0.247599  1
  Al  Al9  1  0.560867  0.122546  0.748777  1
  Al  Al10  1  0.877603  0.439200  0.748827  1
  Al  Al11  1  0.561895  0.438066  0.752436  1
  Al  Al12  1  0.162763  0.837254  0.422827  1
  Al  Al13  1  0.155834  0.322701  0.421084  1
  Al  Al14  1  0.677344  0.844141  0.421044  1
  Al  Al15  1  0.837244  0.162796  0.577108  1
  Al  Al16  1  0.844135  0.677298  0.578938  1
  Al  Al17  1  0.322689  0.155893  0.578902  1
  Al  Al18  1  0.837336  0.162785  0.921758  1
  Al  Al19  1  0.837058  0.675785  0.922031  1
  Al  Al20  1  0.324158  0.162948  0.922048  1
  Al  Al21  1  0.162684  0.837283  0.078338  1
  Al  Al22  1  0.162946  0.324191  0.077953  1
  Al  Al23  1  0.675894  0.837089  0.078031  1
  Al  Al24  1  0.330109  0.669806  0.519032  1
  Al  Al25  1  0.669848  0.330060  0.481052  1
  Al  Al26  1  0.666633  0.333397  0.015255  1
  Al  Al27  1  0.333323  0.666494  0.984700  1
  Al  Al28  1  0.000656  0.999151  0.250063  1
  Al  Al29  1  0.999242  0.000737  0.749948  1
  Pd  Pd30  1  0.499960  0.499867  0.499919  1
  Ru  Ru31  1  0.000075  0.000083  0.499755  1
  Ru  Ru32  1  0.000083  0.000100  0.000307  1
  Ru  Ru33  1  0.500041  0.000064  0.499892  1
  Ru  Ru34  1  0.999912  0.499860  0.499898  1
  Ru  Ru35  1  0.500067  0.000027  0.000007  1
  Ru  Ru36  1  0.999863  0.499858  0.000085  1
  Ru  Ru37  1  0.499989  0.499825  0.000100  1
