# generated using pymatgen
data_SrZnSn2Pt
_symmetry_space_group_name_H-M   'P 1'
_cell_length_a   4.62323500
_cell_length_b   4.62562140
_cell_length_c   11.37977981
_cell_angle_alpha   89.23807939
_cell_angle_beta   90.00000000
_cell_angle_gamma   90.00000000
_symmetry_Int_Tables_number   1
_chemical_formula_structural   SrZnSn2Pt
_chemical_formula_sum   'Sr2 Zn2 Sn4 Pt2'
_cell_volume   243.33888311
_cell_formula_units_Z   2
loop_
 _symmetry_equiv_pos_site_id
 _symmetry_equiv_pos_as_xyz
  1  'x, y, z'
loop_
 _atom_site_type_symbol
 _atom_site_label
 _atom_site_symmetry_multiplicity
 _atom_site_fract_x
 _atom_site_fract_y
 _atom_site_fract_z
 _atom_site_occupancy
  Sr  Sr0  1  0.250000  0.740767  0.749927  1
  Sr  Sr1  1  0.750000  0.259233  0.250073  1
  Zn  Zn2  1  0.250000  0.272654  0.999995  1
  Zn  Zn3  1  0.750000  0.727346  0.000005  1
  Sn  Sn4  1  0.250000  0.769919  0.138940  1
  Sn  Sn5  1  0.750000  0.230081  0.861060  1
  Sn  Sn6  1  0.250000  0.248819  0.499846  1
  Sn  Sn7  1  0.750000  0.751181  0.500154  1
  Pt  Pt8  1  0.250000  0.750479  0.371836  1
  Pt  Pt9  1  0.750000  0.249521  0.628164  1
