# generated using pymatgen
data_Sm8Y7Sc4Si16Ag
_symmetry_space_group_name_H-M   'P 1'
_cell_length_a   7.24304716
_cell_length_b   7.68350726
_cell_length_c   14.61139906
_cell_angle_alpha   90.14445095
_cell_angle_beta   90.09068179
_cell_angle_gamma   90.13121603
_symmetry_Int_Tables_number   1
_chemical_formula_structural   Sm8Y7Sc4Si16Ag
_chemical_formula_sum   'Sm8 Y7 Sc4 Si16 Ag1'
_cell_volume   813.14791685
_cell_formula_units_Z   1
loop_
 _symmetry_equiv_pos_site_id
 _symmetry_equiv_pos_as_xyz
  1  'x, y, z'
loop_
 _atom_site_type_symbol
 _atom_site_label
 _atom_site_symmetry_multiplicity
 _atom_site_fract_x
 _atom_site_fract_y
 _atom_site_fract_z
 _atom_site_occupancy
  Sm  Sm0  1  0.016874  0.178255  0.098347  1
  Sm  Sm1  1  0.984865  0.808907  0.902694  1
  Sm  Sm2  1  0.475058  0.678819  0.900340  1
  Sm  Sm3  1  0.982834  0.808818  0.599838  1
  Sm  Sm4  1  0.514538  0.320672  0.096535  1
  Sm  Sm5  1  0.017606  0.179580  0.399632  1
  Sm  Sm6  1  0.515765  0.320211  0.400912  1
  Sm  Sm7  1  0.476940  0.677668  0.599735  1
  Y  Y8  1  0.318992  0.185098  0.627568  1
  Y  Y9  1  0.676934  0.822456  0.373551  1
  Y  Y10  1  0.176394  0.681842  0.371952  1
  Y  Y11  1  0.675679  0.822213  0.124028  1
  Y  Y12  1  0.833511  0.325585  0.627282  1
  Y  Y13  1  0.318380  0.186830  0.874470  1
  Y  Y14  1  0.834661  0.328589  0.875273  1
  Sc  Sc15  1  0.843719  0.488187  0.247971  1
  Sc  Sc16  1  0.343788  0.011818  0.246720  1
  Sc  Sc17  1  0.652055  0.986659  0.750855  1
  Sc  Sc18  1  0.176537  0.680186  0.129338  1
  Si  Si19  1  0.016007  0.079311  0.751181  1
  Si  Si20  1  0.980161  0.898666  0.246971  1
  Si  Si21  1  0.472750  0.601742  0.246142  1
  Si  Si22  1  0.530966  0.400661  0.750884  1
  Si  Si23  1  0.280548  0.879370  0.750692  1
  Si  Si24  1  0.718156  0.131353  0.248552  1
  Si  Si25  1  0.218129  0.372057  0.247658  1
  Si  Si26  1  0.766955  0.632543  0.750846  1
  Si  Si27  1  0.156716  0.462329  0.528300  1
  Si  Si28  1  0.848425  0.529651  0.459173  1
  Si  Si29  1  0.350198  0.970259  0.462752  1
  Si  Si30  1  0.858798  0.531359  0.044881  1
  Si  Si31  1  0.651701  0.029600  0.540833  1
  Si  Si32  1  0.162448  0.467105  0.977636  1
  Si  Si33  1  0.650400  0.029402  0.958907  1
  Si  Si34  1  0.341482  0.962840  0.038257  1
  Ag  Ag35  1  0.161030  0.529360  0.749297  1
