# generated using pymatgen
data_La16Tm4Ir11Ru
_symmetry_space_group_name_H-M   'P 1'
_cell_length_a   11.36257100
_cell_length_b   11.36257100
_cell_length_c   6.52857700
_cell_angle_alpha   90.00000000
_cell_angle_beta   90.00000000
_cell_angle_gamma   90.00000000
_symmetry_Int_Tables_number   1
_chemical_formula_structural   La16Tm4Ir11Ru
_chemical_formula_sum   'La16 Tm4 Ir11 Ru1'
_cell_volume   842.89164813
_cell_formula_units_Z   1
loop_
 _symmetry_equiv_pos_site_id
 _symmetry_equiv_pos_as_xyz
  1  'x, y, z'
loop_
 _atom_site_type_symbol
 _atom_site_label
 _atom_site_symmetry_multiplicity
 _atom_site_fract_x
 _atom_site_fract_y
 _atom_site_fract_z
 _atom_site_occupancy
  La  La0  1  0.288263  0.087624  0.385865  1
  La  La1  1  0.288516  0.912539  0.888168  1
  La  La2  1  0.711484  0.087461  0.888168  1
  La  La3  1  0.711737  0.912376  0.385865  1
  La  La4  1  0.587461  0.788516  0.888168  1
  La  La5  1  0.587624  0.211737  0.385865  1
  La  La6  1  0.412376  0.788263  0.385865  1
  La  La7  1  0.412539  0.211484  0.888168  1
  La  La8  1  0.212953  0.411977  0.613553  1
  La  La9  1  0.212757  0.587871  0.113333  1
  La  La10  1  0.787243  0.412129  0.113333  1
  La  La11  1  0.787047  0.588023  0.613553  1
  La  La12  1  0.912129  0.712757  0.113333  1
  La  La13  1  0.911977  0.287047  0.613553  1
  La  La14  1  0.088023  0.712953  0.613553  1
  La  La15  1  0.087871  0.287243  0.113333  1
  Tm  Tm16  1  0.000000  0.000000  0.499493  1
  Tm  Tm17  1  0.000000  0.000000  0.999460  1
  Tm  Tm18  1  0.500000  0.500000  0.999460  1
  Tm  Tm19  1  0.500000  0.500000  0.499493  1
  Ir  Ir20  1  0.853152  0.147457  0.250049  1
  Ir  Ir21  1  0.853276  0.852685  0.749956  1
  Ir  Ir22  1  0.146724  0.147315  0.749956  1
  Ir  Ir23  1  0.146848  0.852543  0.250049  1
  Ir  Ir24  1  0.647315  0.353276  0.749956  1
  Ir  Ir25  1  0.647457  0.646848  0.250049  1
  Ir  Ir26  1  0.352543  0.353152  0.250049  1
  Ir  Ir27  1  0.352685  0.646724  0.749956  1
  Ir  Ir28  1  0.500000  0.000000  0.617446  1
  Ir  Ir29  1  0.000000  0.500000  0.882402  1
  Ir  Ir30  1  0.000000  0.500000  0.382403  1
  Ru  Ru31  1  0.500000  0.000000  0.116147  1
