# generated using pymatgen
data_Dy15YCd2(HgPt2)2
_symmetry_space_group_name_H-M   'P 1'
_cell_length_a   9.67218132
_cell_length_b   9.67218021
_cell_length_c   9.66505800
_cell_angle_alpha   60.02435562
_cell_angle_beta   60.02435941
_cell_angle_gamma   60.08231901
_symmetry_Int_Tables_number   1
_chemical_formula_structural   Dy15YCd2(HgPt2)2
_chemical_formula_sum   'Dy15 Y1 Cd2 Hg2 Pt4'
_cell_volume   639.98195095
_cell_formula_units_Z   1
loop_
 _symmetry_equiv_pos_site_id
 _symmetry_equiv_pos_as_xyz
  1  'x, y, z'
loop_
 _atom_site_type_symbol
 _atom_site_label
 _atom_site_symmetry_multiplicity
 _atom_site_fract_x
 _atom_site_fract_y
 _atom_site_fract_z
 _atom_site_occupancy
  Dy  Dy0  1  0.353063  0.353063  0.350693  1
  Dy  Dy1  1  0.353063  0.353063  0.943179  1
  Dy  Dy2  1  0.356444  0.936241  0.353658  1
  Dy  Dy3  1  0.936241  0.356444  0.353658  1
  Dy  Dy4  1  0.810595  0.189593  0.190402  1
  Dy  Dy5  1  0.189593  0.810595  0.809411  1
  Dy  Dy6  1  0.189593  0.810595  0.190402  1
  Dy  Dy7  1  0.810595  0.189593  0.809411  1
  Dy  Dy8  1  0.190254  0.190254  0.809746  1
  Dy  Dy9  1  0.809918  0.809918  0.190082  1
  Dy  Dy10  1  0.934971  0.563547  0.564546  1
  Dy  Dy11  1  0.563547  0.934971  0.936936  1
  Dy  Dy12  1  0.563547  0.934971  0.564546  1
  Dy  Dy13  1  0.934971  0.563547  0.936936  1
  Dy  Dy14  1  0.564414  0.564414  0.935586  1
  Y  Y15  1  0.936275  0.936275  0.563725  1
  Cd  Cd16  1  0.580366  0.254356  0.582639  1
  Cd  Cd17  1  0.254356  0.580366  0.582639  1
  Hg  Hg18  1  0.584734  0.584734  0.587888  1
  Hg  Hg19  1  0.584734  0.584734  0.242645  1
  Pt  Pt20  1  0.143318  0.143318  0.145831  1
  Pt  Pt21  1  0.143318  0.143318  0.567533  1
  Pt  Pt22  1  0.141817  0.570272  0.143956  1
  Pt  Pt23  1  0.570272  0.141817  0.143956  1
