# generated using pymatgen
data_Mg3Sc5(B6Rh)4
_symmetry_space_group_name_H-M   'P 1'
_cell_length_a   3.46451300
_cell_length_b   8.84214256
_cell_length_c   11.16636868
_cell_angle_alpha   89.95972676
_cell_angle_beta   90.00000000
_cell_angle_gamma   90.00000000
_symmetry_Int_Tables_number   1
_chemical_formula_structural   Mg3Sc5(B6Rh)4
_chemical_formula_sum   'Mg3 Sc5 B24 Rh4'
_cell_volume   342.06730278
_cell_formula_units_Z   1
loop_
 _symmetry_equiv_pos_site_id
 _symmetry_equiv_pos_as_xyz
  1  'x, y, z'
loop_
 _atom_site_type_symbol
 _atom_site_label
 _atom_site_symmetry_multiplicity
 _atom_site_fract_x
 _atom_site_fract_y
 _atom_site_fract_z
 _atom_site_occupancy
  Mg  Mg0  1  0.000000  0.947231  0.378441  1
  Mg  Mg1  1  0.000000  0.053118  0.622136  1
  Mg  Mg2  1  0.000000  0.554187  0.875763  1
  Sc  Sc3  1  0.000000  0.181662  0.914815  1
  Sc  Sc4  1  0.000000  0.817423  0.084261  1
  Sc  Sc5  1  0.000000  0.682450  0.585377  1
  Sc  Sc6  1  0.000000  0.317698  0.415610  1
  Sc  Sc7  1  0.000000  0.445552  0.124275  1
  B  B8  1  0.500000  0.369489  0.818828  1
  B  B9  1  0.500000  0.979986  0.213699  1
  B  B10  1  0.500000  0.555502  0.436296  1
  B  B11  1  0.500000  0.294686  0.237400  1
  B  B12  1  0.500000  0.204078  0.736874  1
  B  B13  1  0.500000  0.101841  0.472553  1
  B  B14  1  0.500000  0.796600  0.263042  1
  B  B15  1  0.500000  0.444982  0.564461  1
  B  B16  1  0.500000  0.245231  0.577801  1
  B  B17  1  0.500000  0.480527  0.286778  1
  B  B18  1  0.500000  0.704794  0.762721  1
  B  B19  1  0.500000  0.754950  0.423123  1
  B  B20  1  0.500000  0.520072  0.713162  1
  B  B21  1  0.500000  0.898089  0.527781  1
  B  B22  1  0.500000  0.054026  0.063861  1
  B  B23  1  0.500000  0.603465  0.027270  1
  B  B24  1  0.500000  0.746528  0.921473  1
  B  B25  1  0.500000  0.019590  0.786471  1
  B  B26  1  0.500000  0.397406  0.971721  1
  B  B27  1  0.500000  0.945234  0.935288  1
  B  B28  1  0.500000  0.631741  0.180322  1
  B  B29  1  0.500000  0.252923  0.077192  1
  B  B30  1  0.500000  0.870267  0.680045  1
  B  B31  1  0.500000  0.129818  0.320785  1
  Rh  Rh32  1  0.000000  0.138552  0.180202  1
  Rh  Rh33  1  0.000000  0.359106  0.681811  1
  Rh  Rh34  1  0.000000  0.858765  0.819443  1
  Rh  Rh35  1  0.000000  0.642428  0.318923  1
