# generated using pymatgen
data_Cu5NiMo12(RhN2)2
_symmetry_space_group_name_H-M   'P 1'
_cell_length_a   6.75169924
_cell_length_b   6.75304542
_cell_length_c   6.74912244
_cell_angle_alpha   90.23958242
_cell_angle_beta   90.15477222
_cell_angle_gamma   89.83464993
_symmetry_Int_Tables_number   1
_chemical_formula_structural   Cu5NiMo12(RhN2)2
_chemical_formula_sum   'Cu5 Ni1 Mo12 Rh2 N4'
_cell_volume   307.71799192
_cell_formula_units_Z   1
loop_
 _symmetry_equiv_pos_site_id
 _symmetry_equiv_pos_as_xyz
  1  'x, y, z'
loop_
 _atom_site_type_symbol
 _atom_site_label
 _atom_site_symmetry_multiplicity
 _atom_site_fract_x
 _atom_site_fract_y
 _atom_site_fract_z
 _atom_site_occupancy
  Cu  Cu0  1  0.439305  0.934994  0.574828  1
  Cu  Cu1  1  0.677203  0.682369  0.689114  1
  Cu  Cu2  1  0.814014  0.310551  0.173784  1
  Cu  Cu3  1  0.319803  0.181524  0.818840  1
  Cu  Cu4  1  0.567594  0.430149  0.930235  1
  Ni  Ni5  1  0.066411  0.070001  0.061559  1
  Mo  Mo6  1  0.198036  0.454120  0.123093  1
  Mo  Mo7  1  0.043534  0.873013  0.701126  1
  Mo  Mo8  1  0.448178  0.123805  0.205788  1
  Mo  Mo9  1  0.292909  0.551062  0.624580  1
  Mo  Mo10  1  0.956927  0.371999  0.799025  1
  Mo  Mo11  1  0.546529  0.618755  0.293894  1
  Mo  Mo12  1  0.708518  0.045404  0.876458  1
  Mo  Mo13  1  0.625748  0.299851  0.541930  1
  Mo  Mo14  1  0.879409  0.710045  0.051443  1
  Mo  Mo15  1  0.374447  0.799108  0.955836  1
  Mo  Mo16  1  0.128823  0.202741  0.454003  1
  Mo  Mo17  1  0.799124  0.955298  0.373645  1
  Rh  Rh18  1  0.928148  0.559486  0.434153  1
  Rh  Rh19  1  0.188496  0.820460  0.315226  1
  N  N20  1  0.876278  0.126401  0.623726  1
  N  N21  1  0.624078  0.874848  0.127764  1
  N  N22  1  0.124792  0.626810  0.875593  1
  N  N23  1  0.371692  0.377207  0.374354  1
