# generated using pymatgen
data_KAcCr4O14
_symmetry_space_group_name_H-M   'P 1'
_cell_length_a   7.51682550
_cell_length_b   7.51682506
_cell_length_c   7.51682500
_cell_angle_alpha   108.93029947
_cell_angle_beta   108.93029834
_cell_angle_gamma   110.55856914
_symmetry_Int_Tables_number   1
_chemical_formula_structural   KAcCr4O14
_chemical_formula_sum   'K1 Ac1 Cr4 O14'
_cell_volume   326.86157191
_cell_formula_units_Z   1
loop_
 _symmetry_equiv_pos_site_id
 _symmetry_equiv_pos_as_xyz
  1  'x, y, z'
loop_
 _atom_site_type_symbol
 _atom_site_label
 _atom_site_symmetry_multiplicity
 _atom_site_fract_x
 _atom_site_fract_y
 _atom_site_fract_z
 _atom_site_occupancy
  K  K0  1  0.430959  0.430959  0.000000  1
  Ac  Ac1  1  0.998561  0.998561  0.000000  1
  Cr  Cr2  1  0.829474  0.363791  0.772675  1
  Cr  Cr3  1  0.056800  0.829474  0.465682  1
  Cr  Cr4  1  0.363791  0.591118  0.534318  1
  Cr  Cr5  1  0.591118  0.056800  0.227325  1
  O  O6  1  0.262618  0.762618  0.500000  1
  O  O7  1  0.762618  0.262618  0.500000  1
  O  O8  1  0.965148  0.632026  0.892634  1
  O  O9  1  0.072514  0.965148  0.333123  1
  O  O10  1  0.632026  0.739391  0.666877  1
  O  O11  1  0.739391  0.072514  0.107366  1
  O  O12  1  0.487400  0.820956  0.210504  1
  O  O13  1  0.276896  0.487400  0.666446  1
  O  O14  1  0.820956  0.610450  0.333554  1
  O  O15  1  0.610450  0.276896  0.789496  1
  O  O16  1  0.394699  0.098242  0.111951  1
  O  O17  1  0.282748  0.394699  0.296457  1
  O  O18  1  0.098242  0.986291  0.703543  1
  O  O19  1  0.986291  0.282748  0.888049  1
