# generated using pymatgen
data_Tm8Lu2Zn3Bi2Pt
_symmetry_space_group_name_H-M   'P 1'
_cell_length_a   8.52537998
_cell_length_b   8.52537951
_cell_length_c   8.56983417
_cell_angle_alpha   124.26572670
_cell_angle_beta   124.26573398
_cell_angle_gamma   82.41856142
_symmetry_Int_Tables_number   1
_chemical_formula_structural   Tm8Lu2Zn3Bi2Pt
_chemical_formula_sum   'Tm8 Lu2 Zn3 Bi2 Pt1'
_cell_volume   409.50399975
_cell_formula_units_Z   1
loop_
 _symmetry_equiv_pos_site_id
 _symmetry_equiv_pos_as_xyz
  1  'x, y, z'
loop_
 _atom_site_type_symbol
 _atom_site_label
 _atom_site_symmetry_multiplicity
 _atom_site_fract_x
 _atom_site_fract_y
 _atom_site_fract_z
 _atom_site_occupancy
  Tm  Tm0  1  0.786894  0.294375  0.800375  1
  Tm  Tm1  1  0.205625  0.713106  0.199625  1
  Tm  Tm2  1  0.486519  0.994001  0.199625  1
  Tm  Tm3  1  0.299979  0.476426  0.500000  1
  Tm  Tm4  1  0.023574  0.200021  0.500000  1
  Tm  Tm5  1  0.505999  0.013481  0.800375  1
  Tm  Tm6  1  0.706849  0.514352  0.500000  1
  Tm  Tm7  1  0.985648  0.793151  0.500000  1
  Lu  Lu8  1  0.003978  0.001829  0.005807  1
  Lu  Lu9  1  0.498171  0.496022  0.994193  1
  Zn  Zn10  1  0.137639  0.639888  0.777527  1
  Zn  Zn11  1  0.860112  0.362361  0.222473  1
  Zn  Zn12  1  0.637737  0.862263  0.500000  1
  Bi  Bi13  1  0.246737  0.253263  0.000000  1
  Bi  Bi14  1  0.746737  0.753263  0.000000  1
  Pt  Pt15  1  0.367802  0.132198  0.500000  1
