# generated using pymatgen
data_Ho4GaSi3Pd8
_symmetry_space_group_name_H-M   'P 1'
_cell_length_a   5.54980866
_cell_length_b   7.04871600
_cell_length_c   7.31959468
_cell_angle_alpha   90.00000000
_cell_angle_beta   90.49722005
_cell_angle_gamma   90.00000000
_symmetry_Int_Tables_number   1
_chemical_formula_structural   Ho4GaSi3Pd8
_chemical_formula_sum   'Ho4 Ga1 Si3 Pd8'
_cell_volume   286.32462611
_cell_formula_units_Z   1
loop_
 _symmetry_equiv_pos_site_id
 _symmetry_equiv_pos_as_xyz
  1  'x, y, z'
loop_
 _atom_site_type_symbol
 _atom_site_label
 _atom_site_symmetry_multiplicity
 _atom_site_fract_x
 _atom_site_fract_y
 _atom_site_fract_z
 _atom_site_occupancy
  Ho  Ho0  1  0.358293  0.750000  0.027930  1
  Ho  Ho1  1  0.145872  0.750000  0.529161  1
  Ho  Ho2  1  0.640860  0.250000  0.972925  1
  Ho  Ho3  1  0.855642  0.250000  0.470818  1
  Ga  Ga4  1  0.643916  0.750000  0.380189  1
  Si  Si5  1  0.859717  0.750000  0.878035  1
  Si  Si6  1  0.357829  0.250000  0.621131  1
  Si  Si7  1  0.140446  0.250000  0.119227  1
  Pd  Pd8  1  0.911213  0.549761  0.174267  1
  Pd  Pd9  1  0.592430  0.950118  0.683778  1
  Pd  Pd10  1  0.095458  0.052894  0.820534  1
  Pd  Pd11  1  0.399612  0.444716  0.321713  1
  Pd  Pd12  1  0.095458  0.447106  0.820534  1
  Pd  Pd13  1  0.399612  0.055284  0.321713  1
  Pd  Pd14  1  0.911213  0.950239  0.174267  1
  Pd  Pd15  1  0.592430  0.549882  0.683778  1
