# generated using pymatgen
data_Mn3Be8Si
_symmetry_space_group_name_H-M   'P 1'
_cell_length_a   4.17401500
_cell_length_b   4.17401473
_cell_length_c   6.77173000
_cell_angle_alpha   90.00000000
_cell_angle_beta   90.00000000
_cell_angle_gamma   119.99999423
_symmetry_Int_Tables_number   1
_chemical_formula_structural   Mn3Be8Si
_chemical_formula_sum   'Mn3 Be8 Si1'
_cell_volume   102.17350062
_cell_formula_units_Z   1
loop_
 _symmetry_equiv_pos_site_id
 _symmetry_equiv_pos_as_xyz
  1  'x, y, z'
loop_
 _atom_site_type_symbol
 _atom_site_label
 _atom_site_symmetry_multiplicity
 _atom_site_fract_x
 _atom_site_fract_y
 _atom_site_fract_z
 _atom_site_occupancy
  Mn  Mn0  1  0.666667  0.333333  0.564588  1
  Mn  Mn1  1  0.666667  0.333333  0.936817  1
  Mn  Mn2  1  0.333333  0.666667  0.444136  1
  Be  Be3  1  0.000000  0.000000  0.997358  1
  Be  Be4  1  0.000000  0.000000  0.494771  1
  Be  Be5  1  0.828888  0.657775  0.251590  1
  Be  Be6  1  0.168892  0.831108  0.748143  1
  Be  Be7  1  0.662215  0.831108  0.748143  1
  Be  Be8  1  0.342225  0.171112  0.251590  1
  Be  Be9  1  0.828888  0.171112  0.251590  1
  Be  Be10  1  0.168892  0.337785  0.748143  1
  Si  Si11  1  0.333333  0.666667  0.063129  1
