# generated using pymatgen
data_Hf3Ti(AuN)2
_symmetry_space_group_name_H-M   'P 1'
_cell_length_a   8.68880378
_cell_length_b   8.68880400
_cell_length_c   4.46241900
_cell_angle_alpha   90.00000000
_cell_angle_beta   90.00000000
_cell_angle_gamma   158.86774987
_symmetry_Int_Tables_number   1
_chemical_formula_structural   Hf3Ti(AuN)2
_chemical_formula_sum   'Hf3 Ti1 Au2 N2'
_cell_volume   121.45683720
_cell_formula_units_Z   1
loop_
 _symmetry_equiv_pos_site_id
 _symmetry_equiv_pos_as_xyz
  1  'x, y, z'
loop_
 _atom_site_type_symbol
 _atom_site_label
 _atom_site_symmetry_multiplicity
 _atom_site_fract_x
 _atom_site_fract_y
 _atom_site_fract_z
 _atom_site_occupancy
  Hf  Hf0  1  0.108779  0.891219  0.250000  1
  Hf  Hf1  1  0.892104  0.107894  0.750001  1
  Hf  Hf2  1  0.713432  0.286566  0.750001  1
  Ti  Ti3  1  0.284431  0.715567  0.250000  1
  Au  Au4  1  0.450292  0.549705  0.250000  1
  Au  Au5  1  0.547290  0.452707  0.750001  1
  N  N6  1  0.701095  0.298903  0.250000  1
  N  N7  1  0.302567  0.697431  0.750001  1
