# generated using pymatgen
data_Dy6MnFeB14
_symmetry_space_group_name_H-M   'P 1'
_cell_length_a   8.02097644
_cell_length_b   8.02097725
_cell_length_c   9.28561100
_cell_angle_alpha   90.00000000
_cell_angle_beta   90.00000000
_cell_angle_gamma   155.31367955
_symmetry_Int_Tables_number   1
_chemical_formula_structural   Dy6MnFeB14
_chemical_formula_sum   'Dy6 Mn1 Fe1 B14'
_cell_volume   249.50408212
_cell_formula_units_Z   1
loop_
 _symmetry_equiv_pos_site_id
 _symmetry_equiv_pos_as_xyz
  1  'x, y, z'
loop_
 _atom_site_type_symbol
 _atom_site_label
 _atom_site_symmetry_multiplicity
 _atom_site_fract_x
 _atom_site_fract_y
 _atom_site_fract_z
 _atom_site_occupancy
  Dy  Dy0  1  0.895497  0.104503  0.438702  1
  Dy  Dy1  1  0.104547  0.895453  0.559567  1
  Dy  Dy2  1  0.895497  0.104503  0.061298  1
  Dy  Dy3  1  0.104547  0.895453  0.940433  1
  Dy  Dy4  1  0.241734  0.758266  0.250000  1
  Dy  Dy5  1  0.757849  0.242151  0.750000  1
  Mn  Mn6  1  0.053331  0.946669  0.250000  1
  Fe  Fe7  1  0.945801  0.054199  0.750000  1
  B  B8  1  0.727713  0.272287  0.467645  1
  B  B9  1  0.272742  0.727258  0.533393  1
  B  B10  1  0.727713  0.272287  0.032355  1
  B  B11  1  0.272742  0.727258  0.966607  1
  B  B12  1  0.630211  0.369789  0.153274  1
  B  B13  1  0.370192  0.629808  0.846660  1
  B  B14  1  0.630211  0.369789  0.346726  1
  B  B15  1  0.370192  0.629808  0.653340  1
  B  B16  1  0.521623  0.478377  0.098817  1
  B  B17  1  0.478430  0.521570  0.901348  1
  B  B18  1  0.521623  0.478377  0.401183  1
  B  B19  1  0.478430  0.521570  0.598652  1
  B  B20  1  0.459365  0.540635  0.250000  1
  B  B21  1  0.540010  0.459990  0.750000  1
