# generated using pymatgen
data_Tb5Eu(Si3Os)8
_symmetry_space_group_name_H-M   'P 1'
_cell_length_a   10.18345753
_cell_length_b   10.18345817
_cell_length_c   8.20503305
_cell_angle_alpha   90.04088239
_cell_angle_beta   89.95911352
_cell_angle_gamma   132.44242093
_symmetry_Int_Tables_number   1
_chemical_formula_structural   Tb5Eu(Si3Os)8
_chemical_formula_sum   'Tb5 Eu1 Si24 Os8'
_cell_volume   627.91542195
_cell_formula_units_Z   1
loop_
 _symmetry_equiv_pos_site_id
 _symmetry_equiv_pos_as_xyz
  1  'x, y, z'
loop_
 _atom_site_type_symbol
 _atom_site_label
 _atom_site_symmetry_multiplicity
 _atom_site_fract_x
 _atom_site_fract_y
 _atom_site_fract_z
 _atom_site_occupancy
  Tb  Tb0  1  0.501340  0.001340  0.750000  1
  Tb  Tb1  1  0.998665  0.498665  0.250000  1
  Tb  Tb2  1  0.500122  0.000122  0.250000  1
  Tb  Tb3  1  0.000017  0.000074  0.999920  1
  Tb  Tb4  1  0.500074  0.500017  0.500080  1
  Eu  Eu5  1  0.001211  0.501211  0.750000  1
  Si  Si6  1  0.795438  0.205907  0.501169  1
  Si  Si7  1  0.705907  0.295438  0.998831  1
  Si  Si8  1  0.204959  0.794600  0.500203  1
  Si  Si9  1  0.294600  0.704959  0.999797  1
  Si  Si10  1  0.668006  0.667226  0.166551  1
  Si  Si11  1  0.167226  0.168006  0.333449  1
  Si  Si12  1  0.832024  0.833463  0.667071  1
  Si  Si13  1  0.333463  0.332024  0.832929  1
  Si  Si14  1  0.845361  0.611550  0.997004  1
  Si  Si15  1  0.111550  0.345361  0.502996  1
  Si  Si16  1  0.656034  0.889310  0.495449  1
  Si  Si17  1  0.389310  0.156034  0.004551  1
  Si  Si18  1  0.153551  0.387962  0.006063  1
  Si  Si19  1  0.887962  0.653551  0.493937  1
  Si  Si20  1  0.123828  0.888847  0.728938  1
  Si  Si21  1  0.388847  0.623828  0.771062  1
  Si  Si22  1  0.378648  0.612319  0.226853  1
  Si  Si23  1  0.112319  0.878648  0.273147  1
  Si  Si24  1  0.878840  0.112215  0.273702  1
  Si  Si25  1  0.612215  0.378840  0.226298  1
  Si  Si26  1  0.619865  0.385022  0.771318  1
  Si  Si27  1  0.885022  0.119865  0.728682  1
  Si  Si28  1  0.611016  0.844138  0.994488  1
  Si  Si29  1  0.344138  0.111016  0.505512  1
  Os  Os30  1  0.626129  0.626242  0.872449  1
  Os  Os31  1  0.126242  0.126129  0.627551  1
  Os  Os32  1  0.372995  0.373902  0.126571  1
  Os  Os33  1  0.873902  0.872995  0.373429  1
  Os  Os34  1  0.171208  0.833690  0.003187  1
  Os  Os35  1  0.333690  0.671208  0.496813  1
  Os  Os36  1  0.828600  0.165674  0.003731  1
  Os  Os37  1  0.665674  0.328600  0.496269  1
