# generated using pymatgen
data_Hf18FeRe8S
_symmetry_space_group_name_H-M   'P 1'
_cell_length_a   8.54922596
_cell_length_b   8.55059162
_cell_length_c   8.58973200
_cell_angle_alpha   90.00000000
_cell_angle_beta   90.00000000
_cell_angle_gamma   120.00527000
_symmetry_Int_Tables_number   1
_chemical_formula_structural   Hf18FeRe8S
_chemical_formula_sum   'Hf18 Fe1 Re8 S1'
_cell_volume   543.76361107
_cell_formula_units_Z   1
loop_
 _symmetry_equiv_pos_site_id
 _symmetry_equiv_pos_as_xyz
  1  'x, y, z'
loop_
 _atom_site_type_symbol
 _atom_site_label
 _atom_site_symmetry_multiplicity
 _atom_site_fract_x
 _atom_site_fract_y
 _atom_site_fract_z
 _atom_site_occupancy
  Hf  Hf0  1  0.194490  0.805881  0.450151  1
  Hf  Hf1  1  0.194490  0.388609  0.450151  1
  Hf  Hf2  1  0.611019  0.805508  0.450151  1
  Hf  Hf3  1  0.799973  0.200073  0.558482  1
  Hf  Hf4  1  0.799973  0.599899  0.558482  1
  Hf  Hf5  1  0.399944  0.199972  0.558339  1
  Hf  Hf6  1  0.799973  0.200073  0.941518  1
  Hf  Hf7  1  0.799973  0.599899  0.941518  1
  Hf  Hf8  1  0.399944  0.199972  0.941661  1
  Hf  Hf9  1  0.194490  0.805881  0.049849  1
  Hf  Hf10  1  0.194490  0.388609  0.049849  1
  Hf  Hf11  1  0.611019  0.805508  0.049849  1
  Hf  Hf12  1  0.544170  0.456139  0.250000  1
  Hf  Hf13  1  0.544170  0.088030  0.250000  1
  Hf  Hf14  1  0.912781  0.456391  0.250000  1
  Hf  Hf15  1  0.459156  0.540694  0.750000  1
  Hf  Hf16  1  0.459156  0.918462  0.750000  1
  Hf  Hf17  1  0.082189  0.541094  0.750000  1
  Fe  Fe18  1  0.666039  0.333019  0.750000  1
  Re  Re19  1  0.889598  0.110900  0.250000  1
  Re  Re20  1  0.889598  0.778698  0.250000  1
  Re  Re21  1  0.221831  0.110915  0.250000  1
  Re  Re22  1  0.110310  0.889444  0.750000  1
  Re  Re23  1  0.110310  0.220866  0.750000  1
  Re  Re24  1  0.778824  0.889412  0.750000  1
  Re  Re25  1  0.999902  0.999950  0.500730  1
  Re  Re26  1  0.999902  0.999950  0.999270  1
  S  S27  1  0.332292  0.666147  0.250000  1
