# generated using pymatgen
data_Ac4Co5PtO19
_symmetry_space_group_name_H-M   'P 1'
_cell_length_a   7.59777701
_cell_length_b   7.63388832
_cell_length_c   7.59777700
_cell_angle_alpha   109.45682476
_cell_angle_beta   108.77028190
_cell_angle_gamma   109.99393859
_symmetry_Int_Tables_number   1
_chemical_formula_structural   Ac4Co5PtO19
_chemical_formula_sum   'Ac4 Co5 Pt1 O19'
_cell_volume   340.00692791
_cell_formula_units_Z   1
loop_
 _symmetry_equiv_pos_site_id
 _symmetry_equiv_pos_as_xyz
  1  'x, y, z'
loop_
 _atom_site_type_symbol
 _atom_site_label
 _atom_site_symmetry_multiplicity
 _atom_site_fract_x
 _atom_site_fract_y
 _atom_site_fract_z
 _atom_site_occupancy
  Ac  Ac0  1  0.997308  0.997868  0.329948  1
  Ac  Ac1  1  0.994468  0.328802  0.006357  1
  Ac  Ac2  1  0.677555  0.671198  0.665666  1
  Ac  Ac3  1  0.332079  0.002132  0.999440  1
  Co  Co4  1  0.837673  0.339030  0.493699  1
  Co  Co5  1  0.500649  0.152854  0.655686  1
  Co  Co6  1  0.154670  0.660970  0.498643  1
  Co  Co7  1  0.502832  0.847146  0.347795  1
  Co  Co8  1  0.660750  0.500000  0.160750  1
  Pt  Pt9  1  0.341010  0.500000  0.841010  1
  O  O10  1  0.362528  0.000000  0.362528  1
  O  O11  1  0.355341  0.350866  0.009780  1
  O  O12  1  0.004332  0.643792  0.644223  1
  O  O13  1  0.658914  0.649134  0.004474  1
  O  O14  1  0.000431  0.356208  0.360540  1
  O  O15  1  0.644822  0.000000  0.644822  1
  O  O16  1  0.000605  0.000000  0.000605  1
  O  O17  1  0.369820  0.317673  0.611465  1
  O  O18  1  0.028140  0.289636  0.671460  1
  O  O19  1  0.741265  0.372577  0.693123  1
  O  O20  1  0.381823  0.710364  0.738503  1
  O  O21  1  0.255671  0.959232  0.633168  1
  O  O22  1  0.626119  0.366265  0.321960  1
  O  O23  1  0.320545  0.627423  0.368689  1
  O  O24  1  0.673936  0.040768  0.296438  1
  O  O25  1  0.955695  0.633735  0.259854  1
  O  O26  1  0.695463  0.741494  0.373260  1
  O  O27  1  0.631767  0.258506  0.953968  1
  O  O28  1  0.293791  0.682327  0.052146  1
