# generated using pymatgen
data_Li3Ho4AlRuPt3
_symmetry_space_group_name_H-M   'P 1'
_cell_length_a   3.97300600
_cell_length_b   7.03376141
_cell_length_c   8.35439630
_cell_angle_alpha   90.91377853
_cell_angle_beta   90.00000000
_cell_angle_gamma   90.00000000
_symmetry_Int_Tables_number   1
_chemical_formula_structural   Li3Ho4AlRuPt3
_chemical_formula_sum   'Li3 Ho4 Al1 Ru1 Pt3'
_cell_volume   233.43538676
_cell_formula_units_Z   1
loop_
 _symmetry_equiv_pos_site_id
 _symmetry_equiv_pos_as_xyz
  1  'x, y, z'
loop_
 _atom_site_type_symbol
 _atom_site_label
 _atom_site_symmetry_multiplicity
 _atom_site_fract_x
 _atom_site_fract_y
 _atom_site_fract_z
 _atom_site_occupancy
  Li  Li0  1  0.250000  0.130298  0.056869  1
  Li  Li1  1  0.250000  0.631240  0.440424  1
  Li  Li2  1  0.750000  0.877461  0.939260  1
  Ho  Ho3  1  0.250000  0.044514  0.672905  1
  Ho  Ho4  1  0.250000  0.543893  0.820444  1
  Ho  Ho5  1  0.750000  0.960090  0.322040  1
  Ho  Ho6  1  0.750000  0.453711  0.187746  1
  Al  Al7  1  0.750000  0.367709  0.556101  1
  Ru  Ru8  1  0.250000  0.251147  0.391188  1
  Pt  Pt9  1  0.250000  0.747636  0.124351  1
  Pt  Pt10  1  0.750000  0.737264  0.621200  1
  Pt  Pt11  1  0.750000  0.255037  0.867470  1
