# generated using pymatgen
data_Al2V12Ga5CuN4
_symmetry_space_group_name_H-M   'P 1'
_cell_length_a   6.59535265
_cell_length_b   6.59229930
_cell_length_c   6.59177616
_cell_angle_alpha   90.08313004
_cell_angle_beta   90.08013560
_cell_angle_gamma   90.07348745
_symmetry_Int_Tables_number   1
_chemical_formula_structural   Al2V12Ga5CuN4
_chemical_formula_sum   'Al2 V12 Ga5 Cu1 N4'
_cell_volume   286.59997606
_cell_formula_units_Z   1
loop_
 _symmetry_equiv_pos_site_id
 _symmetry_equiv_pos_as_xyz
  1  'x, y, z'
loop_
 _atom_site_type_symbol
 _atom_site_label
 _atom_site_symmetry_multiplicity
 _atom_site_fract_x
 _atom_site_fract_y
 _atom_site_fract_z
 _atom_site_occupancy
  Al  Al0  1  0.176752  0.820875  0.319895  1
  Al  Al1  1  0.320508  0.180309  0.823975  1
  V  V2  1  0.793663  0.958867  0.375924  1
  V  V3  1  0.705676  0.040653  0.872322  1
  V  V4  1  0.211889  0.460021  0.124455  1
  V  V5  1  0.288798  0.540481  0.623398  1
  V  V6  1  0.960209  0.373193  0.789599  1
  V  V7  1  0.040813  0.877495  0.709420  1
  V  V8  1  0.458842  0.121824  0.208178  1
  V  V9  1  0.539683  0.629437  0.292434  1
  V  V10  1  0.375689  0.790371  0.959756  1
  V  V11  1  0.875401  0.710355  0.040510  1
  V  V12  1  0.127555  0.207445  0.460401  1
  V  V13  1  0.622731  0.291453  0.541515  1
  Ga  Ga14  1  0.681083  0.677394  0.680235  1
  Ga  Ga15  1  0.578753  0.425783  0.939132  1
  Ga  Ga16  1  0.429380  0.931154  0.569865  1
  Ga  Ga17  1  0.927214  0.562000  0.420653  1
  Ga  Ga18  1  0.061990  0.078197  0.073341  1
  Cu  Cu19  1  0.818768  0.318013  0.181742  1
  N  N20  1  0.874435  0.126761  0.622651  1
  N  N21  1  0.628072  0.877459  0.124150  1
  N  N22  1  0.124242  0.625444  0.874314  1
  N  N23  1  0.377849  0.375012  0.372134  1
