# generated using pymatgen
data_Pm4Tc5TeO24
_symmetry_space_group_name_H-M   'P 1'
_cell_length_a   7.06361737
_cell_length_b   7.09082628
_cell_length_c   11.52259210
_cell_angle_alpha   78.59790648
_cell_angle_beta   79.17594574
_cell_angle_gamma   112.33652038
_symmetry_Int_Tables_number   1
_chemical_formula_structural   Pm4Tc5TeO24
_chemical_formula_sum   'Pm4 Tc5 Te1 O24'
_cell_volume   500.80760679
_cell_formula_units_Z   1
loop_
 _symmetry_equiv_pos_site_id
 _symmetry_equiv_pos_as_xyz
  1  'x, y, z'
loop_
 _atom_site_type_symbol
 _atom_site_label
 _atom_site_symmetry_multiplicity
 _atom_site_fract_x
 _atom_site_fract_y
 _atom_site_fract_z
 _atom_site_occupancy
  Pm  Pm0  1  0.188713  0.452107  0.595471  1
  Pm  Pm1  1  0.809195  0.547604  0.403697  1
  Pm  Pm2  1  0.550253  0.810193  0.901837  1
  Pm  Pm3  1  0.435512  0.188480  0.097576  1
  Tc  Tc4  1  0.999144  0.701427  0.038121  1
  Tc  Tc5  1  0.704582  0.997927  0.535955  1
  Tc  Tc6  1  0.293958  0.002222  0.463602  1
  Tc  Tc7  1  0.609075  0.385020  0.751015  1
  Tc  Tc8  1  0.386338  0.618629  0.249403  1
  Te  Te9  1  0.004411  0.299832  0.955849  1
  O  O10  1  0.548886  0.467281  0.607873  1
  O  O11  1  0.452157  0.534271  0.390493  1
  O  O12  1  0.534794  0.456131  0.890778  1
  O  O13  1  0.472858  0.554403  0.109416  1
  O  O14  1  0.484403  0.103659  0.791896  1
  O  O15  1  0.510206  0.898748  0.212337  1
  O  O16  1  0.891447  0.504730  0.712188  1
  O  O17  1  0.104995  0.488727  0.290529  1
  O  O18  1  0.721098  0.124859  0.960139  1
  O  O19  1  0.273692  0.862023  0.045493  1
  O  O20  1  0.872838  0.272435  0.539543  1
  O  O21  1  0.125036  0.727368  0.460067  1
  O  O22  1  0.399788  0.828997  0.574692  1
  O  O23  1  0.598521  0.171109  0.424884  1
  O  O24  1  0.176987  0.609617  0.917682  1
  O  O25  1  0.833117  0.397204  0.078821  1
  O  O26  1  0.145143  0.299588  0.801265  1
  O  O27  1  0.871796  0.694168  0.192770  1
  O  O28  1  0.693051  0.868754  0.692545  1
  O  O29  1  0.304256  0.131408  0.307636  1
  O  O30  1  0.899973  0.828633  0.938894  1
  O  O31  1  0.106249  0.173532  0.067704  1
  O  O32  1  0.169331  0.101140  0.562500  1
  O  O33  1  0.828192  0.897772  0.437327  1
