# generated using pymatgen
data_Dy4CoSi12Ni19
_symmetry_space_group_name_H-M   'P 1'
_cell_length_a   3.79699900
_cell_length_b   6.60006923
_cell_length_c   18.76308707
_cell_angle_alpha   90.11300120
_cell_angle_beta   90.00000000
_cell_angle_gamma   90.00000000
_symmetry_Int_Tables_number   1
_chemical_formula_structural   Dy4CoSi12Ni19
_chemical_formula_sum   'Dy4 Co1 Si12 Ni19'
_cell_volume   470.21060828
_cell_formula_units_Z   1
loop_
 _symmetry_equiv_pos_site_id
 _symmetry_equiv_pos_as_xyz
  1  'x, y, z'
loop_
 _atom_site_type_symbol
 _atom_site_label
 _atom_site_symmetry_multiplicity
 _atom_site_fract_x
 _atom_site_fract_y
 _atom_site_fract_z
 _atom_site_occupancy
  Dy  Dy0  1  0.250000  0.875010  0.356345  1
  Dy  Dy1  1  0.750000  0.124236  0.643813  1
  Dy  Dy2  1  0.750000  0.376197  0.144101  1
  Dy  Dy3  1  0.250000  0.623838  0.856251  1
  Co  Co4  1  0.250000  0.064439  0.205353  1
  Si  Si5  1  0.250000  0.080991  0.086189  1
  Si  Si6  1  0.750000  0.920647  0.913916  1
  Si  Si7  1  0.750000  0.578669  0.414031  1
  Si  Si8  1  0.250000  0.420592  0.586223  1
  Si  Si9  1  0.250000  0.656943  0.074763  1
  Si  Si10  1  0.750000  0.344942  0.925857  1
  Si  Si11  1  0.750000  0.156156  0.425541  1
  Si  Si12  1  0.250000  0.844035  0.574227  1
  Si  Si13  1  0.250000  0.373605  0.261309  1
  Si  Si14  1  0.750000  0.621408  0.737425  1
  Si  Si15  1  0.750000  0.880028  0.237644  1
  Si  Si16  1  0.250000  0.121741  0.762582  1
  Ni  Ni17  1  0.750000  0.929896  0.793420  1
  Ni  Ni18  1  0.750000  0.569370  0.293632  1
  Ni  Ni19  1  0.250000  0.430391  0.707002  1
  Ni  Ni20  1  0.250000  0.614671  0.484244  1
  Ni  Ni21  1  0.750000  0.385098  0.515676  1
  Ni  Ni22  1  0.750000  0.115608  0.015366  1
  Ni  Ni23  1  0.250000  0.885718  0.984492  1
  Ni  Ni24  1  0.250000  0.683144  0.199955  1
  Ni  Ni25  1  0.750000  0.315041  0.800736  1
  Ni  Ni26  1  0.750000  0.185028  0.300119  1
  Ni  Ni27  1  0.250000  0.815622  0.699251  1
  Ni  Ni28  1  0.250000  0.355202  0.383547  1
  Ni  Ni29  1  0.750000  0.644927  0.615507  1
  Ni  Ni30  1  0.750000  0.860081  0.116629  1
  Ni  Ni31  1  0.250000  0.144748  0.884414  1
  Ni  Ni32  1  0.250000  0.366414  0.005367  1
  Ni  Ni33  1  0.750000  0.635285  0.995287  1
  Ni  Ni34  1  0.750000  0.866140  0.494742  1
  Ni  Ni35  1  0.250000  0.134138  0.505046  1
