# generated using pymatgen
data_Ho2Er2BCl6
_symmetry_space_group_name_H-M   'P 1'
_cell_length_a   3.82822600
_cell_length_b   12.56805800
_cell_length_c   13.03337400
_cell_angle_alpha   90.00000000
_cell_angle_beta   90.00000000
_cell_angle_gamma   90.00000000
_symmetry_Int_Tables_number   1
_chemical_formula_structural   Ho2Er2BCl6
_chemical_formula_sum   'Ho4 Er4 B2 Cl12'
_cell_volume   627.07949876
_cell_formula_units_Z   2
loop_
 _symmetry_equiv_pos_site_id
 _symmetry_equiv_pos_as_xyz
  1  'x, y, z'
loop_
 _atom_site_type_symbol
 _atom_site_label
 _atom_site_symmetry_multiplicity
 _atom_site_fract_x
 _atom_site_fract_y
 _atom_site_fract_z
 _atom_site_occupancy
  Ho  Ho0  1  0.500000  0.126012  0.851778  1
  Ho  Ho1  1  0.500000  0.873988  0.148222  1
  Ho  Ho2  1  0.500000  0.626012  0.648222  1
  Ho  Ho3  1  0.500000  0.373988  0.351778  1
  Er  Er4  1  0.000000  0.105469  0.083563  1
  Er  Er5  1  0.000000  0.894531  0.916437  1
  Er  Er6  1  0.000000  0.605469  0.416437  1
  Er  Er7  1  0.000000  0.394531  0.583563  1
  B  B8  1  0.500000  0.000000  0.000000  1
  B  B9  1  0.500000  0.500000  0.500000  1
  Cl  Cl10  1  0.500000  0.268307  0.682037  1
  Cl  Cl11  1  0.500000  0.731693  0.317963  1
  Cl  Cl12  1  0.500000  0.768307  0.817963  1
  Cl  Cl13  1  0.500000  0.231693  0.182037  1
  Cl  Cl14  1  0.000000  0.256593  0.930037  1
  Cl  Cl15  1  0.000000  0.743407  0.069963  1
  Cl  Cl16  1  0.000000  0.478895  0.243520  1
  Cl  Cl17  1  0.000000  0.521105  0.756480  1
  Cl  Cl18  1  0.000000  0.978895  0.256480  1
  Cl  Cl19  1  0.000000  0.021105  0.743520  1
  Cl  Cl20  1  0.000000  0.243407  0.430037  1
  Cl  Cl21  1  0.000000  0.756593  0.569963  1
