# generated using pymatgen
data_Hf18TiRe7PdS
_symmetry_space_group_name_H-M   'P 1'
_cell_length_a   8.64051000
_cell_length_b   8.64051036
_cell_length_c   8.53534100
_cell_angle_alpha   90.00000000
_cell_angle_beta   90.00000000
_cell_angle_gamma   120.00000628
_symmetry_Int_Tables_number   1
_chemical_formula_structural   Hf18TiRe7PdS
_chemical_formula_sum   'Hf18 Ti1 Re7 Pd1 S1'
_cell_volume   551.86169837
_cell_formula_units_Z   1
loop_
 _symmetry_equiv_pos_site_id
 _symmetry_equiv_pos_as_xyz
  1  'x, y, z'
loop_
 _atom_site_type_symbol
 _atom_site_label
 _atom_site_symmetry_multiplicity
 _atom_site_fract_x
 _atom_site_fract_y
 _atom_site_fract_z
 _atom_site_occupancy
  Hf  Hf0  1  0.194041  0.805959  0.446191  1
  Hf  Hf1  1  0.194041  0.388083  0.446191  1
  Hf  Hf2  1  0.611917  0.805959  0.446191  1
  Hf  Hf3  1  0.803743  0.196257  0.551704  1
  Hf  Hf4  1  0.803743  0.607487  0.551704  1
  Hf  Hf5  1  0.392513  0.196257  0.551704  1
  Hf  Hf6  1  0.805828  0.194172  0.946958  1
  Hf  Hf7  1  0.805828  0.611657  0.946958  1
  Hf  Hf8  1  0.388343  0.194172  0.946958  1
  Hf  Hf9  1  0.192834  0.807166  0.054642  1
  Hf  Hf10  1  0.192834  0.385669  0.054642  1
  Hf  Hf11  1  0.614331  0.807166  0.054642  1
  Hf  Hf12  1  0.543551  0.456449  0.247805  1
  Hf  Hf13  1  0.543551  0.087102  0.247805  1
  Hf  Hf14  1  0.912898  0.456449  0.247805  1
  Hf  Hf15  1  0.454255  0.545745  0.751156  1
  Hf  Hf16  1  0.454255  0.908512  0.751156  1
  Hf  Hf17  1  0.091488  0.545745  0.751156  1
  Ti  Ti18  1  0.000000  0.000000  0.499815  1
  Re  Re19  1  0.888177  0.111823  0.253108  1
  Re  Re20  1  0.888177  0.776354  0.253108  1
  Re  Re21  1  0.223646  0.111823  0.253108  1
  Re  Re22  1  0.110841  0.889159  0.748483  1
  Re  Re23  1  0.110841  0.221680  0.748483  1
  Re  Re24  1  0.778320  0.889159  0.748483  1
  Re  Re25  1  0.000000  0.000000  0.000254  1
  Pd  Pd26  1  0.333333  0.666667  0.247661  1
  S  S27  1  0.666667  0.333333  0.752136  1
