# generated using pymatgen
data_LaCoOs2C
_symmetry_space_group_name_H-M   'P 1'
_cell_length_a   5.63239118
_cell_length_b   5.63239068
_cell_length_c   7.59282600
_cell_angle_alpha   90.00000000
_cell_angle_beta   90.00000000
_cell_angle_gamma   138.69967722
_symmetry_Int_Tables_number   1
_chemical_formula_structural   LaCoOs2C
_chemical_formula_sum   'La2 Co2 Os4 C2'
_cell_volume   158.97793315
_cell_formula_units_Z   2
loop_
 _symmetry_equiv_pos_site_id
 _symmetry_equiv_pos_as_xyz
  1  'x, y, z'
loop_
 _atom_site_type_symbol
 _atom_site_label
 _atom_site_symmetry_multiplicity
 _atom_site_fract_x
 _atom_site_fract_y
 _atom_site_fract_z
 _atom_site_occupancy
  La  La0  1  0.535548  0.464452  0.250000  1
  La  La1  1  0.464452  0.535548  0.750000  1
  Co  Co2  1  0.265492  0.734508  0.250000  1
  Co  Co3  1  0.734508  0.265492  0.750000  1
  Os  Os4  1  0.823128  0.176872  0.059639  1
  Os  Os5  1  0.176872  0.823128  0.940361  1
  Os  Os6  1  0.176872  0.823128  0.559639  1
  Os  Os7  1  0.823128  0.176872  0.440361  1
  C  C8  1  0.000000  0.000000  0.000000  1
  C  C9  1  0.000000  0.000000  0.500000  1
