# generated using pymatgen
data_PaRhSe4
_symmetry_space_group_name_H-M   'P 1'
_cell_length_a   3.93591400
_cell_length_b   12.44600700
_cell_length_c   13.58520900
_cell_angle_alpha   90.00000000
_cell_angle_beta   90.00000000
_cell_angle_gamma   90.00000000
_symmetry_Int_Tables_number   1
_chemical_formula_structural   PaRhSe4
_chemical_formula_sum   'Pa4 Rh4 Se16'
_cell_volume   665.49066142
_cell_formula_units_Z   4
loop_
 _symmetry_equiv_pos_site_id
 _symmetry_equiv_pos_as_xyz
  1  'x, y, z'
loop_
 _atom_site_type_symbol
 _atom_site_label
 _atom_site_symmetry_multiplicity
 _atom_site_fract_x
 _atom_site_fract_y
 _atom_site_fract_z
 _atom_site_occupancy
  Pa  Pa0  1  0.500000  0.953760  0.502250  1
  Pa  Pa1  1  0.000000  0.046240  0.002250  1
  Pa  Pa2  1  0.500000  0.737219  0.993825  1
  Pa  Pa3  1  0.000000  0.262781  0.493825  1
  Rh  Rh4  1  0.500000  0.478894  0.498353  1
  Rh  Rh5  1  0.000000  0.521106  0.998353  1
  Rh  Rh6  1  0.500000  0.261782  0.993789  1
  Rh  Rh7  1  0.000000  0.738218  0.493789  1
  Se  Se8  1  0.500000  0.939645  0.887195  1
  Se  Se9  1  0.000000  0.060355  0.387195  1
  Se  Se10  1  0.500000  0.786723  0.377091  1
  Se  Se11  1  0.000000  0.213277  0.877091  1
  Se  Se12  1  0.500000  0.654729  0.585938  1
  Se  Se13  1  0.000000  0.345271  0.085938  1
  Se  Se14  1  0.500000  0.567632  0.116013  1
  Se  Se15  1  0.000000  0.432368  0.616013  1
  Se  Se16  1  0.500000  0.437808  0.905434  1
  Se  Se17  1  0.000000  0.562192  0.405434  1
  Se  Se18  1  0.500000  0.331374  0.365550  1
  Se  Se19  1  0.000000  0.668626  0.865550  1
  Se  Se20  1  0.500000  0.155562  0.609219  1
  Se  Se21  1  0.000000  0.844438  0.109219  1
  Se  Se22  1  0.500000  0.117400  0.129343  1
  Se  Se23  1  0.000000  0.882600  0.629343  1
