# generated using pymatgen
data_Tm9Lu(SiHg)4
_symmetry_space_group_name_H-M   'P 1'
_cell_length_a   8.66915725
_cell_length_b   8.66915665
_cell_length_c   7.44397701
_cell_angle_alpha   90.00225145
_cell_angle_beta   90.00224496
_cell_angle_gamma   129.23233095
_symmetry_Int_Tables_number   1
_chemical_formula_structural   Tm9Lu(SiHg)4
_chemical_formula_sum   'Tm9 Lu1 Si4 Hg4'
_cell_volume   433.34058183
_cell_formula_units_Z   1
loop_
 _symmetry_equiv_pos_site_id
 _symmetry_equiv_pos_as_xyz
  1  'x, y, z'
loop_
 _atom_site_type_symbol
 _atom_site_label
 _atom_site_symmetry_multiplicity
 _atom_site_fract_x
 _atom_site_fract_y
 _atom_site_fract_z
 _atom_site_occupancy
  Tm  Tm0  1  0.553721  0.808374  0.175349  1
  Tm  Tm1  1  0.308682  0.054052  0.324908  1
  Tm  Tm2  1  0.191626  0.446279  0.824651  1
  Tm  Tm3  1  0.945948  0.691318  0.675092  1
  Tm  Tm4  1  0.691318  0.945948  0.675092  1
  Tm  Tm5  1  0.446279  0.191626  0.824651  1
  Tm  Tm6  1  0.808374  0.553721  0.175349  1
  Tm  Tm7  1  0.054052  0.308682  0.324908  1
  Tm  Tm8  1  0.000000  0.000000  0.000000  1
  Lu  Lu9  1  0.500000  0.500000  0.500000  1
  Si  Si10  1  0.620539  0.620539  0.875678  1
  Si  Si11  1  0.120879  0.120879  0.623946  1
  Si  Si12  1  0.879121  0.879121  0.376054  1
  Si  Si13  1  0.379461  0.379461  0.124322  1
  Hg  Hg14  1  0.282064  0.717936  0.500000  1
  Hg  Hg15  1  0.217964  0.782036  0.000000  1
  Hg  Hg16  1  0.717936  0.282064  0.500000  1
  Hg  Hg17  1  0.782036  0.217964  0.000000  1
