# generated using pymatgen
data_Cs12Cr3FeSe12
_symmetry_space_group_name_H-M   'P 1'
_cell_length_a   11.05561546
_cell_length_b   11.05561554
_cell_length_c   14.04512978
_cell_angle_alpha   89.82755546
_cell_angle_beta   89.82755610
_cell_angle_gamma   139.41471904
_symmetry_Int_Tables_number   1
_chemical_formula_structural   Cs12Cr3FeSe12
_chemical_formula_sum   'Cs12 Cr3 Fe1 Se12'
_cell_volume   1116.79996191
_cell_formula_units_Z   1
loop_
 _symmetry_equiv_pos_site_id
 _symmetry_equiv_pos_as_xyz
  1  'x, y, z'
loop_
 _atom_site_type_symbol
 _atom_site_label
 _atom_site_symmetry_multiplicity
 _atom_site_fract_x
 _atom_site_fract_y
 _atom_site_fract_z
 _atom_site_occupancy
  Cs  Cs0  1  0.870587  0.867118  0.679757  1
  Cs  Cs1  1  0.132882  0.129413  0.320243  1
  Cs  Cs2  1  0.630156  0.629839  0.181842  1
  Cs  Cs3  1  0.370161  0.369844  0.818158  1
  Cs  Cs4  1  0.165564  0.521721  0.125645  1
  Cs  Cs5  1  0.478279  0.834436  0.874355  1
  Cs  Cs6  1  0.974870  0.332566  0.628487  1
  Cs  Cs7  1  0.667434  0.025130  0.371513  1
  Cs  Cs8  1  0.833132  0.478818  0.874443  1
  Cs  Cs9  1  0.521182  0.166868  0.125557  1
  Cs  Cs10  1  0.013046  0.659981  0.375772  1
  Cs  Cs11  1  0.340019  0.986954  0.624228  1
  Cr  Cr12  1  0.923295  0.076705  0.000000  1
  Cr  Cr13  1  0.427524  0.572476  0.500000  1
  Cr  Cr14  1  0.075874  0.924126  0.000000  1
  Fe  Fe15  1  0.577261  0.422739  0.500000  1
  Se  Se16  1  0.288342  0.293179  0.565921  1
  Se  Se17  1  0.706821  0.711658  0.434079  1
  Se  Se18  1  0.208802  0.209478  0.065967  1
  Se  Se19  1  0.790522  0.791198  0.934033  1
  Se  Se20  1  0.715795  0.008756  0.115241  1
  Se  Se21  1  0.991244  0.284205  0.884759  1
  Se  Se22  1  0.487102  0.769316  0.614025  1
  Se  Se23  1  0.230684  0.512898  0.385975  1
  Se  Se24  1  0.282214  0.990297  0.884322  1
  Se  Se25  1  0.009703  0.717786  0.115678  1
  Se  Se26  1  0.504902  0.217397  0.381625  1
  Se  Se27  1  0.782603  0.495098  0.618375  1
