# generated using pymatgen
data_Sc2MnCr3Co8P7
_symmetry_space_group_name_H-M   'P 1'
_cell_length_a   9.00981300
_cell_length_b   8.98624364
_cell_length_c   3.63134200
_cell_angle_alpha   90.00000000
_cell_angle_beta   90.00000000
_cell_angle_gamma   119.91286986
_symmetry_Int_Tables_number   1
_chemical_formula_structural   Sc2MnCr3Co8P7
_chemical_formula_sum   'Sc2 Mn1 Cr3 Co8 P7'
_cell_volume   254.84280933
_cell_formula_units_Z   1
loop_
 _symmetry_equiv_pos_site_id
 _symmetry_equiv_pos_as_xyz
  1  'x, y, z'
loop_
 _atom_site_type_symbol
 _atom_site_label
 _atom_site_symmetry_multiplicity
 _atom_site_fract_x
 _atom_site_fract_y
 _atom_site_fract_z
 _atom_site_occupancy
  Sc  Sc0  1  0.667750  0.332523  0.000000  1
  Sc  Sc1  1  0.332436  0.666625  0.500000  1
  Mn  Mn2  1  0.840677  0.119225  0.000000  1
  Cr  Cr3  1  0.124013  0.904454  0.500000  1
  Cr  Cr4  1  0.098209  0.219079  0.500000  1
  Cr  Cr5  1  0.782068  0.879825  0.500000  1
  Co  Co6  1  0.369086  0.936711  0.000000  1
  Co  Co7  1  0.063715  0.433719  0.000000  1
  Co  Co8  1  0.567377  0.628530  0.000000  1
  Co  Co9  1  0.881008  0.721773  0.000000  1
  Co  Co10  1  0.279894  0.160473  0.000000  1
  Co  Co11  1  0.948419  0.561998  0.500000  1
  Co  Co12  1  0.437606  0.386323  0.500000  1
  Co  Co13  1  0.610213  0.050269  0.500000  1
  P  P14  1  0.116458  0.702396  0.000000  1
  P  P15  1  0.298760  0.415499  0.000000  1
  P  P16  1  0.585113  0.883615  0.000000  1
  P  P17  1  0.710668  0.589329  0.500000  1
  P  P18  1  0.408320  0.119120  0.500000  1
  P  P19  1  0.877028  0.287282  0.500000  1
  P  P20  1  0.001181  0.001240  0.000000  1
