# generated using pymatgen
data_Sc8Si15Tc12P
_symmetry_space_group_name_H-M   'P 1'
_cell_length_a   6.62664182
_cell_length_b   6.63129377
_cell_length_c   12.37359712
_cell_angle_alpha   90.16958820
_cell_angle_beta   89.86443974
_cell_angle_gamma   90.08572593
_symmetry_Int_Tables_number   1
_chemical_formula_structural   Sc8Si15Tc12P
_chemical_formula_sum   'Sc8 Si15 Tc12 P1'
_cell_volume   543.73105308
_cell_formula_units_Z   1
loop_
 _symmetry_equiv_pos_site_id
 _symmetry_equiv_pos_as_xyz
  1  'x, y, z'
loop_
 _atom_site_type_symbol
 _atom_site_label
 _atom_site_symmetry_multiplicity
 _atom_site_fract_x
 _atom_site_fract_y
 _atom_site_fract_z
 _atom_site_occupancy
  Sc  Sc0  1  0.006138  0.658350  0.031386  1
  Sc  Sc1  1  0.994632  0.343787  0.530402  1
  Sc  Sc2  1  0.336395  0.990049  0.468910  1
  Sc  Sc3  1  0.158611  0.493706  0.780992  1
  Sc  Sc4  1  0.844571  0.508897  0.283693  1
  Sc  Sc5  1  0.494410  0.159270  0.218916  1
  Sc  Sc6  1  0.506283  0.842030  0.719539  1
  Sc  Sc7  1  0.659568  0.005989  0.968876  1
  Si  Si8  1  0.616911  0.305265  0.431408  1
  Si  Si9  1  0.378161  0.694576  0.931687  1
  Si  Si10  1  0.193342  0.119807  0.681516  1
  Si  Si11  1  0.311403  0.618086  0.570484  1
  Si  Si12  1  0.694387  0.379856  0.068199  1
  Si  Si13  1  0.804459  0.879783  0.181554  1
  Si  Si14  1  0.120304  0.195288  0.317501  1
  Si  Si15  1  0.972762  0.280614  0.936224  1
  Si  Si16  1  0.720203  0.028720  0.563131  1
  Si  Si17  1  0.222711  0.474201  0.187034  1
  Si  Si18  1  0.780793  0.525730  0.686371  1
  Si  Si19  1  0.472290  0.218949  0.814249  1
  Si  Si20  1  0.526071  0.777143  0.312216  1
  Si  Si21  1  0.279804  0.973686  0.063351  1
  Si  Si22  1  0.879365  0.805719  0.816881  1
  Tc  Tc23  1  0.672727  0.668811  0.498908  1
  Tc  Tc24  1  0.168047  0.830803  0.252760  1
  Tc  Tc25  1  0.332549  0.331748  0.999979  1
  Tc  Tc26  1  0.024195  0.813329  0.627690  1
  Tc  Tc27  1  0.980592  0.182229  0.130460  1
  Tc  Tc28  1  0.815569  0.020246  0.368637  1
  Tc  Tc29  1  0.310878  0.481774  0.383706  1
  Tc  Tc30  1  0.681422  0.519870  0.879707  1
  Tc  Tc31  1  0.481810  0.316158  0.620195  1
  Tc  Tc32  1  0.519401  0.685484  0.117422  1
  Tc  Tc33  1  0.181731  0.980110  0.869234  1
  Tc  Tc34  1  0.832680  0.167130  0.749644  1
  P  P35  1  0.024822  0.722810  0.437133  1
