# generated using pymatgen
data_Y3Lu11Th2(CdNi)4
_symmetry_space_group_name_H-M   'P 1'
_cell_length_a   9.48524028
_cell_length_b   9.48018578
_cell_length_c   9.46958371
_cell_angle_alpha   60.08150096
_cell_angle_beta   60.06334924
_cell_angle_gamma   60.09142740
_symmetry_Int_Tables_number   1
_chemical_formula_structural   Y3Lu11Th2(CdNi)4
_chemical_formula_sum   'Y3 Lu11 Th2 Cd4 Ni4'
_cell_volume   603.19182981
_cell_formula_units_Z   1
loop_
 _symmetry_equiv_pos_site_id
 _symmetry_equiv_pos_as_xyz
  1  'x, y, z'
loop_
 _atom_site_type_symbol
 _atom_site_label
 _atom_site_symmetry_multiplicity
 _atom_site_fract_x
 _atom_site_fract_y
 _atom_site_fract_z
 _atom_site_occupancy
  Y  Y0  1  0.186781  0.813446  0.183994  1
  Y  Y1  1  0.815713  0.817186  0.182488  1
  Y  Y2  1  0.184820  0.186262  0.812734  1
  Lu  Lu3  1  0.599992  0.198828  0.601746  1
  Lu  Lu4  1  0.198332  0.599851  0.602415  1
  Lu  Lu5  1  0.063031  0.437871  0.439023  1
  Lu  Lu6  1  0.440002  0.064451  0.061975  1
  Lu  Lu7  1  0.439145  0.063281  0.438322  1
  Lu  Lu8  1  0.064729  0.438387  0.062819  1
  Lu  Lu9  1  0.436926  0.433838  0.064601  1
  Lu  Lu10  1  0.063125  0.063862  0.440008  1
  Lu  Lu11  1  0.187384  0.813973  0.813010  1
  Lu  Lu12  1  0.811103  0.188535  0.186385  1
  Lu  Lu13  1  0.814411  0.186915  0.815154  1
  Th  Th14  1  0.594428  0.594045  0.600293  1
  Th  Th15  1  0.593800  0.594071  0.207965  1
  Cd  Cd16  1  0.835195  0.834454  0.827986  1
  Cd  Cd17  1  0.832681  0.834381  0.504498  1
  Cd  Cd18  1  0.834018  0.502730  0.831057  1
  Cd  Cd19  1  0.504164  0.834891  0.829104  1
  Ni  Ni20  1  0.393499  0.391525  0.390528  1
  Ni  Ni21  1  0.390921  0.391209  0.821820  1
  Ni  Ni22  1  0.393185  0.823134  0.391738  1
  Ni  Ni23  1  0.822613  0.392870  0.390338  1
