# generated using pymatgen
data_CsV2PS10
_symmetry_space_group_name_H-M   'P 1'
_cell_length_a   8.13207900
_cell_length_b   7.69893982
_cell_length_c   12.62396437
_cell_angle_alpha   71.65823287
_cell_angle_beta   90.00000000
_cell_angle_gamma   90.00000000
_symmetry_Int_Tables_number   1
_chemical_formula_structural   CsV2PS10
_chemical_formula_sum   'Cs2 V4 P2 S20'
_cell_volume   750.21255110
_cell_formula_units_Z   2
loop_
 _symmetry_equiv_pos_site_id
 _symmetry_equiv_pos_as_xyz
  1  'x, y, z'
loop_
 _atom_site_type_symbol
 _atom_site_label
 _atom_site_symmetry_multiplicity
 _atom_site_fract_x
 _atom_site_fract_y
 _atom_site_fract_z
 _atom_site_occupancy
  Cs  Cs0  1  0.497385  0.806205  0.317068  1
  Cs  Cs1  1  0.502615  0.806205  0.817068  1
  V  V2  1  0.056410  0.268695  0.330585  1
  V  V3  1  0.943590  0.268695  0.830585  1
  V  V4  1  0.054485  0.264087  0.039617  1
  V  V5  1  0.945515  0.264087  0.539617  1
  P  P6  1  0.374300  0.396871  0.157582  1
  P  P7  1  0.625700  0.396871  0.657582  1
  S  S8  1  0.124049  0.040053  0.500147  1
  S  S9  1  0.875951  0.040053  0.000147  1
  S  S10  1  0.141726  0.210295  0.696843  1
  S  S11  1  0.858274  0.210295  0.196843  1
  S  S12  1  0.362607  0.226233  0.061106  1
  S  S13  1  0.637393  0.226233  0.561106  1
  S  S14  1  0.130972  0.494521  0.139436  1
  S  S15  1  0.869028  0.494521  0.639436  1
  S  S16  1  0.057258  0.044005  0.226928  1
  S  S17  1  0.942742  0.044005  0.726928  1
  S  S18  1  0.109369  0.499417  0.418827  1
  S  S19  1  0.890631  0.499417  0.918827  1
  S  S20  1  0.368049  0.258977  0.325979  1
  S  S21  1  0.631951  0.258977  0.825979  1
  S  S22  1  0.558026  0.575745  0.114668  1
  S  S23  1  0.441974  0.575745  0.614668  1
  S  S24  1  0.122610  0.490737  0.863405  1
  S  S25  1  0.877390  0.490737  0.363405  1
  S  S26  1  0.112540  0.035339  0.956419  1
  S  S27  1  0.887460  0.035339  0.456419  1
