# generated using pymatgen
data_Dy2Tm15Lu3(CoSb2)4
_symmetry_space_group_name_H-M   'P 1'
_cell_length_a   7.73876831
_cell_length_b   8.71754016
_cell_length_c   12.03020450
_cell_angle_alpha   90.01636090
_cell_angle_beta   90.02881098
_cell_angle_gamma   89.98548793
_symmetry_Int_Tables_number   1
_chemical_formula_structural   Dy2Tm15Lu3(CoSb2)4
_chemical_formula_sum   'Dy2 Tm15 Lu3 Co4 Sb8'
_cell_volume   811.59380729
_cell_formula_units_Z   1
loop_
 _symmetry_equiv_pos_site_id
 _symmetry_equiv_pos_as_xyz
  1  'x, y, z'
loop_
 _atom_site_type_symbol
 _atom_site_label
 _atom_site_symmetry_multiplicity
 _atom_site_fract_x
 _atom_site_fract_y
 _atom_site_fract_z
 _atom_site_occupancy
  Dy  Dy0  1  0.378203  0.249911  0.692580  1
  Dy  Dy1  1  0.121744  0.249916  0.192703  1
  Tm  Tm2  1  0.155507  0.750138  0.203948  1
  Tm  Tm3  1  0.344574  0.749957  0.703747  1
  Tm  Tm4  1  0.844749  0.249999  0.796320  1
  Tm  Tm5  1  0.655069  0.249874  0.296343  1
  Tm  Tm6  1  0.449921  0.750089  0.998079  1
  Tm  Tm7  1  0.050317  0.750082  0.498039  1
  Tm  Tm8  1  0.551372  0.249796  0.002093  1
  Tm  Tm9  1  0.948632  0.250059  0.502116  1
  Tm  Tm10  1  0.620418  0.749919  0.308715  1
  Tm  Tm11  1  0.879295  0.750190  0.808542  1
  Tm  Tm12  1  0.822747  0.538005  0.064821  1
  Tm  Tm13  1  0.676976  0.961977  0.564740  1
  Tm  Tm14  1  0.176366  0.036157  0.934367  1
  Tm  Tm15  1  0.323734  0.464018  0.434374  1
  Tm  Tm16  1  0.176651  0.463840  0.934300  1
  Lu  Lu17  1  0.324395  0.036012  0.434438  1
  Lu  Lu18  1  0.823742  0.961928  0.064645  1
  Lu  Lu19  1  0.676308  0.538045  0.564658  1
  Co  Co20  1  0.432786  0.749943  0.491120  1
  Co  Co21  1  0.066968  0.750335  0.991141  1
  Co  Co22  1  0.567382  0.249944  0.508460  1
  Co  Co23  1  0.932002  0.249711  0.008692  1
  Sb  Sb24  1  0.928946  0.509488  0.328230  1
  Sb  Sb25  1  0.571097  0.990545  0.828217  1
  Sb  Sb26  1  0.068345  0.007915  0.672080  1
  Sb  Sb27  1  0.431524  0.492169  0.172096  1
  Sb  Sb28  1  0.068081  0.492146  0.671977  1
  Sb  Sb29  1  0.431799  0.007825  0.172120  1
  Sb  Sb30  1  0.929107  0.990582  0.328229  1
  Sb  Sb31  1  0.571244  0.509486  0.828066  1
