# generated using pymatgen
data_DyZn3RhAu
_symmetry_space_group_name_H-M   'P 1'
_cell_length_a   5.27716477
_cell_length_b   5.27716575
_cell_length_c   5.17220093
_cell_angle_alpha   59.32638947
_cell_angle_beta   59.32638585
_cell_angle_gamma   60.00000402
_symmetry_Int_Tables_number   1
_chemical_formula_structural   DyZn3RhAu
_chemical_formula_sum   'Dy1 Zn3 Rh1 Au1'
_cell_volume   100.80082680
_cell_formula_units_Z   1
loop_
 _symmetry_equiv_pos_site_id
 _symmetry_equiv_pos_as_xyz
  1  'x, y, z'
loop_
 _atom_site_type_symbol
 _atom_site_label
 _atom_site_symmetry_multiplicity
 _atom_site_fract_x
 _atom_site_fract_y
 _atom_site_fract_z
 _atom_site_occupancy
  Dy  Dy0  1  0.000362  0.000362  0.998914  1
  Zn  Zn1  1  0.623108  0.129364  0.624420  1
  Zn  Zn2  1  0.129364  0.623108  0.624420  1
  Zn  Zn3  1  0.623108  0.623108  0.624420  1
  Rh  Rh4  1  0.626187  0.626187  0.121439  1
  Au  Au5  1  0.247871  0.247871  0.256387  1
