# generated using pymatgen
data_MgMnCuB2Rh5
_symmetry_space_group_name_H-M   'P 1'
_cell_length_a   9.34843500
_cell_length_b   2.92529500
_cell_length_c   9.35224400
_cell_angle_alpha   90.00000000
_cell_angle_beta   90.00000000
_cell_angle_gamma   90.00000000
_symmetry_Int_Tables_number   1
_chemical_formula_structural   MgMnCuB2Rh5
_chemical_formula_sum   'Mg2 Mn2 Cu2 B4 Rh10'
_cell_volume   255.75516354
_cell_formula_units_Z   2
loop_
 _symmetry_equiv_pos_site_id
 _symmetry_equiv_pos_as_xyz
  1  'x, y, z'
loop_
 _atom_site_type_symbol
 _atom_site_label
 _atom_site_symmetry_multiplicity
 _atom_site_fract_x
 _atom_site_fract_y
 _atom_site_fract_z
 _atom_site_occupancy
  Mg  Mg0  1  0.176287  0.000000  0.676817  1
  Mg  Mg1  1  0.676288  0.000000  0.823183  1
  Mn  Mn2  1  0.321607  0.000000  0.176833  1
  Mn  Mn3  1  0.821606  0.000000  0.323167  1
  Cu  Cu4  1  0.998776  0.000000  0.996857  1
  Cu  Cu5  1  0.498775  0.000000  0.503142  1
  B  B6  1  0.628852  0.000000  0.130803  1
  B  B7  1  0.128851  0.000000  0.369197  1
  B  B8  1  0.872867  0.000000  0.625425  1
  B  B9  1  0.372868  0.000000  0.874575  1
  Rh  Rh10  1  0.498987  0.500001  0.004684  1
  Rh  Rh11  1  0.786057  0.500001  0.076399  1
  Rh  Rh12  1  0.069876  0.500001  0.213475  1
  Rh  Rh13  1  0.569876  0.500001  0.286525  1
  Rh  Rh14  1  0.286056  0.500001  0.423601  1
  Rh  Rh15  1  0.998988  0.500001  0.495315  1
  Rh  Rh16  1  0.717615  0.500001  0.563507  1
  Rh  Rh17  1  0.429077  0.500001  0.718181  1
  Rh  Rh18  1  0.929078  0.500001  0.781820  1
  Rh  Rh19  1  0.217615  0.500001  0.936494  1
