# generated using pymatgen
data_Ba4NaSr2LiBi12
_symmetry_space_group_name_H-M   'P 1'
_cell_length_a   6.99687262
_cell_length_b   7.00975867
_cell_length_c   14.97342300
_cell_angle_alpha   90.00000000
_cell_angle_beta   90.00000000
_cell_angle_gamma   85.57952569
_symmetry_Int_Tables_number   1
_chemical_formula_structural   Ba4NaSr2LiBi12
_chemical_formula_sum   'Ba4 Na1 Sr2 Li1 Bi12'
_cell_volume   732.20770561
_cell_formula_units_Z   1
loop_
 _symmetry_equiv_pos_site_id
 _symmetry_equiv_pos_as_xyz
  1  'x, y, z'
loop_
 _atom_site_type_symbol
 _atom_site_label
 _atom_site_symmetry_multiplicity
 _atom_site_fract_x
 _atom_site_fract_y
 _atom_site_fract_z
 _atom_site_occupancy
  Ba  Ba0  1  0.517498  0.514811  0.226909  1
  Ba  Ba1  1  0.479037  0.482236  0.771743  1
  Ba  Ba2  1  0.982502  0.985189  0.226909  1
  Ba  Ba3  1  0.020963  0.017764  0.771743  1
  Na  Na4  1  0.250000  0.250000  0.997007  1
  Sr  Sr5  1  0.750000  0.250000  0.500949  1
  Sr  Sr6  1  0.250000  0.750000  0.498945  1
  Li  Li7  1  0.750000  0.750000  0.003601  1
  Bi  Bi8  1  0.750000  0.750000  0.438130  1
  Bi  Bi9  1  0.250000  0.250000  0.561766  1
  Bi  Bi10  1  0.750000  0.250000  0.005513  1
  Bi  Bi11  1  0.250000  0.750000  0.994479  1
  Bi  Bi12  1  0.007748  0.499162  0.140384  1
  Bi  Bi13  1  0.978647  0.514250  0.860564  1
  Bi  Bi14  1  0.069232  0.429843  0.349337  1
  Bi  Bi15  1  0.430768  0.070157  0.349337  1
  Bi  Bi16  1  0.930068  0.570612  0.650867  1
  Bi  Bi17  1  0.569932  0.929388  0.650867  1
  Bi  Bi18  1  0.492252  0.000838  0.140384  1
  Bi  Bi19  1  0.521353  0.985750  0.860564  1
