# generated using pymatgen
data_Tb3Gd2HoTa2O14
_symmetry_space_group_name_H-M   'P 1'
_cell_length_a   6.52156966
_cell_length_b   6.52681253
_cell_length_c   7.51843934
_cell_angle_alpha   89.97675859
_cell_angle_beta   89.98338403
_cell_angle_gamma   108.61088079
_symmetry_Int_Tables_number   1
_chemical_formula_structural   Tb3Gd2HoTa2O14
_chemical_formula_sum   'Tb3 Gd2 Ho1 Ta2 O14'
_cell_volume   303.28809467
_cell_formula_units_Z   1
loop_
 _symmetry_equiv_pos_site_id
 _symmetry_equiv_pos_as_xyz
  1  'x, y, z'
loop_
 _atom_site_type_symbol
 _atom_site_label
 _atom_site_symmetry_multiplicity
 _atom_site_fract_x
 _atom_site_fract_y
 _atom_site_fract_z
 _atom_site_occupancy
  Tb  Tb0  1  0.999952  0.535812  0.241557  1
  Tb  Tb1  1  0.000126  0.464465  0.741496  1
  Tb  Tb2  1  0.534975  0.999942  0.758242  1
  Gd  Gd3  1  0.531850  0.531979  0.499604  1
  Gd  Gd4  1  0.467654  0.466847  0.000410  1
  Ho  Ho5  1  0.465528  0.999416  0.258216  1
  Ta  Ta6  1  0.002043  0.002176  0.499452  1
  Ta  Ta7  1  0.997890  0.998036  0.000491  1
  O  O8  1  0.932748  0.066295  0.750001  1
  O  O9  1  0.067992  0.933010  0.250026  1
  O  O10  1  0.360199  0.642788  0.249787  1
  O  O11  1  0.639633  0.359930  0.750175  1
  O  O12  1  0.369791  0.630411  0.749945  1
  O  O13  1  0.628623  0.366191  0.250487  1
  O  O14  1  0.326839  0.079330  0.976790  1
  O  O15  1  0.673740  0.921497  0.473411  1
  O  O16  1  0.307704  0.050269  0.542301  1
  O  O17  1  0.693212  0.950738  0.045817  1
  O  O18  1  0.051202  0.307563  0.456335  1
  O  O19  1  0.948735  0.692999  0.956370  1
  O  O20  1  0.919300  0.673688  0.524498  1
  O  O21  1  0.080264  0.326615  0.024591  1
