# generated using pymatgen
data_Ca7HoBi6
_symmetry_space_group_name_H-M   'P 1'
_cell_length_a   8.30235350
_cell_length_b   8.38567980
_cell_length_c   8.38568158
_cell_angle_alpha   109.67164057
_cell_angle_beta   109.27004899
_cell_angle_gamma   109.27005089
_symmetry_Int_Tables_number   1
_chemical_formula_structural   Ca7HoBi6
_chemical_formula_sum   'Ca7 Ho1 Bi6'
_cell_volume   450.53463327
_cell_formula_units_Z   1
loop_
 _symmetry_equiv_pos_site_id
 _symmetry_equiv_pos_as_xyz
  1  'x, y, z'
loop_
 _atom_site_type_symbol
 _atom_site_label
 _atom_site_symmetry_multiplicity
 _atom_site_fract_x
 _atom_site_fract_y
 _atom_site_fract_z
 _atom_site_occupancy
  Ca  Ca0  1  0.501904  0.005238  0.361714  1
  Ca  Ca1  1  0.502520  0.001054  0.852528  1
  Ca  Ca2  1  0.649992  0.647472  0.648526  1
  Ca  Ca3  1  0.996666  0.356475  0.494762  1
  Ca  Ca4  1  0.140190  0.138286  0.143525  1
  Ca  Ca5  1  0.852640  0.500000  0.000000  1
  Ca  Ca6  1  0.001466  0.851474  0.498946  1
  Ho  Ho7  1  0.353233  0.500000  0.000000  1
  Bi  Bi8  1  0.131532  0.745009  0.877479  1
  Bi  Bi9  1  0.886523  0.132470  0.754991  1
  Bi  Bi10  1  0.615609  0.373859  0.243687  1
  Bi  Bi11  1  0.371922  0.256313  0.630172  1
  Bi  Bi12  1  0.741750  0.869828  0.126141  1
  Bi  Bi13  1  0.254053  0.622521  0.367530  1
