# generated using pymatgen
data_Hf18Re8RhS
_symmetry_space_group_name_H-M   'P 1'
_cell_length_a   8.62733700
_cell_length_b   8.62733588
_cell_length_c   8.53102700
_cell_angle_alpha   90.00000000
_cell_angle_beta   90.00000000
_cell_angle_gamma   120.00000047
_symmetry_Int_Tables_number   1
_chemical_formula_structural   Hf18Re8RhS
_chemical_formula_sum   'Hf18 Re8 Rh1 S1'
_cell_volume   549.90214656
_cell_formula_units_Z   1
loop_
 _symmetry_equiv_pos_site_id
 _symmetry_equiv_pos_as_xyz
  1  'x, y, z'
loop_
 _atom_site_type_symbol
 _atom_site_label
 _atom_site_symmetry_multiplicity
 _atom_site_fract_x
 _atom_site_fract_y
 _atom_site_fract_z
 _atom_site_occupancy
  Hf  Hf0  1  0.195035  0.804965  0.445757  1
  Hf  Hf1  1  0.195035  0.390071  0.445757  1
  Hf  Hf2  1  0.609929  0.804965  0.445757  1
  Hf  Hf3  1  0.805203  0.194797  0.551479  1
  Hf  Hf4  1  0.805203  0.610408  0.551479  1
  Hf  Hf5  1  0.389592  0.194797  0.551479  1
  Hf  Hf6  1  0.805203  0.194797  0.948521  1
  Hf  Hf7  1  0.805203  0.610408  0.948521  1
  Hf  Hf8  1  0.389592  0.194797  0.948521  1
  Hf  Hf9  1  0.195035  0.804965  0.054243  1
  Hf  Hf10  1  0.195035  0.390071  0.054243  1
  Hf  Hf11  1  0.609929  0.804965  0.054243  1
  Hf  Hf12  1  0.542764  0.457236  0.250000  1
  Hf  Hf13  1  0.542764  0.085527  0.250000  1
  Hf  Hf14  1  0.914473  0.457236  0.250000  1
  Hf  Hf15  1  0.455313  0.544687  0.750000  1
  Hf  Hf16  1  0.455313  0.910626  0.750000  1
  Hf  Hf17  1  0.089374  0.544687  0.750000  1
  Re  Re18  1  0.889040  0.110960  0.250000  1
  Re  Re19  1  0.889040  0.778078  0.250000  1
  Re  Re20  1  0.221922  0.110960  0.250000  1
  Re  Re21  1  0.110529  0.889471  0.750000  1
  Re  Re22  1  0.110529  0.221061  0.750000  1
  Re  Re23  1  0.778939  0.889471  0.750000  1
  Re  Re24  1  0.000000  0.000000  0.499412  1
  Re  Re25  1  0.000000  0.000000  0.000588  1
  Rh  Rh26  1  0.333333  0.666667  0.250000  1
  S  S27  1  0.666667  0.333333  0.750000  1
