# generated using pymatgen
data_Pr4Y6Si7Ag
_symmetry_space_group_name_H-M   'P 1'
_cell_length_a   7.63239498
_cell_length_b   7.82778436
_cell_length_c   14.98908200
_cell_angle_alpha   90.00000000
_cell_angle_beta   90.00000000
_cell_angle_gamma   90.49683472
_symmetry_Int_Tables_number   1
_chemical_formula_structural   Pr4Y6Si7Ag
_chemical_formula_sum   'Pr8 Y12 Si14 Ag2'
_cell_volume   895.48516899
_cell_formula_units_Z   2
loop_
 _symmetry_equiv_pos_site_id
 _symmetry_equiv_pos_as_xyz
  1  'x, y, z'
loop_
 _atom_site_type_symbol
 _atom_site_label
 _atom_site_symmetry_multiplicity
 _atom_site_fract_x
 _atom_site_fract_y
 _atom_site_fract_z
 _atom_site_occupancy
  Pr  Pr0  1  0.021394  0.175002  0.399804  1
  Pr  Pr1  1  0.524984  0.320094  0.399517  1
  Pr  Pr2  1  0.475016  0.679906  0.899517  1
  Pr  Pr3  1  0.481580  0.681231  0.601213  1
  Pr  Pr4  1  0.974833  0.827358  0.599439  1
  Pr  Pr5  1  0.978606  0.824998  0.899804  1
  Pr  Pr6  1  0.518420  0.318769  0.101213  1
  Pr  Pr7  1  0.025167  0.172642  0.099439  1
  Y  Y8  1  0.328792  0.173524  0.624281  1
  Y  Y9  1  0.676893  0.822344  0.376948  1
  Y  Y10  1  0.655111  0.990992  0.750587  1
  Y  Y11  1  0.175634  0.676609  0.376039  1
  Y  Y12  1  0.824366  0.323391  0.876039  1
  Y  Y13  1  0.818014  0.324454  0.621621  1
  Y  Y14  1  0.844158  0.491534  0.252839  1
  Y  Y15  1  0.344889  0.009008  0.250587  1
  Y  Y16  1  0.323107  0.177656  0.876948  1
  Y  Y17  1  0.181986  0.675546  0.121621  1
  Y  Y18  1  0.671208  0.826476  0.124281  1
  Y  Y19  1  0.155842  0.508466  0.752839  1
  Si  Si20  1  0.270512  0.879957  0.749374  1
  Si  Si21  1  0.469463  0.611085  0.250299  1
  Si  Si22  1  0.027368  0.115079  0.750149  1
  Si  Si23  1  0.530537  0.388915  0.750299  1
  Si  Si24  1  0.972632  0.884921  0.250149  1
  Si  Si25  1  0.729488  0.120043  0.249374  1
  Si  Si26  1  0.355233  0.968865  0.038744  1
  Si  Si27  1  0.154500  0.467633  0.957619  1
  Si  Si28  1  0.644767  0.031135  0.538744  1
  Si  Si29  1  0.353215  0.967447  0.460436  1
  Si  Si30  1  0.845500  0.532367  0.457619  1
  Si  Si31  1  0.772760  0.620903  0.750675  1
  Si  Si32  1  0.227240  0.379097  0.250675  1
  Si  Si33  1  0.646785  0.032553  0.960436  1
  Ag  Ag34  1  0.151729  0.467359  0.540416  1
  Ag  Ag35  1  0.848271  0.532641  0.040416  1
