# generated using pymatgen
data_LiMnMoF6
_symmetry_space_group_name_H-M   'P 1'
_cell_length_a   4.85234500
_cell_length_b   9.02219606
_cell_length_c   9.02219600
_cell_angle_alpha   119.99999979
_cell_angle_beta   90.00000000
_cell_angle_gamma   90.00000000
_symmetry_Int_Tables_number   1
_chemical_formula_structural   LiMnMoF6
_chemical_formula_sum   'Li3 Mn3 Mo3 F18'
_cell_volume   342.06356841
_cell_formula_units_Z   3
loop_
 _symmetry_equiv_pos_site_id
 _symmetry_equiv_pos_as_xyz
  1  'x, y, z'
loop_
 _atom_site_type_symbol
 _atom_site_label
 _atom_site_symmetry_multiplicity
 _atom_site_fract_x
 _atom_site_fract_y
 _atom_site_fract_z
 _atom_site_occupancy
  Li  Li0  1  0.000000  0.000000  0.000000  1
  Li  Li1  1  0.500627  0.666666  0.333333  1
  Li  Li2  1  0.499374  0.333333  0.666667  1
  Mn  Mn3  1  0.500000  0.691314  0.000000  1
  Mn  Mn4  1  0.500000  0.308687  0.308687  1
  Mn  Mn5  1  0.500000  0.000000  0.691314  1
  Mo  Mo6  1  0.000000  0.352866  0.000000  1
  Mo  Mo7  1  0.000000  0.000000  0.352866  1
  Mo  Mo8  1  0.000000  0.647135  0.647135  1
  F  F9  1  0.772449  0.220542  0.097993  1
  F  F10  1  0.742311  0.571224  0.112026  1
  F  F11  1  0.772449  0.902006  0.122550  1
  F  F12  1  0.227549  0.097994  0.220542  1
  F  F13  1  0.269685  0.448088  0.213072  1
  F  F14  1  0.269685  0.786928  0.235016  1
  F  F15  1  0.742311  0.540802  0.428776  1
  F  F16  1  0.730316  0.213072  0.448088  1
  F  F17  1  0.742311  0.887974  0.459198  1
  F  F18  1  0.257690  0.428777  0.540801  1
  F  F19  1  0.269685  0.764985  0.551913  1
  F  F20  1  0.257690  0.112025  0.571223  1
  F  F21  1  0.730316  0.551912  0.764985  1
  F  F22  1  0.730316  0.235016  0.786929  1
  F  F23  1  0.772449  0.877450  0.779457  1
  F  F24  1  0.227549  0.779457  0.877450  1
  F  F25  1  0.257690  0.459199  0.887975  1
  F  F26  1  0.227549  0.122549  0.902006  1
