# generated using pymatgen
data_SrCo(As4Ru)3
_symmetry_space_group_name_H-M   'P 1'
_cell_length_a   7.40899971
_cell_length_b   7.46959891
_cell_length_c   7.40899948
_cell_angle_alpha   109.63699069
_cell_angle_beta   109.30494417
_cell_angle_gamma   109.63699737
_symmetry_Int_Tables_number   1
_chemical_formula_structural   SrCo(As4Ru)3
_chemical_formula_sum   'Sr1 Co1 As12 Ru3'
_cell_volume   314.99372917
_cell_formula_units_Z   1
loop_
 _symmetry_equiv_pos_site_id
 _symmetry_equiv_pos_as_xyz
  1  'x, y, z'
loop_
 _atom_site_type_symbol
 _atom_site_label
 _atom_site_symmetry_multiplicity
 _atom_site_fract_x
 _atom_site_fract_y
 _atom_site_fract_z
 _atom_site_occupancy
  Sr  Sr0  1  0.000000  0.000000  0.000000  1
  Co  Co1  1  0.000000  0.500000  0.000000  1
  As  As2  1  0.849904  0.648557  0.497981  1
  As  As3  1  0.150096  0.351443  0.502019  1
  As  As4  1  0.147071  0.646726  0.804198  1
  As  As5  1  0.852929  0.353274  0.195802  1
  As  As6  1  0.657128  0.499656  0.852929  1
  As  As7  1  0.342872  0.500344  0.147071  1
  As  As8  1  0.648077  0.798653  0.150096  1
  As  As9  1  0.351923  0.201347  0.849904  1
  As  As10  1  0.497981  0.849425  0.648077  1
  As  As11  1  0.502019  0.150575  0.351923  1
  As  As12  1  0.195802  0.842528  0.342872  1
  As  As13  1  0.804198  0.157472  0.657128  1
  Ru  Ru14  1  0.500000  0.500000  0.500000  1
  Ru  Ru15  1  0.500000  0.000000  0.000000  1
  Ru  Ru16  1  0.000000  0.000000  0.500000  1
