# generated using pymatgen
data_LiTb3Ag2Ge2Pb
_symmetry_space_group_name_H-M   'P 1'
_cell_length_a   7.26852774
_cell_length_b   7.19736531
_cell_length_c   4.38687900
_cell_angle_alpha   90.00000000
_cell_angle_beta   90.00000000
_cell_angle_gamma   119.67666010
_symmetry_Int_Tables_number   1
_chemical_formula_structural   LiTb3Ag2Ge2Pb
_chemical_formula_sum   'Li1 Tb3 Ag2 Ge2 Pb1'
_cell_volume   199.39400571
_cell_formula_units_Z   1
loop_
 _symmetry_equiv_pos_site_id
 _symmetry_equiv_pos_as_xyz
  1  'x, y, z'
loop_
 _atom_site_type_symbol
 _atom_site_label
 _atom_site_symmetry_multiplicity
 _atom_site_fract_x
 _atom_site_fract_y
 _atom_site_fract_z
 _atom_site_occupancy
  Li  Li0  1  0.000000  0.245085  0.500000  1
  Tb  Tb1  1  0.442147  0.439532  0.000000  1
  Tb  Tb2  1  0.557853  0.997385  0.000000  1
  Tb  Tb3  1  0.000000  0.567385  0.000000  1
  Ag  Ag4  1  0.740982  0.742683  0.500000  1
  Ag  Ag5  1  0.259018  0.001700  0.500000  1
  Ge  Ge6  1  0.675298  0.332989  0.500000  1
  Ge  Ge7  1  0.324702  0.657693  0.500000  1
  Pb  Pb8  1  0.000000  0.015548  0.000000  1
