# generated using pymatgen
data_Tb4ZnGa19Pt11
_symmetry_space_group_name_H-M   'P 1'
_cell_length_a   4.25676493
_cell_length_b   10.88448540
_cell_length_c   13.68987288
_cell_angle_alpha   81.50483787
_cell_angle_beta   80.82135589
_cell_angle_gamma   78.46010443
_symmetry_Int_Tables_number   1
_chemical_formula_structural   Tb4ZnGa19Pt11
_chemical_formula_sum   'Tb4 Zn1 Ga19 Pt11'
_cell_volume   609.09571753
_cell_formula_units_Z   1
loop_
 _symmetry_equiv_pos_site_id
 _symmetry_equiv_pos_as_xyz
  1  'x, y, z'
loop_
 _atom_site_type_symbol
 _atom_site_label
 _atom_site_symmetry_multiplicity
 _atom_site_fract_x
 _atom_site_fract_y
 _atom_site_fract_z
 _atom_site_occupancy
  Tb  Tb0  1  0.122862  0.089225  0.665669  1
  Tb  Tb1  1  0.876858  0.910768  0.335325  1
  Tb  Tb2  1  0.773148  0.630161  0.821250  1
  Tb  Tb3  1  0.227345  0.368987  0.178129  1
  Zn  Zn4  1  0.007653  0.074289  0.913863  1
  Ga  Ga5  1  0.991548  0.928438  0.086121  1
  Ga  Ga6  1  0.063697  0.677225  0.193238  1
  Ga  Ga7  1  0.936652  0.320306  0.807792  1
  Ga  Ga8  1  0.103529  0.340762  0.454464  1
  Ga  Ga9  1  0.897270  0.659230  0.545989  1
  Ga  Ga10  1  0.198833  0.605911  0.992816  1
  Ga  Ga11  1  0.801964  0.393353  0.007324  1
  Ga  Ga12  1  0.255112  0.783153  0.700959  1
  Ga  Ga13  1  0.743454  0.217397  0.299427  1
  Ga  Ga14  1  0.301751  0.899885  0.496805  1
  Ga  Ga15  1  0.698715  0.099664  0.503524  1
  Ga  Ga16  1  0.384592  0.525919  0.699972  1
  Ga  Ga17  1  0.615426  0.473733  0.300446  1
  Ga  Ga18  1  0.399166  0.198798  0.000033  1
  Ga  Ga19  1  0.602052  0.799077  0.997324  1
  Ga  Ga20  1  0.544230  0.285178  0.626322  1
  Ga  Ga21  1  0.456392  0.715668  0.372593  1
  Ga  Ga22  1  0.636274  0.935313  0.795423  1
  Ga  Ga23  1  0.361116  0.066874  0.206978  1
  Pt  Pt24  1  0.500549  0.499117  0.499921  1
  Pt  Pt25  1  0.030225  0.576034  0.369819  1
  Pt  Pt26  1  0.969386  0.424503  0.630793  1
  Pt  Pt27  1  0.142027  0.832983  0.887911  1
  Pt  Pt28  1  0.858164  0.165130  0.111560  1
  Pt  Pt29  1  0.242681  0.126862  0.390920  1
  Pt  Pt30  1  0.756581  0.872980  0.609603  1
  Pt  Pt31  1  0.345908  0.419727  0.892712  1
  Pt  Pt32  1  0.654118  0.580675  0.108029  1
  Pt  Pt33  1  0.508308  0.171453  0.814213  1
  Pt  Pt34  1  0.492417  0.831222  0.182732  1
