# generated using pymatgen
data_Rb4Sc6GeBr18
_symmetry_space_group_name_H-M   'P 1'
_cell_length_a   10.78785210
_cell_length_b   11.04744381
_cell_length_c   11.16424900
_cell_angle_alpha   118.35055817
_cell_angle_beta   100.38771104
_cell_angle_gamma   104.17851763
_symmetry_Int_Tables_number   1
_chemical_formula_structural   Rb4Sc6GeBr18
_chemical_formula_sum   'Rb4 Sc6 Ge1 Br18'
_cell_volume   1064.46917649
_cell_formula_units_Z   1
loop_
 _symmetry_equiv_pos_site_id
 _symmetry_equiv_pos_as_xyz
  1  'x, y, z'
loop_
 _atom_site_type_symbol
 _atom_site_label
 _atom_site_symmetry_multiplicity
 _atom_site_fract_x
 _atom_site_fract_y
 _atom_site_fract_z
 _atom_site_occupancy
  Rb  Rb0  1  0.660251  0.537978  0.230595  1
  Rb  Rb1  1  0.339749  0.462022  0.769405  1
  Rb  Rb2  1  0.698072  0.230202  0.566879  1
  Rb  Rb3  1  0.301928  0.769798  0.433121  1
  Sc  Sc4  1  0.168087  0.062668  0.254348  1
  Sc  Sc5  1  0.831913  0.937332  0.745652  1
  Sc  Sc6  1  0.845105  0.137705  0.144817  1
  Sc  Sc7  1  0.154895  0.862295  0.855183  1
  Sc  Sc8  1  0.161911  0.263945  0.049892  1
  Sc  Sc9  1  0.838089  0.736055  0.950108  1
  Ge  Ge10  1  0.000000  0.000000  0.000000  1
  Br  Br11  1  0.009178  0.397936  0.191040  1
  Br  Br12  1  0.990822  0.602064  0.808960  1
  Br  Br13  1  0.324292  0.325782  0.303125  1
  Br  Br14  1  0.675708  0.674218  0.696875  1
  Br  Br15  1  0.324435  0.520778  0.101512  1
  Br  Br16  1  0.675565  0.479222  0.898488  1
  Br  Br17  1  0.004692  0.801047  0.203699  1
  Br  Br18  1  0.995308  0.198953  0.796301  1
  Br  Br19  1  0.700920  0.269628  0.283174  1
  Br  Br20  1  0.299080  0.730372  0.716826  1
  Br  Br21  1  0.310953  0.126767  0.908127  1
  Br  Br22  1  0.689047  0.873233  0.091873  1
  Br  Br23  1  0.015802  0.198062  0.395885  1
  Br  Br24  1  0.984198  0.801938  0.604115  1
  Br  Br25  1  0.314334  0.926545  0.108858  1
  Br  Br26  1  0.685666  0.073455  0.891142  1
  Br  Br27  1  0.336512  0.122852  0.500119  1
  Br  Br28  1  0.663488  0.877148  0.499881  1
