# generated using pymatgen
data_Li4GdEr3O8
_symmetry_space_group_name_H-M   'P 1'
_cell_length_a   3.37660300
_cell_length_b   5.29923241
_cell_length_c   11.18972015
_cell_angle_alpha   90.20528429
_cell_angle_beta   90.00000000
_cell_angle_gamma   90.00000000
_symmetry_Int_Tables_number   1
_chemical_formula_structural   Li4GdEr3O8
_chemical_formula_sum   'Li4 Gd1 Er3 O8'
_cell_volume   200.22089882
_cell_formula_units_Z   1
loop_
 _symmetry_equiv_pos_site_id
 _symmetry_equiv_pos_as_xyz
  1  'x, y, z'
loop_
 _atom_site_type_symbol
 _atom_site_label
 _atom_site_symmetry_multiplicity
 _atom_site_fract_x
 _atom_site_fract_y
 _atom_site_fract_z
 _atom_site_occupancy
  Li  Li0  1  0.750000  0.402937  0.065028  1
  Li  Li1  1  0.250000  0.901761  0.435350  1
  Li  Li2  1  0.750000  0.096569  0.567803  1
  Li  Li3  1  0.250000  0.597533  0.930449  1
  Gd  Gd4  1  0.250000  0.952206  0.141385  1
  Er  Er5  1  0.250000  0.544401  0.641255  1
  Er  Er6  1  0.750000  0.454318  0.362748  1
  Er  Er7  1  0.750000  0.045453  0.857801  1
  O  O8  1  0.250000  0.241477  0.969793  1
  O  O9  1  0.250000  0.258380  0.474118  1
  O  O10  1  0.750000  0.756365  0.022393  1
  O  O11  1  0.750000  0.738976  0.528483  1
  O  O12  1  0.250000  0.810386  0.791827  1
  O  O13  1  0.750000  0.201269  0.207052  1
  O  O14  1  0.750000  0.309525  0.706268  1
  O  O15  1  0.250000  0.688446  0.298248  1
