# generated using pymatgen
data_K3YbNpO6
_symmetry_space_group_name_H-M   'P 1'
_cell_length_a   7.32737671
_cell_length_b   7.32718764
_cell_length_c   7.32752800
_cell_angle_alpha   93.73348888
_cell_angle_beta   93.73505365
_cell_angle_gamma   93.73119554
_symmetry_Int_Tables_number   1
_chemical_formula_structural   K3YbNpO6
_chemical_formula_sum   'K6 Yb2 Np2 O12'
_cell_volume   390.78903293
_cell_formula_units_Z   2
loop_
 _symmetry_equiv_pos_site_id
 _symmetry_equiv_pos_as_xyz
  1  'x, y, z'
loop_
 _atom_site_type_symbol
 _atom_site_label
 _atom_site_symmetry_multiplicity
 _atom_site_fract_x
 _atom_site_fract_y
 _atom_site_fract_z
 _atom_site_occupancy
  K  K0  1  0.750046  0.398278  0.101786  1
  K  K1  1  0.601733  0.898216  0.249948  1
  K  K2  1  0.101778  0.750065  0.398277  1
  K  K3  1  0.898222  0.249936  0.601723  1
  K  K4  1  0.398267  0.101784  0.750052  1
  K  K5  1  0.249954  0.601723  0.898214  1
  Yb  Yb6  1  0.249883  0.249892  0.249887  1
  Yb  Yb7  1  0.750117  0.750108  0.750113  1
  Np  Np8  1  0.000000  0.000000  0.000000  1
  Np  Np9  1  0.500000  0.500000  0.500000  1
  O  O10  1  0.911947  0.736141  0.032810  1
  O  O11  1  0.263861  0.967186  0.088058  1
  O  O12  1  0.412004  0.532933  0.236083  1
  O  O13  1  0.967193  0.088062  0.263849  1
  O  O14  1  0.532934  0.236073  0.412008  1
  O  O15  1  0.763913  0.587991  0.467072  1
  O  O16  1  0.236087  0.412008  0.532928  1
  O  O17  1  0.467065  0.763926  0.587992  1
  O  O18  1  0.032806  0.911937  0.736150  1
  O  O19  1  0.587996  0.467067  0.763917  1
  O  O20  1  0.736139  0.032814  0.911942  1
  O  O21  1  0.088053  0.263858  0.967189  1
