# generated using pymatgen
data_CaEu3(NiH4)3
_symmetry_space_group_name_H-M   'P 1'
_cell_length_a   6.24139620
_cell_length_b   6.24139721
_cell_length_c   6.24139608
_cell_angle_alpha   109.34084001
_cell_angle_beta   109.34084451
_cell_angle_gamma   109.34083890
_symmetry_Int_Tables_number   1
_chemical_formula_structural   CaEu3(NiH4)3
_chemical_formula_sum   'Ca1 Eu3 Ni3 H12'
_cell_volume   188.06252736
_cell_formula_units_Z   1
loop_
 _symmetry_equiv_pos_site_id
 _symmetry_equiv_pos_as_xyz
  1  'x, y, z'
loop_
 _atom_site_type_symbol
 _atom_site_label
 _atom_site_symmetry_multiplicity
 _atom_site_fract_x
 _atom_site_fract_y
 _atom_site_fract_z
 _atom_site_occupancy
  Ca  Ca0  1  0.500000  0.500000  0.500000  1
  Eu  Eu1  1  0.000000  0.000000  0.500000  1
  Eu  Eu2  1  0.000000  0.500000  0.000000  1
  Eu  Eu3  1  0.500000  0.000000  0.000000  1
  Ni  Ni4  1  0.000000  0.500000  0.500000  1
  Ni  Ni5  1  0.500000  0.500000  0.000000  1
  Ni  Ni6  1  0.500000  0.000000  0.500000  1
  H  H7  1  0.723612  0.723612  0.999955  1
  H  H8  1  0.276388  0.000045  0.276388  1
  H  H9  1  0.000045  0.276388  0.276388  1
  H  H10  1  0.276388  0.276388  0.000045  1
  H  H11  1  0.723612  0.999955  0.723612  1
  H  H12  1  0.999955  0.723612  0.723612  1
  H  H13  1  0.750019  0.249981  0.500000  1
  H  H14  1  0.750019  0.500000  0.249981  1
  H  H15  1  0.500000  0.249981  0.750019  1
  H  H16  1  0.249981  0.500000  0.750019  1
  H  H17  1  0.249981  0.750019  0.500000  1
  H  H18  1  0.500000  0.750019  0.249981  1
