# generated using pymatgen
data_Sm(NbCl3)6
_symmetry_space_group_name_H-M   'P 1'
_cell_length_a   10.23816581
_cell_length_b   10.23816583
_cell_length_c   10.23816609
_cell_angle_alpha   55.89421330
_cell_angle_beta   55.89421561
_cell_angle_gamma   55.89421613
_symmetry_Int_Tables_number   1
_chemical_formula_structural   Sm(NbCl3)6
_chemical_formula_sum   'Sm1 Nb6 Cl18'
_cell_volume   686.62760442
_cell_formula_units_Z   1
loop_
 _symmetry_equiv_pos_site_id
 _symmetry_equiv_pos_as_xyz
  1  'x, y, z'
loop_
 _atom_site_type_symbol
 _atom_site_label
 _atom_site_symmetry_multiplicity
 _atom_site_fract_x
 _atom_site_fract_y
 _atom_site_fract_z
 _atom_site_occupancy
  Sm  Sm0  1  0.000000  0.000000  0.000000  1
  Nb  Nb1  1  0.409071  0.299698  0.649819  1
  Nb  Nb2  1  0.350181  0.590929  0.700302  1
  Nb  Nb3  1  0.700302  0.350181  0.590929  1
  Nb  Nb4  1  0.299698  0.649819  0.409071  1
  Nb  Nb5  1  0.649819  0.409071  0.299698  1
  Nb  Nb6  1  0.590929  0.700302  0.350181  1
  Cl  Cl7  1  0.568798  0.163387  0.441391  1
  Cl  Cl8  1  0.225375  0.370425  0.906489  1
  Cl  Cl9  1  0.906489  0.225375  0.370425  1
  Cl  Cl10  1  0.370425  0.906489  0.225375  1
  Cl  Cl11  1  0.774625  0.629575  0.093511  1
  Cl  Cl12  1  0.093511  0.774625  0.629575  1
  Cl  Cl13  1  0.698339  0.957103  0.162722  1
  Cl  Cl14  1  0.957103  0.162722  0.698339  1
  Cl  Cl15  1  0.162722  0.698339  0.957103  1
  Cl  Cl16  1  0.301661  0.042897  0.837278  1
  Cl  Cl17  1  0.042897  0.837278  0.301661  1
  Cl  Cl18  1  0.837278  0.301661  0.042897  1
  Cl  Cl19  1  0.558609  0.431202  0.836613  1
  Cl  Cl20  1  0.163387  0.441391  0.568798  1
  Cl  Cl21  1  0.441391  0.568798  0.163387  1
  Cl  Cl22  1  0.431202  0.836613  0.558609  1
  Cl  Cl23  1  0.836613  0.558609  0.431202  1
  Cl  Cl24  1  0.629575  0.093511  0.774625  1
