# generated using pymatgen
data_Tb3Ho(Ga5Co3)2
_symmetry_space_group_name_H-M   'P 1'
_cell_length_a   5.52207868
_cell_length_b   8.33113510
_cell_length_c   8.33177623
_cell_angle_alpha   96.46350609
_cell_angle_beta   109.38463593
_cell_angle_gamma   109.38289398
_symmetry_Int_Tables_number   1
_chemical_formula_structural   Tb3Ho(Ga5Co3)2
_chemical_formula_sum   'Tb3 Ho1 Ga10 Co6'
_cell_volume   330.22574647
_cell_formula_units_Z   1
loop_
 _symmetry_equiv_pos_site_id
 _symmetry_equiv_pos_as_xyz
  1  'x, y, z'
loop_
 _atom_site_type_symbol
 _atom_site_label
 _atom_site_symmetry_multiplicity
 _atom_site_fract_x
 _atom_site_fract_y
 _atom_site_fract_z
 _atom_site_occupancy
  Tb  Tb0  1  0.777497  0.419935  0.132296  1
  Tb  Tb1  1  0.722516  0.867814  0.579995  1
  Tb  Tb2  1  0.222513  0.580101  0.867687  1
  Ho  Ho3  1  0.277630  0.132328  0.420109  1
  Ga  Ga4  1  0.819435  0.736827  0.904427  1
  Ga  Ga5  1  0.680782  0.095712  0.263477  1
  Ga  Ga6  1  0.180618  0.262973  0.095889  1
  Ga  Ga7  1  0.319524  0.904503  0.736931  1
  Ga  Ga8  1  0.749812  0.204123  0.795627  1
  Ga  Ga9  1  0.249990  0.796186  0.204298  1
  Ga  Ga10  1  0.749648  0.500143  0.499448  1
  Ga  Ga11  1  0.249951  0.499227  0.500365  1
  Ga  Ga12  1  0.750483  0.795483  0.204989  1
  Ga  Ga13  1  0.249939  0.204812  0.794929  1
  Co  Co14  1  0.585886  0.435267  0.734369  1
  Co  Co15  1  0.913449  0.264958  0.564137  1
  Co  Co16  1  0.413755  0.564475  0.265159  1
  Co  Co17  1  0.086412  0.735000  0.435687  1
  Co  Co18  1  0.750125  0.000092  0.000065  1
  Co  Co19  1  0.250034  0.000041  0.000116  1
