# generated using pymatgen
data_Ho4TaOs6W
_symmetry_space_group_name_H-M   'P 1'
_cell_length_a   5.25402963
_cell_length_b   5.25402799
_cell_length_c   9.01197900
_cell_angle_alpha   90.00000000
_cell_angle_beta   90.00000000
_cell_angle_gamma   115.63977520
_symmetry_Int_Tables_number   1
_chemical_formula_structural   Ho4TaOs6W
_chemical_formula_sum   'Ho4 Ta1 Os6 W1'
_cell_volume   224.27785153
_cell_formula_units_Z   1
loop_
 _symmetry_equiv_pos_site_id
 _symmetry_equiv_pos_as_xyz
  1  'x, y, z'
loop_
 _atom_site_type_symbol
 _atom_site_label
 _atom_site_symmetry_multiplicity
 _atom_site_fract_x
 _atom_site_fract_y
 _atom_site_fract_z
 _atom_site_occupancy
  Ho  Ho0  1  0.329413  0.670587  0.437170  1
  Ho  Ho1  1  0.669431  0.330569  0.566527  1
  Ho  Ho2  1  0.669431  0.330569  0.933473  1
  Ho  Ho3  1  0.329413  0.670587  0.062830  1
  Ta  Ta4  1  0.841832  0.158168  0.250000  1
  Os  Os5  1  0.002759  0.997241  0.503105  1
  Os  Os6  1  0.002759  0.997241  0.996895  1
  Os  Os7  1  0.823069  0.647424  0.250000  1
  Os  Os8  1  0.352576  0.176931  0.250000  1
  Os  Os9  1  0.172518  0.353218  0.750000  1
  Os  Os10  1  0.646782  0.827482  0.750000  1
  W  W11  1  0.160016  0.839984  0.750000  1
