# generated using pymatgen
data_Sc3MnAl7Si5Ru2
_symmetry_space_group_name_H-M   'P 1'
_cell_length_a   8.41564973
_cell_length_b   8.41564953
_cell_length_c   9.02659713
_cell_angle_alpha   89.91774130
_cell_angle_beta   90.08225685
_cell_angle_gamma   120.10577364
_symmetry_Int_Tables_number   1
_chemical_formula_structural   Sc3MnAl7Si5Ru2
_chemical_formula_sum   'Sc6 Mn2 Al14 Si10 Ru4'
_cell_volume   553.05141683
_cell_formula_units_Z   2
loop_
 _symmetry_equiv_pos_site_id
 _symmetry_equiv_pos_as_xyz
  1  'x, y, z'
loop_
 _atom_site_type_symbol
 _atom_site_label
 _atom_site_symmetry_multiplicity
 _atom_site_fract_x
 _atom_site_fract_y
 _atom_site_fract_z
 _atom_site_occupancy
  Sc  Sc0  1  0.199110  0.800890  0.247415  1
  Sc  Sc1  1  0.196492  0.398357  0.246800  1
  Sc  Sc2  1  0.601643  0.803508  0.246800  1
  Sc  Sc3  1  0.800890  0.199110  0.752585  1
  Sc  Sc4  1  0.803508  0.601643  0.753200  1
  Sc  Sc5  1  0.398357  0.196492  0.753200  1
  Mn  Mn6  1  0.500000  0.000000  0.000000  1
  Mn  Mn7  1  0.000000  0.500000  0.000000  1
  Al  Al8  1  0.161966  0.838034  0.921635  1
  Al  Al9  1  0.157112  0.321086  0.921161  1
  Al  Al10  1  0.678914  0.842888  0.921161  1
  Al  Al11  1  0.838034  0.161966  0.078365  1
  Al  Al12  1  0.842888  0.678914  0.078839  1
  Al  Al13  1  0.321086  0.157112  0.078839  1
  Al  Al14  1  0.840311  0.159689  0.418538  1
  Al  Al15  1  0.841089  0.681816  0.419251  1
  Al  Al16  1  0.318184  0.158911  0.419251  1
  Al  Al17  1  0.159689  0.840311  0.581462  1
  Al  Al18  1  0.158911  0.318184  0.580749  1
  Al  Al19  1  0.681816  0.841089  0.580749  1
  Al  Al20  1  0.000163  0.999837  0.249559  1
  Al  Al21  1  0.999837  0.000163  0.750441  1
  Si  Si22  1  0.565570  0.434430  0.249767  1
  Si  Si23  1  0.562510  0.125708  0.243825  1
  Si  Si24  1  0.874292  0.437490  0.243825  1
  Si  Si25  1  0.434430  0.565570  0.750233  1
  Si  Si26  1  0.437490  0.874292  0.756175  1
  Si  Si27  1  0.125708  0.562510  0.756175  1
  Si  Si28  1  0.333310  0.666690  0.452737  1
  Si  Si29  1  0.666690  0.333310  0.547263  1
  Si  Si30  1  0.670355  0.329645  0.958862  1
  Si  Si31  1  0.329645  0.670355  0.041138  1
  Ru  Ru32  1  0.500000  0.500000  0.500000  1
  Ru  Ru33  1  0.500000  0.000000  0.500000  1
  Ru  Ru34  1  0.000000  0.500000  0.500000  1
  Ru  Ru35  1  0.500000  0.500000  0.000000  1
