# generated using pymatgen
data_Ti6Re5Si5GeRu
_symmetry_space_group_name_H-M   'P 1'
_cell_length_a   7.55958527
_cell_length_b   7.55912186
_cell_length_c   7.55993914
_cell_angle_alpha   126.31750494
_cell_angle_beta   129.13619806
_cell_angle_gamma   77.09327601
_symmetry_Int_Tables_number   1
_chemical_formula_structural   Ti6Re5Si5GeRu
_chemical_formula_sum   'Ti6 Re5 Si5 Ge1 Ru1'
_cell_volume   262.05233499
_cell_formula_units_Z   1
loop_
 _symmetry_equiv_pos_site_id
 _symmetry_equiv_pos_as_xyz
  1  'x, y, z'
loop_
 _atom_site_type_symbol
 _atom_site_label
 _atom_site_symmetry_multiplicity
 _atom_site_fract_x
 _atom_site_fract_y
 _atom_site_fract_z
 _atom_site_occupancy
  Ti  Ti0  1  0.551942  0.086008  0.038708  1
  Ti  Ti1  1  0.451000  0.499851  0.554890  1
  Ti  Ti2  1  0.944938  0.499813  0.048682  1
  Ti  Ti3  1  0.047133  0.086045  0.533955  1
  Ti  Ti4  1  0.752691  0.904679  0.653508  1
  Ti  Ti5  1  0.251027  0.904704  0.152024  1
  Re  Re6  1  0.499730  0.235372  0.735546  1
  Re  Re7  1  0.998417  0.235696  0.237354  1
  Re  Re8  1  0.131105  0.752936  0.622065  1
  Re  Re9  1  0.868301  0.496982  0.628609  1
  Re  Re10  1  0.630670  0.756869  0.126420  1
  Si  Si11  1  0.746062  0.496579  0.248362  1
  Si  Si12  1  0.248264  0.496647  0.750778  1
  Si  Si13  1  0.333877  0.825834  0.491970  1
  Si  Si14  1  0.668022  0.164990  0.496792  1
  Si  Si15  1  0.834370  0.828081  0.993575  1
  Ge  Ge16  1  0.170363  0.168569  0.998214  1
  Ru  Ru17  1  0.372085  0.502345  0.130549  1
