# generated using pymatgen
data_Ta7V3(Si3H)2
_symmetry_space_group_name_H-M   'P 1'
_cell_length_a   5.06936400
_cell_length_b   7.43384205
_cell_length_c   7.43396901
_cell_angle_alpha   120.00290655
_cell_angle_beta   90.00126903
_cell_angle_gamma   89.99972664
_symmetry_Int_Tables_number   1
_chemical_formula_structural   Ta7V3(Si3H)2
_chemical_formula_sum   'Ta7 V3 Si6 H2'
_cell_volume   242.60819280
_cell_formula_units_Z   1
loop_
 _symmetry_equiv_pos_site_id
 _symmetry_equiv_pos_as_xyz
  1  'x, y, z'
loop_
 _atom_site_type_symbol
 _atom_site_label
 _atom_site_symmetry_multiplicity
 _atom_site_fract_x
 _atom_site_fract_y
 _atom_site_fract_z
 _atom_site_occupancy
  Ta  Ta0  1  0.499977  0.333330  0.666675  1
  Ta  Ta1  1  0.747594  0.243169  0.999142  1
  Ta  Ta2  1  0.747589  0.755996  0.756808  1
  Ta  Ta3  1  0.747583  0.000850  0.244016  1
  Ta  Ta4  1  0.252407  0.755962  0.999112  1
  Ta  Ta5  1  0.252403  0.243127  0.244061  1
  Ta  Ta6  1  0.252409  0.000905  0.756863  1
  V  V7  1  0.500058  0.666649  0.333313  1
  V  V8  1  0.999986  0.666684  0.333349  1
  V  V9  1  0.999996  0.333314  0.666655  1
  Si  Si10  1  0.759507  0.599448  0.005327  1
  Si  Si11  1  0.759497  0.405880  0.400560  1
  Si  Si12  1  0.759497  0.994683  0.594103  1
  Si  Si13  1  0.240497  0.405893  0.005343  1
  Si  Si14  1  0.240508  0.599462  0.594106  1
  Si  Si15  1  0.240502  0.994649  0.400567  1
  H  H16  1  0.499991  0.000000  0.000001  1
  H  H17  1  0.000004  0.999999  0.999999  1
