# generated using pymatgen
data_Sc12Ga(MoI8)2
_symmetry_space_group_name_H-M   'P 1'
_cell_length_a   9.13575723
_cell_length_b   12.16608973
_cell_length_c   12.90240021
_cell_angle_alpha   116.63024256
_cell_angle_beta   101.21610973
_cell_angle_gamma   100.31727063
_symmetry_Int_Tables_number   1
_chemical_formula_structural   Sc12Ga(MoI8)2
_chemical_formula_sum   'Sc12 Ga1 Mo2 I16'
_cell_volume   1198.05802089
_cell_formula_units_Z   1
loop_
 _symmetry_equiv_pos_site_id
 _symmetry_equiv_pos_as_xyz
  1  'x, y, z'
loop_
 _atom_site_type_symbol
 _atom_site_label
 _atom_site_symmetry_multiplicity
 _atom_site_fract_x
 _atom_site_fract_y
 _atom_site_fract_z
 _atom_site_occupancy
  Sc  Sc0  1  0.099501  0.261279  0.352868  1
  Sc  Sc1  1  0.900499  0.738721  0.647132  1
  Sc  Sc2  1  0.765173  0.537926  0.326930  1
  Sc  Sc3  1  0.234827  0.462074  0.673070  1
  Sc  Sc4  1  0.293872  0.739303  0.645310  1
  Sc  Sc5  1  0.706128  0.260697  0.354690  1
  Sc  Sc6  1  0.159738  0.538364  0.325082  1
  Sc  Sc7  1  0.840262  0.461636  0.674918  1
  Sc  Sc8  1  0.412232  0.369289  0.291158  1
  Sc  Sc9  1  0.587768  0.630711  0.708842  1
  Sc  Sc10  1  0.461067  0.318724  0.518510  1
  Sc  Sc11  1  0.538933  0.681276  0.481490  1
  Ga  Ga12  1  0.000000  0.500000  0.500000  1
  Mo  Mo13  1  0.321420  0.500181  0.499490  1
  Mo  Mo14  1  0.678581  0.499819  0.500510  1
  I  I15  1  0.391056  0.734240  0.876368  1
  I  I16  1  0.608944  0.265760  0.123632  1
  I  I17  1  0.186168  0.959538  0.779540  1
  I  I18  1  0.813832  0.040462  0.220460  1
  I  I19  1  0.337815  0.100197  0.256216  1
  I  I20  1  0.662185  0.899803  0.743784  1
  I  I21  1  0.564034  0.434612  0.792660  1
  I  I22  1  0.435966  0.565388  0.207340  1
  I  I23  1  0.302754  0.825660  0.464032  1
  I  I24  1  0.697246  0.174340  0.535968  1
  I  I25  1  0.164762  0.175454  0.534618  1
  I  I26  1  0.835238  0.824546  0.465382  1
  I  I27  1  0.925201  0.576884  0.164743  1
  I  I28  1  0.074799  0.423116  0.835257  1
  I  I29  1  0.925499  0.734007  0.877906  1
  I  I30  1  0.074501  0.265993  0.122094  1
