# generated using pymatgen
data_Pr16Cd3HgIrPt3
_symmetry_space_group_name_H-M   'P 1'
_cell_length_a   10.08607051
_cell_length_b   10.05557082
_cell_length_c   10.05557079
_cell_angle_alpha   60.15220466
_cell_angle_beta   60.27698951
_cell_angle_gamma   60.27699287
_symmetry_Int_Tables_number   1
_chemical_formula_structural   Pr16Cd3HgIrPt3
_chemical_formula_sum   'Pr16 Cd3 Hg1 Ir1 Pt3'
_cell_volume   724.98216098
_cell_formula_units_Z   1
loop_
 _symmetry_equiv_pos_site_id
 _symmetry_equiv_pos_as_xyz
  1  'x, y, z'
loop_
 _atom_site_type_symbol
 _atom_site_label
 _atom_site_symmetry_multiplicity
 _atom_site_fract_x
 _atom_site_fract_y
 _atom_site_fract_z
 _atom_site_occupancy
  Pr  Pr0  1  0.351082  0.347015  0.347015  1
  Pr  Pr1  1  0.354161  0.349874  0.947892  1
  Pr  Pr2  1  0.354161  0.947892  0.349874  1
  Pr  Pr3  1  0.942352  0.353479  0.353479  1
  Pr  Pr4  1  0.807013  0.190012  0.190012  1
  Pr  Pr5  1  0.191861  0.807823  0.807823  1
  Pr  Pr6  1  0.191423  0.810393  0.190374  1
  Pr  Pr7  1  0.805602  0.189512  0.812734  1
  Pr  Pr8  1  0.191423  0.190374  0.810393  1
  Pr  Pr9  1  0.805602  0.812734  0.189512  1
  Pr  Pr10  1  0.940793  0.562143  0.562143  1
  Pr  Pr11  1  0.563083  0.937077  0.937077  1
  Pr  Pr12  1  0.564296  0.938810  0.561005  1
  Pr  Pr13  1  0.938296  0.560707  0.936593  1
  Pr  Pr14  1  0.564296  0.561005  0.938810  1
  Pr  Pr15  1  0.938296  0.936593  0.560707  1
  Cd  Cd16  1  0.579570  0.580203  0.258662  1
  Cd  Cd17  1  0.579570  0.258662  0.580203  1
  Cd  Cd18  1  0.259479  0.579653  0.579653  1
  Hg  Hg19  1  0.583724  0.584057  0.584057  1
  Ir  Ir20  1  0.571951  0.142052  0.142052  1
  Pt  Pt21  1  0.141477  0.145456  0.145456  1
  Pt  Pt22  1  0.140244  0.143013  0.571459  1
  Pt  Pt23  1  0.140244  0.571459  0.143013  1
