# generated using pymatgen
data_Ti(SCl6)2
_symmetry_space_group_name_H-M   'P 1'
_cell_length_a   8.38825926
_cell_length_b   8.38825885
_cell_length_c   8.38825852
_cell_angle_alpha   78.53658488
_cell_angle_beta   78.53658827
_cell_angle_gamma   78.53658015
_symmetry_Int_Tables_number   1
_chemical_formula_structural   Ti(SCl6)2
_chemical_formula_sum   'Ti1 S2 Cl12'
_cell_volume   559.06361912
_cell_formula_units_Z   1
loop_
 _symmetry_equiv_pos_site_id
 _symmetry_equiv_pos_as_xyz
  1  'x, y, z'
loop_
 _atom_site_type_symbol
 _atom_site_label
 _atom_site_symmetry_multiplicity
 _atom_site_fract_x
 _atom_site_fract_y
 _atom_site_fract_z
 _atom_site_occupancy
  Ti  Ti0  1  0.000000  0.000000  0.000000  1
  S  S1  1  0.208484  0.208484  0.208484  1
  S  S2  1  0.791516  0.791516  0.791516  1
  Cl  Cl3  1  0.835443  0.835443  0.539815  1
  Cl  Cl4  1  0.871854  0.185020  0.185020  1
  Cl  Cl5  1  0.185020  0.185020  0.871854  1
  Cl  Cl6  1  0.185020  0.871854  0.185020  1
  Cl  Cl7  1  0.814980  0.128146  0.814980  1
  Cl  Cl8  1  0.128146  0.814980  0.814980  1
  Cl  Cl9  1  0.814980  0.814980  0.128146  1
  Cl  Cl10  1  0.460185  0.164557  0.164557  1
  Cl  Cl11  1  0.164557  0.164557  0.460185  1
  Cl  Cl12  1  0.164557  0.460185  0.164557  1
  Cl  Cl13  1  0.835443  0.539815  0.835443  1
  Cl  Cl14  1  0.539815  0.835443  0.835443  1
