# generated using pymatgen
data_Y20Si12Se
_symmetry_space_group_name_H-M   'P 1'
_cell_length_a   14.79365400
_cell_length_b   6.42313903
_cell_length_c   8.49005401
_cell_angle_alpha   89.99285088
_cell_angle_beta   90.00006860
_cell_angle_gamma   89.99996667
_symmetry_Int_Tables_number   1
_chemical_formula_structural   Y20Si12Se
_chemical_formula_sum   'Y20 Si12 Se1'
_cell_volume   806.73932733
_cell_formula_units_Z   1
loop_
 _symmetry_equiv_pos_site_id
 _symmetry_equiv_pos_as_xyz
  1  'x, y, z'
loop_
 _atom_site_type_symbol
 _atom_site_label
 _atom_site_symmetry_multiplicity
 _atom_site_fract_x
 _atom_site_fract_y
 _atom_site_fract_z
 _atom_site_occupancy
  Y  Y0  1  0.668086  0.500001  0.499999  1
  Y  Y1  1  0.166927  0.500000  0.000000  1
  Y  Y2  1  0.833073  0.500000  0.000000  1
  Y  Y3  1  0.331914  0.499999  0.500001  1
  Y  Y4  1  0.829602  0.999999  0.999999  1
  Y  Y5  1  0.337844  0.999999  0.500000  1
  Y  Y6  1  0.662156  0.000001  0.500000  1
  Y  Y7  1  0.170398  0.000001  0.000001  1
  Y  Y8  1  0.500000  0.254841  0.756043  1
  Y  Y9  1  0.000000  0.237196  0.243315  1
  Y  Y10  1  0.620244  0.250240  0.122914  1
  Y  Y11  1  0.128176  0.235914  0.628694  1
  Y  Y12  1  0.871824  0.235913  0.628693  1
  Y  Y13  1  0.379755  0.250238  0.122915  1
  Y  Y14  1  0.000000  0.762804  0.756685  1
  Y  Y15  1  0.500000  0.745159  0.243957  1
  Y  Y16  1  0.871824  0.764086  0.371306  1
  Y  Y17  1  0.379756  0.749760  0.877086  1
  Y  Y18  1  0.620245  0.749762  0.877085  1
  Y  Y19  1  0.128176  0.764087  0.371307  1
  Si  Si20  1  0.000000  0.242742  0.894342  1
  Si  Si21  1  0.500000  0.257527  0.394895  1
  Si  Si22  1  0.801022  0.243971  0.302036  1
  Si  Si23  1  0.304628  0.249923  0.803852  1
  Si  Si24  1  0.695371  0.249922  0.803853  1
  Si  Si25  1  0.198978  0.243972  0.302036  1
  Si  Si26  1  0.500000  0.742473  0.605105  1
  Si  Si27  1  0.000000  0.757258  0.105658  1
  Si  Si28  1  0.695372  0.750077  0.196148  1
  Si  Si29  1  0.198978  0.756029  0.697964  1
  Si  Si30  1  0.801022  0.756028  0.697964  1
  Si  Si31  1  0.304629  0.750078  0.196147  1
  Se  Se32  1  0.000000  0.500000  0.500000  1
