# generated using pymatgen
data_Pr3Cd2CuHgPt2
_symmetry_space_group_name_H-M   'P 1'
_cell_length_a   7.93286600
_cell_length_b   7.90898188
_cell_length_c   3.88421900
_cell_angle_alpha   90.00000000
_cell_angle_beta   90.00000000
_cell_angle_gamma   120.09995535
_symmetry_Int_Tables_number   1
_chemical_formula_structural   Pr3Cd2CuHgPt2
_chemical_formula_sum   'Pr3 Cd2 Cu1 Hg1 Pt2'
_cell_volume   210.83695176
_cell_formula_units_Z   1
loop_
 _symmetry_equiv_pos_site_id
 _symmetry_equiv_pos_as_xyz
  1  'x, y, z'
loop_
 _atom_site_type_symbol
 _atom_site_label
 _atom_site_symmetry_multiplicity
 _atom_site_fract_x
 _atom_site_fract_y
 _atom_site_fract_z
 _atom_site_occupancy
  Pr  Pr0  1  0.419006  0.000000  0.500000  1
  Pr  Pr1  1  0.997329  0.411666  0.500000  1
  Pr  Pr2  1  0.585663  0.588334  0.500000  1
  Cd  Cd3  1  0.001661  0.755525  0.000000  1
  Cd  Cd4  1  0.246137  0.244475  0.000000  1
  Cu  Cu5  1  0.003091  0.000000  0.500000  1
  Hg  Hg6  1  0.755029  0.000000  0.000000  1
  Pt  Pt7  1  0.326859  0.661634  0.000000  1
  Pt  Pt8  1  0.665226  0.338366  0.000000  1
