# generated using pymatgen
data_Sm8Tm12Si15As
_symmetry_space_group_name_H-M   'P 1'
_cell_length_a   7.47147903
_cell_length_b   7.66803359
_cell_length_c   14.57658910
_cell_angle_alpha   89.92994058
_cell_angle_beta   87.42783709
_cell_angle_gamma   90.03744966
_symmetry_Int_Tables_number   1
_chemical_formula_structural   Sm8Tm12Si15As
_chemical_formula_sum   'Sm8 Tm12 Si15 As1'
_cell_volume   834.27319566
_cell_formula_units_Z   1
loop_
 _symmetry_equiv_pos_site_id
 _symmetry_equiv_pos_as_xyz
  1  'x, y, z'
loop_
 _atom_site_type_symbol
 _atom_site_label
 _atom_site_symmetry_multiplicity
 _atom_site_fract_x
 _atom_site_fract_y
 _atom_site_fract_z
 _atom_site_occupancy
  Sm  Sm0  1  0.019622  0.180682  0.099755  1
  Sm  Sm1  1  0.980868  0.820662  0.899677  1
  Sm  Sm2  1  0.481568  0.679678  0.900292  1
  Sm  Sm3  1  0.997421  0.820574  0.598236  1
  Sm  Sm4  1  0.519241  0.320850  0.099834  1
  Sm  Sm5  1  0.001011  0.178252  0.401446  1
  Sm  Sm6  1  0.502139  0.317426  0.400746  1
  Sm  Sm7  1  0.502771  0.681204  0.598797  1
  Tm  Tm8  1  0.168416  0.504992  0.748852  1
  Tm  Tm9  1  0.831252  0.495518  0.254434  1
  Tm  Tm10  1  0.329764  0.005144  0.253672  1
  Tm  Tm11  1  0.670482  0.995003  0.746802  1
  Tm  Tm12  1  0.349530  0.165912  0.622424  1
  Tm  Tm13  1  0.651589  0.832154  0.377924  1
  Tm  Tm14  1  0.150480  0.667257  0.380438  1
  Tm  Tm15  1  0.671712  0.822396  0.123364  1
  Tm  Tm16  1  0.846503  0.332743  0.619690  1
  Tm  Tm17  1  0.328098  0.177382  0.876060  1
  Tm  Tm18  1  0.828227  0.322182  0.876272  1
  Tm  Tm19  1  0.171390  0.678225  0.123114  1
  Si  Si20  1  0.042515  0.114880  0.750285  1
  Si  Si21  1  0.957265  0.886080  0.248646  1
  Si  Si22  1  0.455703  0.613720  0.248731  1
  Si  Si23  1  0.542757  0.386499  0.750650  1
  Si  Si24  1  0.287996  0.872794  0.751313  1
  Si  Si25  1  0.713602  0.125679  0.248170  1
  Si  Si26  1  0.213053  0.375463  0.248815  1
  Si  Si27  1  0.788351  0.625640  0.750936  1
  Si  Si28  1  0.800495  0.537599  0.456288  1
  Si  Si29  1  0.310417  0.961569  0.458396  1
  Si  Si30  1  0.851242  0.531947  0.039733  1
  Si  Si31  1  0.689170  0.037707  0.542475  1
  Si  Si32  1  0.148080  0.469223  0.959460  1
  Si  Si33  1  0.647804  0.031553  0.959368  1
  Si  Si34  1  0.351916  0.969538  0.040575  1
  As  As35  1  0.197551  0.461870  0.544331  1
