# generated using pymatgen
data_Sc4VCoOs6
_symmetry_space_group_name_H-M   'P 1'
_cell_length_a   5.23710301
_cell_length_b   5.07228757
_cell_length_c   8.59474100
_cell_angle_alpha   90.00000000
_cell_angle_beta   90.00000000
_cell_angle_gamma   121.07295808
_symmetry_Int_Tables_number   1
_chemical_formula_structural   Sc4VCoOs6
_chemical_formula_sum   'Sc4 V1 Co1 Os6'
_cell_volume   195.55125609
_cell_formula_units_Z   1
loop_
 _symmetry_equiv_pos_site_id
 _symmetry_equiv_pos_as_xyz
  1  'x, y, z'
loop_
 _atom_site_type_symbol
 _atom_site_label
 _atom_site_symmetry_multiplicity
 _atom_site_fract_x
 _atom_site_fract_y
 _atom_site_fract_z
 _atom_site_occupancy
  Sc  Sc0  1  0.328621  0.662428  0.432608  1
  Sc  Sc1  1  0.665981  0.334990  0.562343  1
  Sc  Sc2  1  0.665981  0.334990  0.937657  1
  Sc  Sc3  1  0.328621  0.662428  0.067392  1
  V  V4  1  0.172418  0.340609  0.750000  1
  Co  Co5  1  0.346101  0.171756  0.250000  1
  Os  Os6  1  0.173767  0.823527  0.750000  1
  Os  Os7  1  0.830311  0.658884  0.250000  1
  Os  Os8  1  0.658233  0.827355  0.750000  1
  Os  Os9  1  0.001002  0.004552  0.002423  1
  Os  Os10  1  0.827958  0.173931  0.250000  1
  Os  Os11  1  0.001002  0.004552  0.497577  1
