# generated using pymatgen
data_YHo4(Hg2Pt)2
_symmetry_space_group_name_H-M   'P 1'
_cell_length_a   3.64211500
_cell_length_b   7.92337200
_cell_length_c   18.21620400
_cell_angle_alpha   90.00000000
_cell_angle_beta   90.00000000
_cell_angle_gamma   90.00000000
_symmetry_Int_Tables_number   1
_chemical_formula_structural   YHo4(Hg2Pt)2
_chemical_formula_sum   'Y2 Ho8 Hg8 Pt4'
_cell_volume   525.68015492
_cell_formula_units_Z   2
loop_
 _symmetry_equiv_pos_site_id
 _symmetry_equiv_pos_as_xyz
  1  'x, y, z'
loop_
 _atom_site_type_symbol
 _atom_site_label
 _atom_site_symmetry_multiplicity
 _atom_site_fract_x
 _atom_site_fract_y
 _atom_site_fract_z
 _atom_site_occupancy
  Y  Y0  1  0.000000  0.000000  0.000000  1
  Y  Y1  1  0.000000  0.500000  0.500000  1
  Ho  Ho2  1  0.000000  0.114556  0.414318  1
  Ho  Ho3  1  0.000000  0.885444  0.585682  1
  Ho  Ho4  1  0.000000  0.385444  0.914318  1
  Ho  Ho5  1  0.000000  0.614556  0.085682  1
  Ho  Ho6  1  0.000000  0.240447  0.218181  1
  Ho  Ho7  1  0.000000  0.759553  0.781819  1
  Ho  Ho8  1  0.000000  0.259553  0.718181  1
  Ho  Ho9  1  0.000000  0.740447  0.281819  1
  Hg  Hg10  1  0.500000  0.424575  0.353554  1
  Hg  Hg11  1  0.500000  0.575425  0.646446  1
  Hg  Hg12  1  0.500000  0.075425  0.853554  1
  Hg  Hg13  1  0.500000  0.924575  0.146446  1
  Hg  Hg14  1  0.500000  0.290064  0.064556  1
  Hg  Hg15  1  0.500000  0.709936  0.935444  1
  Hg  Hg16  1  0.500000  0.209936  0.564556  1
  Hg  Hg17  1  0.500000  0.790064  0.435444  1
  Pt  Pt18  1  0.500000  0.027360  0.303932  1
  Pt  Pt19  1  0.500000  0.972640  0.696068  1
  Pt  Pt20  1  0.500000  0.472640  0.803932  1
  Pt  Pt21  1  0.500000  0.527360  0.196068  1
