# generated using pymatgen
data_Pr3Y2(Co2Sn5)2
_symmetry_space_group_name_H-M   'P 1'
_cell_length_a   13.95315700
_cell_length_b   13.95315700
_cell_length_c   4.52531700
_cell_angle_alpha   90.00000000
_cell_angle_beta   90.00000000
_cell_angle_gamma   90.00000000
_symmetry_Int_Tables_number   1
_chemical_formula_structural   Pr3Y2(Co2Sn5)2
_chemical_formula_sum   'Pr6 Y4 Co8 Sn20'
_cell_volume   881.03663787
_cell_formula_units_Z   2
loop_
 _symmetry_equiv_pos_site_id
 _symmetry_equiv_pos_as_xyz
  1  'x, y, z'
loop_
 _atom_site_type_symbol
 _atom_site_label
 _atom_site_symmetry_multiplicity
 _atom_site_fract_x
 _atom_site_fract_y
 _atom_site_fract_z
 _atom_site_occupancy
  Pr  Pr0  1  0.500000  0.500000  0.000000  1
  Pr  Pr1  1  0.000000  0.000000  0.000000  1
  Pr  Pr2  1  0.889431  0.389431  0.500000  1
  Pr  Pr3  1  0.110569  0.610569  0.500000  1
  Pr  Pr4  1  0.389431  0.110569  0.500000  1
  Pr  Pr5  1  0.610569  0.889431  0.500000  1
  Y  Y6  1  0.678327  0.178327  0.500000  1
  Y  Y7  1  0.321673  0.821673  0.500000  1
  Y  Y8  1  0.178327  0.321673  0.500000  1
  Y  Y9  1  0.821673  0.678327  0.500000  1
  Co  Co10  1  0.745661  0.532268  0.000000  1
  Co  Co11  1  0.254339  0.467732  0.000000  1
  Co  Co12  1  0.245661  0.967732  0.000000  1
  Co  Co13  1  0.754339  0.032268  0.000000  1
  Co  Co14  1  0.467732  0.745661  0.000000  1
  Co  Co15  1  0.532268  0.254339  0.000000  1
  Co  Co16  1  0.032268  0.245661  0.000000  1
  Co  Co17  1  0.967732  0.754339  0.000000  1
  Sn  Sn18  1  0.572490  0.072490  0.000000  1
  Sn  Sn19  1  0.427510  0.927510  0.000000  1
  Sn  Sn20  1  0.072490  0.427510  0.000000  1
  Sn  Sn21  1  0.927510  0.572490  0.000000  1
  Sn  Sn22  1  0.650664  0.697778  0.000000  1
  Sn  Sn23  1  0.349336  0.302222  0.000000  1
  Sn  Sn24  1  0.150664  0.802222  0.000000  1
  Sn  Sn25  1  0.849336  0.197778  0.000000  1
  Sn  Sn26  1  0.302222  0.650664  0.000000  1
  Sn  Sn27  1  0.697778  0.349336  0.000000  1
  Sn  Sn28  1  0.197778  0.150664  0.000000  1
  Sn  Sn29  1  0.802222  0.849336  0.000000  1
  Sn  Sn30  1  0.670144  0.509172  0.500000  1
  Sn  Sn31  1  0.329856  0.490828  0.500000  1
  Sn  Sn32  1  0.170144  0.990828  0.500000  1
  Sn  Sn33  1  0.829856  0.009172  0.500000  1
  Sn  Sn34  1  0.490828  0.670144  0.500000  1
  Sn  Sn35  1  0.509172  0.329856  0.500000  1
  Sn  Sn36  1  0.009172  0.170144  0.500000  1
  Sn  Sn37  1  0.990828  0.829856  0.500000  1
