# generated using pymatgen
data_Eu5CuHgPd
_symmetry_space_group_name_H-M   'P 1'
_cell_length_a   9.32638041
_cell_length_b   9.32637913
_cell_length_c   9.33328629
_cell_angle_alpha   128.37352815
_cell_angle_beta   128.37352250
_cell_angle_gamma   75.96642171
_symmetry_Int_Tables_number   1
_chemical_formula_structural   Eu5CuHgPd
_chemical_formula_sum   'Eu10 Cu2 Hg2 Pd2'
_cell_volume   485.29590998
_cell_formula_units_Z   2
loop_
 _symmetry_equiv_pos_site_id
 _symmetry_equiv_pos_as_xyz
  1  'x, y, z'
loop_
 _atom_site_type_symbol
 _atom_site_label
 _atom_site_symmetry_multiplicity
 _atom_site_fract_x
 _atom_site_fract_y
 _atom_site_fract_z
 _atom_site_occupancy
  Eu  Eu0  1  0.500000  0.500000  0.000000  1
  Eu  Eu1  1  0.000000  0.000000  0.000000  1
  Eu  Eu2  1  0.529458  0.029458  0.837070  1
  Eu  Eu3  1  0.192388  0.692388  0.162930  1
  Eu  Eu4  1  0.027774  0.194378  0.500000  1
  Eu  Eu5  1  0.694378  0.527774  0.500000  1
  Eu  Eu6  1  0.470542  0.970542  0.162930  1
  Eu  Eu7  1  0.807612  0.307612  0.837070  1
  Eu  Eu8  1  0.972226  0.805622  0.500000  1
  Eu  Eu9  1  0.305622  0.472226  0.500000  1
  Cu  Cu10  1  0.614948  0.885052  0.500000  1
  Cu  Cu11  1  0.385052  0.114948  0.500000  1
  Hg  Hg12  1  0.250000  0.250000  0.000000  1
  Hg  Hg13  1  0.750000  0.750000  0.000000  1
  Pd  Pd14  1  0.125470  0.625470  0.750937  1
  Pd  Pd15  1  0.874530  0.374530  0.249063  1
