# generated using pymatgen
data_Sm9Sc2Pa9Rh16
_symmetry_space_group_name_H-M   'P 1'
_cell_length_a   7.36976200
_cell_length_b   7.45254980
_cell_length_c   14.63030000
_cell_angle_alpha   90.00000000
_cell_angle_beta   90.00000000
_cell_angle_gamma   89.70199340
_symmetry_Int_Tables_number   1
_chemical_formula_structural   Sm9Sc2Pa9Rh16
_chemical_formula_sum   'Sm9 Sc2 Pa9 Rh16'
_cell_volume   803.53668162
_cell_formula_units_Z   1
loop_
 _symmetry_equiv_pos_site_id
 _symmetry_equiv_pos_as_xyz
  1  'x, y, z'
loop_
 _atom_site_type_symbol
 _atom_site_label
 _atom_site_symmetry_multiplicity
 _atom_site_fract_x
 _atom_site_fract_y
 _atom_site_fract_z
 _atom_site_occupancy
  Sm  Sm0  1  0.501057  0.673231  0.590109  1
  Sm  Sm1  1  0.001772  0.825954  0.912284  1
  Sm  Sm2  1  0.497210  0.324478  0.100928  1
  Sm  Sm3  1  0.996960  0.177803  0.399365  1
  Sm  Sm4  1  0.497210  0.324478  0.399072  1
  Sm  Sm5  1  0.996960  0.177803  0.100635  1
  Sm  Sm6  1  0.501057  0.673231  0.909891  1
  Sm  Sm7  1  0.001772  0.825954  0.587716  1
  Sm  Sm8  1  0.308855  0.967189  0.750000  1
  Sc  Sc9  1  0.185907  0.483553  0.250000  1
  Sc  Sc10  1  0.686212  0.017323  0.250000  1
  Pa  Pa11  1  0.653187  0.160869  0.617526  1
  Pa  Pa12  1  0.158534  0.334972  0.881838  1
  Pa  Pa13  1  0.346405  0.841142  0.123805  1
  Pa  Pa14  1  0.844762  0.659615  0.375380  1
  Pa  Pa15  1  0.346405  0.841142  0.376195  1
  Pa  Pa16  1  0.844762  0.659615  0.124620  1
  Pa  Pa17  1  0.653187  0.160869  0.882474  1
  Pa  Pa18  1  0.158534  0.334972  0.618162  1
  Pa  Pa19  1  0.808055  0.531384  0.750000  1
  Rh  Rh20  1  0.679379  0.949789  0.455456  1
  Rh  Rh21  1  0.176206  0.549573  0.046364  1
  Rh  Rh22  1  0.325167  0.054559  0.964536  1
  Rh  Rh23  1  0.826374  0.449949  0.540582  1
  Rh  Rh24  1  0.325167  0.054559  0.535464  1
  Rh  Rh25  1  0.826374  0.449949  0.959418  1
  Rh  Rh26  1  0.679379  0.949789  0.044544  1
  Rh  Rh27  1  0.176206  0.549573  0.453636  1
  Rh  Rh28  1  0.458459  0.362663  0.750000  1
  Rh  Rh29  1  0.936965  0.160725  0.750000  1
  Rh  Rh30  1  0.546975  0.647290  0.250000  1
  Rh  Rh31  1  0.047519  0.853454  0.250000  1
  Rh  Rh32  1  0.702512  0.861955  0.750000  1
  Rh  Rh33  1  0.161478  0.610518  0.750000  1
  Rh  Rh34  1  0.320924  0.119611  0.250000  1
  Rh  Rh35  1  0.822105  0.380473  0.250000  1
