# generated using pymatgen
data_Er5Th3(Nb3Si4)4
_symmetry_space_group_name_H-M   'P 1'
_cell_length_a   7.10080085
_cell_length_b   7.10055230
_cell_length_c   13.15979048
_cell_angle_alpha   89.87077040
_cell_angle_beta   90.01053548
_cell_angle_gamma   90.11882273
_symmetry_Int_Tables_number   1
_chemical_formula_structural   Er5Th3(Nb3Si4)4
_chemical_formula_sum   'Er5 Th3 Nb12 Si16'
_cell_volume   663.50834941
_cell_formula_units_Z   1
loop_
 _symmetry_equiv_pos_site_id
 _symmetry_equiv_pos_as_xyz
  1  'x, y, z'
loop_
 _atom_site_type_symbol
 _atom_site_label
 _atom_site_symmetry_multiplicity
 _atom_site_fract_x
 _atom_site_fract_y
 _atom_site_fract_z
 _atom_site_occupancy
  Er  Er0  1  0.999205  0.342656  0.215872  1
  Er  Er1  1  0.999594  0.658231  0.718583  1
  Er  Er2  1  0.158007  0.500425  0.466939  1
  Er  Er3  1  0.499685  0.841297  0.032327  1
  Er  Er4  1  0.840959  0.500255  0.968150  1
  Th  Th5  1  0.497031  0.161158  0.532466  1
  Th  Th6  1  0.339637  0.996085  0.782909  1
  Th  Th7  1  0.660709  0.003975  0.281806  1
  Nb  Nb8  1  0.169137  0.170766  0.999218  1
  Nb  Nb9  1  0.829347  0.830541  0.499347  1
  Nb  Nb10  1  0.329953  0.670874  0.248825  1
  Nb  Nb11  1  0.669074  0.329228  0.751112  1
  Nb  Nb12  1  0.155739  0.991154  0.374157  1
  Nb  Nb13  1  0.846495  0.006652  0.876592  1
  Nb  Nb14  1  0.508906  0.654742  0.626444  1
  Nb  Nb15  1  0.345831  0.494806  0.876038  1
  Nb  Nb16  1  0.492141  0.346162  0.125218  1
  Nb  Nb17  1  0.655682  0.503054  0.373811  1
  Nb  Nb18  1  0.997998  0.156279  0.625260  1
  Nb  Nb19  1  0.003411  0.845059  0.124623  1
  Si  Si20  1  0.286945  0.045471  0.183315  1
  Si  Si21  1  0.716738  0.952318  0.687522  1
  Si  Si22  1  0.452425  0.783523  0.436565  1
  Si  Si23  1  0.204824  0.543738  0.063540  1
  Si  Si24  1  0.547197  0.208906  0.939005  1
  Si  Si25  1  0.798849  0.460090  0.564202  1
  Si  Si26  1  0.039362  0.299196  0.814580  1
  Si  Si27  1  0.958147  0.701218  0.312876  1
  Si  Si28  1  0.361365  0.300690  0.314880  1
  Si  Si29  1  0.637357  0.700203  0.818591  1
  Si  Si30  1  0.198862  0.862113  0.565764  1
  Si  Si31  1  0.127902  0.791381  0.935546  1
  Si  Si32  1  0.797634  0.134342  0.065787  1
  Si  Si33  1  0.878476  0.208323  0.433683  1
  Si  Si34  1  0.290804  0.377650  0.684404  1
  Si  Si35  1  0.704574  0.627440  0.180047  1
