# generated using pymatgen
data_Nb8CdSbS16
_symmetry_space_group_name_H-M   'P 1'
_cell_length_a   6.75627900
_cell_length_b   6.75627990
_cell_length_c   13.68236500
_cell_angle_alpha   90.00000000
_cell_angle_beta   90.00000000
_cell_angle_gamma   120.00000049
_symmetry_Int_Tables_number   1
_chemical_formula_structural   Nb8CdSbS16
_chemical_formula_sum   'Nb8 Cd1 Sb1 S16'
_cell_volume   540.88758110
_cell_formula_units_Z   1
loop_
 _symmetry_equiv_pos_site_id
 _symmetry_equiv_pos_as_xyz
  1  'x, y, z'
loop_
 _atom_site_type_symbol
 _atom_site_label
 _atom_site_symmetry_multiplicity
 _atom_site_fract_x
 _atom_site_fract_y
 _atom_site_fract_z
 _atom_site_occupancy
  Nb  Nb0  1  0.989073  0.494537  0.256167  1
  Nb  Nb1  1  0.010927  0.505463  0.743833  1
  Nb  Nb2  1  0.494537  0.505463  0.743833  1
  Nb  Nb3  1  0.505463  0.010927  0.256167  1
  Nb  Nb4  1  0.000000  0.000000  0.742381  1
  Nb  Nb5  1  0.000000  0.000000  0.257619  1
  Nb  Nb6  1  0.505463  0.494537  0.256167  1
  Nb  Nb7  1  0.494537  0.989073  0.743833  1
  Cd  Cd8  1  0.000000  0.000000  0.500000  1
  Sb  Sb9  1  0.000000  0.000000  0.000000  1
  S  S10  1  0.333333  0.666667  0.627184  1
  S  S11  1  0.666667  0.333333  0.139580  1
  S  S12  1  0.666667  0.333333  0.372816  1
  S  S13  1  0.333333  0.666667  0.860420  1
  S  S14  1  0.170208  0.340416  0.369451  1
  S  S15  1  0.832812  0.167188  0.856934  1
  S  S16  1  0.334375  0.167188  0.856934  1
  S  S17  1  0.659584  0.829792  0.369451  1
  S  S18  1  0.170208  0.829792  0.369451  1
  S  S19  1  0.832812  0.665625  0.856934  1
  S  S20  1  0.167188  0.334375  0.143066  1
  S  S21  1  0.829792  0.170208  0.630549  1
  S  S22  1  0.340416  0.170208  0.630549  1
  S  S23  1  0.665625  0.832812  0.143066  1
  S  S24  1  0.167188  0.832812  0.143066  1
  S  S25  1  0.829792  0.659584  0.630549  1
