# generated using pymatgen
data_ErFe3B4Os
_symmetry_space_group_name_H-M   'P 1'
_cell_length_a   6.97174258
_cell_length_b   7.20650224
_cell_length_c   3.89071100
_cell_angle_alpha   90.00000000
_cell_angle_beta   90.00000000
_cell_angle_gamma   91.83094949
_symmetry_Int_Tables_number   1
_chemical_formula_structural   ErFe3B4Os
_chemical_formula_sum   'Er2 Fe6 B8 Os2'
_cell_volume   195.37682833
_cell_formula_units_Z   2
loop_
 _symmetry_equiv_pos_site_id
 _symmetry_equiv_pos_as_xyz
  1  'x, y, z'
loop_
 _atom_site_type_symbol
 _atom_site_label
 _atom_site_symmetry_multiplicity
 _atom_site_fract_x
 _atom_site_fract_y
 _atom_site_fract_z
 _atom_site_occupancy
  Er  Er0  1  0.000000  0.000000  0.906663  1
  Er  Er1  1  0.500000  0.500000  0.406077  1
  Fe  Fe2  1  0.889010  0.347809  0.395082  1
  Fe  Fe3  1  0.110990  0.652191  0.395082  1
  Fe  Fe4  1  0.379476  0.114400  0.625507  1
  Fe  Fe5  1  0.620524  0.885600  0.625507  1
  Fe  Fe6  1  0.624220  0.121678  0.126921  1
  Fe  Fe7  1  0.375780  0.878322  0.126921  1
  B  B8  1  0.660785  0.819469  0.123570  1
  B  B9  1  0.339215  0.180531  0.123570  1
  B  B10  1  0.313537  0.832240  0.621217  1
  B  B11  1  0.686463  0.167760  0.621217  1
  B  B12  1  0.827873  0.729974  0.403392  1
  B  B13  1  0.172127  0.270026  0.403392  1
  B  B14  1  0.205759  0.673434  0.900509  1
  B  B15  1  0.794241  0.326566  0.900509  1
  Os  Os16  1  0.148537  0.386184  0.897432  1
  Os  Os17  1  0.851463  0.613816  0.897432  1
