# generated using pymatgen
data_Dy5Sn2(HgPt)2
_symmetry_space_group_name_H-M   'P 1'
_cell_length_a   3.66942800
_cell_length_b   8.05877100
_cell_length_c   18.10263100
_cell_angle_alpha   90.00000000
_cell_angle_beta   90.00000000
_cell_angle_gamma   90.00000000
_symmetry_Int_Tables_number   1
_chemical_formula_structural   Dy5Sn2(HgPt)2
_chemical_formula_sum   'Dy10 Sn4 Hg4 Pt4'
_cell_volume   535.31434866
_cell_formula_units_Z   2
loop_
 _symmetry_equiv_pos_site_id
 _symmetry_equiv_pos_as_xyz
  1  'x, y, z'
loop_
 _atom_site_type_symbol
 _atom_site_label
 _atom_site_symmetry_multiplicity
 _atom_site_fract_x
 _atom_site_fract_y
 _atom_site_fract_z
 _atom_site_occupancy
  Dy  Dy0  1  0.000000  0.112316  0.414620  1
  Dy  Dy1  1  0.000000  0.887684  0.585380  1
  Dy  Dy2  1  0.000000  0.387684  0.914620  1
  Dy  Dy3  1  0.000000  0.612316  0.085380  1
  Dy  Dy4  1  0.000000  0.242522  0.217315  1
  Dy  Dy5  1  0.000000  0.757478  0.782685  1
  Dy  Dy6  1  0.000000  0.257478  0.717315  1
  Dy  Dy7  1  0.000000  0.742522  0.282685  1
  Dy  Dy8  1  0.000000  0.000000  0.000000  1
  Dy  Dy9  1  0.000000  0.500000  0.500000  1
  Sn  Sn10  1  0.500000  0.422908  0.352893  1
  Sn  Sn11  1  0.500000  0.577092  0.647107  1
  Sn  Sn12  1  0.500000  0.077092  0.852893  1
  Sn  Sn13  1  0.500000  0.922908  0.147107  1
  Hg  Hg14  1  0.500000  0.292056  0.064100  1
  Hg  Hg15  1  0.500000  0.707944  0.935900  1
  Hg  Hg16  1  0.500000  0.207944  0.564100  1
  Hg  Hg17  1  0.500000  0.792056  0.435900  1
  Pt  Pt18  1  0.500000  0.026419  0.301877  1
  Pt  Pt19  1  0.500000  0.973581  0.698123  1
  Pt  Pt20  1  0.500000  0.473581  0.801877  1
  Pt  Pt21  1  0.500000  0.526419  0.198123  1
