# generated using pymatgen
data_Ba3SmEr2TmO9
_symmetry_space_group_name_H-M   'P 1'
_cell_length_a   9.21608064
_cell_length_b   9.21608067
_cell_length_c   9.21608107
_cell_angle_alpha   38.90163828
_cell_angle_beta   38.90163745
_cell_angle_gamma   38.90164179
_symmetry_Int_Tables_number   1
_chemical_formula_structural   Ba3SmEr2TmO9
_chemical_formula_sum   'Ba3 Sm1 Er2 Tm1 O9'
_cell_volume   277.56821509
_cell_formula_units_Z   1
loop_
 _symmetry_equiv_pos_site_id
 _symmetry_equiv_pos_as_xyz
  1  'x, y, z'
loop_
 _atom_site_type_symbol
 _atom_site_label
 _atom_site_symmetry_multiplicity
 _atom_site_fract_x
 _atom_site_fract_y
 _atom_site_fract_z
 _atom_site_occupancy
  Ba  Ba0  1  0.000783  0.000783  0.000783  1
  Ba  Ba1  1  0.833784  0.833784  0.833784  1
  Ba  Ba2  1  0.404511  0.404511  0.404511  1
  Sm  Sm3  1  0.574599  0.574599  0.574599  1
  Er  Er4  1  0.136196  0.136196  0.136196  1
  Er  Er5  1  0.261203  0.261203  0.261203  1
  Tm  Tm6  1  0.700932  0.700932  0.700932  1
  O  O7  1  0.512336  0.450094  0.971010  1
  O  O8  1  0.450094  0.971010  0.512336  1
  O  O9  1  0.971010  0.512336  0.450094  1
  O  O10  1  0.428016  0.273050  0.891369  1
  O  O11  1  0.273050  0.891369  0.428016  1
  O  O12  1  0.891369  0.428016  0.273050  1
  O  O13  1  0.973220  0.414568  0.864831  1
  O  O14  1  0.864831  0.973220  0.414568  1
  O  O15  1  0.414568  0.864831  0.973220  1
