# generated using pymatgen
data_Rb8In5Ga3(SnSe4)8
_symmetry_space_group_name_H-M   'P 1'
_cell_length_a   13.46340485
_cell_length_b   7.90427632
_cell_length_c   18.88358066
_cell_angle_alpha   83.04851633
_cell_angle_beta   89.94710354
_cell_angle_gamma   90.24082383
_symmetry_Int_Tables_number   1
_chemical_formula_structural   Rb8In5Ga3(SnSe4)8
_chemical_formula_sum   'Rb8 In5 Ga3 Sn8 Se32'
_cell_volume   1994.76979821
_cell_formula_units_Z   1
loop_
 _symmetry_equiv_pos_site_id
 _symmetry_equiv_pos_as_xyz
  1  'x, y, z'
loop_
 _atom_site_type_symbol
 _atom_site_label
 _atom_site_symmetry_multiplicity
 _atom_site_fract_x
 _atom_site_fract_y
 _atom_site_fract_z
 _atom_site_occupancy
  Rb  Rb0  1  0.436086  0.768539  0.328253  1
  Rb  Rb1  1  0.561849  0.234589  0.671257  1
  Rb  Rb2  1  0.939563  0.230622  0.170841  1
  Rb  Rb3  1  0.061905  0.766827  0.828882  1
  Rb  Rb4  1  0.603060  0.254508  0.046392  1
  Rb  Rb5  1  0.396007  0.747396  0.953749  1
  Rb  Rb6  1  0.103852  0.749861  0.454812  1
  Rb  Rb7  1  0.897168  0.250721  0.547240  1
  In  In8  1  0.759242  0.984136  0.343722  1
  In  In9  1  0.244256  0.010434  0.655939  1
  In  In10  1  0.256039  0.010812  0.155680  1
  In  In11  1  0.744601  0.989841  0.844278  1
  In  In12  1  0.755959  0.473659  0.356992  1
  Ga  Ga13  1  0.242055  0.520661  0.642512  1
  Ga  Ga14  1  0.257953  0.520808  0.142404  1
  Ga  Ga15  1  0.742198  0.479134  0.857665  1
  Sn  Sn16  1  0.700744  0.744882  0.178420  1
  Sn  Sn17  1  0.295485  0.258635  0.818834  1
  Sn  Sn18  1  0.204728  0.258141  0.319023  1
  Sn  Sn19  1  0.795981  0.742933  0.682037  1
  Sn  Sn20  1  0.816804  0.714795  0.014821  1
  Sn  Sn21  1  0.183563  0.286287  0.984458  1
  Sn  Sn22  1  0.317010  0.287217  0.484627  1
  Sn  Sn23  1  0.680734  0.714103  0.518269  1
  Se  Se24  1  0.166863  0.963820  0.282825  1
  Se  Se25  1  0.836173  0.036496  0.717950  1
  Se  Se26  1  0.666022  0.036355  0.217959  1
  Se  Se27  1  0.333765  0.964718  0.782842  1
  Se  Se28  1  0.877634  0.728372  0.346165  1
  Se  Se29  1  0.131278  0.277328  0.651842  1
  Se  Se30  1  0.368948  0.279498  0.151309  1
  Se  Se31  1  0.631624  0.721085  0.848316  1
  Se  Se32  1  0.630699  0.755607  0.048837  1
  Se  Se33  1  0.369035  0.253088  0.947492  1
  Se  Se34  1  0.131633  0.250930  0.448024  1
  Se  Se35  1  0.867391  0.746424  0.552780  1
  Se  Se36  1  0.620728  0.493932  0.255298  1
  Se  Se37  1  0.369685  0.506600  0.736822  1
  Se  Se38  1  0.130786  0.505675  0.237227  1
  Se  Se39  1  0.869569  0.494128  0.763037  1
  Se  Se40  1  0.612392  0.966957  0.436612  1
  Se  Se41  1  0.389710  0.031209  0.562001  1
  Se  Se42  1  0.110746  0.029260  0.061901  1
  Se  Se43  1  0.890734  0.970745  0.937411  1
  Se  Se44  1  0.885749  0.704257  0.144115  1
  Se  Se45  1  0.111408  0.294950  0.856125  1
  Se  Se46  1  0.388904  0.296554  0.356064  1
  Se  Se47  1  0.610591  0.711829  0.646768  1
  Se  Se48  1  0.374465  0.756654  0.144288  1
  Se  Se49  1  0.625752  0.243492  0.855405  1
  Se  Se50  1  0.883415  0.228691  0.356337  1
  Se  Se51  1  0.125575  0.754693  0.645014  1
  Se  Se52  1  0.651950  0.420546  0.478320  1
  Se  Se53  1  0.340601  0.576628  0.529568  1
  Se  Se54  1  0.159045  0.574849  0.029680  1
  Se  Se55  1  0.840288  0.425087  0.970557  1
