# generated using pymatgen
data_Tb3Dy(TcRu)4
_symmetry_space_group_name_H-M   'P 1'
_cell_length_a   5.19785549
_cell_length_b   5.19785541
_cell_length_c   9.13748223
_cell_angle_alpha   89.97828526
_cell_angle_beta   90.02171429
_cell_angle_gamma   117.04914008
_symmetry_Int_Tables_number   1
_chemical_formula_structural   Tb3Dy(TcRu)4
_chemical_formula_sum   'Tb3 Dy1 Tc4 Ru4'
_cell_volume   219.86990822
_cell_formula_units_Z   1
loop_
 _symmetry_equiv_pos_site_id
 _symmetry_equiv_pos_as_xyz
  1  'x, y, z'
loop_
 _atom_site_type_symbol
 _atom_site_label
 _atom_site_symmetry_multiplicity
 _atom_site_fract_x
 _atom_site_fract_y
 _atom_site_fract_z
 _atom_site_occupancy
  Tb  Tb0  1  0.670744  0.329256  0.566789  1
  Tb  Tb1  1  0.670717  0.329283  0.933179  1
  Tb  Tb2  1  0.332501  0.667499  0.063141  1
  Dy  Dy3  1  0.332337  0.667663  0.436621  1
  Tc  Tc4  1  0.827269  0.172731  0.250316  1
  Tc  Tc5  1  0.829877  0.659978  0.250337  1
  Tc  Tc6  1  0.340022  0.170123  0.250337  1
  Tc  Tc7  1  0.162219  0.837781  0.749679  1
  Ru  Ru8  1  0.007398  0.992602  0.502364  1
  Ru  Ru9  1  0.007242  0.992758  0.997680  1
  Ru  Ru10  1  0.170066  0.350391  0.749777  1
  Ru  Ru11  1  0.649609  0.829934  0.749777  1
