# generated using pymatgen
data_Sr20Cd3(Pd2Au)3
_symmetry_space_group_name_H-M   'P 1'
_cell_length_a   8.37069072
_cell_length_b   8.37069072
_cell_length_c   15.82512149
_cell_angle_alpha   90.02139552
_cell_angle_beta   90.02139552
_cell_angle_gamma   90.36110311
_symmetry_Int_Tables_number   1
_chemical_formula_structural   Sr20Cd3(Pd2Au)3
_chemical_formula_sum   'Sr20 Cd3 Pd6 Au3'
_cell_volume   1108.81976563
_cell_formula_units_Z   1
loop_
 _symmetry_equiv_pos_site_id
 _symmetry_equiv_pos_as_xyz
  1  'x, y, z'
loop_
 _atom_site_type_symbol
 _atom_site_label
 _atom_site_symmetry_multiplicity
 _atom_site_fract_x
 _atom_site_fract_y
 _atom_site_fract_z
 _atom_site_occupancy
  Sr  Sr0  1  0.001849  0.001339  0.755901  1
  Sr  Sr1  1  0.501247  0.501280  0.251345  1
  Sr  Sr2  1  0.998661  0.998151  0.244099  1
  Sr  Sr3  1  0.498720  0.498753  0.748655  1
  Sr  Sr4  1  0.175536  0.665695  0.112246  1
  Sr  Sr5  1  0.669512  0.170314  0.616595  1
  Sr  Sr6  1  0.821443  0.337763  0.112354  1
  Sr  Sr7  1  0.327414  0.832983  0.616793  1
  Sr  Sr8  1  0.341326  0.170996  0.112195  1
  Sr  Sr9  1  0.837398  0.665067  0.616824  1
  Sr  Sr10  1  0.661877  0.825611  0.112785  1
  Sr  Sr11  1  0.166030  0.331082  0.617487  1
  Sr  Sr12  1  0.334305  0.824464  0.887754  1
  Sr  Sr13  1  0.829686  0.330488  0.383405  1
  Sr  Sr14  1  0.662237  0.178557  0.887646  1
  Sr  Sr15  1  0.167017  0.672586  0.383207  1
  Sr  Sr16  1  0.174389  0.338123  0.887215  1
  Sr  Sr17  1  0.668918  0.833970  0.382513  1
  Sr  Sr18  1  0.829004  0.658674  0.887805  1
  Sr  Sr19  1  0.334933  0.162602  0.383176  1
  Cd  Cd20  1  0.999446  0.000554  0.500000  1
  Cd  Cd21  1  0.999594  0.000406  0.000000  1
  Cd  Cd22  1  0.499561  0.500439  0.500000  1
  Pd  Pd23  1  0.624064  0.124780  0.248035  1
  Pd  Pd24  1  0.124565  0.624656  0.751973  1
  Pd  Pd25  1  0.875220  0.375936  0.751965  1
  Pd  Pd26  1  0.375344  0.875435  0.248027  1
  Pd  Pd27  1  0.375667  0.124514  0.752011  1
  Pd  Pd28  1  0.875486  0.624333  0.247989  1
  Au  Au29  1  0.123969  0.374882  0.248196  1
  Au  Au30  1  0.625118  0.876031  0.751804  1
  Au  Au31  1  0.500461  0.499539  0.000000  1
