# generated using pymatgen
data_LiTb2NdRh8
_symmetry_space_group_name_H-M   'P 1'
_cell_length_a   5.34533700
_cell_length_b   5.34533757
_cell_length_c   17.22180100
_cell_angle_alpha   90.00000000
_cell_angle_beta   90.00000000
_cell_angle_gamma   120.00000268
_symmetry_Int_Tables_number   1
_chemical_formula_structural   LiTb2NdRh8
_chemical_formula_sum   'Li2 Tb4 Nd2 Rh16'
_cell_volume   426.14697915
_cell_formula_units_Z   2
loop_
 _symmetry_equiv_pos_site_id
 _symmetry_equiv_pos_as_xyz
  1  'x, y, z'
loop_
 _atom_site_type_symbol
 _atom_site_label
 _atom_site_symmetry_multiplicity
 _atom_site_fract_x
 _atom_site_fract_y
 _atom_site_fract_z
 _atom_site_occupancy
  Li  Li0  1  0.000000  0.000000  0.250000  1
  Li  Li1  1  0.000000  0.000000  0.750000  1
  Tb  Tb2  1  0.333333  0.666667  0.539989  1
  Tb  Tb3  1  0.666667  0.333333  0.039989  1
  Tb  Tb4  1  0.666667  0.333333  0.460011  1
  Tb  Tb5  1  0.333333  0.666667  0.960011  1
  Nd  Nd6  1  0.333333  0.666667  0.750000  1
  Nd  Nd7  1  0.666667  0.333333  0.250000  1
  Rh  Rh8  1  0.167535  0.335069  0.125068  1
  Rh  Rh9  1  0.832465  0.664931  0.625068  1
  Rh  Rh10  1  0.664931  0.832465  0.125068  1
  Rh  Rh11  1  0.167535  0.832465  0.125068  1
  Rh  Rh12  1  0.832465  0.167535  0.625068  1
  Rh  Rh13  1  0.335069  0.167535  0.625068  1
  Rh  Rh14  1  0.832465  0.664931  0.874932  1
  Rh  Rh15  1  0.832465  0.167535  0.874932  1
  Rh  Rh16  1  0.335069  0.167535  0.874932  1
  Rh  Rh17  1  0.664931  0.832465  0.374932  1
  Rh  Rh18  1  0.167535  0.832465  0.374932  1
  Rh  Rh19  1  0.167535  0.335069  0.374932  1
  Rh  Rh20  1  0.333333  0.666667  0.250000  1
  Rh  Rh21  1  0.666667  0.333333  0.750000  1
  Rh  Rh22  1  0.000000  0.000000  0.000000  1
  Rh  Rh23  1  0.000000  0.000000  0.500000  1
