# generated using pymatgen
data_Tb12Sm8Si15Se
_symmetry_space_group_name_H-M   'P 1'
_cell_length_a   7.59408373
_cell_length_b   7.74755088
_cell_length_c   14.79056400
_cell_angle_alpha   89.76811830
_cell_angle_beta   86.33669950
_cell_angle_gamma   89.94290608
_symmetry_Int_Tables_number   1
_chemical_formula_structural   Tb12Sm8Si15Se
_chemical_formula_sum   'Tb12 Sm8 Si15 Se1'
_cell_volume   868.42555943
_cell_formula_units_Z   1
loop_
 _symmetry_equiv_pos_site_id
 _symmetry_equiv_pos_as_xyz
  1  'x, y, z'
loop_
 _atom_site_type_symbol
 _atom_site_label
 _atom_site_symmetry_multiplicity
 _atom_site_fract_x
 _atom_site_fract_y
 _atom_site_fract_z
 _atom_site_occupancy
  Tb  Tb0  1  0.169062  0.508337  0.751736  1
  Tb  Tb1  1  0.830556  0.492259  0.254627  1
  Tb  Tb2  1  0.329173  0.006834  0.253616  1
  Tb  Tb3  1  0.671819  0.992686  0.747189  1
  Tb  Tb4  1  0.358884  0.162618  0.620306  1
  Tb  Tb5  1  0.642890  0.833082  0.379952  1
  Tb  Tb6  1  0.142448  0.666157  0.381253  1
  Tb  Tb7  1  0.673580  0.821307  0.122314  1
  Tb  Tb8  1  0.853193  0.333354  0.617665  1
  Tb  Tb9  1  0.326238  0.179354  0.876985  1
  Tb  Tb10  1  0.826412  0.322090  0.876953  1
  Tb  Tb11  1  0.172813  0.678726  0.122498  1
  Sm  Sm12  1  0.023722  0.184408  0.100720  1
  Sm  Sm13  1  0.976643  0.817801  0.899085  1
  Sm  Sm14  1  0.476918  0.684555  0.899476  1
  Sm  Sm15  1  0.001362  0.823037  0.599991  1
  Sm  Sm16  1  0.523725  0.316627  0.101183  1
  Sm  Sm17  1  0.992815  0.172908  0.397671  1
  Sm  Sm18  1  0.501067  0.313188  0.398221  1
  Sm  Sm19  1  0.508708  0.685361  0.600844  1
  Si  Si20  1  0.046247  0.110735  0.749501  1
  Si  Si21  1  0.954364  0.889744  0.248556  1
  Si  Si22  1  0.453169  0.608746  0.249439  1
  Si  Si23  1  0.545582  0.391882  0.748971  1
  Si  Si24  1  0.285849  0.874364  0.751096  1
  Si  Si25  1  0.715614  0.124435  0.247896  1
  Si  Si26  1  0.215307  0.375517  0.248836  1
  Si  Si27  1  0.785999  0.625252  0.750378  1
  Si  Si28  1  0.791744  0.533699  0.456014  1
  Si  Si29  1  0.295944  0.964153  0.457892  1
  Si  Si30  1  0.855370  0.530120  0.040401  1
  Si  Si31  1  0.700563  0.034904  0.543607  1
  Si  Si32  1  0.143434  0.471961  0.958636  1
  Si  Si33  1  0.642897  0.030463  0.958927  1
  Si  Si34  1  0.355615  0.971345  0.041064  1
  Se  Se35  1  0.210278  0.467995  0.546504  1
