# generated using pymatgen
data_Ca4DyPa(Si3Ru)8
_symmetry_space_group_name_H-M   'P 1'
_cell_length_a   10.15249185
_cell_length_b   10.15249126
_cell_length_c   8.15532725
_cell_angle_alpha   90.25045277
_cell_angle_beta   89.74954426
_cell_angle_gamma   132.62259146
_symmetry_Int_Tables_number   1
_chemical_formula_structural   Ca4DyPa(Si3Ru)8
_chemical_formula_sum   'Ca4 Dy1 Pa1 Si24 Ru8'
_cell_volume   618.52789684
_cell_formula_units_Z   1
loop_
 _symmetry_equiv_pos_site_id
 _symmetry_equiv_pos_as_xyz
  1  'x, y, z'
loop_
 _atom_site_type_symbol
 _atom_site_label
 _atom_site_symmetry_multiplicity
 _atom_site_fract_x
 _atom_site_fract_y
 _atom_site_fract_z
 _atom_site_occupancy
  Ca  Ca0  1  0.500559  0.500189  0.500522  1
  Ca  Ca1  1  0.000189  0.000559  0.999478  1
  Ca  Ca2  1  0.500473  0.000473  0.750000  1
  Ca  Ca3  1  0.998228  0.498228  0.250000  1
  Dy  Dy4  1  0.004865  0.504865  0.750000  1
  Pa  Pa5  1  0.492989  0.992989  0.250000  1
  Si  Si6  1  0.797733  0.204084  0.501270  1
  Si  Si7  1  0.294276  0.703079  0.999648  1
  Si  Si8  1  0.203079  0.794276  0.500352  1
  Si  Si9  1  0.704084  0.297733  0.998730  1
  Si  Si10  1  0.329501  0.337028  0.833164  1
  Si  Si11  1  0.665110  0.670528  0.167028  1
  Si  Si12  1  0.170528  0.165110  0.332972  1
  Si  Si13  1  0.837028  0.829501  0.666836  1
  Si  Si14  1  0.121207  0.888046  0.729670  1
  Si  Si15  1  0.112200  0.878608  0.270398  1
  Si  Si16  1  0.604500  0.371661  0.230817  1
  Si  Si17  1  0.627642  0.395495  0.769147  1
  Si  Si18  1  0.871661  0.104500  0.269183  1
  Si  Si19  1  0.895495  0.127642  0.730853  1
  Si  Si20  1  0.388046  0.621207  0.770330  1
  Si  Si21  1  0.378608  0.612200  0.229602  1
  Si  Si22  1  0.346263  0.112479  0.502970  1
  Si  Si23  1  0.886614  0.653132  0.497325  1
  Si  Si24  1  0.385232  0.153614  0.010827  1
  Si  Si25  1  0.847046  0.615355  0.989196  1
  Si  Si26  1  0.653614  0.885232  0.489173  1
  Si  Si27  1  0.115355  0.347046  0.510804  1
  Si  Si28  1  0.612479  0.846263  0.997030  1
  Si  Si29  1  0.153132  0.386614  0.002675  1
  Ru  Ru30  1  0.670229  0.326222  0.498768  1
  Ru  Ru31  1  0.171533  0.831257  0.000606  1
  Ru  Ru32  1  0.331257  0.671533  0.499394  1
  Ru  Ru33  1  0.826222  0.170229  0.001232  1
  Ru  Ru34  1  0.126816  0.125709  0.625493  1
  Ru  Ru35  1  0.875581  0.874915  0.373722  1
  Ru  Ru36  1  0.374915  0.375581  0.126278  1
  Ru  Ru37  1  0.625709  0.626816  0.874507  1
