# generated using pymatgen
data_Eu(PPd2)2
_symmetry_space_group_name_H-M   'P 1'
_cell_length_a   7.90569200
_cell_length_b   7.90569200
_cell_length_c   3.81605500
_cell_angle_alpha   90.00000000
_cell_angle_beta   90.00000000
_cell_angle_gamma   90.00000000
_symmetry_Int_Tables_number   1
_chemical_formula_structural   Eu(PPd2)2
_chemical_formula_sum   'Eu2 P4 Pd8'
_cell_volume   238.50330775
_cell_formula_units_Z   2
loop_
 _symmetry_equiv_pos_site_id
 _symmetry_equiv_pos_as_xyz
  1  'x, y, z'
loop_
 _atom_site_type_symbol
 _atom_site_label
 _atom_site_symmetry_multiplicity
 _atom_site_fract_x
 _atom_site_fract_y
 _atom_site_fract_z
 _atom_site_occupancy
  Eu  Eu0  1  0.500000  0.500000  0.000000  1
  Eu  Eu1  1  0.000000  0.000000  0.500000  1
  P  P2  1  0.723877  0.723877  0.500000  1
  P  P3  1  0.276123  0.276123  0.500000  1
  P  P4  1  0.223877  0.776123  0.000000  1
  P  P5  1  0.776123  0.223877  0.000000  1
  Pd  Pd6  1  0.585900  0.167978  0.500000  1
  Pd  Pd7  1  0.414100  0.832022  0.500000  1
  Pd  Pd8  1  0.085900  0.332022  0.000000  1
  Pd  Pd9  1  0.914100  0.667978  0.000000  1
  Pd  Pd10  1  0.167978  0.585900  0.500000  1
  Pd  Pd11  1  0.832022  0.414100  0.500000  1
  Pd  Pd12  1  0.332022  0.085900  0.000000  1
  Pd  Pd13  1  0.667978  0.914100  0.000000  1
