# generated using pymatgen
data_Li8Nd7ThPt8
_symmetry_space_group_name_H-M   'P 1'
_cell_length_a   9.67638341
_cell_length_b   9.67638283
_cell_length_c   7.25634967
_cell_angle_alpha   90.27951596
_cell_angle_beta   89.72048179
_cell_angle_gamma   131.01122668
_symmetry_Int_Tables_number   1
_chemical_formula_structural   Li8Nd7ThPt8
_chemical_formula_sum   'Li8 Nd7 Th1 Pt8'
_cell_volume   512.67713292
_cell_formula_units_Z   1
loop_
 _symmetry_equiv_pos_site_id
 _symmetry_equiv_pos_as_xyz
  1  'x, y, z'
loop_
 _atom_site_type_symbol
 _atom_site_label
 _atom_site_symmetry_multiplicity
 _atom_site_fract_x
 _atom_site_fract_y
 _atom_site_fract_z
 _atom_site_occupancy
  Li  Li0  1  0.847193  0.152807  0.871414  1
  Li  Li1  1  0.848998  0.653142  0.628880  1
  Li  Li2  1  0.346858  0.151002  0.628880  1
  Li  Li3  1  0.150855  0.849145  0.376060  1
  Li  Li4  1  0.152466  0.345823  0.124397  1
  Li  Li5  1  0.654177  0.847534  0.124397  1
  Li  Li6  1  0.652706  0.347294  0.381337  1
  Li  Li7  1  0.347467  0.652533  0.877453  1
  Nd  Nd8  1  0.530160  0.968909  0.550195  1
  Nd  Nd9  1  0.031091  0.469840  0.550195  1
  Nd  Nd10  1  0.532834  0.467166  0.953509  1
  Nd  Nd11  1  0.469633  0.032644  0.053849  1
  Nd  Nd12  1  0.967356  0.530367  0.053849  1
  Nd  Nd13  1  0.966835  0.033165  0.450736  1
  Nd  Nd14  1  0.033361  0.966639  0.954070  1
  Th  Th15  1  0.468204  0.531796  0.455963  1
  Pt  Pt16  1  0.815249  0.184751  0.256413  1
  Pt  Pt17  1  0.806528  0.681585  0.251876  1
  Pt  Pt18  1  0.318415  0.193472  0.251876  1
  Pt  Pt19  1  0.184890  0.815110  0.763021  1
  Pt  Pt20  1  0.189642  0.319339  0.739678  1
  Pt  Pt21  1  0.680661  0.810358  0.739678  1
  Pt  Pt22  1  0.684650  0.315350  0.759304  1
  Pt  Pt23  1  0.319773  0.680227  0.260972  1
