# generated using pymatgen
data_Hf2TiNb3(B2Ru5)2
_symmetry_space_group_name_H-M   'P 1'
_cell_length_a   9.42027504
_cell_length_b   9.42311228
_cell_length_c   3.06198900
_cell_angle_alpha   90.00000000
_cell_angle_beta   90.00000000
_cell_angle_gamma   89.96573893
_symmetry_Int_Tables_number   1
_chemical_formula_structural   Hf2TiNb3(B2Ru5)2
_chemical_formula_sum   'Hf2 Ti1 Nb3 B4 Ru10'
_cell_volume   271.80753842
_cell_formula_units_Z   1
loop_
 _symmetry_equiv_pos_site_id
 _symmetry_equiv_pos_as_xyz
  1  'x, y, z'
loop_
 _atom_site_type_symbol
 _atom_site_label
 _atom_site_symmetry_multiplicity
 _atom_site_fract_x
 _atom_site_fract_y
 _atom_site_fract_z
 _atom_site_occupancy
  Hf  Hf0  1  0.821348  0.674642  0.000000  1
  Hf  Hf1  1  0.178652  0.325358  0.000000  1
  Ti  Ti2  1  0.500000  0.500000  0.000000  1
  Nb  Nb3  1  0.324973  0.820715  0.000000  1
  Nb  Nb4  1  0.675027  0.179285  0.000000  1
  Nb  Nb5  1  0.000000  0.000000  0.000000  1
  B  B6  1  0.618908  0.874385  0.000000  1
  B  B7  1  0.381092  0.125615  0.000000  1
  B  B8  1  0.125539  0.619237  0.000000  1
  B  B9  1  0.874461  0.380763  0.000000  1
  Ru  Ru10  1  0.566541  0.716825  0.500000  1
  Ru  Ru11  1  0.433459  0.283175  0.500000  1
  Ru  Ru12  1  0.073619  0.782070  0.500000  1
  Ru  Ru13  1  0.926381  0.217930  0.500000  1
  Ru  Ru14  1  0.285487  0.571981  0.500000  1
  Ru  Ru15  1  0.714513  0.428019  0.500000  1
  Ru  Ru16  1  0.220132  0.068596  0.500000  1
  Ru  Ru17  1  0.779868  0.931404  0.500000  1
  Ru  Ru18  1  0.500000  0.000000  0.500000  1
  Ru  Ru19  1  0.000000  0.500000  0.500000  1
