# generated using pymatgen
data_Tb8Y2In8PdPt2Au
_symmetry_space_group_name_H-M   'P 1'
_cell_length_a   3.64475700
_cell_length_b   8.20234680
_cell_length_c   18.35255800
_cell_angle_alpha   90.10883090
_cell_angle_beta   90.00000000
_cell_angle_gamma   90.00000000
_symmetry_Int_Tables_number   1
_chemical_formula_structural   Tb8Y2In8PdPt2Au
_chemical_formula_sum   'Tb8 Y2 In8 Pd1 Pt2 Au1'
_cell_volume   548.65902567
_cell_formula_units_Z   1
loop_
 _symmetry_equiv_pos_site_id
 _symmetry_equiv_pos_as_xyz
  1  'x, y, z'
loop_
 _atom_site_type_symbol
 _atom_site_label
 _atom_site_symmetry_multiplicity
 _atom_site_fract_x
 _atom_site_fract_y
 _atom_site_fract_z
 _atom_site_occupancy
  Tb  Tb0  1  0.000000  0.120390  0.420196  1
  Tb  Tb1  1  0.000000  0.882857  0.584067  1
  Tb  Tb2  1  0.000000  0.383195  0.915481  1
  Tb  Tb3  1  0.000000  0.616877  0.083862  1
  Tb  Tb4  1  0.000000  0.250511  0.217548  1
  Tb  Tb5  1  0.000000  0.753805  0.780731  1
  Tb  Tb6  1  0.000000  0.261771  0.720129  1
  Tb  Tb7  1  0.000000  0.730253  0.279292  1
  Y  Y8  1  0.000000  0.000249  0.999707  1
  Y  Y9  1  0.000000  0.499174  0.500073  1
  In  In10  1  0.500000  0.423040  0.352220  1
  In  In11  1  0.500000  0.578014  0.648414  1
  In  In12  1  0.500000  0.074513  0.850458  1
  In  In13  1  0.500000  0.924150  0.147642  1
  In  In14  1  0.500000  0.290655  0.066650  1
  In  In15  1  0.500000  0.709047  0.932793  1
  In  In16  1  0.500000  0.208632  0.568304  1
  In  In17  1  0.500000  0.790133  0.433394  1
  Pd  Pd18  1  0.500000  0.975867  0.696507  1
  Pt  Pt19  1  0.500000  0.475723  0.803456  1
  Pt  Pt20  1  0.500000  0.525082  0.196390  1
  Au  Au21  1  0.500000  0.026062  0.302685  1
