# generated using pymatgen
data_Tm2Si7Pd12
_symmetry_space_group_name_H-M   'P 1'
_cell_length_a   9.98179500
_cell_length_b   9.98179521
_cell_length_c   3.85156900
_cell_angle_alpha   90.00000000
_cell_angle_beta   90.00000000
_cell_angle_gamma   120.00000262
_symmetry_Int_Tables_number   1
_chemical_formula_structural   Tm2Si7Pd12
_chemical_formula_sum   'Tm2 Si7 Pd12'
_cell_volume   332.34228742
_cell_formula_units_Z   1
loop_
 _symmetry_equiv_pos_site_id
 _symmetry_equiv_pos_as_xyz
  1  'x, y, z'
loop_
 _atom_site_type_symbol
 _atom_site_label
 _atom_site_symmetry_multiplicity
 _atom_site_fract_x
 _atom_site_fract_y
 _atom_site_fract_z
 _atom_site_occupancy
  Tm  Tm0  1  0.666667  0.333333  0.247057  1
  Tm  Tm1  1  0.000000  0.000000  0.750774  1
  Si  Si2  1  0.333333  0.666667  0.467198  1
  Si  Si3  1  0.742067  0.785838  0.250162  1
  Si  Si4  1  0.043770  0.257933  0.250162  1
  Si  Si5  1  0.214162  0.956230  0.250162  1
  Si  Si6  1  0.924441  0.547999  0.748353  1
  Si  Si7  1  0.623557  0.075559  0.748353  1
  Si  Si8  1  0.452001  0.376443  0.748353  1
  Pd  Pd9  1  0.777665  0.045837  0.248643  1
  Pd  Pd10  1  0.268172  0.222335  0.248643  1
  Pd  Pd11  1  0.954163  0.731828  0.248643  1
  Pd  Pd12  1  0.889221  0.286309  0.749925  1
  Pd  Pd13  1  0.397086  0.110779  0.749925  1
  Pd  Pd14  1  0.713691  0.602914  0.749925  1
  Pd  Pd15  1  0.482510  0.554510  0.248583  1
  Pd  Pd16  1  0.072000  0.517490  0.248583  1
  Pd  Pd17  1  0.445490  0.928000  0.248583  1
  Pd  Pd18  1  0.187609  0.775448  0.749831  1
  Pd  Pd19  1  0.587839  0.812391  0.749831  1
  Pd  Pd20  1  0.224552  0.412161  0.749831  1
