# generated using pymatgen
data_La4Pr3PtRh2
_symmetry_space_group_name_H-M   'P 1'
_cell_length_a   10.25263100
_cell_length_b   10.26389142
_cell_length_c   6.55975700
_cell_angle_alpha   90.19705440
_cell_angle_beta   90.00000000
_cell_angle_gamma   119.96372484
_symmetry_Int_Tables_number   1
_chemical_formula_structural   La4Pr3PtRh2
_chemical_formula_sum   'La8 Pr6 Pt2 Rh4'
_cell_volume   598.02724464
_cell_formula_units_Z   2
loop_
 _symmetry_equiv_pos_site_id
 _symmetry_equiv_pos_as_xyz
  1  'x, y, z'
loop_
 _atom_site_type_symbol
 _atom_site_label
 _atom_site_symmetry_multiplicity
 _atom_site_fract_x
 _atom_site_fract_y
 _atom_site_fract_z
 _atom_site_occupancy
  La  La0  1  0.332954  0.665908  0.474351  1
  La  La1  1  0.668656  0.337312  0.965451  1
  La  La2  1  0.122429  0.869150  0.248091  1
  La  La3  1  0.746722  0.869150  0.248091  1
  La  La4  1  0.128334  0.256668  0.247443  1
  La  La5  1  0.874636  0.126186  0.741393  1
  La  La6  1  0.251550  0.126186  0.741393  1
  La  La7  1  0.875050  0.750100  0.747542  1
  Pr  Pr8  1  0.540285  0.463868  0.440622  1
  Pr  Pr9  1  0.923583  0.463868  0.440622  1
  Pr  Pr10  1  0.535872  0.071745  0.441466  1
  Pr  Pr11  1  0.462038  0.541010  0.938188  1
  Pr  Pr12  1  0.078973  0.541010  0.938188  1
  Pr  Pr13  1  0.460715  0.921429  0.939853  1
  Pt  Pt14  1  0.810724  0.187052  0.190333  1
  Pt  Pt15  1  0.376328  0.187052  0.190333  1
  Rh  Rh16  1  0.811982  0.623965  0.188661  1
  Rh  Rh17  1  0.186780  0.812992  0.693094  1
  Rh  Rh18  1  0.626212  0.812992  0.693094  1
  Rh  Rh19  1  0.186179  0.372357  0.693883  1
