# generated using pymatgen
data_Zr12Al3Co(Ir2N)4
_symmetry_space_group_name_H-M   'P 1'
_cell_length_a   8.62147929
_cell_length_b   8.62148018
_cell_length_c   8.62147974
_cell_angle_alpha   59.18460582
_cell_angle_beta   59.18460209
_cell_angle_gamma   59.18460417
_symmetry_Int_Tables_number   1
_chemical_formula_structural   Zr12Al3Co(Ir2N)4
_chemical_formula_sum   'Zr12 Al3 Co1 Ir8 N4'
_cell_volume   444.71892708
_cell_formula_units_Z   1
loop_
 _symmetry_equiv_pos_site_id
 _symmetry_equiv_pos_as_xyz
  1  'x, y, z'
loop_
 _atom_site_type_symbol
 _atom_site_label
 _atom_site_symmetry_multiplicity
 _atom_site_fract_x
 _atom_site_fract_y
 _atom_site_fract_z
 _atom_site_occupancy
  Zr  Zr0  1  0.805313  0.805313  0.196867  1
  Zr  Zr1  1  0.191703  0.191703  0.808329  1
  Zr  Zr2  1  0.805313  0.196867  0.805313  1
  Zr  Zr3  1  0.191703  0.808329  0.191703  1
  Zr  Zr4  1  0.196867  0.805313  0.805313  1
  Zr  Zr5  1  0.808329  0.191703  0.191703  1
  Zr  Zr6  1  0.444687  0.444687  0.053133  1
  Zr  Zr7  1  0.058297  0.058297  0.441671  1
  Zr  Zr8  1  0.444687  0.053133  0.444687  1
  Zr  Zr9  1  0.058297  0.441671  0.058297  1
  Zr  Zr10  1  0.053133  0.444687  0.444687  1
  Zr  Zr11  1  0.441671  0.058297  0.058297  1
  Al  Al12  1  0.125000  0.625000  0.625000  1
  Al  Al13  1  0.625000  0.125000  0.625000  1
  Al  Al14  1  0.625000  0.625000  0.125000  1
  Co  Co15  1  0.625000  0.625000  0.625000  1
  Ir  Ir16  1  0.749718  0.417608  0.417608  1
  Ir  Ir17  1  0.417608  0.749718  0.417608  1
  Ir  Ir18  1  0.417608  0.417608  0.749718  1
  Ir  Ir19  1  0.415564  0.415564  0.415564  1
  Ir  Ir20  1  0.500282  0.832392  0.832392  1
  Ir  Ir21  1  0.832392  0.500282  0.832392  1
  Ir  Ir22  1  0.832392  0.832392  0.500282  1
  Ir  Ir23  1  0.834436  0.834436  0.834436  1
  N  N24  1  0.625000  0.125000  0.125000  1
  N  N25  1  0.125000  0.625000  0.125000  1
  N  N26  1  0.125000  0.125000  0.625000  1
  N  N27  1  0.125000  0.125000  0.125000  1
