# generated using pymatgen
data_Th4Al24Pd8Rh
_symmetry_space_group_name_H-M   'P 1'
_cell_length_a   7.63254173
_cell_length_b   7.64397800
_cell_length_c   13.28503513
_cell_angle_alpha   84.47840828
_cell_angle_beta   79.06403394
_cell_angle_gamma   59.89732385
_symmetry_Int_Tables_number   1
_chemical_formula_structural   Th4Al24Pd8Rh
_chemical_formula_sum   'Th4 Al24 Pd8 Rh1'
_cell_volume   658.37295939
_cell_formula_units_Z   1
loop_
 _symmetry_equiv_pos_site_id
 _symmetry_equiv_pos_as_xyz
  1  'x, y, z'
loop_
 _atom_site_type_symbol
 _atom_site_label
 _atom_site_symmetry_multiplicity
 _atom_site_fract_x
 _atom_site_fract_y
 _atom_site_fract_z
 _atom_site_occupancy
  Th  Th0  1  0.395469  0.166786  0.807361  1
  Th  Th1  1  0.604531  0.833214  0.192639  1
  Th  Th2  1  0.733858  0.497681  0.807165  1
  Th  Th3  1  0.266142  0.502319  0.192835  1
  Al  Al4  1  0.689890  0.830415  0.946917  1
  Al  Al5  1  0.310110  0.169585  0.053083  1
  Al  Al6  1  0.144889  0.834705  0.560497  1
  Al  Al7  1  0.855111  0.165295  0.439503  1
  Al  Al8  1  0.481133  0.166504  0.558109  1
  Al  Al9  1  0.518867  0.833496  0.441891  1
  Al  Al10  1  0.211673  0.165227  0.334717  1
  Al  Al11  1  0.788327  0.834773  0.665283  1
  Al  Al12  1  0.433908  0.510686  0.665373  1
  Al  Al13  1  0.566092  0.489314  0.334627  1
  Al  Al14  1  0.111136  0.155516  0.663714  1
  Al  Al15  1  0.888864  0.844484  0.336286  1
  Al  Al16  1  0.345177  0.502805  0.947115  1
  Al  Al17  1  0.654823  0.497195  0.052885  1
  Al  Al18  1  0.014375  0.168244  0.958245  1
  Al  Al19  1  0.985625  0.831756  0.041755  1
  Al  Al20  1  0.186746  0.500647  0.441963  1
  Al  Al21  1  0.813254  0.499353  0.558037  1
  Al  Al22  1  0.738600  0.162617  0.183800  1
  Al  Al23  1  0.261400  0.837383  0.816200  1
  Al  Al24  1  0.061245  0.632966  0.816923  1
  Al  Al25  1  0.938755  0.367034  0.183077  1
  Al  Al26  1  0.861526  0.037246  0.815999  1
  Al  Al27  1  0.138474  0.962754  0.184001  1
  Pd  Pd28  1  0.120250  0.492498  0.638313  1
  Pd  Pd29  1  0.879750  0.507502  0.361687  1
  Pd  Pd30  1  0.656782  0.171067  0.999594  1
  Pd  Pd31  1  0.343218  0.828933  0.000406  1
  Pd  Pd32  1  0.538197  0.167070  0.362387  1
  Pd  Pd33  1  0.461803  0.832930  0.637613  1
  Pd  Pd34  1  0.778651  0.174923  0.637890  1
  Pd  Pd35  1  0.221349  0.825077  0.362110  1
  Rh  Rh36  1  0.000000  0.500000  0.000000  1
