# generated using pymatgen
data_CaTbEr2(ReN3)4
_symmetry_space_group_name_H-M   'P 1'
_cell_length_a   7.35504463
_cell_length_b   7.35504507
_cell_length_c   6.24792187
_cell_angle_alpha   73.63763500
_cell_angle_beta   73.63763581
_cell_angle_gamma   82.80424271
_symmetry_Int_Tables_number   1
_chemical_formula_structural   CaTbEr2(ReN3)4
_chemical_formula_sum   'Ca1 Tb1 Er2 Re4 N12'
_cell_volume   310.78145919
_cell_formula_units_Z   1
loop_
 _symmetry_equiv_pos_site_id
 _symmetry_equiv_pos_as_xyz
  1  'x, y, z'
loop_
 _atom_site_type_symbol
 _atom_site_label
 _atom_site_symmetry_multiplicity
 _atom_site_fract_x
 _atom_site_fract_y
 _atom_site_fract_z
 _atom_site_occupancy
  Ca  Ca0  1  0.705476  0.294524  0.250000  1
  Tb  Tb1  1  0.292137  0.707863  0.750000  1
  Er  Er2  1  0.909414  0.090586  0.750000  1
  Er  Er3  1  0.091032  0.908968  0.250000  1
  Re  Re4  1  0.621868  0.795781  0.270861  1
  Re  Re5  1  0.204219  0.378132  0.229139  1
  Re  Re6  1  0.379035  0.201456  0.729681  1
  Re  Re7  1  0.798544  0.620965  0.770319  1
  N  N8  1  0.341083  0.361338  0.931035  1
  N  N9  1  0.012452  0.215270  0.346382  1
  N  N10  1  0.784730  0.987548  0.153618  1
  N  N11  1  0.216622  0.004283  0.843559  1
  N  N12  1  0.655207  0.647040  0.061877  1
  N  N13  1  0.880703  0.377965  0.826575  1
  N  N14  1  0.125059  0.626955  0.161700  1
  N  N15  1  0.995717  0.783378  0.656441  1
  N  N16  1  0.373045  0.874941  0.338300  1
  N  N17  1  0.638662  0.658917  0.568965  1
  N  N18  1  0.622035  0.119297  0.673425  1
  N  N19  1  0.352960  0.344793  0.438123  1
