# generated using pymatgen
data_Tb7Ho2Th5Rh6
_symmetry_space_group_name_H-M   'P 1'
_cell_length_a   9.86963900
_cell_length_b   9.75318140
_cell_length_c   6.40186828
_cell_angle_alpha   90.29627766
_cell_angle_beta   90.00000000
_cell_angle_gamma   120.39578343
_symmetry_Int_Tables_number   1
_chemical_formula_structural   Tb7Ho2Th5Rh6
_chemical_formula_sum   'Tb7 Ho2 Th5 Rh6'
_cell_volume   531.53422795
_cell_formula_units_Z   1
loop_
 _symmetry_equiv_pos_site_id
 _symmetry_equiv_pos_as_xyz
  1  'x, y, z'
loop_
 _atom_site_type_symbol
 _atom_site_label
 _atom_site_symmetry_multiplicity
 _atom_site_fract_x
 _atom_site_fract_y
 _atom_site_fract_z
 _atom_site_occupancy
  Tb  Tb0  1  0.873180  0.746361  0.741256  1
  Tb  Tb1  1  0.539425  0.461450  0.443818  1
  Tb  Tb2  1  0.922025  0.461450  0.443818  1
  Tb  Tb3  1  0.539731  0.079463  0.443313  1
  Tb  Tb4  1  0.461932  0.539252  0.940611  1
  Tb  Tb5  1  0.077320  0.539252  0.940611  1
  Tb  Tb6  1  0.460946  0.921891  0.941276  1
  Ho  Ho7  1  0.333062  0.666124  0.459948  1
  Ho  Ho8  1  0.667080  0.334160  0.961555  1
  Th  Th9  1  0.126232  0.870731  0.241328  1
  Th  Th10  1  0.744499  0.870731  0.241328  1
  Th  Th11  1  0.127805  0.255611  0.240284  1
  Th  Th12  1  0.869737  0.125251  0.739356  1
  Th  Th13  1  0.255515  0.125251  0.739356  1
  Rh  Rh14  1  0.815738  0.183303  0.194859  1
  Rh  Rh15  1  0.367566  0.183303  0.194859  1
  Rh  Rh16  1  0.815548  0.631095  0.200583  1
  Rh  Rh17  1  0.192584  0.819658  0.690970  1
  Rh  Rh18  1  0.627073  0.819658  0.690970  1
  Rh  Rh19  1  0.183002  0.366006  0.696463  1
