# generated using pymatgen
data_PaI5
_symmetry_space_group_name_H-M   'P 1'
_cell_length_a   12.99931000
_cell_length_b   10.04702496
_cell_length_c   14.48410468
_cell_angle_alpha   45.98312829
_cell_angle_beta   90.00000000
_cell_angle_gamma   90.00000000
_symmetry_Int_Tables_number   1
_chemical_formula_structural   PaI5
_chemical_formula_sum   'Pa4 I20'
_cell_volume   1360.37923067
_cell_formula_units_Z   4
loop_
 _symmetry_equiv_pos_site_id
 _symmetry_equiv_pos_as_xyz
  1  'x, y, z'
loop_
 _atom_site_type_symbol
 _atom_site_label
 _atom_site_symmetry_multiplicity
 _atom_site_fract_x
 _atom_site_fract_y
 _atom_site_fract_z
 _atom_site_occupancy
  Pa  Pa0  1  0.370020  0.799582  0.652266  1
  Pa  Pa1  1  0.870020  0.200418  0.847734  1
  Pa  Pa2  1  0.629980  0.200418  0.347734  1
  Pa  Pa3  1  0.129980  0.799582  0.152266  1
  I  I4  1  0.148858  0.826066  0.630313  1
  I  I5  1  0.648858  0.173934  0.869687  1
  I  I6  1  0.851142  0.173934  0.369687  1
  I  I7  1  0.351142  0.826066  0.130313  1
  I  I8  1  0.109436  0.173264  0.865709  1
  I  I9  1  0.609436  0.826736  0.634291  1
  I  I10  1  0.890564  0.826736  0.134291  1
  I  I11  1  0.390564  0.173264  0.365709  1
  I  I12  1  0.121168  0.452538  0.417554  1
  I  I13  1  0.621168  0.547462  0.082446  1
  I  I14  1  0.878832  0.547462  0.582446  1
  I  I15  1  0.378832  0.452538  0.917554  1
  I  I16  1  0.125237  0.004992  0.225140  1
  I  I17  1  0.625237  0.995008  0.274860  1
  I  I18  1  0.874763  0.995008  0.774860  1
  I  I19  1  0.374763  0.004992  0.725140  1
  I  I20  1  0.120915  0.609742  0.067625  1
  I  I21  1  0.620915  0.390258  0.432375  1
  I  I22  1  0.879085  0.390258  0.932375  1
  I  I23  1  0.379085  0.609742  0.567625  1
