# generated using pymatgen
data_TbDy3Rh4F28
_symmetry_space_group_name_H-M   'P 1'
_cell_length_a   5.51863927
_cell_length_b   8.90923522
_cell_length_c   11.94810361
_cell_angle_alpha   62.37892168
_cell_angle_beta   89.97637009
_cell_angle_gamma   89.96487496
_symmetry_Int_Tables_number   1
_chemical_formula_structural   TbDy3Rh4F28
_chemical_formula_sum   'Tb1 Dy3 Rh4 F28'
_cell_volume   520.50063343
_cell_formula_units_Z   1
loop_
 _symmetry_equiv_pos_site_id
 _symmetry_equiv_pos_as_xyz
  1  'x, y, z'
loop_
 _atom_site_type_symbol
 _atom_site_label
 _atom_site_symmetry_multiplicity
 _atom_site_fract_x
 _atom_site_fract_y
 _atom_site_fract_z
 _atom_site_occupancy
  Tb  Tb0  1  0.239036  0.814025  0.764555  1
  Dy  Dy1  1  0.261101  0.814098  0.264473  1
  Dy  Dy2  1  0.738679  0.186601  0.735577  1
  Dy  Dy3  1  0.761145  0.185816  0.235691  1
  Rh  Rh4  1  0.757782  0.725849  0.043676  1
  Rh  Rh5  1  0.242116  0.273672  0.956960  1
  Rh  Rh6  1  0.257888  0.274350  0.456515  1
  Rh  Rh7  1  0.742341  0.725966  0.542754  1
  F  F8  1  0.938513  0.707789  0.413969  1
  F  F9  1  0.062069  0.292201  0.585319  1
  F  F10  1  0.438065  0.291918  0.085481  1
  F  F11  1  0.562392  0.707528  0.914854  1
  F  F12  1  0.465142  0.729241  0.134836  1
  F  F13  1  0.534528  0.270725  0.865682  1
  F  F14  1  0.965950  0.270912  0.365413  1
  F  F15  1  0.034383  0.728843  0.633981  1
  F  F16  1  0.950965  0.742660  0.174708  1
  F  F17  1  0.049278  0.257165  0.825812  1
  F  F18  1  0.450871  0.257561  0.325487  1
  F  F19  1  0.550178  0.742248  0.674201  1
  F  F20  1  0.767816  0.480910  0.139766  1
  F  F21  1  0.231938  0.517824  0.860933  1
  F  F22  1  0.267992  0.518683  0.360541  1
  F  F23  1  0.732123  0.481106  0.639240  1
  F  F24  1  0.943328  0.280704  0.043509  1
  F  F25  1  0.056580  0.718570  0.957375  1
  F  F26  1  0.443248  0.719133  0.456376  1
  F  F27  1  0.556378  0.280986  0.543222  1
  F  F28  1  0.739540  0.970670  0.449699  1
  F  F29  1  0.260485  0.030160  0.549418  1
  F  F30  1  0.239575  0.029330  0.050017  1
  F  F31  1  0.760502  0.970471  0.950143  1
  F  F32  1  0.590491  0.968851  0.230305  1
  F  F33  1  0.409462  0.032675  0.769805  1
  F  F34  1  0.090541  0.031379  0.269549  1
  F  F35  1  0.907580  0.969382  0.730158  1
