# generated using pymatgen
data_Dy3Tm5CdHgIr2
_symmetry_space_group_name_H-M   'P 1'
_cell_length_a   9.54199991
_cell_length_b   9.54200006
_cell_length_c   9.55043700
_cell_angle_alpha   59.97074346
_cell_angle_beta   59.97074294
_cell_angle_gamma   59.97309723
_symmetry_Int_Tables_number   1
_chemical_formula_structural   Dy3Tm5CdHgIr2
_chemical_formula_sum   'Dy6 Tm10 Cd2 Hg2 Ir4'
_cell_volume   614.47833674
_cell_formula_units_Z   2
loop_
 _symmetry_equiv_pos_site_id
 _symmetry_equiv_pos_as_xyz
  1  'x, y, z'
loop_
 _atom_site_type_symbol
 _atom_site_label
 _atom_site_symmetry_multiplicity
 _atom_site_fract_x
 _atom_site_fract_y
 _atom_site_fract_z
 _atom_site_occupancy
  Dy  Dy0  1  0.188850  0.810287  0.810596  1
  Dy  Dy1  1  0.810287  0.188850  0.190267  1
  Dy  Dy2  1  0.810287  0.188850  0.810596  1
  Dy  Dy3  1  0.188850  0.810287  0.190267  1
  Dy  Dy4  1  0.810324  0.810324  0.189676  1
  Dy  Dy5  1  0.189498  0.189498  0.810502  1
  Tm  Tm6  1  0.599312  0.599312  0.597488  1
  Tm  Tm7  1  0.599312  0.599312  0.203889  1
  Tm  Tm8  1  0.600943  0.200620  0.599219  1
  Tm  Tm9  1  0.200620  0.600943  0.599219  1
  Tm  Tm10  1  0.059896  0.437834  0.440513  1
  Tm  Tm11  1  0.437834  0.059896  0.061757  1
  Tm  Tm12  1  0.437834  0.059896  0.440513  1
  Tm  Tm13  1  0.059896  0.437834  0.061757  1
  Tm  Tm14  1  0.438870  0.438870  0.061130  1
  Tm  Tm15  1  0.060445  0.060445  0.439555  1
  Cd  Cd16  1  0.830561  0.506967  0.831236  1
  Cd  Cd17  1  0.506967  0.830561  0.831236  1
  Hg  Hg18  1  0.833425  0.833425  0.835058  1
  Hg  Hg19  1  0.833425  0.833425  0.498093  1
  Ir  Ir20  1  0.392433  0.392433  0.390986  1
  Ir  Ir21  1  0.392433  0.392433  0.824149  1
  Ir  Ir22  1  0.392534  0.825167  0.391150  1
  Ir  Ir23  1  0.825167  0.392534  0.391150  1
