# generated using pymatgen
data_Li2HoTmB28
_symmetry_space_group_name_H-M   'P 1'
_cell_length_a   7.23954417
_cell_length_b   7.23954192
_cell_length_c   7.23954329
_cell_angle_alpha   132.15513864
_cell_angle_beta   110.88916188
_cell_angle_gamma   88.41260688
_symmetry_Int_Tables_number   1
_chemical_formula_structural   Li2HoTmB28
_chemical_formula_sum   'Li2 Ho1 Tm1 B28'
_cell_volume   250.23088063
_cell_formula_units_Z   1
loop_
 _symmetry_equiv_pos_site_id
 _symmetry_equiv_pos_as_xyz
  1  'x, y, z'
loop_
 _atom_site_type_symbol
 _atom_site_label
 _atom_site_symmetry_multiplicity
 _atom_site_fract_x
 _atom_site_fract_y
 _atom_site_fract_z
 _atom_site_occupancy
  Li  Li0  1  0.000022  0.499970  0.999992  1
  Li  Li1  1  0.000022  0.000030  0.500052  1
  Ho  Ho2  1  0.620078  0.250000  0.370078  1
  Tm  Tm3  1  0.378610  0.750000  0.628610  1
  B  B4  1  0.977987  0.349980  0.628008  1
  B  B5  1  0.626723  0.330016  0.796292  1
  B  B6  1  0.806476  0.833874  0.972601  1
  B  B7  1  0.638726  0.666126  0.972601  1
  B  B8  1  0.193370  0.166109  0.027262  1
  B  B9  1  0.780072  0.782441  0.681320  1
  B  B10  1  0.966276  0.669568  0.796292  1
  B  B11  1  0.022820  0.650265  0.372554  1
  B  B12  1  0.966276  0.169984  0.296708  1
  B  B13  1  0.034015  0.829951  0.703321  1
  B  B14  1  0.361153  0.333891  0.027262  1
  B  B15  1  0.084831  0.910908  0.173922  1
  B  B16  1  0.626723  0.830432  0.296708  1
  B  B17  1  0.398879  0.717559  0.997631  1
  B  B18  1  0.237305  0.410911  0.826394  1
  B  B19  1  0.219637  0.218021  0.318943  1
  B  B20  1  0.222288  0.849735  0.372554  1
  B  B21  1  0.915483  0.089089  0.826394  1
  B  B22  1  0.398879  0.401248  0.681320  1
  B  B23  1  0.219637  0.900694  0.001615  1
  B  B24  1  0.780072  0.098752  0.997631  1
  B  B25  1  0.600921  0.281979  0.001615  1
  B  B26  1  0.600921  0.599306  0.318943  1
  B  B27  1  0.034015  0.330694  0.204064  1
  B  B28  1  0.763014  0.589092  0.173922  1
  B  B29  1  0.778029  0.150020  0.628008  1
  B  B30  1  0.373371  0.169306  0.703321  1
  B  B31  1  0.373371  0.670049  0.204064  1
