# generated using pymatgen
data_Ti8V2Bi3Te
_symmetry_space_group_name_H-M   'P 1'
_cell_length_a   7.92816595
_cell_length_b   7.92816524
_cell_length_c   7.85150693
_cell_angle_alpha   96.10797711
_cell_angle_beta   96.10797882
_cell_angle_gamma   142.11571789
_symmetry_Int_Tables_number   1
_chemical_formula_structural   Ti8V2Bi3Te
_chemical_formula_sum   'Ti8 V2 Bi3 Te1'
_cell_volume   286.30819943
_cell_formula_units_Z   1
loop_
 _symmetry_equiv_pos_site_id
 _symmetry_equiv_pos_as_xyz
  1  'x, y, z'
loop_
 _atom_site_type_symbol
 _atom_site_label
 _atom_site_symmetry_multiplicity
 _atom_site_fract_x
 _atom_site_fract_y
 _atom_site_fract_z
 _atom_site_occupancy
  Ti  Ti0  1  0.804853  0.916820  0.721673  1
  Ti  Ti1  1  0.919098  0.195124  0.114222  1
  Ti  Ti2  1  0.583180  0.695147  0.278327  1
  Ti  Ti3  1  0.697687  0.420197  0.117884  1
  Ti  Ti4  1  0.079803  0.802313  0.882116  1
  Ti  Ti5  1  0.197866  0.081561  0.279427  1
  Ti  Ti6  1  0.304876  0.580902  0.885778  1
  Ti  Ti7  1  0.418439  0.302134  0.720573  1
  V  V8  1  0.251122  0.248878  0.000000  1
  V  V9  1  0.751122  0.748878  0.000000  1
  Bi  Bi10  1  0.138379  0.361621  0.500000  1
  Bi  Bi11  1  0.361677  0.860579  0.222257  1
  Bi  Bi12  1  0.639421  0.138323  0.777743  1
  Te  Te13  1  0.852477  0.647523  0.500000  1
