# generated using pymatgen
data_Sm8Sc12InSn15
_symmetry_space_group_name_H-M   'P 1'
_cell_length_a   7.80186409
_cell_length_b   7.98314386
_cell_length_c   14.93948500
_cell_angle_alpha   90.05424449
_cell_angle_beta   89.43741474
_cell_angle_gamma   90.17087300
_symmetry_Int_Tables_number   1
_chemical_formula_structural   Sm8Sc12InSn15
_chemical_formula_sum   'Sm8 Sc12 In1 Sn15'
_cell_volume   930.43258778
_cell_formula_units_Z   1
loop_
 _symmetry_equiv_pos_site_id
 _symmetry_equiv_pos_as_xyz
  1  'x, y, z'
loop_
 _atom_site_type_symbol
 _atom_site_label
 _atom_site_symmetry_multiplicity
 _atom_site_fract_x
 _atom_site_fract_y
 _atom_site_fract_z
 _atom_site_occupancy
  Sm  Sm0  1  0.994890  0.174451  0.094622  1
  Sm  Sm1  1  0.005003  0.826016  0.905691  1
  Sm  Sm2  1  0.504634  0.675051  0.905567  1
  Sm  Sm3  1  0.006464  0.826341  0.595408  1
  Sm  Sm4  1  0.495201  0.325772  0.094624  1
  Sm  Sm5  1  0.993756  0.172773  0.404240  1
  Sm  Sm6  1  0.494989  0.324591  0.403856  1
  Sm  Sm7  1  0.505168  0.676421  0.595252  1
  Sc  Sc8  1  0.168666  0.495349  0.750262  1
  Sc  Sc9  1  0.830863  0.504533  0.250527  1
  Sc  Sc10  1  0.331248  0.995558  0.250651  1
  Sc  Sc11  1  0.668882  0.003873  0.749281  1
  Sc  Sc12  1  0.340932  0.160987  0.627534  1
  Sc  Sc13  1  0.660006  0.838088  0.372652  1
  Sc  Sc14  1  0.161599  0.662506  0.372227  1
  Sc  Sc15  1  0.663527  0.837754  0.127222  1
  Sc  Sc16  1  0.837870  0.338036  0.627377  1
  Sc  Sc17  1  0.335344  0.161884  0.872737  1
  Sc  Sc18  1  0.837261  0.337342  0.873079  1
  Sc  Sc19  1  0.162984  0.662629  0.127094  1
  In  In20  1  0.175460  0.455822  0.542180  1
  Sn  Sn21  1  0.031282  0.129237  0.750019  1
  Sn  Sn22  1  0.968525  0.871787  0.249771  1
  Sn  Sn23  1  0.469044  0.627531  0.250016  1
  Sn  Sn24  1  0.530552  0.372961  0.749648  1
  Sn  Sn25  1  0.308951  0.853833  0.750744  1
  Sn  Sn26  1  0.690649  0.145945  0.249124  1
  Sn  Sn27  1  0.190162  0.353772  0.249211  1
  Sn  Sn28  1  0.809944  0.646246  0.751124  1
  Sn  Sn29  1  0.826222  0.543086  0.458181  1
  Sn  Sn30  1  0.320716  0.955856  0.457231  1
  Sn  Sn31  1  0.823759  0.543248  0.042919  1
  Sn  Sn32  1  0.679574  0.043292  0.542521  1
  Sn  Sn33  1  0.176388  0.456809  0.957350  1
  Sn  Sn34  1  0.675253  0.042901  0.956543  1
  Sn  Sn35  1  0.324232  0.957724  0.043516  1
