# generated using pymatgen
data_TbYb3(Al5Pt3)4
_symmetry_space_group_name_H-M   'P 1'
_cell_length_a   4.10657900
_cell_length_b   7.44668853
_cell_length_c   20.48219420
_cell_angle_alpha   90.20242776
_cell_angle_beta   90.00000000
_cell_angle_gamma   90.00000000
_symmetry_Int_Tables_number   1
_chemical_formula_structural   TbYb3(Al5Pt3)4
_chemical_formula_sum   'Tb1 Yb3 Al20 Pt12'
_cell_volume   626.35008430
_cell_formula_units_Z   1
loop_
 _symmetry_equiv_pos_site_id
 _symmetry_equiv_pos_as_xyz
  1  'x, y, z'
loop_
 _atom_site_type_symbol
 _atom_site_label
 _atom_site_symmetry_multiplicity
 _atom_site_fract_x
 _atom_site_fract_y
 _atom_site_fract_z
 _atom_site_occupancy
  Tb  Tb0  1  0.750000  0.611154  0.860232  1
  Yb  Yb1  1  0.250000  0.114477  0.639402  1
  Yb  Yb2  1  0.750000  0.884194  0.360367  1
  Yb  Yb3  1  0.250000  0.383185  0.139373  1
  Al  Al4  1  0.750000  0.351278  0.382080  1
  Al  Al5  1  0.750000  0.884208  0.983479  1
  Al  Al6  1  0.750000  0.688398  0.200278  1
  Al  Al7  1  0.250000  0.872244  0.492981  1
  Al  Al8  1  0.250000  0.628685  0.991379  1
  Al  Al9  1  0.250000  0.314120  0.799559  1
  Al  Al10  1  0.750000  0.071882  0.209679  1
  Al  Al11  1  0.250000  0.649277  0.618369  1
  Al  Al12  1  0.250000  0.572087  0.290591  1
  Al  Al13  1  0.250000  0.188410  0.299444  1
  Al  Al14  1  0.750000  0.148703  0.882507  1
  Al  Al15  1  0.250000  0.926828  0.790551  1
  Al  Al16  1  0.750000  0.369607  0.007703  1
  Al  Al17  1  0.750000  0.617200  0.483228  1
  Al  Al18  1  0.750000  0.128681  0.507866  1
  Al  Al19  1  0.250000  0.117721  0.016917  1
  Al  Al20  1  0.250000  0.854203  0.117568  1
  Al  Al21  1  0.250000  0.382420  0.516815  1
  Al  Al22  1  0.750000  0.428117  0.709421  1
  Al  Al23  1  0.750000  0.812379  0.700477  1
  Pt  Pt24  1  0.750000  0.382808  0.258691  1
  Pt  Pt25  1  0.250000  0.881819  0.241350  1
  Pt  Pt26  1  0.250000  0.617823  0.741615  1
  Pt  Pt27  1  0.750000  0.118765  0.759351  1
  Pt  Pt28  1  0.250000  0.161000  0.426241  1
  Pt  Pt29  1  0.750000  0.418024  0.584648  1
  Pt  Pt30  1  0.750000  0.082111  0.085522  1
  Pt  Pt31  1  0.250000  0.917925  0.914769  1
  Pt  Pt32  1  0.750000  0.838985  0.573204  1
  Pt  Pt33  1  0.250000  0.338156  0.926122  1
  Pt  Pt34  1  0.750000  0.660658  0.073076  1
  Pt  Pt35  1  0.250000  0.582471  0.415145  1
