# generated using pymatgen
data_Dy2Ho4Co9(P4Ru3)3
_symmetry_space_group_name_H-M   'P 1'
_cell_length_a   3.83526300
_cell_length_b   10.66042485
_cell_length_c   12.51006350
_cell_angle_alpha   89.73210854
_cell_angle_beta   90.00000000
_cell_angle_gamma   90.00000000
_symmetry_Int_Tables_number   1
_chemical_formula_structural   Dy2Ho4Co9(P4Ru3)3
_chemical_formula_sum   'Dy2 Ho4 Co9 P12 Ru9'
_cell_volume   511.47502307
_cell_formula_units_Z   1
loop_
 _symmetry_equiv_pos_site_id
 _symmetry_equiv_pos_as_xyz
  1  'x, y, z'
loop_
 _atom_site_type_symbol
 _atom_site_label
 _atom_site_symmetry_multiplicity
 _atom_site_fract_x
 _atom_site_fract_y
 _atom_site_fract_z
 _atom_site_occupancy
  Dy  Dy0  1  0.000000  0.500311  0.525694  1
  Dy  Dy1  1  0.500000  0.000527  0.471576  1
  Ho  Ho2  1  0.500000  0.820343  0.200623  1
  Ho  Ho3  1  0.500000  0.181100  0.201187  1
  Ho  Ho4  1  0.000000  0.678469  0.800013  1
  Ho  Ho5  1  0.000000  0.321669  0.798992  1
  Co  Co6  1  0.000000  0.498645  0.986151  1
  Co  Co7  1  0.500000  0.000307  0.016511  1
  Co  Co8  1  0.000000  0.374810  0.279954  1
  Co  Co9  1  0.500000  0.331374  0.989777  1
  Co  Co10  1  0.500000  0.666018  0.991402  1
  Co  Co11  1  0.000000  0.168509  0.012612  1
  Co  Co12  1  0.000000  0.832541  0.011339  1
  Co  Co13  1  0.500000  0.500189  0.703672  1
  Co  Co14  1  0.000000  0.001159  0.296531  1
  P  P15  1  0.500000  0.316077  0.616759  1
  P  P16  1  0.500000  0.685741  0.618829  1
  P  P17  1  0.000000  0.189289  0.377517  1
  P  P18  1  0.000000  0.813584  0.379978  1
  P  P19  1  0.500000  0.499471  0.882372  1
  P  P20  1  0.000000  0.000052  0.119210  1
  P  P21  1  0.500000  0.845246  0.901836  1
  P  P22  1  0.500000  0.154517  0.900454  1
  P  P23  1  0.000000  0.653691  0.100211  1
  P  P24  1  0.000000  0.345619  0.103979  1
  P  P25  1  0.500000  0.499599  0.338761  1
  P  P26  1  0.000000  0.000897  0.661528  1
  Ru  Ru27  1  0.500000  0.300812  0.422257  1
  Ru  Ru28  1  0.500000  0.702615  0.427395  1
  Ru  Ru29  1  0.000000  0.204703  0.568684  1
  Ru  Ru30  1  0.000000  0.798360  0.571835  1
  Ru  Ru31  1  0.500000  0.875232  0.719449  1
  Ru  Ru32  1  0.500000  0.126197  0.717509  1
  Ru  Ru33  1  0.000000  0.618957  0.281817  1
  Ru  Ru34  1  0.500000  0.491957  0.149936  1
  Ru  Ru35  1  0.000000  0.001410  0.853647  1
