# generated using pymatgen
data_ScFeCoSiC
_symmetry_space_group_name_H-M   'P 1'
_cell_length_a   5.48148624
_cell_length_b   5.48148661
_cell_length_c   6.63219835
_cell_angle_alpha   89.79143676
_cell_angle_beta   90.20856377
_cell_angle_gamma   142.32865355
_symmetry_Int_Tables_number   1
_chemical_formula_structural   ScFeCoSiC
_chemical_formula_sum   'Sc2 Fe2 Co2 Si2 C2'
_cell_volume   121.78266924
_cell_formula_units_Z   2
loop_
 _symmetry_equiv_pos_site_id
 _symmetry_equiv_pos_as_xyz
  1  'x, y, z'
loop_
 _atom_site_type_symbol
 _atom_site_label
 _atom_site_symmetry_multiplicity
 _atom_site_fract_x
 _atom_site_fract_y
 _atom_site_fract_z
 _atom_site_occupancy
  Sc  Sc0  1  0.544869  0.455131  0.251436  1
  Sc  Sc1  1  0.455131  0.544869  0.748564  1
  Fe  Fe2  1  0.164558  0.835442  0.557734  1
  Fe  Fe3  1  0.835442  0.164558  0.442266  1
  Co  Co4  1  0.836373  0.163627  0.055609  1
  Co  Co5  1  0.163627  0.836373  0.944391  1
  Si  Si6  1  0.267125  0.732875  0.250759  1
  Si  Si7  1  0.732875  0.267125  0.749241  1
  C  C8  1  0.000000  0.000000  0.000000  1
  C  C9  1  0.000000  0.000000  0.500000  1
