# generated using pymatgen
data_TbDyTm8(CoSb2)2
_symmetry_space_group_name_H-M   'P 1'
_cell_length_a   7.79830900
_cell_length_b   8.73001700
_cell_length_c   12.07480700
_cell_angle_alpha   90.00000000
_cell_angle_beta   90.00000000
_cell_angle_gamma   90.00000000
_symmetry_Int_Tables_number   1
_chemical_formula_structural   TbDyTm8(CoSb2)2
_chemical_formula_sum   'Tb2 Dy2 Tm16 Co4 Sb8'
_cell_volume   822.04525514
_cell_formula_units_Z   2
loop_
 _symmetry_equiv_pos_site_id
 _symmetry_equiv_pos_as_xyz
  1  'x, y, z'
loop_
 _atom_site_type_symbol
 _atom_site_label
 _atom_site_symmetry_multiplicity
 _atom_site_fract_x
 _atom_site_fract_y
 _atom_site_fract_z
 _atom_site_occupancy
  Tb  Tb0  1  0.622370  0.750000  0.306889  1
  Tb  Tb1  1  0.877630  0.750000  0.806889  1
  Dy  Dy2  1  0.378032  0.250000  0.692747  1
  Dy  Dy3  1  0.121968  0.250000  0.192747  1
  Tm  Tm4  1  0.155401  0.750000  0.203634  1
  Tm  Tm5  1  0.344599  0.750000  0.703634  1
  Tm  Tm6  1  0.844477  0.250000  0.796305  1
  Tm  Tm7  1  0.655523  0.250000  0.296305  1
  Tm  Tm8  1  0.449352  0.750000  0.997954  1
  Tm  Tm9  1  0.050648  0.750000  0.497954  1
  Tm  Tm10  1  0.550394  0.250000  0.002039  1
  Tm  Tm11  1  0.949606  0.250000  0.502039  1
  Tm  Tm12  1  0.823255  0.536029  0.065583  1
  Tm  Tm13  1  0.676745  0.963971  0.565583  1
  Tm  Tm14  1  0.176981  0.036546  0.934667  1
  Tm  Tm15  1  0.323019  0.463454  0.434667  1
  Tm  Tm16  1  0.176981  0.463454  0.934667  1
  Tm  Tm17  1  0.323019  0.036546  0.434667  1
  Tm  Tm18  1  0.823255  0.963971  0.065583  1
  Tm  Tm19  1  0.676745  0.536029  0.565583  1
  Co  Co20  1  0.432865  0.750000  0.491687  1
  Co  Co21  1  0.067135  0.750000  0.991687  1
  Co  Co22  1  0.566844  0.250000  0.508574  1
  Co  Co23  1  0.933156  0.250000  0.008574  1
  Sb  Sb24  1  0.930739  0.508204  0.328292  1
  Sb  Sb25  1  0.569261  0.991796  0.828292  1
  Sb  Sb26  1  0.070172  0.008857  0.671544  1
  Sb  Sb27  1  0.429828  0.491143  0.171544  1
  Sb  Sb28  1  0.070172  0.491143  0.671544  1
  Sb  Sb29  1  0.429828  0.008857  0.171544  1
  Sb  Sb30  1  0.930739  0.991796  0.328292  1
  Sb  Sb31  1  0.569261  0.508204  0.828292  1
