# generated using pymatgen
data_HoTm7Zn2(Si6Rh)2
_symmetry_space_group_name_H-M   'P 1'
_cell_length_a   8.11175064
_cell_length_b   8.10623264
_cell_length_c   7.87530502
_cell_angle_alpha   89.99999855
_cell_angle_beta   90.00648119
_cell_angle_gamma   119.97750181
_symmetry_Int_Tables_number   1
_chemical_formula_structural   HoTm7Zn2(Si6Rh)2
_chemical_formula_sum   'Ho1 Tm7 Zn2 Si12 Rh2'
_cell_volume   448.56984931
_cell_formula_units_Z   1
loop_
 _symmetry_equiv_pos_site_id
 _symmetry_equiv_pos_as_xyz
  1  'x, y, z'
loop_
 _atom_site_type_symbol
 _atom_site_label
 _atom_site_symmetry_multiplicity
 _atom_site_fract_x
 _atom_site_fract_y
 _atom_site_fract_z
 _atom_site_occupancy
  Ho  Ho0  1  0.013551  0.506775  0.755213  1
  Tm  Tm1  1  0.999978  0.999989  0.249453  1
  Tm  Tm2  1  0.000038  0.000019  0.750590  1
  Tm  Tm3  1  0.507056  0.493012  0.243215  1
  Tm  Tm4  1  0.507056  0.014045  0.243215  1
  Tm  Tm5  1  0.986126  0.493064  0.243391  1
  Tm  Tm6  1  0.493276  0.506969  0.756902  1
  Tm  Tm7  1  0.493276  0.986306  0.756902  1
  Zn  Zn8  1  0.333671  0.666836  0.461892  1
  Zn  Zn9  1  0.665787  0.332893  0.536566  1
  Si  Si10  1  0.166765  0.833832  0.506756  1
  Si  Si11  1  0.166765  0.332933  0.506756  1
  Si  Si12  1  0.666898  0.833448  0.507378  1
  Si  Si13  1  0.833440  0.166521  0.492359  1
  Si  Si14  1  0.833440  0.666920  0.492359  1
  Si  Si15  1  0.333083  0.166542  0.492269  1
  Si  Si16  1  0.833444  0.166374  0.993625  1
  Si  Si17  1  0.833444  0.667070  0.993625  1
  Si  Si18  1  0.332705  0.166353  0.993197  1
  Si  Si19  1  0.166604  0.833621  0.007257  1
  Si  Si20  1  0.166604  0.332983  0.007257  1
  Si  Si21  1  0.667134  0.833567  0.007000  1
  Rh  Rh22  1  0.665702  0.332851  0.985778  1
  Rh  Rh23  1  0.334157  0.667079  0.017044  1
