# generated using pymatgen
data_Tl(VSe2)3
_symmetry_space_group_name_H-M   'P 1'
_cell_length_a   5.69525500
_cell_length_b   5.69525431
_cell_length_c   17.43329800
_cell_angle_alpha   90.00000000
_cell_angle_beta   90.00000000
_cell_angle_gamma   119.99999821
_symmetry_Int_Tables_number   1
_chemical_formula_structural   Tl(VSe2)3
_chemical_formula_sum   'Tl2 V6 Se12'
_cell_volume   489.70719919
_cell_formula_units_Z   2
loop_
 _symmetry_equiv_pos_site_id
 _symmetry_equiv_pos_as_xyz
  1  'x, y, z'
loop_
 _atom_site_type_symbol
 _atom_site_label
 _atom_site_symmetry_multiplicity
 _atom_site_fract_x
 _atom_site_fract_y
 _atom_site_fract_z
 _atom_site_occupancy
  Tl  Tl0  1  0.000000  0.000000  0.500000  1
  Tl  Tl1  1  0.000000  0.000000  0.000000  1
  V  V2  1  0.000000  0.000000  0.250000  1
  V  V3  1  0.000000  0.000000  0.750000  1
  V  V4  1  0.333333  0.666667  0.250000  1
  V  V5  1  0.666667  0.333333  0.750000  1
  V  V6  1  0.666667  0.333333  0.250000  1
  V  V7  1  0.333333  0.666667  0.750000  1
  Se  Se8  1  0.334475  0.000000  0.158061  1
  Se  Se9  1  0.000000  0.334475  0.158061  1
  Se  Se10  1  0.665525  0.665525  0.158061  1
  Se  Se11  1  0.334475  0.334475  0.658061  1
  Se  Se12  1  0.665525  0.665525  0.341939  1
  Se  Se13  1  0.665525  0.000000  0.658061  1
  Se  Se14  1  0.000000  0.665525  0.658061  1
  Se  Se15  1  0.000000  0.665525  0.841939  1
  Se  Se16  1  0.334475  0.334475  0.841939  1
  Se  Se17  1  0.000000  0.334475  0.341939  1
  Se  Se18  1  0.334475  0.000000  0.341939  1
  Se  Se19  1  0.665525  0.000000  0.841939  1
