# generated using pymatgen
data_TmTh2(MgCu6)3
_symmetry_space_group_name_H-M   'P 1'
_cell_length_a   5.09016591
_cell_length_b   5.09662959
_cell_length_c   16.25699702
_cell_angle_alpha   89.93561695
_cell_angle_beta   90.05540284
_cell_angle_gamma   120.04010483
_symmetry_Int_Tables_number   1
_chemical_formula_structural   TmTh2(MgCu6)3
_chemical_formula_sum   'Tm1 Th2 Mg3 Cu18'
_cell_volume   365.09845518
_cell_formula_units_Z   1
loop_
 _symmetry_equiv_pos_site_id
 _symmetry_equiv_pos_as_xyz
  1  'x, y, z'
loop_
 _atom_site_type_symbol
 _atom_site_label
 _atom_site_symmetry_multiplicity
 _atom_site_fract_x
 _atom_site_fract_y
 _atom_site_fract_z
 _atom_site_occupancy
  Tm  Tm0  1  0.666452  0.333202  0.467907  1
  Th  Th1  1  0.666698  0.333343  0.238142  1
  Th  Th2  1  0.333620  0.666723  0.750507  1
  Mg  Mg3  1  0.333444  0.666796  0.969505  1
  Mg  Mg4  1  0.666452  0.333236  0.028481  1
  Mg  Mg5  1  0.333699  0.666797  0.538571  1
  Cu  Cu6  1  0.333649  0.666971  0.249935  1
  Cu  Cu7  1  0.666399  0.333148  0.751673  1
  Cu  Cu8  1  0.167617  0.831899  0.375930  1
  Cu  Cu9  1  0.167637  0.335149  0.375796  1
  Cu  Cu10  1  0.000420  0.000235  0.752361  1
  Cu  Cu11  1  0.999726  0.999609  0.249761  1
  Cu  Cu12  1  0.999849  0.999937  0.999472  1
  Cu  Cu13  1  0.999803  0.999807  0.502201  1
  Cu  Cu14  1  0.167415  0.335134  0.121402  1
  Cu  Cu15  1  0.833339  0.167059  0.625210  1
  Cu  Cu16  1  0.333791  0.167052  0.625207  1
  Cu  Cu17  1  0.664809  0.832599  0.121414  1
  Cu  Cu18  1  0.167348  0.832375  0.121423  1
  Cu  Cu19  1  0.832252  0.664316  0.877958  1
  Cu  Cu20  1  0.832212  0.167979  0.877922  1
  Cu  Cu21  1  0.833371  0.666502  0.625283  1
  Cu  Cu22  1  0.335715  0.167866  0.878011  1
  Cu  Cu23  1  0.664282  0.832264  0.375928  1
