# generated using pymatgen
data_Dy5Lu3Tc(B8Os)3
_symmetry_space_group_name_H-M   'P 1'
_cell_length_a   3.63907500
_cell_length_b   9.10217196
_cell_length_c   11.49475044
_cell_angle_alpha   89.97826568
_cell_angle_beta   90.00000000
_cell_angle_gamma   90.00000000
_symmetry_Int_Tables_number   1
_chemical_formula_structural   Dy5Lu3Tc(B8Os)3
_chemical_formula_sum   'Dy5 Lu3 Tc1 B24 Os3'
_cell_volume   380.74618298
_cell_formula_units_Z   1
loop_
 _symmetry_equiv_pos_site_id
 _symmetry_equiv_pos_as_xyz
  1  'x, y, z'
loop_
 _atom_site_type_symbol
 _atom_site_label
 _atom_site_symmetry_multiplicity
 _atom_site_fract_x
 _atom_site_fract_y
 _atom_site_fract_z
 _atom_site_occupancy
  Dy  Dy0  1  0.000000  0.323599  0.413202  1
  Dy  Dy1  1  0.000000  0.677513  0.584057  1
  Dy  Dy2  1  0.000000  0.819477  0.087581  1
  Dy  Dy3  1  0.000000  0.178481  0.914691  1
  Dy  Dy4  1  0.000000  0.942977  0.372825  1
  Lu  Lu5  1  0.000000  0.056884  0.628148  1
  Lu  Lu6  1  0.000000  0.444866  0.127843  1
  Lu  Lu7  1  0.000000  0.556345  0.872337  1
  Tc  Tc8  1  0.000000  0.636600  0.320263  1
  B  B9  1  0.500000  0.552667  0.432842  1
  B  B10  1  0.500000  0.445999  0.567701  1
  B  B11  1  0.500000  0.054276  0.066852  1
  B  B12  1  0.500000  0.945886  0.932888  1
  B  B13  1  0.500000  0.747835  0.419114  1
  B  B14  1  0.500000  0.250873  0.581080  1
  B  B15  1  0.500000  0.250120  0.080496  1
  B  B16  1  0.500000  0.750289  0.919231  1
  B  B17  1  0.500000  0.790467  0.265614  1
  B  B18  1  0.500000  0.208438  0.734075  1
  B  B19  1  0.500000  0.292220  0.233052  1
  B  B20  1  0.500000  0.708671  0.766126  1
  B  B21  1  0.500000  0.629897  0.184805  1
  B  B22  1  0.500000  0.369491  0.815446  1
  B  B23  1  0.500000  0.131841  0.314016  1
  B  B24  1  0.500000  0.869719  0.685091  1
  B  B25  1  0.500000  0.983144  0.212308  1
  B  B26  1  0.500000  0.017526  0.787031  1
  B  B27  1  0.500000  0.481563  0.286396  1
  B  B28  1  0.500000  0.517419  0.713567  1
  B  B29  1  0.500000  0.603424  0.028047  1
  B  B30  1  0.500000  0.396424  0.971100  1
  B  B31  1  0.500000  0.106367  0.472271  1
  B  B32  1  0.500000  0.896041  0.530587  1
  Os  Os33  1  0.000000  0.361642  0.680572  1
  Os  Os34  1  0.000000  0.139044  0.178118  1
  Os  Os35  1  0.000000  0.861972  0.820624  1
