# generated using pymatgen
data_NdCdCuPd3
_symmetry_space_group_name_H-M   'P 1'
_cell_length_a   5.25735443
_cell_length_b   5.25735478
_cell_length_c   5.25735464
_cell_angle_alpha   62.99077029
_cell_angle_beta   62.99076768
_cell_angle_gamma   62.99076754
_symmetry_Int_Tables_number   1
_chemical_formula_structural   NdCdCuPd3
_chemical_formula_sum   'Nd1 Cd1 Cu1 Pd3'
_cell_volume   109.57399954
_cell_formula_units_Z   1
loop_
 _symmetry_equiv_pos_site_id
 _symmetry_equiv_pos_as_xyz
  1  'x, y, z'
loop_
 _atom_site_type_symbol
 _atom_site_label
 _atom_site_symmetry_multiplicity
 _atom_site_fract_x
 _atom_site_fract_y
 _atom_site_fract_z
 _atom_site_occupancy
  Nd  Nd0  1  0.999863  0.999863  0.999863  1
  Cd  Cd1  1  0.253467  0.253467  0.253467  1
  Cu  Cu2  1  0.623942  0.623942  0.623942  1
  Pd  Pd3  1  0.623156  0.623156  0.126414  1
  Pd  Pd4  1  0.623156  0.126414  0.623156  1
  Pd  Pd5  1  0.126414  0.623156  0.623156  1
