# generated using pymatgen
data_Th7ReIrRh
_symmetry_space_group_name_H-M   'P 1'
_cell_length_a   10.10841380
_cell_length_b   10.02080966
_cell_length_c   6.34145489
_cell_angle_alpha   89.99999908
_cell_angle_beta   90.00503986
_cell_angle_gamma   119.71371660
_symmetry_Int_Tables_number   1
_chemical_formula_structural   Th7ReIrRh
_chemical_formula_sum   'Th14 Re2 Ir2 Rh2'
_cell_volume   557.89310263
_cell_formula_units_Z   2
loop_
 _symmetry_equiv_pos_site_id
 _symmetry_equiv_pos_as_xyz
  1  'x, y, z'
loop_
 _atom_site_type_symbol
 _atom_site_label
 _atom_site_symmetry_multiplicity
 _atom_site_fract_x
 _atom_site_fract_y
 _atom_site_fract_z
 _atom_site_occupancy
  Th  Th0  1  0.456394  0.538210  0.297242  1
  Th  Th1  1  0.080640  0.540320  0.293121  1
  Th  Th2  1  0.917077  0.458538  0.793317  1
  Th  Th3  1  0.258817  0.129409  0.503709  1
  Th  Th4  1  0.543883  0.081501  0.795647  1
  Th  Th5  1  0.743366  0.871683  0.003745  1
  Th  Th6  1  0.664926  0.332463  0.291875  1
  Th  Th7  1  0.128780  0.877222  0.003194  1
  Th  Th8  1  0.456394  0.918185  0.297242  1
  Th  Th9  1  0.543883  0.462380  0.795647  1
  Th  Th10  1  0.872506  0.122800  0.504629  1
  Th  Th11  1  0.128780  0.251558  0.003194  1
  Th  Th12  1  0.872506  0.749707  0.504629  1
  Th  Th13  1  0.333214  0.666607  0.790677  1
  Re  Re14  1  0.623996  0.811999  0.553955  1
  Re  Re15  1  0.376379  0.188190  0.048864  1
  Ir  Ir16  1  0.181289  0.373601  0.551221  1
  Ir  Ir17  1  0.181289  0.807688  0.551221  1
  Rh  Rh18  1  0.817939  0.627238  0.050437  1
  Rh  Rh19  1  0.817939  0.190703  0.050437  1
