# generated using pymatgen
data_Tb4Er13Tm3(CoSb2)4
_symmetry_space_group_name_H-M   'P 1'
_cell_length_a   7.82272024
_cell_length_b   8.73844416
_cell_length_c   12.11477438
_cell_angle_alpha   89.98403412
_cell_angle_beta   90.02381471
_cell_angle_gamma   90.01498647
_symmetry_Int_Tables_number   1
_chemical_formula_structural   Tb4Er13Tm3(CoSb2)4
_chemical_formula_sum   'Tb4 Er13 Tm3 Co4 Sb8'
_cell_volume   828.14650886
_cell_formula_units_Z   1
loop_
 _symmetry_equiv_pos_site_id
 _symmetry_equiv_pos_as_xyz
  1  'x, y, z'
loop_
 _atom_site_type_symbol
 _atom_site_label
 _atom_site_symmetry_multiplicity
 _atom_site_fract_x
 _atom_site_fract_y
 _atom_site_fract_z
 _atom_site_occupancy
  Tb  Tb0  1  0.622164  0.750074  0.306632  1
  Tb  Tb1  1  0.121952  0.250121  0.193490  1
  Tb  Tb2  1  0.377969  0.250093  0.693294  1
  Tb  Tb3  1  0.877675  0.749771  0.806532  1
  Er  Er4  1  0.155050  0.749857  0.203843  1
  Er  Er5  1  0.655019  0.250137  0.296325  1
  Er  Er6  1  0.844695  0.250007  0.796194  1
  Er  Er7  1  0.345092  0.750058  0.703498  1
  Er  Er8  1  0.450822  0.749878  0.997805  1
  Er  Er9  1  0.950441  0.249997  0.502219  1
  Er  Er10  1  0.549703  0.250223  0.002275  1
  Er  Er11  1  0.049617  0.749910  0.497711  1
  Er  Er12  1  0.822366  0.963296  0.065276  1
  Er  Er13  1  0.322733  0.036159  0.434856  1
  Er  Er14  1  0.177412  0.463797  0.934890  1
  Er  Er15  1  0.677210  0.536542  0.565137  1
  Er  Er16  1  0.177677  0.036318  0.934859  1
  Tm  Tm17  1  0.676792  0.963602  0.565278  1
  Tm  Tm18  1  0.823206  0.536635  0.065341  1
  Tm  Tm19  1  0.323212  0.463498  0.434681  1
  Co  Co20  1  0.432914  0.750075  0.491004  1
  Co  Co21  1  0.932333  0.250261  0.009121  1
  Co  Co22  1  0.567078  0.250088  0.508961  1
  Co  Co23  1  0.066849  0.749664  0.991041  1
  Sb  Sb24  1  0.929426  0.991493  0.328122  1
  Sb  Sb25  1  0.429336  0.008501  0.171835  1
  Sb  Sb26  1  0.070550  0.491509  0.671867  1
  Sb  Sb27  1  0.570539  0.508512  0.828129  1
  Sb  Sb28  1  0.070237  0.008425  0.671806  1
  Sb  Sb29  1  0.570707  0.991491  0.827976  1
  Sb  Sb30  1  0.929609  0.508443  0.328095  1
  Sb  Sb31  1  0.429614  0.491565  0.171906  1
