# generated using pymatgen
data_Gd4MgSc(RhO6)2
_symmetry_space_group_name_H-M   'P 1'
_cell_length_a   5.41251439
_cell_length_b   5.76679147
_cell_length_c   7.80874972
_cell_angle_alpha   89.51934191
_cell_angle_beta   89.25981847
_cell_angle_gamma   89.67952424
_symmetry_Int_Tables_number   1
_chemical_formula_structural   Gd4MgSc(RhO6)2
_chemical_formula_sum   'Gd4 Mg1 Sc1 Rh2 O12'
_cell_volume   243.70068906
_cell_formula_units_Z   1
loop_
 _symmetry_equiv_pos_site_id
 _symmetry_equiv_pos_as_xyz
  1  'x, y, z'
loop_
 _atom_site_type_symbol
 _atom_site_label
 _atom_site_symmetry_multiplicity
 _atom_site_fract_x
 _atom_site_fract_y
 _atom_site_fract_z
 _atom_site_occupancy
  Gd  Gd0  1  0.976961  0.067584  0.741819  1
  Gd  Gd1  1  0.478829  0.425701  0.258664  1
  Gd  Gd2  1  0.521171  0.574299  0.741336  1
  Gd  Gd3  1  0.023039  0.932416  0.258181  1
  Mg  Mg4  1  0.500000  0.000000  0.500000  1
  Sc  Sc5  1  0.000000  0.500000  0.000000  1
  Rh  Rh6  1  0.000000  0.500000  0.500000  1
  Rh  Rh7  1  0.500000  0.000000  0.000000  1
  O  O8  1  0.690542  0.304683  0.555339  1
  O  O9  1  0.187384  0.197471  0.443559  1
  O  O10  1  0.805727  0.803270  0.937075  1
  O  O11  1  0.312949  0.697587  0.060426  1
  O  O12  1  0.309458  0.695317  0.444661  1
  O  O13  1  0.812616  0.802529  0.556441  1
  O  O14  1  0.194273  0.196730  0.062925  1
  O  O15  1  0.687051  0.302413  0.939574  1
  O  O16  1  0.883897  0.543561  0.253591  1
  O  O17  1  0.381785  0.958511  0.753659  1
  O  O18  1  0.618215  0.041489  0.246341  1
  O  O19  1  0.116103  0.456439  0.746409  1
