# generated using pymatgen
data_Yb5(PaH8)3
_symmetry_space_group_name_H-M   'P 1'
_cell_length_a   6.64620100
_cell_length_b   6.74422400
_cell_length_c   6.64620100
_cell_angle_alpha   90.00000000
_cell_angle_beta   90.00000000
_cell_angle_gamma   90.00000000
_symmetry_Int_Tables_number   1
_chemical_formula_structural   Yb5(PaH8)3
_chemical_formula_sum   'Yb5 Pa3 H24'
_cell_volume   297.90577979
_cell_formula_units_Z   1
loop_
 _symmetry_equiv_pos_site_id
 _symmetry_equiv_pos_as_xyz
  1  'x, y, z'
loop_
 _atom_site_type_symbol
 _atom_site_label
 _atom_site_symmetry_multiplicity
 _atom_site_fract_x
 _atom_site_fract_y
 _atom_site_fract_z
 _atom_site_occupancy
  Yb  Yb0  1  0.246835  0.996074  0.500000  1
  Yb  Yb1  1  0.753165  0.996074  0.500000  1
  Yb  Yb2  1  0.000000  0.503926  0.253165  1
  Yb  Yb3  1  0.000000  0.503926  0.746835  1
  Yb  Yb4  1  0.500000  0.750000  0.000000  1
  Pa  Pa5  1  0.000000  0.999810  0.000000  1
  Pa  Pa6  1  0.500000  0.500190  0.500000  1
  Pa  Pa7  1  0.500000  0.250000  0.000000  1
  H  H8  1  0.000000  0.151893  0.287754  1
  H  H9  1  0.500000  0.211355  0.661710  1
  H  H10  1  0.500000  0.784997  0.347993  1
  H  H11  1  0.790035  0.651019  0.500000  1
  H  H12  1  0.209965  0.651019  0.500000  1
  H  H13  1  0.351901  0.485604  0.804462  1
  H  H14  1  0.648099  0.485604  0.804462  1
  H  H15  1  0.304462  0.014396  0.148099  1
  H  H16  1  0.161710  0.288645  0.000000  1
  H  H17  1  0.847993  0.715003  0.000000  1
  H  H18  1  0.304462  0.014396  0.851901  1
  H  H19  1  0.838290  0.288645  0.000000  1
  H  H20  1  0.695538  0.014396  0.148099  1
  H  H21  1  0.695538  0.014396  0.851901  1
  H  H22  1  0.152007  0.715003  0.000000  1
  H  H23  1  0.000000  0.848981  0.709965  1
  H  H24  1  0.000000  0.151893  0.712246  1
  H  H25  1  0.000000  0.848981  0.290035  1
  H  H26  1  0.648099  0.485604  0.195538  1
  H  H27  1  0.351901  0.485604  0.195538  1
  H  H28  1  0.787754  0.348107  0.500000  1
  H  H29  1  0.212246  0.348107  0.500000  1
  H  H30  1  0.500000  0.784997  0.652007  1
  H  H31  1  0.500000  0.211355  0.338290  1
