# generated using pymatgen
data_Nd3Eu5(Si3Au)4
_symmetry_space_group_name_H-M   'P 1'
_cell_length_a   8.30550700
_cell_length_b   8.30551720
_cell_length_c   8.73956500
_cell_angle_alpha   90.00000000
_cell_angle_beta   90.00000000
_cell_angle_gamma   120.00012266
_symmetry_Int_Tables_number   1
_chemical_formula_structural   Nd3Eu5(Si3Au)4
_chemical_formula_sum   'Nd3 Eu5 Si12 Au4'
_cell_volume   522.09885699
_cell_formula_units_Z   1
loop_
 _symmetry_equiv_pos_site_id
 _symmetry_equiv_pos_as_xyz
  1  'x, y, z'
loop_
 _atom_site_type_symbol
 _atom_site_label
 _atom_site_symmetry_multiplicity
 _atom_site_fract_x
 _atom_site_fract_y
 _atom_site_fract_z
 _atom_site_occupancy
  Nd  Nd0  1  0.500084  0.499915  0.250000  1
  Nd  Nd1  1  0.999832  0.499916  0.250000  1
  Nd  Nd2  1  0.500085  0.000170  0.250000  1
  Eu  Eu3  1  0.000004  0.000001  0.750000  1
  Eu  Eu4  1  0.000006  0.000002  0.250000  1
  Eu  Eu5  1  0.499945  0.500055  0.750000  1
  Eu  Eu6  1  0.499942  0.999880  0.750000  1
  Eu  Eu7  1  0.000118  0.500056  0.750000  1
  Si  Si8  1  0.836672  0.163271  0.004025  1
  Si  Si9  1  0.836693  0.673441  0.003847  1
  Si  Si10  1  0.326623  0.163311  0.003729  1
  Si  Si11  1  0.836672  0.163271  0.495975  1
  Si  Si12  1  0.836693  0.673441  0.496153  1
  Si  Si13  1  0.326623  0.163311  0.496271  1
  Si  Si14  1  0.163322  0.836728  0.496087  1
  Si  Si15  1  0.673382  0.836692  0.496385  1
  Si  Si16  1  0.163307  0.326557  0.496264  1
  Si  Si17  1  0.163322  0.836728  0.003913  1
  Si  Si18  1  0.673382  0.836692  0.003615  1
  Si  Si19  1  0.163307  0.326557  0.003736  1
  Au  Au20  1  0.666564  0.333373  0.001446  1
  Au  Au21  1  0.666564  0.333373  0.498554  1
  Au  Au22  1  0.333428  0.666631  0.498074  1
  Au  Au23  1  0.333428  0.666631  0.001926  1
