# generated using pymatgen
data_DyY3Co14(P2Ru)6
_symmetry_space_group_name_H-M   'P 1'
_cell_length_a   3.73034600
_cell_length_b   10.45602700
_cell_length_c   11.87032200
_cell_angle_alpha   89.99780551
_cell_angle_beta   90.00000000
_cell_angle_gamma   90.00000000
_symmetry_Int_Tables_number   1
_chemical_formula_structural   DyY3Co14(P2Ru)6
_chemical_formula_sum   'Dy1 Y3 Co14 P12 Ru6'
_cell_volume   462.99714345
_cell_formula_units_Z   1
loop_
 _symmetry_equiv_pos_site_id
 _symmetry_equiv_pos_as_xyz
  1  'x, y, z'
loop_
 _atom_site_type_symbol
 _atom_site_label
 _atom_site_symmetry_multiplicity
 _atom_site_fract_x
 _atom_site_fract_y
 _atom_site_fract_z
 _atom_site_occupancy
  Dy  Dy0  1  0.250000  0.913003  0.205455  1
  Y  Y1  1  0.250000  0.587146  0.705450  1
  Y  Y2  1  0.750000  0.414823  0.292041  1
  Y  Y3  1  0.750000  0.085087  0.792049  1
  Co  Co4  1  0.750000  0.597843  0.512384  1
  Co  Co5  1  0.750000  0.902199  0.012762  1
  Co  Co6  1  0.250000  0.225079  0.179480  1
  Co  Co7  1  0.250000  0.274789  0.679423  1
  Co  Co8  1  0.750000  0.777220  0.822288  1
  Co  Co9  1  0.750000  0.723047  0.322229  1
  Co  Co10  1  0.250000  0.884224  0.700271  1
  Co  Co11  1  0.250000  0.615902  0.200300  1
  Co  Co12  1  0.750000  0.113498  0.298637  1
  Co  Co13  1  0.750000  0.386288  0.798715  1
  Co  Co14  1  0.250000  0.465219  0.931276  1
  Co  Co15  1  0.250000  0.034691  0.431089  1
  Co  Co16  1  0.750000  0.537598  0.067741  1
  Co  Co17  1  0.750000  0.962503  0.567528  1
  P  P18  1  0.250000  0.422632  0.111721  1
  P  P19  1  0.250000  0.077368  0.611593  1
  P  P20  1  0.750000  0.579165  0.887395  1
  P  P21  1  0.750000  0.920853  0.387135  1
  P  P22  1  0.250000  0.273044  0.866831  1
  P  P23  1  0.250000  0.226945  0.366808  1
  P  P24  1  0.750000  0.729372  0.132605  1
  P  P25  1  0.750000  0.770798  0.632496  1
  P  P26  1  0.250000  0.600667  0.387064  1
  P  P27  1  0.250000  0.899304  0.887081  1
  P  P28  1  0.750000  0.402193  0.612537  1
  P  P29  1  0.750000  0.097554  0.112633  1
  Ru  Ru30  1  0.250000  0.713974  0.989662  1
  Ru  Ru31  1  0.250000  0.786107  0.489492  1
  Ru  Ru32  1  0.750000  0.290269  0.013563  1
  Ru  Ru33  1  0.750000  0.209683  0.513464  1
  Ru  Ru34  1  0.250000  0.408898  0.489364  1
  Ru  Ru35  1  0.250000  0.091016  0.989436  1
