# generated using pymatgen
data_AcZn12Au
_symmetry_space_group_name_H-M   'P 1'
_cell_length_a   8.72494669
_cell_length_b   8.76355235
_cell_length_c   8.73231668
_cell_angle_alpha   59.82588677
_cell_angle_beta   60.05088228
_cell_angle_gamma   59.90925250
_symmetry_Int_Tables_number   1
_chemical_formula_structural   AcZn12Au
_chemical_formula_sum   'Ac2 Zn24 Au2'
_cell_volume   471.35792613
_cell_formula_units_Z   2
loop_
 _symmetry_equiv_pos_site_id
 _symmetry_equiv_pos_as_xyz
  1  'x, y, z'
loop_
 _atom_site_type_symbol
 _atom_site_label
 _atom_site_symmetry_multiplicity
 _atom_site_fract_x
 _atom_site_fract_y
 _atom_site_fract_z
 _atom_site_occupancy
  Ac  Ac0  1  0.249752  0.250248  0.249752  1
  Ac  Ac1  1  0.750248  0.749752  0.750248  1
  Zn  Zn2  1  0.500000  0.500000  0.500000  1
  Zn  Zn3  1  0.000000  0.000000  0.000000  1
  Zn  Zn4  1  0.558586  0.799670  0.441414  1
  Zn  Zn5  1  0.441414  0.200330  0.558586  1
  Zn  Zn6  1  0.303100  0.942605  0.696900  1
  Zn  Zn7  1  0.696900  0.057395  0.303100  1
  Zn  Zn8  1  0.938767  0.293027  0.061233  1
  Zn  Zn9  1  0.061233  0.706973  0.938767  1
  Zn  Zn10  1  0.200541  0.805548  0.553743  1
  Zn  Zn11  1  0.799459  0.194452  0.446257  1
  Zn  Zn12  1  0.446257  0.559832  0.799459  1
  Zn  Zn13  1  0.553743  0.440168  0.200541  1
  Zn  Zn14  1  0.699855  0.297228  0.943547  1
  Zn  Zn15  1  0.300145  0.702772  0.056453  1
  Zn  Zn16  1  0.056453  0.940631  0.300145  1
  Zn  Zn17  1  0.943547  0.059369  0.699855  1
  Zn  Zn18  1  0.561823  0.195532  0.801442  1
  Zn  Zn19  1  0.438177  0.804468  0.198558  1
  Zn  Zn20  1  0.801442  0.441204  0.561823  1
  Zn  Zn21  1  0.198558  0.558796  0.438177  1
  Zn  Zn22  1  0.939468  0.702698  0.300639  1
  Zn  Zn23  1  0.060532  0.297302  0.699361  1
  Zn  Zn24  1  0.300639  0.057197  0.939468  1
  Zn  Zn25  1  0.699361  0.942803  0.060532  1
  Au  Au26  1  0.800800  0.556072  0.199200  1
  Au  Au27  1  0.199200  0.443928  0.800800  1
