# generated using pymatgen
data_Ho2ScB2Ir5
_symmetry_space_group_name_H-M   'P 1'
_cell_length_a   3.16886700
_cell_length_b   9.78563800
_cell_length_c   9.78563800
_cell_angle_alpha   90.00000000
_cell_angle_beta   90.00000000
_cell_angle_gamma   90.00000000
_symmetry_Int_Tables_number   1
_chemical_formula_structural   Ho2ScB2Ir5
_chemical_formula_sum   'Ho4 Sc2 B4 Ir10'
_cell_volume   303.44661946
_cell_formula_units_Z   2
loop_
 _symmetry_equiv_pos_site_id
 _symmetry_equiv_pos_as_xyz
  1  'x, y, z'
loop_
 _atom_site_type_symbol
 _atom_site_label
 _atom_site_symmetry_multiplicity
 _atom_site_fract_x
 _atom_site_fract_y
 _atom_site_fract_z
 _atom_site_occupancy
  Ho  Ho0  1  0.000000  0.176920  0.676920  1
  Ho  Ho1  1  0.000000  0.823080  0.323080  1
  Ho  Ho2  1  0.000000  0.323080  0.176920  1
  Ho  Ho3  1  0.000000  0.676920  0.823080  1
  Sc  Sc4  1  0.000000  0.000000  0.000000  1
  Sc  Sc5  1  0.000000  0.500000  0.500000  1
  B  B6  1  0.000000  0.620324  0.120324  1
  B  B7  1  0.000000  0.379676  0.879676  1
  B  B8  1  0.000000  0.879676  0.620324  1
  B  B9  1  0.000000  0.120324  0.379676  1
  Ir  Ir10  1  0.500000  0.069210  0.225441  1
  Ir  Ir11  1  0.500000  0.930790  0.774559  1
  Ir  Ir12  1  0.500000  0.774559  0.069210  1
  Ir  Ir13  1  0.500000  0.430790  0.725441  1
  Ir  Ir14  1  0.500000  0.225441  0.930790  1
  Ir  Ir15  1  0.500000  0.569210  0.274559  1
  Ir  Ir16  1  0.500000  0.725441  0.569210  1
  Ir  Ir17  1  0.500000  0.274559  0.430790  1
  Ir  Ir18  1  0.500000  0.000000  0.500000  1
  Ir  Ir19  1  0.500000  0.500000  0.000000  1
