# generated using pymatgen
data_Zr4FeRh
_symmetry_space_group_name_H-M   'P 1'
_cell_length_a   8.69319860
_cell_length_b   8.69319924
_cell_length_c   8.69320000
_cell_angle_alpha   60.00000472
_cell_angle_beta   60.00000228
_cell_angle_gamma   60.00000616
_symmetry_Int_Tables_number   1
_chemical_formula_structural   Zr4FeRh
_chemical_formula_sum   'Zr16 Fe4 Rh4'
_cell_volume   464.54089404
_cell_formula_units_Z   4
loop_
 _symmetry_equiv_pos_site_id
 _symmetry_equiv_pos_as_xyz
  1  'x, y, z'
loop_
 _atom_site_type_symbol
 _atom_site_label
 _atom_site_symmetry_multiplicity
 _atom_site_fract_x
 _atom_site_fract_y
 _atom_site_fract_z
 _atom_site_occupancy
  Zr  Zr0  1  0.060320  0.646560  0.646560  1
  Zr  Zr1  1  0.646560  0.060320  0.646560  1
  Zr  Zr2  1  0.646560  0.646560  0.060320  1
  Zr  Zr3  1  0.646560  0.646560  0.646560  1
  Zr  Zr4  1  0.804655  0.804655  0.195345  1
  Zr  Zr5  1  0.195345  0.195345  0.804655  1
  Zr  Zr6  1  0.804655  0.195345  0.804655  1
  Zr  Zr7  1  0.195345  0.804655  0.195345  1
  Zr  Zr8  1  0.195345  0.804655  0.804655  1
  Zr  Zr9  1  0.804655  0.195345  0.195345  1
  Zr  Zr10  1  0.438334  0.438334  0.061666  1
  Zr  Zr11  1  0.061666  0.061666  0.438334  1
  Zr  Zr12  1  0.438334  0.061666  0.438334  1
  Zr  Zr13  1  0.061666  0.438334  0.061666  1
  Zr  Zr14  1  0.061666  0.438334  0.438334  1
  Zr  Zr15  1  0.438334  0.061666  0.061666  1
  Fe  Fe16  1  0.422117  0.859294  0.859294  1
  Fe  Fe17  1  0.859294  0.422117  0.859294  1
  Fe  Fe18  1  0.859294  0.859294  0.422117  1
  Fe  Fe19  1  0.859294  0.859294  0.859294  1
  Rh  Rh20  1  0.752235  0.415922  0.415922  1
  Rh  Rh21  1  0.415922  0.752235  0.415922  1
  Rh  Rh22  1  0.415922  0.415922  0.752235  1
  Rh  Rh23  1  0.415922  0.415922  0.415922  1
