# generated using pymatgen
data_Ca2FeRuO6
_symmetry_space_group_name_H-M   'P 1'
_cell_length_a   5.57002500
_cell_length_b   5.43731950
_cell_length_c   9.46555644
_cell_angle_alpha   54.92608329
_cell_angle_beta   90.00000000
_cell_angle_gamma   90.00000000
_symmetry_Int_Tables_number   1
_chemical_formula_structural   Ca2FeRuO6
_chemical_formula_sum   'Ca4 Fe2 Ru2 O12'
_cell_volume   234.61718315
_cell_formula_units_Z   2
loop_
 _symmetry_equiv_pos_site_id
 _symmetry_equiv_pos_as_xyz
  1  'x, y, z'
loop_
 _atom_site_type_symbol
 _atom_site_label
 _atom_site_symmetry_multiplicity
 _atom_site_fract_x
 _atom_site_fract_y
 _atom_site_fract_z
 _atom_site_occupancy
  Ca  Ca0  1  0.449279  0.762188  0.748951  1
  Ca  Ca1  1  0.050721  0.762188  0.248951  1
  Ca  Ca2  1  0.550721  0.237812  0.251049  1
  Ca  Ca3  1  0.949279  0.237812  0.751049  1
  Fe  Fe4  1  0.000000  0.000000  0.500000  1
  Fe  Fe5  1  0.500000  0.000000  0.000000  1
  Ru  Ru6  1  0.500000  0.500000  0.500000  1
  Ru  Ru7  1  0.000000  0.500000  0.000000  1
  O  O8  1  0.702005  0.160694  0.544913  1
  O  O9  1  0.797995  0.160694  0.044913  1
  O  O10  1  0.297995  0.839306  0.455087  1
  O  O11  1  0.202005  0.839306  0.955087  1
  O  O12  1  0.707876  0.746065  0.952704  1
  O  O13  1  0.792124  0.746065  0.452704  1
  O  O14  1  0.292124  0.253935  0.047296  1
  O  O15  1  0.207876  0.253935  0.547296  1
  O  O16  1  0.525988  0.340585  0.747523  1
  O  O17  1  0.974012  0.340585  0.247523  1
  O  O18  1  0.474012  0.659415  0.252477  1
  O  O19  1  0.025988  0.659415  0.752477  1
