# generated using pymatgen
data_Er3Lu2Bi2Os
_symmetry_space_group_name_H-M   'P 1'
_cell_length_a   7.87100000
_cell_length_b   8.97238800
_cell_length_c   12.45886600
_cell_angle_alpha   90.00000000
_cell_angle_beta   90.00000000
_cell_angle_gamma   90.00000000
_symmetry_Int_Tables_number   1
_chemical_formula_structural   Er3Lu2Bi2Os
_chemical_formula_sum   'Er12 Lu8 Bi8 Os4'
_cell_volume   879.86587274
_cell_formula_units_Z   4
loop_
 _symmetry_equiv_pos_site_id
 _symmetry_equiv_pos_as_xyz
  1  'x, y, z'
loop_
 _atom_site_type_symbol
 _atom_site_label
 _atom_site_symmetry_multiplicity
 _atom_site_fract_x
 _atom_site_fract_y
 _atom_site_fract_z
 _atom_site_occupancy
  Er  Er0  1  0.839139  0.750000  0.792127  1
  Er  Er1  1  0.160861  0.250000  0.207873  1
  Er  Er2  1  0.339139  0.250000  0.707873  1
  Er  Er3  1  0.660861  0.750000  0.292127  1
  Er  Er4  1  0.375598  0.750000  0.688447  1
  Er  Er5  1  0.624402  0.250000  0.311553  1
  Er  Er6  1  0.875598  0.250000  0.811553  1
  Er  Er7  1  0.124402  0.750000  0.188447  1
  Er  Er8  1  0.941278  0.750000  0.504671  1
  Er  Er9  1  0.058722  0.250000  0.495329  1
  Er  Er10  1  0.441278  0.250000  0.995329  1
  Er  Er11  1  0.558722  0.750000  0.004671  1
  Lu  Lu12  1  0.670433  0.042155  0.564740  1
  Lu  Lu13  1  0.329567  0.957845  0.435260  1
  Lu  Lu14  1  0.170433  0.957845  0.935260  1
  Lu  Lu15  1  0.329567  0.542155  0.435260  1
  Lu  Lu16  1  0.829567  0.042155  0.064740  1
  Lu  Lu17  1  0.670433  0.457845  0.564740  1
  Lu  Lu18  1  0.829567  0.457845  0.064740  1
  Lu  Lu19  1  0.170433  0.542155  0.935260  1
  Bi  Bi20  1  0.564395  0.494033  0.827673  1
  Bi  Bi21  1  0.435605  0.505967  0.172327  1
  Bi  Bi22  1  0.064395  0.505967  0.672327  1
  Bi  Bi23  1  0.435605  0.994033  0.172327  1
  Bi  Bi24  1  0.935605  0.494033  0.327673  1
  Bi  Bi25  1  0.564395  0.005967  0.827673  1
  Bi  Bi26  1  0.935605  0.005967  0.327673  1
  Bi  Bi27  1  0.064395  0.994033  0.672327  1
  Os  Os28  1  0.573524  0.750000  0.508308  1
  Os  Os29  1  0.426476  0.250000  0.491692  1
  Os  Os30  1  0.073524  0.250000  0.991692  1
  Os  Os31  1  0.926476  0.750000  0.008308  1
