# generated using pymatgen
data_Hf5Zn(B2Ru5)2
_symmetry_space_group_name_H-M   'P 1'
_cell_length_a   9.42379200
_cell_length_b   9.42379200
_cell_length_c   3.11247400
_cell_angle_alpha   90.00000000
_cell_angle_beta   90.00000000
_cell_angle_gamma   90.00000000
_symmetry_Int_Tables_number   1
_chemical_formula_structural   Hf5Zn(B2Ru5)2
_chemical_formula_sum   'Hf5 Zn1 B4 Ru10'
_cell_volume   276.41214174
_cell_formula_units_Z   1
loop_
 _symmetry_equiv_pos_site_id
 _symmetry_equiv_pos_as_xyz
  1  'x, y, z'
loop_
 _atom_site_type_symbol
 _atom_site_label
 _atom_site_symmetry_multiplicity
 _atom_site_fract_x
 _atom_site_fract_y
 _atom_site_fract_z
 _atom_site_occupancy
  Hf  Hf0  1  0.823441  0.674282  0.000000  1
  Hf  Hf1  1  0.176559  0.325718  0.000000  1
  Hf  Hf2  1  0.325718  0.823441  0.000000  1
  Hf  Hf3  1  0.674282  0.176559  0.000000  1
  Hf  Hf4  1  0.000000  0.000000  0.000000  1
  Zn  Zn5  1  0.500000  0.500000  0.000000  1
  B  B6  1  0.619073  0.871538  0.000000  1
  B  B7  1  0.380927  0.128462  0.000000  1
  B  B8  1  0.128462  0.619073  0.000000  1
  B  B9  1  0.871538  0.380927  0.000000  1
  Ru  Ru10  1  0.500000  0.000000  0.500000  1
  Ru  Ru11  1  0.000000  0.500000  0.500000  1
  Ru  Ru12  1  0.568100  0.714420  0.500000  1
  Ru  Ru13  1  0.431900  0.285580  0.500000  1
  Ru  Ru14  1  0.074530  0.777809  0.500000  1
  Ru  Ru15  1  0.925470  0.222191  0.500000  1
  Ru  Ru16  1  0.285580  0.568100  0.500000  1
  Ru  Ru17  1  0.714420  0.431900  0.500000  1
  Ru  Ru18  1  0.222191  0.074530  0.500000  1
  Ru  Ru19  1  0.777809  0.925470  0.500000  1
