# generated using pymatgen
data_DyY7(Er3Sn4)4
_symmetry_space_group_name_H-M   'P 1'
_cell_length_a   8.01151022
_cell_length_b   8.14594129
_cell_length_c   15.40057011
_cell_angle_alpha   90.01368563
_cell_angle_beta   89.99894087
_cell_angle_gamma   90.02706369
_symmetry_Int_Tables_number   1
_chemical_formula_structural   DyY7(Er3Sn4)4
_chemical_formula_sum   'Dy1 Y7 Er12 Sn16'
_cell_volume   1005.06096028
_cell_formula_units_Z   1
loop_
 _symmetry_equiv_pos_site_id
 _symmetry_equiv_pos_as_xyz
  1  'x, y, z'
loop_
 _atom_site_type_symbol
 _atom_site_label
 _atom_site_symmetry_multiplicity
 _atom_site_fract_x
 _atom_site_fract_y
 _atom_site_fract_z
 _atom_site_occupancy
  Dy  Dy0  1  0.021364  0.179432  0.902518  1
  Y  Y1  1  0.521553  0.320631  0.902548  1
  Y  Y2  1  0.021510  0.179385  0.597458  1
  Y  Y3  1  0.478558  0.679377  0.402564  1
  Y  Y4  1  0.978541  0.820609  0.097436  1
  Y  Y5  1  0.478511  0.679410  0.097404  1
  Y  Y6  1  0.978506  0.820645  0.402544  1
  Y  Y7  1  0.521475  0.320594  0.597446  1
  Er  Er8  1  0.367437  0.836462  0.877582  1
  Er  Er9  1  0.867488  0.663553  0.622440  1
  Er  Er10  1  0.632543  0.163528  0.377564  1
  Er  Er11  1  0.132449  0.336408  0.122329  1
  Er  Er12  1  0.632467  0.163520  0.122419  1
  Er  Er13  1  0.132513  0.336433  0.377588  1
  Er  Er14  1  0.367457  0.836469  0.622441  1
  Er  Er15  1  0.867483  0.663538  0.877561  1
  Er  Er16  1  0.198346  0.503620  0.750024  1
  Er  Er17  1  0.698490  0.996380  0.750016  1
  Er  Er18  1  0.801596  0.496285  0.249987  1
  Er  Er19  1  0.301623  0.003711  0.249967  1
  Sn  Sn20  1  0.293422  0.036511  0.041713  1
  Sn  Sn21  1  0.793399  0.463467  0.458200  1
  Sn  Sn22  1  0.706578  0.963446  0.541769  1
  Sn  Sn23  1  0.206510  0.536424  0.958224  1
  Sn  Sn24  1  0.706852  0.963679  0.958230  1
  Sn  Sn25  1  0.206562  0.536463  0.541762  1
  Sn  Sn26  1  0.293409  0.036518  0.458226  1
  Sn  Sn27  1  0.793428  0.463440  0.041765  1
  Sn  Sn28  1  0.564804  0.620199  0.750008  1
  Sn  Sn29  1  0.064851  0.879875  0.750087  1
  Sn  Sn30  1  0.435128  0.379812  0.250020  1
  Sn  Sn31  1  0.935102  0.120175  0.250013  1
  Sn  Sn32  1  0.329955  0.147255  0.750053  1
  Sn  Sn33  1  0.830169  0.352688  0.750096  1
  Sn  Sn34  1  0.670012  0.852828  0.250013  1
  Sn  Sn35  1  0.169908  0.647232  0.249986  1
