# generated using pymatgen
data_HoHfReB6
_symmetry_space_group_name_H-M   'P 1'
_cell_length_a   3.59207700
_cell_length_b   8.99383400
_cell_length_c   11.37242900
_cell_angle_alpha   90.00000000
_cell_angle_beta   90.00000000
_cell_angle_gamma   90.00000000
_symmetry_Int_Tables_number   1
_chemical_formula_structural   HoHfReB6
_chemical_formula_sum   'Ho4 Hf4 Re4 B24'
_cell_volume   367.40388076
_cell_formula_units_Z   4
loop_
 _symmetry_equiv_pos_site_id
 _symmetry_equiv_pos_as_xyz
  1  'x, y, z'
loop_
 _atom_site_type_symbol
 _atom_site_label
 _atom_site_symmetry_multiplicity
 _atom_site_fract_x
 _atom_site_fract_y
 _atom_site_fract_z
 _atom_site_occupancy
  Ho  Ho0  1  0.000000  0.322176  0.413980  1
  Ho  Ho1  1  0.000000  0.677824  0.586020  1
  Ho  Ho2  1  0.000000  0.822176  0.086020  1
  Ho  Ho3  1  0.000000  0.177824  0.913980  1
  Hf  Hf4  1  0.000000  0.945009  0.372562  1
  Hf  Hf5  1  0.000000  0.054991  0.627438  1
  Hf  Hf6  1  0.000000  0.445009  0.127438  1
  Hf  Hf7  1  0.000000  0.554991  0.872562  1
  Re  Re8  1  0.000000  0.640456  0.318107  1
  Re  Re9  1  0.000000  0.359544  0.681893  1
  Re  Re10  1  0.000000  0.140456  0.181893  1
  Re  Re11  1  0.000000  0.859544  0.818107  1
  B  B12  1  0.500000  0.554493  0.433506  1
  B  B13  1  0.500000  0.445507  0.566494  1
  B  B14  1  0.500000  0.054493  0.066494  1
  B  B15  1  0.500000  0.945507  0.933506  1
  B  B16  1  0.500000  0.752667  0.418440  1
  B  B17  1  0.500000  0.247333  0.581560  1
  B  B18  1  0.500000  0.252667  0.081560  1
  B  B19  1  0.500000  0.747333  0.918440  1
  B  B20  1  0.500000  0.794903  0.264326  1
  B  B21  1  0.500000  0.205097  0.735674  1
  B  B22  1  0.500000  0.294903  0.235674  1
  B  B23  1  0.500000  0.705097  0.764326  1
  B  B24  1  0.500000  0.630026  0.183129  1
  B  B25  1  0.500000  0.369974  0.816871  1
  B  B26  1  0.500000  0.130026  0.316871  1
  B  B27  1  0.500000  0.869974  0.683129  1
  B  B28  1  0.500000  0.981753  0.213468  1
  B  B29  1  0.500000  0.018247  0.786532  1
  B  B30  1  0.500000  0.481753  0.286532  1
  B  B31  1  0.500000  0.518247  0.713468  1
  B  B32  1  0.500000  0.599768  0.026778  1
  B  B33  1  0.500000  0.400232  0.973222  1
  B  B34  1  0.500000  0.099768  0.473222  1
  B  B35  1  0.500000  0.900232  0.526778  1
