# generated using pymatgen
data_YbEr(TcB4)2
_symmetry_space_group_name_H-M   'P 1'
_cell_length_a   3.57635900
_cell_length_b   5.96035342
_cell_length_c   11.53117110
_cell_angle_alpha   90.00243934
_cell_angle_beta   90.00000000
_cell_angle_gamma   90.00000000
_symmetry_Int_Tables_number   1
_chemical_formula_structural   YbEr(TcB4)2
_chemical_formula_sum   'Yb2 Er2 Tc4 B16'
_cell_volume   245.80263561
_cell_formula_units_Z   2
loop_
 _symmetry_equiv_pos_site_id
 _symmetry_equiv_pos_as_xyz
  1  'x, y, z'
loop_
 _atom_site_type_symbol
 _atom_site_label
 _atom_site_symmetry_multiplicity
 _atom_site_fract_x
 _atom_site_fract_y
 _atom_site_fract_z
 _atom_site_occupancy
  Yb  Yb0  1  0.500000  0.128355  0.350734  1
  Yb  Yb1  1  0.500000  0.871645  0.649266  1
  Er  Er2  1  0.500000  0.628439  0.151516  1
  Er  Er3  1  0.500000  0.371561  0.848484  1
  Tc  Tc4  1  0.500000  0.630570  0.415667  1
  Tc  Tc5  1  0.500000  0.369430  0.584333  1
  Tc  Tc6  1  0.500000  0.133029  0.085422  1
  Tc  Tc7  1  0.500000  0.866971  0.914578  1
  B  B8  1  0.000000  0.977379  0.193026  1
  B  B9  1  0.000000  0.022621  0.806974  1
  B  B10  1  0.000000  0.478104  0.307352  1
  B  B11  1  0.000000  0.521896  0.692648  1
  B  B12  1  0.000000  0.787054  0.315284  1
  B  B13  1  0.000000  0.212946  0.684716  1
  B  B14  1  0.000000  0.286427  0.185615  1
  B  B15  1  0.000000  0.713573  0.814385  1
  B  B16  1  0.000000  0.865564  0.467691  1
  B  B17  1  0.000000  0.134436  0.532309  1
  B  B18  1  0.000000  0.365086  0.031644  1
  B  B19  1  0.000000  0.634914  0.968356  1
  B  B20  1  0.000000  0.886763  0.047754  1
  B  B21  1  0.000000  0.113237  0.952246  1
  B  B22  1  0.000000  0.386043  0.452769  1
  B  B23  1  0.000000  0.613957  0.547231  1
