# generated using pymatgen
data_CsMgBe3F9
_symmetry_space_group_name_H-M   'P 1'
_cell_length_a   6.87500100
_cell_length_b   6.87500030
_cell_length_c   9.79668800
_cell_angle_alpha   90.00000000
_cell_angle_beta   90.00000000
_cell_angle_gamma   119.99999855
_symmetry_Int_Tables_number   1
_chemical_formula_structural   CsMgBe3F9
_chemical_formula_sum   'Cs2 Mg2 Be6 F18'
_cell_volume   401.01018433
_cell_formula_units_Z   2
loop_
 _symmetry_equiv_pos_site_id
 _symmetry_equiv_pos_as_xyz
  1  'x, y, z'
loop_
 _atom_site_type_symbol
 _atom_site_label
 _atom_site_symmetry_multiplicity
 _atom_site_fract_x
 _atom_site_fract_y
 _atom_site_fract_z
 _atom_site_occupancy
  Cs  Cs0  1  0.333333  0.666667  0.500000  1
  Cs  Cs1  1  0.333333  0.666667  0.000000  1
  Mg  Mg2  1  0.000000  0.000000  0.500000  1
  Mg  Mg3  1  0.000000  0.000000  0.000000  1
  Be  Be4  1  0.866531  0.254717  0.250000  1
  Be  Be5  1  0.866531  0.611814  0.750000  1
  Be  Be6  1  0.388186  0.254717  0.750000  1
  Be  Be7  1  0.745283  0.133469  0.750000  1
  Be  Be8  1  0.745283  0.611814  0.250000  1
  Be  Be9  1  0.388186  0.133469  0.250000  1
  F  F10  1  0.774923  0.024282  0.620161  1
  F  F11  1  0.249359  0.225077  0.620161  1
  F  F12  1  0.975718  0.750641  0.620161  1
  F  F13  1  0.975718  0.225077  0.379839  1
  F  F14  1  0.906750  0.506883  0.250000  1
  F  F15  1  0.600134  0.093250  0.250000  1
  F  F16  1  0.493117  0.399866  0.250000  1
  F  F17  1  0.493117  0.093250  0.750000  1
  F  F18  1  0.600134  0.506883  0.750000  1
  F  F19  1  0.906750  0.399866  0.750000  1
  F  F20  1  0.975718  0.225077  0.120161  1
  F  F21  1  0.249359  0.024282  0.379839  1
  F  F22  1  0.774923  0.750641  0.379839  1
  F  F23  1  0.774923  0.750641  0.120161  1
  F  F24  1  0.249359  0.024282  0.120161  1
  F  F25  1  0.774923  0.024282  0.879839  1
  F  F26  1  0.249359  0.225077  0.879839  1
  F  F27  1  0.975718  0.750641  0.879839  1
