# generated using pymatgen
data_Pr20Si15Rh
_symmetry_space_group_name_H-M   'P 1'
_cell_length_a   7.93233186
_cell_length_b   7.93757218
_cell_length_c   15.29119127
_cell_angle_alpha   90.08553287
_cell_angle_beta   89.82196651
_cell_angle_gamma   90.17285797
_symmetry_Int_Tables_number   1
_chemical_formula_structural   Pr20Si15Rh
_chemical_formula_sum   'Pr20 Si15 Rh1'
_cell_volume   962.77616954
_cell_formula_units_Z   1
loop_
 _symmetry_equiv_pos_site_id
 _symmetry_equiv_pos_as_xyz
  1  'x, y, z'
loop_
 _atom_site_type_symbol
 _atom_site_label
 _atom_site_symmetry_multiplicity
 _atom_site_fract_x
 _atom_site_fract_y
 _atom_site_fract_z
 _atom_site_occupancy
  Pr  Pr0  1  0.306149  0.306602  0.998268  1
  Pr  Pr1  1  0.190356  0.808688  0.249823  1
  Pr  Pr2  1  0.816706  0.187959  0.750443  1
  Pr  Pr3  1  0.692462  0.688399  0.500397  1
  Pr  Pr4  1  0.374073  0.010978  0.448954  1
  Pr  Pr5  1  0.489622  0.875713  0.697909  1
  Pr  Pr6  1  0.510365  0.124068  0.198105  1
  Pr  Pr7  1  0.875539  0.488350  0.300184  1
  Pr  Pr8  1  0.124384  0.509085  0.800221  1
  Pr  Pr9  1  0.626000  0.988212  0.948791  1
  Pr  Pr10  1  0.005861  0.375921  0.551919  1
  Pr  Pr11  1  0.988332  0.624986  0.051236  1
  Pr  Pr12  1  0.133089  0.986490  0.873899  1
  Pr  Pr13  1  0.516546  0.630010  0.125783  1
  Pr  Pr14  1  0.474905  0.362007  0.628193  1
  Pr  Pr15  1  0.627665  0.516277  0.873911  1
  Pr  Pr16  1  0.373323  0.483293  0.373812  1
  Pr  Pr17  1  0.872678  0.019364  0.376548  1
  Pr  Pr18  1  0.982769  0.127018  0.124345  1
  Pr  Pr19  1  0.024751  0.879802  0.625593  1
  Si  Si20  1  0.332682  0.695912  0.950591  1
  Si  Si21  1  0.665788  0.303843  0.451578  1
  Si  Si22  1  0.697623  0.334750  0.049872  1
  Si  Si23  1  0.304097  0.668058  0.548486  1
  Si  Si24  1  0.804213  0.832853  0.202092  1
  Si  Si25  1  0.167764  0.197563  0.298652  1
  Si  Si26  1  0.833563  0.802710  0.799175  1
  Si  Si27  1  0.288557  0.922233  0.058623  1
  Si  Si28  1  0.578709  0.787824  0.309813  1
  Si  Si29  1  0.426402  0.208334  0.811728  1
  Si  Si30  1  0.784845  0.580506  0.690345  1
  Si  Si31  1  0.212306  0.422106  0.190585  1
  Si  Si32  1  0.705964  0.075079  0.558655  1
  Si  Si33  1  0.920044  0.288671  0.941638  1
  Si  Si34  1  0.078911  0.714326  0.441638  1
  Rh  Rh35  1  0.192954  0.172011  0.698195  1
