# generated using pymatgen
data_TlS8Cl3
_symmetry_space_group_name_H-M   'P 1'
_cell_length_a   8.36659621
_cell_length_b   10.43782184
_cell_length_c   11.80200965
_cell_angle_alpha   96.88054718
_cell_angle_beta   112.39849276
_cell_angle_gamma   105.09698018
_symmetry_Int_Tables_number   1
_chemical_formula_structural   TlS8Cl3
_chemical_formula_sum   'Tl2 S16 Cl6'
_cell_volume   891.88374283
_cell_formula_units_Z   2
loop_
 _symmetry_equiv_pos_site_id
 _symmetry_equiv_pos_as_xyz
  1  'x, y, z'
loop_
 _atom_site_type_symbol
 _atom_site_label
 _atom_site_symmetry_multiplicity
 _atom_site_fract_x
 _atom_site_fract_y
 _atom_site_fract_z
 _atom_site_occupancy
  Tl  Tl0  1  0.794553  0.972690  0.840595  1
  Tl  Tl1  1  0.205447  0.027310  0.159405  1
  S  S2  1  0.852158  0.502880  0.806470  1
  S  S3  1  0.147842  0.497120  0.193530  1
  S  S4  1  0.708489  0.417841  0.614747  1
  S  S5  1  0.291511  0.582159  0.385253  1
  S  S6  1  0.732782  0.227813  0.573751  1
  S  S7  1  0.267218  0.772187  0.426249  1
  S  S8  1  0.937505  0.242625  0.514492  1
  S  S9  1  0.062495  0.757375  0.485508  1
  S  S10  1  0.893040  0.366996  0.158565  1
  S  S11  1  0.106960  0.633004  0.841435  1
  S  S12  1  0.705069  0.467655  0.103947  1
  S  S13  1  0.294931  0.532345  0.896053  1
  S  S14  1  0.662972  0.541839  0.256547  1
  S  S15  1  0.337028  0.458161  0.743453  1
  S  S16  1  0.824429  0.744904  0.335330  1
  S  S17  1  0.175571  0.255096  0.664670  1
  Cl  Cl18  1  0.567958  0.069139  0.844765  1
  Cl  Cl19  1  0.432042  0.930861  0.155235  1
  Cl  Cl20  1  0.871240  0.850145  0.028548  1
  Cl  Cl21  1  0.128760  0.149855  0.971452  1
  Cl  Cl22  1  0.800139  0.831027  0.668490  1
  Cl  Cl23  1  0.199861  0.168973  0.331510  1
