# generated using pymatgen
data_Pr3Th(ZnRh)4
_symmetry_space_group_name_H-M   'P 1'
_cell_length_a   4.02326100
_cell_length_b   7.41028300
_cell_length_c   16.66041900
_cell_angle_alpha   90.00000000
_cell_angle_beta   90.00000000
_cell_angle_gamma   90.00000000
_symmetry_Int_Tables_number   1
_chemical_formula_structural   Pr3Th(ZnRh)4
_chemical_formula_sum   'Pr6 Th2 Zn8 Rh8'
_cell_volume   496.70544505
_cell_formula_units_Z   2
loop_
 _symmetry_equiv_pos_site_id
 _symmetry_equiv_pos_as_xyz
  1  'x, y, z'
loop_
 _atom_site_type_symbol
 _atom_site_label
 _atom_site_symmetry_multiplicity
 _atom_site_fract_x
 _atom_site_fract_y
 _atom_site_fract_z
 _atom_site_occupancy
  Pr  Pr0  1  0.750000  0.828685  0.058498  1
  Pr  Pr1  1  0.250000  0.048667  0.716080  1
  Pr  Pr2  1  0.250000  0.171942  0.939155  1
  Pr  Pr3  1  0.250000  0.548667  0.783920  1
  Pr  Pr4  1  0.750000  0.328685  0.441502  1
  Pr  Pr5  1  0.250000  0.671942  0.560845  1
  Th  Th6  1  0.750000  0.444781  0.216201  1
  Th  Th7  1  0.750000  0.944781  0.283799  1
  Zn  Zn8  1  0.250000  0.002192  0.441313  1
  Zn  Zn9  1  0.750000  0.504404  0.939337  1
  Zn  Zn10  1  0.750000  0.004404  0.560663  1
  Zn  Zn11  1  0.250000  0.618364  0.351681  1
  Zn  Zn12  1  0.750000  0.379542  0.651040  1
  Zn  Zn13  1  0.750000  0.879542  0.848960  1
  Zn  Zn14  1  0.250000  0.502192  0.058687  1
  Zn  Zn15  1  0.250000  0.118364  0.148319  1
  Rh  Rh16  1  0.250000  0.247461  0.565340  1
  Rh  Rh17  1  0.750000  0.266120  0.070295  1
  Rh  Rh18  1  0.250000  0.234962  0.306264  1
  Rh  Rh19  1  0.750000  0.252880  0.815120  1
  Rh  Rh20  1  0.250000  0.747461  0.934660  1
  Rh  Rh21  1  0.750000  0.752880  0.684880  1
  Rh  Rh22  1  0.750000  0.766120  0.429705  1
  Rh  Rh23  1  0.250000  0.734962  0.193736  1
