# generated using pymatgen
data_CaTb2Dy5(B6Os)4
_symmetry_space_group_name_H-M   'P 1'
_cell_length_a   3.66210100
_cell_length_b   9.17185564
_cell_length_c   11.56077001
_cell_angle_alpha   90.10494040
_cell_angle_beta   90.00000000
_cell_angle_gamma   90.00000000
_symmetry_Int_Tables_number   1
_chemical_formula_structural   CaTb2Dy5(B6Os)4
_chemical_formula_sum   'Ca1 Tb2 Dy5 B24 Os4'
_cell_volume   388.30551739
_cell_formula_units_Z   1
loop_
 _symmetry_equiv_pos_site_id
 _symmetry_equiv_pos_as_xyz
  1  'x, y, z'
loop_
 _atom_site_type_symbol
 _atom_site_label
 _atom_site_symmetry_multiplicity
 _atom_site_fract_x
 _atom_site_fract_y
 _atom_site_fract_z
 _atom_site_occupancy
  Ca  Ca0  1  0.000000  0.822716  0.086256  1
  Tb  Tb1  1  0.000000  0.322246  0.413452  1
  Tb  Tb2  1  0.000000  0.678220  0.585631  1
  Dy  Dy3  1  0.000000  0.176207  0.914859  1
  Dy  Dy4  1  0.000000  0.942924  0.370848  1
  Dy  Dy5  1  0.000000  0.056231  0.627494  1
  Dy  Dy6  1  0.000000  0.443710  0.128230  1
  Dy  Dy7  1  0.000000  0.558082  0.872538  1
  B  B8  1  0.500000  0.553309  0.433015  1
  B  B9  1  0.500000  0.445900  0.567892  1
  B  B10  1  0.500000  0.053974  0.067235  1
  B  B11  1  0.500000  0.946448  0.932519  1
  B  B12  1  0.500000  0.747182  0.418939  1
  B  B13  1  0.500000  0.252148  0.580925  1
  B  B14  1  0.500000  0.247748  0.080812  1
  B  B15  1  0.500000  0.752894  0.918874  1
  B  B16  1  0.500000  0.789437  0.266532  1
  B  B17  1  0.500000  0.209792  0.733724  1
  B  B18  1  0.500000  0.290475  0.233392  1
  B  B19  1  0.500000  0.710585  0.766456  1
  B  B20  1  0.500000  0.630832  0.186272  1
  B  B21  1  0.500000  0.368750  0.814737  1
  B  B22  1  0.500000  0.131488  0.313480  1
  B  B23  1  0.500000  0.868889  0.685449  1
  B  B24  1  0.500000  0.983745  0.212193  1
  B  B25  1  0.500000  0.016647  0.787437  1
  B  B26  1  0.500000  0.483326  0.287882  1
  B  B27  1  0.500000  0.516539  0.713059  1
  B  B28  1  0.500000  0.604488  0.029165  1
  B  B29  1  0.500000  0.394357  0.970734  1
  B  B30  1  0.500000  0.107590  0.469858  1
  B  B31  1  0.500000  0.892510  0.529359  1
  Os  Os32  1  0.000000  0.636169  0.322779  1
  Os  Os33  1  0.000000  0.362466  0.678976  1
  Os  Os34  1  0.000000  0.139122  0.179012  1
  Os  Os35  1  0.000000  0.862852  0.819983  1
