# generated using pymatgen
data_Mn3SbRh4
_symmetry_space_group_name_H-M   'P 1'
_cell_length_a   7.62811864
_cell_length_b   7.62811888
_cell_length_c   7.62811901
_cell_angle_alpha   33.46708769
_cell_angle_beta   33.46708932
_cell_angle_gamma   33.46707705
_symmetry_Int_Tables_number   1
_chemical_formula_structural   Mn3SbRh4
_chemical_formula_sum   'Mn3 Sb1 Rh4'
_cell_volume   120.21414159
_cell_formula_units_Z   1
loop_
 _symmetry_equiv_pos_site_id
 _symmetry_equiv_pos_as_xyz
  1  'x, y, z'
loop_
 _atom_site_type_symbol
 _atom_site_label
 _atom_site_symmetry_multiplicity
 _atom_site_fract_x
 _atom_site_fract_y
 _atom_site_fract_z
 _atom_site_occupancy
  Mn  Mn0  1  0.246010  0.246010  0.246010  1
  Mn  Mn1  1  0.753990  0.753990  0.753990  1
  Mn  Mn2  1  0.500000  0.500000  0.500000  1
  Sb  Sb3  1  0.000000  0.000000  0.000000  1
  Rh  Rh4  1  0.874673  0.874673  0.874673  1
  Rh  Rh5  1  0.375404  0.375404  0.375404  1
  Rh  Rh6  1  0.125327  0.125327  0.125327  1
  Rh  Rh7  1  0.624596  0.624596  0.624596  1
