# generated using pymatgen
data_Tm2Zn2CoNi5B2
_symmetry_space_group_name_H-M   'P 1'
_cell_length_a   5.11459352
_cell_length_b   5.07037873
_cell_length_c   6.82286100
_cell_angle_alpha   90.00000000
_cell_angle_beta   90.00000000
_cell_angle_gamma   119.71443338
_symmetry_Int_Tables_number   1
_chemical_formula_structural   Tm2Zn2CoNi5B2
_chemical_formula_sum   'Tm2 Zn2 Co1 Ni5 B2'
_cell_volume   153.67074941
_cell_formula_units_Z   1
loop_
 _symmetry_equiv_pos_site_id
 _symmetry_equiv_pos_as_xyz
  1  'x, y, z'
loop_
 _atom_site_type_symbol
 _atom_site_label
 _atom_site_symmetry_multiplicity
 _atom_site_fract_x
 _atom_site_fract_y
 _atom_site_fract_z
 _atom_site_occupancy
  Tm  Tm0  1  0.000000  0.000000  0.010549  1
  Tm  Tm1  1  0.000000  0.000000  0.501898  1
  Zn  Zn2  1  0.667926  0.333963  0.998926  1
  Zn  Zn3  1  0.332074  0.666037  0.998926  1
  Co  Co4  1  0.000000  0.500000  0.298971  1
  Ni  Ni5  1  0.500000  0.500000  0.699997  1
  Ni  Ni6  1  0.500000  0.000000  0.699997  1
  Ni  Ni7  1  0.000000  0.500000  0.702856  1
  Ni  Ni8  1  0.500000  0.500000  0.296870  1
  Ni  Ni9  1  0.500000  0.000000  0.296870  1
  B  B10  1  0.674310  0.337154  0.497070  1
  B  B11  1  0.325690  0.662846  0.497070  1
