# generated using pymatgen
data_TbSm4TmCoBr10
_symmetry_space_group_name_H-M   'P 1'
_cell_length_a   7.40121734
_cell_length_b   9.21645587
_cell_length_c   9.37299427
_cell_angle_alpha   108.47772079
_cell_angle_beta   96.54513982
_cell_angle_gamma   105.26346622
_symmetry_Int_Tables_number   1
_chemical_formula_structural   TbSm4TmCoBr10
_chemical_formula_sum   'Tb1 Sm4 Tm1 Co1 Br10'
_cell_volume   571.22908393
_cell_formula_units_Z   1
loop_
 _symmetry_equiv_pos_site_id
 _symmetry_equiv_pos_as_xyz
  1  'x, y, z'
loop_
 _atom_site_type_symbol
 _atom_site_label
 _atom_site_symmetry_multiplicity
 _atom_site_fract_x
 _atom_site_fract_y
 _atom_site_fract_z
 _atom_site_occupancy
  Tb  Tb0  1  0.642501  0.866977  0.323928  1
  Sm  Sm1  1  0.030591  0.713090  0.410386  1
  Sm  Sm2  1  0.971470  0.287619  0.590950  1
  Sm  Sm3  1  0.876188  0.954321  0.746661  1
  Sm  Sm4  1  0.126760  0.047157  0.254509  1
  Tm  Tm5  1  0.352468  0.131083  0.673540  1
  Co  Co6  1  0.000347  0.000232  0.499990  1
  Br  Br7  1  0.451616  0.825896  0.584068  1
  Br  Br8  1  0.548022  0.178244  0.420591  1
  Br  Br9  1  0.913893  0.629458  0.673272  1
  Br  Br10  1  0.086595  0.370843  0.327326  1
  Br  Br11  1  0.259673  0.087312  0.951179  1
  Br  Br12  1  0.744531  0.914491  0.046793  1
  Br  Br13  1  0.359128  0.447799  0.772247  1
  Br  Br14  1  0.644206  0.547906  0.228211  1
  Br  Br15  1  0.772517  0.254704  0.844096  1
  Br  Br16  1  0.219495  0.742867  0.152252  1
