# generated using pymatgen
data_Tb6Y5ErNi4
_symmetry_space_group_name_H-M   'P 1'
_cell_length_a   6.36167117
_cell_length_b   6.86530681
_cell_length_c   9.63505700
_cell_angle_alpha   90.01223479
_cell_angle_beta   90.17351764
_cell_angle_gamma   89.92017007
_symmetry_Int_Tables_number   1
_chemical_formula_structural   Tb6Y5ErNi4
_chemical_formula_sum   'Tb6 Y5 Er1 Ni4'
_cell_volume   420.80707568
_cell_formula_units_Z   1
loop_
 _symmetry_equiv_pos_site_id
 _symmetry_equiv_pos_as_xyz
  1  'x, y, z'
loop_
 _atom_site_type_symbol
 _atom_site_label
 _atom_site_symmetry_multiplicity
 _atom_site_fract_x
 _atom_site_fract_y
 _atom_site_fract_z
 _atom_site_occupancy
  Tb  Tb0  1  0.322198  0.677468  0.066887  1
  Tb  Tb1  1  0.178337  0.177790  0.433558  1
  Tb  Tb2  1  0.676934  0.322306  0.565368  1
  Tb  Tb3  1  0.822231  0.821464  0.934042  1
  Tb  Tb4  1  0.678299  0.322101  0.933886  1
  Tb  Tb5  1  0.821907  0.822228  0.565168  1
  Y  Y6  1  0.176523  0.177602  0.065303  1
  Y  Y7  1  0.859331  0.534600  0.250596  1
  Y  Y8  1  0.640411  0.034408  0.249599  1
  Y  Y9  1  0.140852  0.466795  0.749124  1
  Y  Y10  1  0.359526  0.966205  0.749566  1
  Er  Er11  1  0.322698  0.677732  0.433438  1
  Ni  Ni12  1  0.057927  0.889995  0.251511  1
  Ni  Ni13  1  0.442441  0.392478  0.252077  1
  Ni  Ni14  1  0.942073  0.108291  0.750940  1
  Ni  Ni15  1  0.558313  0.608536  0.748934  1
