# generated using pymatgen
data_Nb5Si2Ge
_symmetry_space_group_name_H-M   'P 1'
_cell_length_a   7.60946484
_cell_length_b   7.60946401
_cell_length_c   7.60946537
_cell_angle_alpha   128.07900325
_cell_angle_beta   128.07900478
_cell_angle_gamma   76.49708544
_symmetry_Int_Tables_number   1
_chemical_formula_structural   Nb5Si2Ge
_chemical_formula_sum   'Nb10 Si4 Ge2'
_cell_volume   265.23512109
_cell_formula_units_Z   2
loop_
 _symmetry_equiv_pos_site_id
 _symmetry_equiv_pos_as_xyz
  1  'x, y, z'
loop_
 _atom_site_type_symbol
 _atom_site_label
 _atom_site_symmetry_multiplicity
 _atom_site_fract_x
 _atom_site_fract_y
 _atom_site_fract_z
 _atom_site_occupancy
  Nb  Nb0  1  0.016930  0.187186  0.500000  1
  Nb  Nb1  1  0.516930  0.016930  0.829745  1
  Nb  Nb2  1  0.187186  0.687186  0.170255  1
  Nb  Nb3  1  0.483070  0.983070  0.170255  1
  Nb  Nb4  1  0.687186  0.516930  0.500000  1
  Nb  Nb5  1  0.983070  0.812814  0.500000  1
  Nb  Nb6  1  0.312814  0.483070  0.500000  1
  Nb  Nb7  1  0.812814  0.312814  0.829745  1
  Nb  Nb8  1  0.500000  0.500000  0.000000  1
  Nb  Nb9  1  0.000000  0.000000  0.000000  1
  Si  Si10  1  0.129939  0.629939  0.759879  1
  Si  Si11  1  0.629939  0.870061  0.500000  1
  Si  Si12  1  0.370061  0.129939  0.500000  1
  Si  Si13  1  0.870061  0.370061  0.240121  1
  Ge  Ge14  1  0.750000  0.750000  0.000000  1
  Ge  Ge15  1  0.250000  0.250000  0.000000  1
