# generated using pymatgen
data_Y5Ni16(MoAs4)3
_symmetry_space_group_name_H-M   'P 1'
_cell_length_a   12.65753300
_cell_length_b   12.65753364
_cell_length_c   3.86524900
_cell_angle_alpha   90.00000000
_cell_angle_beta   90.00000000
_cell_angle_gamma   120.00000617
_symmetry_Int_Tables_number   1
_chemical_formula_structural   Y5Ni16(MoAs4)3
_chemical_formula_sum   'Y5 Ni16 Mo3 As12'
_cell_volume   536.29807709
_cell_formula_units_Z   1
loop_
 _symmetry_equiv_pos_site_id
 _symmetry_equiv_pos_as_xyz
  1  'x, y, z'
loop_
 _atom_site_type_symbol
 _atom_site_label
 _atom_site_symmetry_multiplicity
 _atom_site_fract_x
 _atom_site_fract_y
 _atom_site_fract_z
 _atom_site_occupancy
  Y  Y0  1  0.185713  0.185713  0.500000  1
  Y  Y1  1  0.814287  0.000000  0.500000  1
  Y  Y2  1  0.000000  0.814287  0.500000  1
  Y  Y3  1  0.333333  0.666667  0.000000  1
  Y  Y4  1  0.666667  0.333333  0.000000  1
  Ni  Ni5  1  0.717927  0.717927  0.500000  1
  Ni  Ni6  1  0.282073  0.000000  0.500000  1
  Ni  Ni7  1  0.000000  0.282073  0.500000  1
  Ni  Ni8  1  0.182880  0.376457  0.000000  1
  Ni  Ni9  1  0.623543  0.806423  0.000000  1
  Ni  Ni10  1  0.193577  0.817120  0.000000  1
  Ni  Ni11  1  0.806423  0.623543  0.000000  1
  Ni  Ni12  1  0.817120  0.193577  0.000000  1
  Ni  Ni13  1  0.376457  0.182880  0.000000  1
  Ni  Ni14  1  0.359177  0.482606  0.500000  1
  Ni  Ni15  1  0.517394  0.876572  0.500000  1
  Ni  Ni16  1  0.123428  0.640823  0.500000  1
  Ni  Ni17  1  0.876572  0.517394  0.500000  1
  Ni  Ni18  1  0.640823  0.123428  0.500000  1
  Ni  Ni19  1  0.482606  0.359177  0.500000  1
  Ni  Ni20  1  0.000000  0.000000  0.000000  1
  Mo  Mo21  1  0.561707  0.561707  0.000000  1
  Mo  Mo22  1  0.438293  0.000000  0.000000  1
  Mo  Mo23  1  0.000000  0.438293  0.000000  1
  As  As24  1  0.821452  0.821452  0.000000  1
  As  As25  1  0.178548  0.000000  0.000000  1
  As  As26  1  0.000000  0.178548  0.000000  1
  As  As27  1  0.167415  0.481270  0.500000  1
  As  As28  1  0.518730  0.686144  0.500000  1
  As  As29  1  0.313856  0.832585  0.500000  1
  As  As30  1  0.686144  0.518730  0.500000  1
  As  As31  1  0.832585  0.313856  0.500000  1
  As  As32  1  0.481270  0.167415  0.500000  1
  As  As33  1  0.364749  0.364749  0.000000  1
  As  As34  1  0.635251  0.000000  0.000000  1
  As  As35  1  0.000000  0.635251  0.000000  1
