# generated using pymatgen
data_Ba3YLuSe6
_symmetry_space_group_name_H-M   'P 1'
_cell_length_a   8.76178505
_cell_length_b   8.76178520
_cell_length_c   8.76178600
_cell_angle_alpha   92.00572607
_cell_angle_beta   92.00572610
_cell_angle_gamma   92.00573668
_symmetry_Int_Tables_number   1
_chemical_formula_structural   Ba3YLuSe6
_chemical_formula_sum   'Ba6 Y2 Lu2 Se12'
_cell_volume   671.36653349
_cell_formula_units_Z   2
loop_
 _symmetry_equiv_pos_site_id
 _symmetry_equiv_pos_as_xyz
  1  'x, y, z'
loop_
 _atom_site_type_symbol
 _atom_site_label
 _atom_site_symmetry_multiplicity
 _atom_site_fract_x
 _atom_site_fract_y
 _atom_site_fract_z
 _atom_site_occupancy
  Ba  Ba0  1  0.369594  0.750000  0.130406  1
  Ba  Ba1  1  0.130406  0.369594  0.750000  1
  Ba  Ba2  1  0.750000  0.130406  0.369594  1
  Ba  Ba3  1  0.630406  0.250000  0.869594  1
  Ba  Ba4  1  0.869594  0.630406  0.250000  1
  Ba  Ba5  1  0.250000  0.869594  0.630406  1
  Y  Y6  1  0.250000  0.250000  0.250000  1
  Y  Y7  1  0.750000  0.750000  0.750000  1
  Lu  Lu8  1  0.500000  0.500000  0.500000  1
  Lu  Lu9  1  0.000000  0.000000  0.000000  1
  Se  Se10  1  0.541008  0.407187  0.197316  1
  Se  Se11  1  0.197316  0.541008  0.407187  1
  Se  Se12  1  0.407187  0.197316  0.541008  1
  Se  Se13  1  0.958992  0.302684  0.092813  1
  Se  Se14  1  0.092813  0.958992  0.302684  1
  Se  Se15  1  0.302684  0.092813  0.958992  1
  Se  Se16  1  0.458992  0.592813  0.802684  1
  Se  Se17  1  0.802684  0.458992  0.592813  1
  Se  Se18  1  0.592813  0.802684  0.458992  1
  Se  Se19  1  0.041008  0.697316  0.907187  1
  Se  Se20  1  0.697316  0.907187  0.041008  1
  Se  Se21  1  0.907187  0.041008  0.697316  1
