# generated using pymatgen
data_La3(CuSn)4
_symmetry_space_group_name_H-M   'P 1'
_cell_length_a   4.67686418
_cell_length_b   7.08305456
_cell_length_c   8.73664093
_cell_angle_alpha   113.91399286
_cell_angle_beta   105.52495115
_cell_angle_gamma   90.00000282
_symmetry_Int_Tables_number   1
_chemical_formula_structural   La3(CuSn)4
_chemical_formula_sum   'La3 Cu4 Sn4'
_cell_volume   252.97491576
_cell_formula_units_Z   1
loop_
 _symmetry_equiv_pos_site_id
 _symmetry_equiv_pos_as_xyz
  1  'x, y, z'
loop_
 _atom_site_type_symbol
 _atom_site_label
 _atom_site_symmetry_multiplicity
 _atom_site_fract_x
 _atom_site_fract_y
 _atom_site_fract_z
 _atom_site_occupancy
  La  La0  1  0.000000  0.000000  0.000000  1
  La  La1  1  0.134565  0.634565  0.269129  1
  La  La2  1  0.865435  0.365435  0.730871  1
  Cu  Cu3  1  0.666961  0.348803  0.333924  1
  Cu  Cu4  1  0.666961  0.985122  0.333924  1
  Cu  Cu5  1  0.333038  0.014879  0.666076  1
  Cu  Cu6  1  0.333038  0.651197  0.666076  1
  Sn  Sn7  1  0.499999  0.301106  0.000000  1
  Sn  Sn8  1  0.499999  0.698894  0.000000  1
  Sn  Sn9  1  0.216328  0.216328  0.432655  1
  Sn  Sn10  1  0.783672  0.783673  0.567345  1
