# generated using pymatgen
data_RbYUSe4
_symmetry_space_group_name_H-M   'P 1'
_cell_length_a   4.21512300
_cell_length_b   7.13215050
_cell_length_c   8.61519187
_cell_angle_alpha   74.15123830
_cell_angle_beta   90.00000000
_cell_angle_gamma   90.00000000
_symmetry_Int_Tables_number   1
_chemical_formula_structural   RbYUSe4
_chemical_formula_sum   'Rb1 Y1 U1 Se4'
_cell_volume   249.15202487
_cell_formula_units_Z   1
loop_
 _symmetry_equiv_pos_site_id
 _symmetry_equiv_pos_as_xyz
  1  'x, y, z'
loop_
 _atom_site_type_symbol
 _atom_site_label
 _atom_site_symmetry_multiplicity
 _atom_site_fract_x
 _atom_site_fract_y
 _atom_site_fract_z
 _atom_site_occupancy
  Rb  Rb0  1  0.000000  0.500000  0.500000  1
  Y  Y1  1  0.500000  0.500000  0.000000  1
  U  U2  1  0.000000  0.000000  0.000000  1
  Se  Se3  1  0.500000  0.777479  0.189966  1
  Se  Se4  1  0.000000  0.265370  0.187623  1
  Se  Se5  1  0.500000  0.222521  0.810034  1
  Se  Se6  1  0.000000  0.734630  0.812377  1
