# generated using pymatgen
data_Tb3YBS3
_symmetry_space_group_name_H-M   'P 1'
_cell_length_a   6.77322903
_cell_length_b   6.77322893
_cell_length_c   6.77322911
_cell_angle_alpha   131.91948578
_cell_angle_beta   131.95187850
_cell_angle_gamma   70.33062921
_symmetry_Int_Tables_number   1
_chemical_formula_structural   Tb3YBS3
_chemical_formula_sum   'Tb3 Y1 B1 S3'
_cell_volume   168.52036939
_cell_formula_units_Z   1
loop_
 _symmetry_equiv_pos_site_id
 _symmetry_equiv_pos_as_xyz
  1  'x, y, z'
loop_
 _atom_site_type_symbol
 _atom_site_label
 _atom_site_symmetry_multiplicity
 _atom_site_fract_x
 _atom_site_fract_y
 _atom_site_fract_z
 _atom_site_occupancy
  Tb  Tb0  1  0.234772  0.234772  0.000000  1
  Tb  Tb1  1  0.765228  0.765228  0.000000  1
  Tb  Tb2  1  0.000000  0.500000  0.500000  1
  Y  Y3  1  0.500000  0.000000  0.500000  1
  B  B4  1  0.000000  0.000000  0.000000  1
  S  S5  1  0.749963  0.249963  0.500000  1
  S  S6  1  0.250037  0.750037  0.500000  1
  S  S7  1  0.500000  0.500000  0.000000  1
