# generated using pymatgen
data_DyBeRu2C
_symmetry_space_group_name_H-M   'P 1'
_cell_length_a   5.66327812
_cell_length_b   5.66327822
_cell_length_c   7.02261800
_cell_angle_alpha   90.00000000
_cell_angle_beta   90.00000000
_cell_angle_gamma   140.80346011
_symmetry_Int_Tables_number   1
_chemical_formula_structural   DyBeRu2C
_chemical_formula_sum   'Dy2 Be2 Ru4 C2'
_cell_volume   142.34423657
_cell_formula_units_Z   2
loop_
 _symmetry_equiv_pos_site_id
 _symmetry_equiv_pos_as_xyz
  1  'x, y, z'
loop_
 _atom_site_type_symbol
 _atom_site_label
 _atom_site_symmetry_multiplicity
 _atom_site_fract_x
 _atom_site_fract_y
 _atom_site_fract_z
 _atom_site_occupancy
  Dy  Dy0  1  0.544637  0.455363  0.250000  1
  Dy  Dy1  1  0.455363  0.544637  0.750000  1
  Be  Be2  1  0.271511  0.728489  0.250000  1
  Be  Be3  1  0.728489  0.271511  0.750000  1
  Ru  Ru4  1  0.826758  0.173242  0.056997  1
  Ru  Ru5  1  0.173242  0.826758  0.943003  1
  Ru  Ru6  1  0.173242  0.826758  0.556997  1
  Ru  Ru7  1  0.826758  0.173242  0.443003  1
  C  C8  1  0.000000  0.000000  0.000000  1
  C  C9  1  0.000000  0.000000  0.500000  1
