# generated using pymatgen
data_Ho2Fe2Co9MoP7
_symmetry_space_group_name_H-M   'P 1'
_cell_length_a   9.04131630
_cell_length_b   9.00282911
_cell_length_c   3.65604600
_cell_angle_alpha   90.00000000
_cell_angle_beta   90.00000000
_cell_angle_gamma   120.23927202
_symmetry_Int_Tables_number   1
_chemical_formula_structural   Ho2Fe2Co9MoP7
_chemical_formula_sum   'Ho2 Fe2 Co9 Mo1 P7'
_cell_volume   257.09923433
_cell_formula_units_Z   1
loop_
 _symmetry_equiv_pos_site_id
 _symmetry_equiv_pos_as_xyz
  1  'x, y, z'
loop_
 _atom_site_type_symbol
 _atom_site_label
 _atom_site_symmetry_multiplicity
 _atom_site_fract_x
 _atom_site_fract_y
 _atom_site_fract_z
 _atom_site_occupancy
  Ho  Ho0  1  0.996820  0.999895  0.000000  1
  Ho  Ho1  1  0.332564  0.666313  0.500000  1
  Fe  Fe2  1  0.573002  0.457166  0.500000  1
  Fe  Fe3  1  0.884789  0.426619  0.500000  1
  Co  Co4  1  0.293651  0.900217  0.000000  1
  Co  Co5  1  0.604746  0.702448  0.000000  1
  Co  Co6  1  0.099405  0.394549  0.000000  1
  Co  Co7  1  0.788572  0.176414  0.000000  1
  Co  Co8  1  0.387648  0.215451  0.000000  1
  Co  Co9  1  0.825358  0.610948  0.000000  1
  Co  Co10  1  0.720498  0.948517  0.500000  1
  Co  Co11  1  0.232460  0.284758  0.500000  1
  Co  Co12  1  0.050381  0.766239  0.500000  1
  Mo  Mo13  1  0.547130  0.117237  0.500000  1
  P  P14  1  0.555074  0.919280  0.000000  1
  P  P15  1  0.368288  0.446350  0.000000  1
  P  P16  1  0.075492  0.628901  0.000000  1
  P  P17  1  0.958839  0.222201  0.500000  1
  P  P18  1  0.256514  0.042621  0.500000  1
  P  P19  1  0.780147  0.735630  0.500000  1
  P  P20  1  0.668620  0.338246  0.000000  1
