# generated using pymatgen
data_K3Li3(TaSe4)2
_symmetry_space_group_name_H-M   'P 1'
_cell_length_a   13.22501867
_cell_length_b   13.22501911
_cell_length_c   14.29789800
_cell_angle_alpha   63.94128861
_cell_angle_beta   63.94128766
_cell_angle_gamma   27.01653980
_symmetry_Int_Tables_number   1
_chemical_formula_structural   K3Li3(TaSe4)2
_chemical_formula_sum   'K6 Li6 Ta4 Se16'
_cell_volume   1013.40458583
_cell_formula_units_Z   2
loop_
 _symmetry_equiv_pos_site_id
 _symmetry_equiv_pos_as_xyz
  1  'x, y, z'
loop_
 _atom_site_type_symbol
 _atom_site_label
 _atom_site_symmetry_multiplicity
 _atom_site_fract_x
 _atom_site_fract_y
 _atom_site_fract_z
 _atom_site_occupancy
  K  K0  1  0.605008  0.793092  0.391849  1
  K  K1  1  0.000000  0.000000  0.000000  1
  K  K2  1  0.793092  0.605008  0.891849  1
  K  K3  1  0.000000  0.000000  0.500000  1
  K  K4  1  0.206908  0.394992  0.108151  1
  K  K5  1  0.394992  0.206908  0.608151  1
  Li  Li6  1  0.323354  0.676646  0.750000  1
  Li  Li7  1  0.318557  0.930864  0.211040  1
  Li  Li8  1  0.930864  0.318557  0.711040  1
  Li  Li9  1  0.069136  0.681443  0.288960  1
  Li  Li10  1  0.676646  0.323354  0.250000  1
  Li  Li11  1  0.681443  0.069136  0.788960  1
  Ta  Ta12  1  0.565014  0.179926  0.278045  1
  Ta  Ta13  1  0.179926  0.565014  0.778045  1
  Ta  Ta14  1  0.820074  0.434986  0.221955  1
  Ta  Ta15  1  0.434986  0.820074  0.721955  1
  Se  Se16  1  0.484341  0.416170  0.656538  1
  Se  Se17  1  0.220445  0.095623  0.818315  1
  Se  Se18  1  0.416170  0.484341  0.156538  1
  Se  Se19  1  0.779555  0.904377  0.181685  1
  Se  Se20  1  0.583830  0.515659  0.843462  1
  Se  Se21  1  0.327003  0.257135  0.887108  1
  Se  Se22  1  0.742865  0.672997  0.612892  1
  Se  Se23  1  0.257135  0.327003  0.387108  1
  Se  Se24  1  0.904377  0.779555  0.681685  1
  Se  Se25  1  0.191512  0.989783  0.620695  1
  Se  Se26  1  0.672997  0.742865  0.112892  1
  Se  Se27  1  0.515659  0.583830  0.343462  1
  Se  Se28  1  0.010217  0.808488  0.879305  1
  Se  Se29  1  0.095623  0.220445  0.318315  1
  Se  Se30  1  0.808488  0.010217  0.379305  1
  Se  Se31  1  0.989783  0.191512  0.120695  1
