# generated using pymatgen
data_Ba2HfCu2S5
_symmetry_space_group_name_H-M   'P 1'
_cell_length_a   3.96024222
_cell_length_b   7.14975613
_cell_length_c   8.95281976
_cell_angle_alpha   103.94771783
_cell_angle_beta   102.77794033
_cell_angle_gamma   106.07821477
_symmetry_Int_Tables_number   1
_chemical_formula_structural   Ba2HfCu2S5
_chemical_formula_sum   'Ba2 Hf1 Cu2 S5'
_cell_volume   224.84973036
_cell_formula_units_Z   1
loop_
 _symmetry_equiv_pos_site_id
 _symmetry_equiv_pos_as_xyz
  1  'x, y, z'
loop_
 _atom_site_type_symbol
 _atom_site_label
 _atom_site_symmetry_multiplicity
 _atom_site_fract_x
 _atom_site_fract_y
 _atom_site_fract_z
 _atom_site_occupancy
  Ba  Ba0  1  0.475010  0.652851  0.297168  1
  Ba  Ba1  1  0.524990  0.347149  0.702832  1
  Hf  Hf2  1  0.000000  0.000000  0.000000  1
  Cu  Cu3  1  0.739331  0.186899  0.291763  1
  Cu  Cu4  1  0.260669  0.813101  0.708237  1
  S  S5  1  0.660354  0.267922  0.052787  1
  S  S6  1  0.153315  0.010450  0.296180  1
  S  S7  1  0.000001  0.500001  0.500000  1
  S  S8  1  0.846685  0.989550  0.703821  1
  S  S9  1  0.339647  0.732080  0.947213  1
