# generated using pymatgen
data_Dy4Cd2Ni2Hg
_symmetry_space_group_name_H-M   'P 1'
_cell_length_a   3.62265100
_cell_length_b   7.37508948
_cell_length_c   8.03106509
_cell_angle_alpha   72.43140953
_cell_angle_beta   90.00000000
_cell_angle_gamma   90.00000000
_symmetry_Int_Tables_number   1
_chemical_formula_structural   Dy4Cd2Ni2Hg
_chemical_formula_sum   'Dy4 Cd2 Ni2 Hg1'
_cell_volume   204.56068512
_cell_formula_units_Z   1
loop_
 _symmetry_equiv_pos_site_id
 _symmetry_equiv_pos_as_xyz
  1  'x, y, z'
loop_
 _atom_site_type_symbol
 _atom_site_label
 _atom_site_symmetry_multiplicity
 _atom_site_fract_x
 _atom_site_fract_y
 _atom_site_fract_z
 _atom_site_occupancy
  Dy  Dy0  1  0.500000  0.917105  0.220959  1
  Dy  Dy1  1  0.500000  0.082895  0.779041  1
  Dy  Dy2  1  0.500000  0.392353  0.316318  1
  Dy  Dy3  1  0.500000  0.607647  0.683682  1
  Cd  Cd4  1  0.000000  0.701952  0.007153  1
  Cd  Cd5  1  0.000000  0.298048  0.992847  1
  Ni  Ni6  1  0.000000  0.654428  0.389462  1
  Ni  Ni7  1  0.000000  0.345572  0.610538  1
  Hg  Hg8  1  0.000000  0.000000  0.500000  1
