# generated using pymatgen
data_Hf8Fe3Co5Si14
_symmetry_space_group_name_H-M   'P 1'
_cell_length_a   9.42903755
_cell_length_b   9.42903276
_cell_length_c   9.44239880
_cell_angle_alpha   94.15757565
_cell_angle_beta   94.15757174
_cell_angle_gamma   148.80171636
_symmetry_Int_Tables_number   1
_chemical_formula_structural   Hf8Fe3Co5Si14
_chemical_formula_sum   'Hf8 Fe3 Co5 Si14'
_cell_volume   418.75528217
_cell_formula_units_Z   1
loop_
 _symmetry_equiv_pos_site_id
 _symmetry_equiv_pos_as_xyz
  1  'x, y, z'
loop_
 _atom_site_type_symbol
 _atom_site_label
 _atom_site_symmetry_multiplicity
 _atom_site_fract_x
 _atom_site_fract_y
 _atom_site_fract_z
 _atom_site_occupancy
  Hf  Hf0  1  0.137888  0.137846  0.275941  1
  Hf  Hf1  1  0.862154  0.862112  0.724056  1
  Hf  Hf2  1  0.138365  0.861624  0.000002  1
  Hf  Hf3  1  0.861610  0.138402  0.000002  1
  Hf  Hf4  1  0.302781  0.499530  0.803170  1
  Hf  Hf5  1  0.695351  0.499163  0.195766  1
  Hf  Hf6  1  0.500467  0.697217  0.196831  1
  Hf  Hf7  1  0.500841  0.304653  0.804233  1
  Fe  Fe8  1  0.103350  0.602365  0.203414  1
  Fe  Fe9  1  0.397629  0.896649  0.796586  1
  Fe  Fe10  1  0.897264  0.102734  0.499999  1
  Co  Co11  1  0.602420  0.397578  0.500000  1
  Co  Co12  1  0.601894  0.102688  0.203612  1
  Co  Co13  1  0.897315  0.398108  0.796391  1
  Co  Co14  1  0.101589  0.898412  0.500000  1
  Co  Co15  1  0.398831  0.601167  0.499999  1
  Si  Si16  1  0.288868  0.289025  0.580261  1
  Si  Si17  1  0.710975  0.711131  0.419737  1
  Si  Si18  1  0.290206  0.709794  0.000006  1
  Si  Si19  1  0.709955  0.290061  0.000006  1
  Si  Si20  1  0.091179  0.500126  0.591565  1
  Si  Si21  1  0.912607  0.503495  0.406612  1
  Si  Si22  1  0.499869  0.908818  0.408431  1
  Si  Si23  1  0.496505  0.087393  0.593386  1
  Si  Si24  1  0.249589  0.249651  0.999855  1
  Si  Si25  1  0.750348  0.750411  0.000143  1
  Si  Si26  1  0.299194  0.997920  0.300798  1
  Si  Si27  1  0.698874  0.999995  0.698750  1
  Si  Si28  1  0.002074  0.700798  0.699200  1
  Si  Si29  1  0.000007  0.301135  0.301249  1
