# generated using pymatgen
data_Tb10TcPd5
_symmetry_space_group_name_H-M   'P 1'
_cell_length_a   11.17466400
_cell_length_b   11.17466400
_cell_length_c   6.43951500
_cell_angle_alpha   90.00000000
_cell_angle_beta   90.00000000
_cell_angle_gamma   90.00000000
_symmetry_Int_Tables_number   1
_chemical_formula_structural   Tb10TcPd5
_chemical_formula_sum   'Tb20 Tc2 Pd10'
_cell_volume   804.12230044
_cell_formula_units_Z   2
loop_
 _symmetry_equiv_pos_site_id
 _symmetry_equiv_pos_as_xyz
  1  'x, y, z'
loop_
 _atom_site_type_symbol
 _atom_site_label
 _atom_site_symmetry_multiplicity
 _atom_site_fract_x
 _atom_site_fract_y
 _atom_site_fract_z
 _atom_site_occupancy
  Tb  Tb0  1  0.299008  0.083396  0.371040  1
  Tb  Tb1  1  0.299008  0.916604  0.871040  1
  Tb  Tb2  1  0.700992  0.083396  0.871040  1
  Tb  Tb3  1  0.700992  0.916604  0.371040  1
  Tb  Tb4  1  0.583396  0.799008  0.871040  1
  Tb  Tb5  1  0.583396  0.200992  0.371040  1
  Tb  Tb6  1  0.416604  0.799008  0.371040  1
  Tb  Tb7  1  0.416604  0.200992  0.871040  1
  Tb  Tb8  1  0.208919  0.408653  0.633924  1
  Tb  Tb9  1  0.208919  0.591347  0.133924  1
  Tb  Tb10  1  0.791081  0.408653  0.133924  1
  Tb  Tb11  1  0.791081  0.591347  0.633924  1
  Tb  Tb12  1  0.908653  0.708919  0.133924  1
  Tb  Tb13  1  0.908653  0.291081  0.633924  1
  Tb  Tb14  1  0.091347  0.708919  0.633924  1
  Tb  Tb15  1  0.091347  0.291081  0.133924  1
  Tb  Tb16  1  0.000000  0.000000  0.490416  1
  Tb  Tb17  1  0.000000  0.000000  0.990416  1
  Tb  Tb18  1  0.500000  0.500000  0.990416  1
  Tb  Tb19  1  0.500000  0.500000  0.490416  1
  Tc  Tc20  1  0.500000  0.000000  0.124059  1
  Tc  Tc21  1  0.500000  0.000000  0.624059  1
  Pd  Pd22  1  0.849856  0.157674  0.246523  1
  Pd  Pd23  1  0.849856  0.842326  0.746523  1
  Pd  Pd24  1  0.150144  0.157674  0.746523  1
  Pd  Pd25  1  0.150144  0.842326  0.246523  1
  Pd  Pd26  1  0.657674  0.349856  0.746523  1
  Pd  Pd27  1  0.657674  0.650144  0.246523  1
  Pd  Pd28  1  0.342326  0.349856  0.246523  1
  Pd  Pd29  1  0.342326  0.650144  0.746523  1
  Pd  Pd30  1  0.000000  0.500000  0.889159  1
  Pd  Pd31  1  0.000000  0.500000  0.389159  1
