# generated using pymatgen
data_TbHo2Er7Ru4
_symmetry_space_group_name_H-M   'P 1'
_cell_length_a   6.28986633
_cell_length_b   7.26036449
_cell_length_c   8.41298681
_cell_angle_alpha   96.77158783
_cell_angle_beta   112.02829522
_cell_angle_gamma   90.01719699
_symmetry_Int_Tables_number   1
_chemical_formula_structural   TbHo2Er7Ru4
_chemical_formula_sum   'Tb1 Ho2 Er7 Ru4'
_cell_volume   353.24853841
_cell_formula_units_Z   1
loop_
 _symmetry_equiv_pos_site_id
 _symmetry_equiv_pos_as_xyz
  1  'x, y, z'
loop_
 _atom_site_type_symbol
 _atom_site_label
 _atom_site_symmetry_multiplicity
 _atom_site_fract_x
 _atom_site_fract_y
 _atom_site_fract_z
 _atom_site_occupancy
  Tb  Tb0  1  0.209092  0.415720  0.186839  1
  Ho  Ho1  1  0.791167  0.584375  0.812933  1
  Ho  Ho2  1  0.977682  0.915762  0.186444  1
  Er  Er3  1  0.021849  0.084390  0.813407  1
  Er  Er4  1  0.205921  0.684790  0.565682  1
  Er  Er5  1  0.640561  0.815389  0.434919  1
  Er  Er6  1  0.794464  0.315202  0.434808  1
  Er  Er7  1  0.359542  0.184689  0.565550  1
  Er  Er8  1  0.419435  0.750014  0.999776  1
  Er  Er9  1  0.580275  0.249965  0.999801  1
  Ru  Ru10  1  0.602619  0.924197  0.779215  1
  Ru  Ru11  1  0.822568  0.576596  0.220754  1
  Ru  Ru12  1  0.397912  0.075673  0.220641  1
  Ru  Ru13  1  0.176913  0.423238  0.779232  1
