# generated using pymatgen
data_HfNb7O12
_symmetry_space_group_name_H-M   'P 1'
_cell_length_a   6.82120187
_cell_length_b   6.82120349
_cell_length_c   6.82120388
_cell_angle_alpha   73.86058480
_cell_angle_beta   73.86057793
_cell_angle_gamma   73.86056870
_symmetry_Int_Tables_number   1
_chemical_formula_structural   HfNb7O12
_chemical_formula_sum   'Hf1 Nb7 O12'
_cell_volume   285.84643426
_cell_formula_units_Z   1
loop_
 _symmetry_equiv_pos_site_id
 _symmetry_equiv_pos_as_xyz
  1  'x, y, z'
loop_
 _atom_site_type_symbol
 _atom_site_label
 _atom_site_symmetry_multiplicity
 _atom_site_fract_x
 _atom_site_fract_y
 _atom_site_fract_z
 _atom_site_occupancy
  Hf  Hf0  1  0.274425  0.274425  0.274425  1
  Nb  Nb1  1  0.723854  0.723854  0.723854  1
  Nb  Nb2  1  0.945065  0.112539  0.712422  1
  Nb  Nb3  1  0.712422  0.945065  0.112539  1
  Nb  Nb4  1  0.112539  0.712422  0.945065  1
  Nb  Nb5  1  0.057149  0.888369  0.287301  1
  Nb  Nb6  1  0.287301  0.057149  0.888369  1
  Nb  Nb7  1  0.888369  0.287301  0.057149  1
  O  O8  1  0.171353  0.583715  0.251406  1
  O  O9  1  0.251406  0.171353  0.583715  1
  O  O10  1  0.583715  0.251406  0.171353  1
  O  O11  1  0.826789  0.422388  0.745700  1
  O  O12  1  0.745700  0.826789  0.422388  1
  O  O13  1  0.422388  0.745700  0.826789  1
  O  O14  1  0.648196  0.027206  0.803476  1
  O  O15  1  0.803476  0.648196  0.027206  1
  O  O16  1  0.967545  0.195853  0.355249  1
  O  O17  1  0.195853  0.355249  0.967545  1
  O  O18  1  0.355249  0.967545  0.195853  1
  O  O19  1  0.027206  0.803476  0.648196  1
