# generated using pymatgen
data_Nb8CdCuS16
_symmetry_space_group_name_H-M   'P 1'
_cell_length_a   6.76844300
_cell_length_b   6.76844275
_cell_length_c   12.83125400
_cell_angle_alpha   90.00000000
_cell_angle_beta   90.00000000
_cell_angle_gamma   120.00000613
_symmetry_Int_Tables_number   1
_chemical_formula_structural   Nb8CdCuS16
_chemical_formula_sum   'Nb8 Cd1 Cu1 S16'
_cell_volume   509.06969295
_cell_formula_units_Z   1
loop_
 _symmetry_equiv_pos_site_id
 _symmetry_equiv_pos_as_xyz
  1  'x, y, z'
loop_
 _atom_site_type_symbol
 _atom_site_label
 _atom_site_symmetry_multiplicity
 _atom_site_fract_x
 _atom_site_fract_y
 _atom_site_fract_z
 _atom_site_occupancy
  Nb  Nb0  1  0.506259  0.493741  0.762527  1
  Nb  Nb1  1  0.012518  0.506259  0.237473  1
  Nb  Nb2  1  0.493741  0.987482  0.237473  1
  Nb  Nb3  1  0.506259  0.012518  0.762527  1
  Nb  Nb4  1  0.987482  0.493741  0.762527  1
  Nb  Nb5  1  0.493741  0.506259  0.237473  1
  Nb  Nb6  1  0.000000  0.000000  0.765564  1
  Nb  Nb7  1  0.000000  0.000000  0.234436  1
  Cd  Cd8  1  0.000000  0.000000  0.500000  1
  Cu  Cu9  1  0.000000  0.000000  0.000000  1
  S  S10  1  0.831381  0.168619  0.357304  1
  S  S11  1  0.831381  0.662762  0.357304  1
  S  S12  1  0.337238  0.168619  0.357304  1
  S  S13  1  0.660888  0.830444  0.882630  1
  S  S14  1  0.168619  0.337238  0.642696  1
  S  S15  1  0.169556  0.830444  0.882630  1
  S  S16  1  0.169556  0.339112  0.882630  1
  S  S17  1  0.830444  0.169556  0.117370  1
  S  S18  1  0.339112  0.169556  0.117370  1
  S  S19  1  0.662762  0.831381  0.642696  1
  S  S20  1  0.333333  0.666667  0.113416  1
  S  S21  1  0.666667  0.333333  0.636679  1
  S  S22  1  0.666667  0.333333  0.886584  1
  S  S23  1  0.333333  0.666667  0.363321  1
  S  S24  1  0.830444  0.660888  0.117370  1
  S  S25  1  0.168619  0.831381  0.642696  1
