# generated using pymatgen
data_YbCe3(IrRu3)2
_symmetry_space_group_name_H-M   'P 1'
_cell_length_a   5.29907705
_cell_length_b   5.29907622
_cell_length_c   8.91642000
_cell_angle_alpha   89.99758796
_cell_angle_beta   90.00241007
_cell_angle_gamma   119.98781100
_symmetry_Int_Tables_number   1
_chemical_formula_structural   YbCe3(IrRu3)2
_chemical_formula_sum   'Yb1 Ce3 Ir2 Ru6'
_cell_volume   216.85771559
_cell_formula_units_Z   1
loop_
 _symmetry_equiv_pos_site_id
 _symmetry_equiv_pos_as_xyz
  1  'x, y, z'
loop_
 _atom_site_type_symbol
 _atom_site_label
 _atom_site_symmetry_multiplicity
 _atom_site_fract_x
 _atom_site_fract_y
 _atom_site_fract_z
 _atom_site_occupancy
  Yb  Yb0  1  0.666656  0.333344  0.932330  1
  Ce  Ce1  1  0.666645  0.333355  0.578741  1
  Ce  Ce2  1  0.333340  0.666660  0.424157  1
  Ce  Ce3  1  0.333343  0.666657  0.070307  1
  Ir  Ir4  1  0.999994  0.000006  0.499539  1
  Ir  Ir5  1  0.999994  0.000006  0.998043  1
  Ru  Ru6  1  0.170366  0.340774  0.749917  1
  Ru  Ru7  1  0.170429  0.829571  0.749926  1
  Ru  Ru8  1  0.659226  0.829634  0.749917  1
  Ru  Ru9  1  0.829217  0.658396  0.249044  1
  Ru  Ru10  1  0.829188  0.170812  0.249036  1
  Ru  Ru11  1  0.341604  0.170783  0.249044  1
