# generated using pymatgen
data_Dy12Mn7Nb(ReN4)12
_symmetry_space_group_name_H-M   'P 1'
_cell_length_a   10.97215819
_cell_length_b   10.92315877
_cell_length_c   10.97215867
_cell_angle_alpha   109.38077811
_cell_angle_beta   109.56150849
_cell_angle_gamma   109.38078090
_symmetry_Int_Tables_number   1
_chemical_formula_structural   Dy12Mn7Nb(ReN4)12
_chemical_formula_sum   'Dy12 Mn7 Nb1 Re12 N48'
_cell_volume   1013.43064155
_cell_formula_units_Z   1
loop_
 _symmetry_equiv_pos_site_id
 _symmetry_equiv_pos_as_xyz
  1  'x, y, z'
loop_
 _atom_site_type_symbol
 _atom_site_label
 _atom_site_symmetry_multiplicity
 _atom_site_fract_x
 _atom_site_fract_y
 _atom_site_fract_z
 _atom_site_occupancy
  Dy  Dy0  1  0.250443  0.375612  0.125820  1
  Dy  Dy1  1  0.374180  0.749791  0.124623  1
  Dy  Dy2  1  0.375377  0.125168  0.249557  1
  Dy  Dy3  1  0.875162  0.620763  0.247736  1
  Dy  Dy4  1  0.747736  0.126973  0.372574  1
  Dy  Dy5  1  0.127426  0.254399  0.375162  1
  Dy  Dy6  1  0.872574  0.745601  0.624838  1
  Dy  Dy7  1  0.252264  0.873027  0.627426  1
  Dy  Dy8  1  0.124838  0.379237  0.752264  1
  Dy  Dy9  1  0.624623  0.874832  0.750443  1
  Dy  Dy10  1  0.625820  0.250209  0.875377  1
  Dy  Dy11  1  0.749557  0.624388  0.874180  1
  Mn  Mn12  1  0.000000  0.000000  0.000000  1
  Mn  Mn13  1  0.500000  0.000000  0.000000  1
  Mn  Mn14  1  0.000000  0.500000  0.000000  1
  Mn  Mn15  1  0.500000  0.500000  0.000000  1
  Mn  Mn16  1  0.500000  0.000000  0.500000  1
  Mn  Mn17  1  0.000000  0.500000  0.500000  1
  Mn  Mn18  1  0.500000  0.500000  0.500000  1
  Nb  Nb19  1  0.000000  0.000000  0.500000  1
  Re  Re20  1  0.875100  0.250891  0.125889  1
  Re  Re21  1  0.747417  0.874494  0.120562  1
  Re  Re22  1  0.625889  0.374997  0.250789  1
  Re  Re23  1  0.126855  0.872923  0.247416  1
  Re  Re24  1  0.249211  0.624208  0.375100  1
  Re  Re25  1  0.620561  0.746068  0.373145  1
  Re  Re26  1  0.379438  0.253932  0.626855  1
  Re  Re27  1  0.750789  0.375792  0.624899  1
  Re  Re28  1  0.873145  0.127077  0.752583  1
  Re  Re29  1  0.374111  0.625002  0.749211  1
  Re  Re30  1  0.252582  0.125506  0.879438  1
  Re  Re31  1  0.124900  0.749108  0.874111  1
  N  N32  1  0.315886  0.901714  0.017716  1
  N  N33  1  0.209483  0.121588  0.025951  1
  N  N34  1  0.881514  0.403205  0.085467  1
  N  N35  1  0.705234  0.686133  0.087452  1
  N  N36  1  0.618952  0.414160  0.098722  1
  N  N37  1  0.979829  0.682452  0.094008  1
  N  N38  1  0.594008  0.911556  0.114178  1
  N  N39  1  0.020229  0.204792  0.118952  1
  N  N40  1  0.201830  0.585828  0.184114  1
  N  N41  1  0.474050  0.595638  0.183532  1
  N  N42  1  0.117783  0.019102  0.205235  1
  N  N43  1  0.585466  0.182260  0.203952  1
  N  N44  1  0.482284  0.383999  0.298170  1
  N  N45  1  0.316468  0.912105  0.290518  1
  N  N46  1  0.900851  0.021662  0.314017  1
  N  N47  1  0.914301  0.297243  0.317181  1
  N  N48  1  0.296048  0.478309  0.381515  1
  N  N49  1  0.587451  0.901319  0.382218  1
  N  N50  1  0.817181  0.519938  0.402880  1
  N  N51  1  0.086836  0.879189  0.400851  1
  N  N52  1  0.097120  0.617059  0.414301  1
  N  N53  1  0.814016  0.792353  0.413164  1
  N  N54  1  0.598723  0.184562  0.479772  1
  N  N55  1  0.385822  0.297378  0.479830  1
  N  N56  1  0.614178  0.702622  0.520170  1
  N  N57  1  0.401278  0.815438  0.520228  1
  N  N58  1  0.185983  0.207646  0.586835  1
  N  N59  1  0.902880  0.382942  0.585698  1
  N  N60  1  0.913164  0.120810  0.599148  1
  N  N61  1  0.182819  0.480062  0.597121  1
  N  N62  1  0.412548  0.098681  0.617783  1
  N  N63  1  0.703952  0.521691  0.618485  1
  N  N64  1  0.085699  0.702757  0.682819  1
  N  N65  1  0.099148  0.978337  0.685983  1
  N  N66  1  0.683532  0.087895  0.709482  1
  N  N67  1  0.517716  0.616001  0.701830  1
  N  N68  1  0.414533  0.817739  0.796047  1
  N  N69  1  0.882218  0.980899  0.794766  1
  N  N70  1  0.525950  0.404363  0.816468  1
  N  N71  1  0.798169  0.414171  0.815885  1
  N  N72  1  0.405991  0.088444  0.885821  1
  N  N73  1  0.979772  0.795209  0.881049  1
  N  N74  1  0.020170  0.317548  0.905991  1
  N  N75  1  0.381049  0.585839  0.901278  1
  N  N76  1  0.294766  0.313867  0.912548  1
  N  N77  1  0.118485  0.596794  0.914533  1
  N  N78  1  0.684114  0.098285  0.982283  1
  N  N79  1  0.790518  0.878413  0.974050  1
