# generated using pymatgen
data_Tm3PaCu3Sb8
_symmetry_space_group_name_H-M   'P 1'
_cell_length_a   10.44430071
_cell_length_b   10.41981059
_cell_length_c   10.43189900
_cell_angle_alpha   145.80573384
_cell_angle_beta   145.84707840
_cell_angle_gamma   49.10657071
_symmetry_Int_Tables_number   1
_chemical_formula_structural   Tm3PaCu3Sb8
_chemical_formula_sum   'Tm3 Pa1 Cu3 Sb8'
_cell_volume   356.58569415
_cell_formula_units_Z   1
loop_
 _symmetry_equiv_pos_site_id
 _symmetry_equiv_pos_as_xyz
  1  'x, y, z'
loop_
 _atom_site_type_symbol
 _atom_site_label
 _atom_site_symmetry_multiplicity
 _atom_site_fract_x
 _atom_site_fract_y
 _atom_site_fract_z
 _atom_site_occupancy
  Tm  Tm0  1  0.633088  0.634682  0.512089  1
  Tm  Tm1  1  0.120998  0.122592  0.487911  1
  Tm  Tm2  1  0.875926  0.364710  0.000000  1
  Pa  Pa3  1  0.368687  0.872950  0.000000  1
  Cu  Cu4  1  0.992605  0.003859  0.000000  1
  Cu  Cu5  1  0.998976  0.496110  0.493497  1
  Cu  Cu6  1  0.505479  0.002612  0.506503  1
  Sb  Sb7  1  0.337784  0.334708  0.511111  1
  Sb  Sb8  1  0.826673  0.823597  0.488889  1
  Sb  Sb9  1  0.661313  0.182651  0.000000  1
  Sb  Sb10  1  0.183647  0.666611  0.000000  1
  Sb  Sb11  1  0.251251  0.246974  0.000000  1
  Sb  Sb12  1  0.746394  0.749845  0.000000  1
  Sb  Sb13  1  0.747726  0.248186  0.498272  1
  Sb  Sb14  1  0.249454  0.749915  0.501728  1
