# generated using pymatgen
data_Li8Nd8SnBiPb6
_symmetry_space_group_name_H-M   'P 1'
_cell_length_a   9.67029600
_cell_length_b   9.66597294
_cell_length_c   7.69763135
_cell_angle_alpha   90.06382422
_cell_angle_beta   90.00000000
_cell_angle_gamma   120.01479586
_symmetry_Int_Tables_number   1
_chemical_formula_structural   Li8Nd8SnBiPb6
_chemical_formula_sum   'Li8 Nd8 Sn1 Bi1 Pb6'
_cell_volume   623.02855792
_cell_formula_units_Z   1
loop_
 _symmetry_equiv_pos_site_id
 _symmetry_equiv_pos_as_xyz
  1  'x, y, z'
loop_
 _atom_site_type_symbol
 _atom_site_label
 _atom_site_symmetry_multiplicity
 _atom_site_fract_x
 _atom_site_fract_y
 _atom_site_fract_z
 _atom_site_occupancy
  Li  Li0  1  0.167020  0.334040  0.285004  1
  Li  Li1  1  0.167562  0.833097  0.287341  1
  Li  Li2  1  0.665534  0.833097  0.287341  1
  Li  Li3  1  0.832277  0.664553  0.786424  1
  Li  Li4  1  0.830097  0.166664  0.789498  1
  Li  Li5  1  0.336567  0.166664  0.789498  1
  Li  Li6  1  0.334078  0.668157  0.668564  1
  Li  Li7  1  0.666536  0.333070  0.167901  1
  Nd  Nd8  1  0.513412  0.026824  0.496092  1
  Nd  Nd9  1  0.516331  0.488709  0.493865  1
  Nd  Nd10  1  0.972377  0.488709  0.493865  1
  Nd  Nd11  1  0.488410  0.976820  0.995511  1
  Nd  Nd12  1  0.491577  0.512766  0.996209  1
  Nd  Nd13  1  0.021190  0.512766  0.996209  1
  Nd  Nd14  1  0.998517  0.997033  0.497928  1
  Nd  Nd15  1  0.998702  0.997403  0.000851  1
  Sn  Sn16  1  0.666876  0.333750  0.767587  1
  Bi  Bi17  1  0.166561  0.333123  0.731239  1
  Pb  Pb18  1  0.166477  0.832994  0.728650  1
  Pb  Pb19  1  0.666516  0.832994  0.728650  1
  Pb  Pb20  1  0.833308  0.666614  0.229839  1
  Pb  Pb21  1  0.833740  0.167166  0.228956  1
  Pb  Pb22  1  0.333427  0.167166  0.228956  1
  Pb  Pb23  1  0.332908  0.665819  0.265993  1
