# generated using pymatgen
data_TmCd(CuO2)4
_symmetry_space_group_name_H-M   'P 1'
_cell_length_a   6.23865718
_cell_length_b   6.23892766
_cell_length_c   6.23821990
_cell_angle_alpha   125.76853701
_cell_angle_beta   125.78508589
_cell_angle_gamma   80.26704038
_symmetry_Int_Tables_number   1
_chemical_formula_structural   TmCd(CuO2)4
_chemical_formula_sum   'Tm1 Cd1 Cu4 O8'
_cell_volume   154.21628012
_cell_formula_units_Z   1
loop_
 _symmetry_equiv_pos_site_id
 _symmetry_equiv_pos_as_xyz
  1  'x, y, z'
loop_
 _atom_site_type_symbol
 _atom_site_label
 _atom_site_symmetry_multiplicity
 _atom_site_fract_x
 _atom_site_fract_y
 _atom_site_fract_z
 _atom_site_occupancy
  Tm  Tm0  1  0.750031  0.250057  0.500057  1
  Cd  Cd1  1  0.000002  0.000005  0.000000  1
  Cu  Cu2  1  0.368968  0.624278  0.242481  1
  Cu  Cu3  1  0.375742  0.618195  0.744693  1
  Cu  Cu4  1  0.873521  0.631084  0.255360  1
  Cu  Cu5  1  0.381786  0.126472  0.757508  1
  O  O6  1  0.156825  0.583696  0.845868  1
  O  O7  1  0.737860  0.310978  0.154149  1
  O  O8  1  0.357746  0.983349  0.940315  1
  O  O9  1  0.689114  0.843090  0.426866  1
  O  O10  1  0.043034  0.417426  0.059681  1
  O  O11  1  0.416163  0.262203  0.573047  1
  O  O12  1  0.016511  0.956909  0.374205  1
  O  O13  1  0.582696  0.642258  0.625769  1
