# generated using pymatgen
data_Ti10Cu2Sn5Bi
_symmetry_space_group_name_H-M   'P 1'
_cell_length_a   8.24516766
_cell_length_b   8.24516797
_cell_length_c   5.55486900
_cell_angle_alpha   90.00000000
_cell_angle_beta   90.00000000
_cell_angle_gamma   119.79141260
_symmetry_Int_Tables_number   1
_chemical_formula_structural   Ti10Cu2Sn5Bi
_chemical_formula_sum   'Ti10 Cu2 Sn5 Bi1'
_cell_volume   327.72717028
_cell_formula_units_Z   1
loop_
 _symmetry_equiv_pos_site_id
 _symmetry_equiv_pos_as_xyz
  1  'x, y, z'
loop_
 _atom_site_type_symbol
 _atom_site_label
 _atom_site_symmetry_multiplicity
 _atom_site_fract_x
 _atom_site_fract_y
 _atom_site_fract_z
 _atom_site_occupancy
  Ti  Ti0  1  0.268171  0.998316  0.750000  1
  Ti  Ti1  1  0.735753  0.006677  0.250000  1
  Ti  Ti2  1  0.998316  0.268171  0.750000  1
  Ti  Ti3  1  0.006677  0.735753  0.250000  1
  Ti  Ti4  1  0.732230  0.732230  0.750000  1
  Ti  Ti5  1  0.263901  0.263901  0.250000  1
  Ti  Ti6  1  0.330181  0.667053  0.502583  1
  Ti  Ti7  1  0.667053  0.330181  0.502583  1
  Ti  Ti8  1  0.667053  0.330181  0.997417  1
  Ti  Ti9  1  0.330181  0.667053  0.997417  1
  Cu  Cu10  1  0.000885  0.000885  0.502117  1
  Cu  Cu11  1  0.000885  0.000885  0.997883  1
  Sn  Sn12  1  0.615975  0.998575  0.750000  1
  Sn  Sn13  1  0.385839  0.000795  0.250000  1
  Sn  Sn14  1  0.998575  0.615975  0.750000  1
  Sn  Sn15  1  0.000795  0.385839  0.250000  1
  Sn  Sn16  1  0.380946  0.380946  0.750000  1
  Bi  Bi17  1  0.616583  0.616583  0.250000  1
