# generated using pymatgen
data_Ca2Yb5PrBi6
_symmetry_space_group_name_H-M   'P 1'
_cell_length_a   8.42955759
_cell_length_b   8.41615768
_cell_length_c   8.36659346
_cell_angle_alpha   109.32598913
_cell_angle_beta   109.35698287
_cell_angle_gamma   109.54553001
_symmetry_Int_Tables_number   1
_chemical_formula_structural   Ca2Yb5PrBi6
_chemical_formula_sum   'Ca2 Yb5 Pr1 Bi6'
_cell_volume   457.96520243
_cell_formula_units_Z   1
loop_
 _symmetry_equiv_pos_site_id
 _symmetry_equiv_pos_as_xyz
  1  'x, y, z'
loop_
 _atom_site_type_symbol
 _atom_site_label
 _atom_site_symmetry_multiplicity
 _atom_site_fract_x
 _atom_site_fract_y
 _atom_site_fract_z
 _atom_site_occupancy
  Ca  Ca0  1  0.353394  0.352966  0.353493  1
  Ca  Ca1  1  0.146768  0.500264  0.000078  1
  Yb  Yb2  1  0.500250  0.000052  0.146235  1
  Yb  Yb3  1  0.645918  0.502392  0.001979  1
  Yb  Yb4  1  0.997420  0.643362  0.499541  1
  Yb  Yb5  1  0.856604  0.854045  0.856271  1
  Yb  Yb6  1  0.999644  0.146620  0.499792  1
  Pr  Pr7  1  0.500190  0.999648  0.642718  1
  Bi  Bi8  1  0.627515  0.750442  0.376712  1
  Bi  Bi9  1  0.750279  0.377124  0.626348  1
  Bi  Bi10  1  0.251439  0.124397  0.874110  1
  Bi  Bi11  1  0.375362  0.627028  0.749990  1
  Bi  Bi12  1  0.122387  0.873255  0.249648  1
  Bi  Bi13  1  0.872829  0.248407  0.123083  1
