# generated using pymatgen
data_BaTePdO6
_symmetry_space_group_name_H-M   'P 1'
_cell_length_a   5.31258900
_cell_length_b   5.31265367
_cell_length_c   11.67212400
_cell_angle_alpha   89.99977047
_cell_angle_beta   90.00046984
_cell_angle_gamma   119.99959108
_symmetry_Int_Tables_number   1
_chemical_formula_structural   BaTePdO6
_chemical_formula_sum   'Ba2 Te2 Pd2 O12'
_cell_volume   285.29886120
_cell_formula_units_Z   2
loop_
 _symmetry_equiv_pos_site_id
 _symmetry_equiv_pos_as_xyz
  1  'x, y, z'
loop_
 _atom_site_type_symbol
 _atom_site_label
 _atom_site_symmetry_multiplicity
 _atom_site_fract_x
 _atom_site_fract_y
 _atom_site_fract_z
 _atom_site_occupancy
  Ba  Ba0  1  0.000000  0.000002  0.249931  1
  Ba  Ba1  1  0.000002  0.000002  0.750068  1
  Te  Te2  1  0.666666  0.333332  0.000000  1
  Te  Te3  1  0.666664  0.333330  0.500000  1
  Pd  Pd4  1  0.333336  0.666671  0.000000  1
  Pd  Pd5  1  0.333333  0.666668  0.500000  1
  O  O6  1  0.382347  0.010263  0.095333  1
  O  O7  1  0.627919  0.617653  0.095333  1
  O  O8  1  0.989727  0.372084  0.095331  1
  O  O9  1  0.989736  0.372112  0.404645  1
  O  O10  1  0.627887  0.617629  0.404643  1
  O  O11  1  0.382371  0.010258  0.404644  1
  O  O12  1  0.627888  0.010258  0.595355  1
  O  O13  1  0.989740  0.617629  0.595357  1
  O  O14  1  0.382377  0.372112  0.595356  1
  O  O15  1  0.382356  0.372084  0.904670  1
  O  O16  1  0.989736  0.617653  0.904667  1
  O  O17  1  0.627917  0.010263  0.904667  1
