# generated using pymatgen
data_Ho4Tm6IrOs3
_symmetry_space_group_name_H-M   'P 1'
_cell_length_a   6.31894081
_cell_length_b   7.31512626
_cell_length_c   8.31437014
_cell_angle_alpha   96.93362133
_cell_angle_beta   112.21738680
_cell_angle_gamma   90.00810346
_symmetry_Int_Tables_number   1
_chemical_formula_structural   Ho4Tm6IrOs3
_chemical_formula_sum   'Ho4 Tm6 Ir1 Os3'
_cell_volume   352.74787494
_cell_formula_units_Z   1
loop_
 _symmetry_equiv_pos_site_id
 _symmetry_equiv_pos_as_xyz
  1  'x, y, z'
loop_
 _atom_site_type_symbol
 _atom_site_label
 _atom_site_symmetry_multiplicity
 _atom_site_fract_x
 _atom_site_fract_y
 _atom_site_fract_z
 _atom_site_occupancy
  Ho  Ho0  1  0.971103  0.915666  0.181050  1
  Ho  Ho1  1  0.788835  0.581593  0.816213  1
  Ho  Ho2  1  0.024651  0.083179  0.813302  1
  Ho  Ho3  1  0.209428  0.419365  0.181936  1
  Tm  Tm4  1  0.646740  0.816971  0.438473  1
  Tm  Tm5  1  0.208066  0.682024  0.563071  1
  Tm  Tm6  1  0.354143  0.181518  0.564265  1
  Tm  Tm7  1  0.795431  0.319682  0.438185  1
  Tm  Tm8  1  0.421703  0.749116  0.999231  1
  Tm  Tm9  1  0.578326  0.250330  0.999590  1
  Ir  Ir10  1  0.397476  0.077046  0.222010  1
  Os  Os11  1  0.821322  0.576420  0.218855  1
  Os  Os12  1  0.604835  0.924026  0.781390  1
  Os  Os13  1  0.177941  0.423064  0.782430  1
