# generated using pymatgen
data_Dy15YCd3Ni4Ag
_symmetry_space_group_name_H-M   'P 1'
_cell_length_a   9.49726127
_cell_length_b   9.49726633
_cell_length_c   9.49767335
_cell_angle_alpha   60.18731632
_cell_angle_beta   60.18715269
_cell_angle_gamma   60.19196415
_symmetry_Int_Tables_number   1
_chemical_formula_structural   Dy15YCd3Ni4Ag
_chemical_formula_sum   'Dy15 Y1 Cd3 Ni4 Ag1'
_cell_volume   608.34813903
_cell_formula_units_Z   1
loop_
 _symmetry_equiv_pos_site_id
 _symmetry_equiv_pos_as_xyz
  1  'x, y, z'
loop_
 _atom_site_type_symbol
 _atom_site_label
 _atom_site_symmetry_multiplicity
 _atom_site_fract_x
 _atom_site_fract_y
 _atom_site_fract_z
 _atom_site_occupancy
  Dy  Dy0  1  0.596385  0.596364  0.596448  1
  Dy  Dy1  1  0.600425  0.600412  0.200013  1
  Dy  Dy2  1  0.600611  0.199889  0.600359  1
  Dy  Dy3  1  0.199885  0.600604  0.600365  1
  Dy  Dy4  1  0.062153  0.440255  0.439774  1
  Dy  Dy5  1  0.438781  0.061602  0.061737  1
  Dy  Dy6  1  0.440252  0.062165  0.439773  1
  Dy  Dy7  1  0.061592  0.438781  0.061748  1
  Dy  Dy8  1  0.440079  0.440084  0.062152  1
  Dy  Dy9  1  0.061664  0.061682  0.438658  1
  Dy  Dy10  1  0.184590  0.812926  0.813276  1
  Dy  Dy11  1  0.811963  0.186540  0.186527  1
  Dy  Dy12  1  0.812930  0.184589  0.813281  1
  Dy  Dy13  1  0.186545  0.811958  0.186530  1
  Dy  Dy14  1  0.813360  0.813363  0.184359  1
  Y  Y15  1  0.186259  0.186255  0.812352  1
  Cd  Cd16  1  0.831363  0.831367  0.506996  1
  Cd  Cd17  1  0.831101  0.507426  0.831362  1
  Cd  Cd18  1  0.507428  0.831104  0.831361  1
  Ni  Ni19  1  0.393945  0.393942  0.394064  1
  Ni  Ni20  1  0.391554  0.391553  0.822773  1
  Ni  Ni21  1  0.391608  0.822775  0.391596  1
  Ni  Ni22  1  0.822760  0.391597  0.391593  1
  Ag  Ag23  1  0.832769  0.832771  0.832904  1
