# generated using pymatgen
data_Ti12As4C3N
_symmetry_space_group_name_H-M   'P 1'
_cell_length_a   5.41592673
_cell_length_b   5.41592616
_cell_length_c   16.24171007
_cell_angle_alpha   89.75054702
_cell_angle_beta   89.75054655
_cell_angle_gamma   35.11834092
_symmetry_Int_Tables_number   1
_chemical_formula_structural   Ti12As4C3N
_chemical_formula_sum   'Ti12 As4 C3 N1'
_cell_volume   274.05787902
_cell_formula_units_Z   1
loop_
 _symmetry_equiv_pos_site_id
 _symmetry_equiv_pos_as_xyz
  1  'x, y, z'
loop_
 _atom_site_type_symbol
 _atom_site_label
 _atom_site_symmetry_multiplicity
 _atom_site_fract_x
 _atom_site_fract_y
 _atom_site_fract_z
 _atom_site_occupancy
  Ti  Ti0  1  0.869695  0.869695  0.224587  1
  Ti  Ti1  1  0.871552  0.871552  0.721838  1
  Ti  Ti2  1  0.128448  0.128448  0.278162  1
  Ti  Ti3  1  0.130305  0.130305  0.775413  1
  Ti  Ti4  1  0.871087  0.871087  0.027052  1
  Ti  Ti5  1  0.871017  0.871017  0.525219  1
  Ti  Ti6  1  0.128983  0.128983  0.474781  1
  Ti  Ti7  1  0.128913  0.128913  0.972948  1
  Ti  Ti8  1  0.551718  0.551718  0.125727  1
  Ti  Ti9  1  0.552937  0.552937  0.623111  1
  Ti  Ti10  1  0.447063  0.447063  0.376889  1
  Ti  Ti11  1  0.448282  0.448282  0.874273  1
  As  As12  1  0.245049  0.245049  0.125742  1
  As  As13  1  0.245594  0.245594  0.624197  1
  As  As14  1  0.754406  0.754406  0.375803  1
  As  As15  1  0.754951  0.754951  0.874258  1
  C  C16  1  0.499363  0.499363  0.251144  1
  C  C17  1  0.500637  0.500637  0.748856  1
  C  C18  1  0.500000  0.500000  0.000000  1
  N  N19  1  0.500000  0.500000  0.500000  1
