# generated using pymatgen
data_Sm2B4Os2RuRh
_symmetry_space_group_name_H-M   'P 1'
_cell_length_a   6.78832826
_cell_length_b   5.98918304
_cell_length_c   5.60421787
_cell_angle_alpha   71.59384224
_cell_angle_beta   56.83946726
_cell_angle_gamma   51.31055832
_symmetry_Int_Tables_number   1
_chemical_formula_structural   Sm2B4Os2RuRh
_chemical_formula_sum   'Sm2 B4 Os2 Ru1 Rh1'
_cell_volume   148.76264791
_cell_formula_units_Z   1
loop_
 _symmetry_equiv_pos_site_id
 _symmetry_equiv_pos_as_xyz
  1  'x, y, z'
loop_
 _atom_site_type_symbol
 _atom_site_label
 _atom_site_symmetry_multiplicity
 _atom_site_fract_x
 _atom_site_fract_y
 _atom_site_fract_z
 _atom_site_occupancy
  Sm  Sm0  1  0.005962  0.005962  0.994038  1
  Sm  Sm1  1  0.247649  0.247649  0.252351  1
  B  B2  1  0.675271  0.313991  0.700522  1
  B  B3  1  0.313991  0.675271  0.310216  1
  B  B4  1  0.931404  0.575091  0.930754  1
  B  B5  1  0.575091  0.931404  0.562751  1
  Os  Os6  1  0.364339  0.364339  0.635661  1
  Os  Os7  1  0.886770  0.886770  0.613230  1
  Ru  Ru8  1  0.613912  0.613912  0.886088  1
  Rh  Rh9  1  0.635611  0.635611  0.364389  1
