# generated using pymatgen
data_CaY3B16
_symmetry_space_group_name_H-M   'P 1'
_cell_length_a   7.12382959
_cell_length_b   7.12382878
_cell_length_c   4.03815400
_cell_angle_alpha   90.00000000
_cell_angle_beta   90.00000000
_cell_angle_gamma   90.09718167
_symmetry_Int_Tables_number   1
_chemical_formula_structural   CaY3B16
_chemical_formula_sum   'Ca1 Y3 B16'
_cell_volume   204.93174936
_cell_formula_units_Z   1
loop_
 _symmetry_equiv_pos_site_id
 _symmetry_equiv_pos_as_xyz
  1  'x, y, z'
loop_
 _atom_site_type_symbol
 _atom_site_label
 _atom_site_symmetry_multiplicity
 _atom_site_fract_x
 _atom_site_fract_y
 _atom_site_fract_z
 _atom_site_occupancy
  Ca  Ca0  1  0.181041  0.681041  0.000000  1
  Y  Y1  1  0.681743  0.818183  0.000000  1
  Y  Y2  1  0.318183  0.181743  0.000000  1
  Y  Y3  1  0.818947  0.318947  0.000000  1
  B  B4  1  0.324349  0.461194  0.500000  1
  B  B5  1  0.676558  0.537803  0.500000  1
  B  B6  1  0.538685  0.324638  0.500000  1
  B  B7  1  0.462709  0.675546  0.500000  1
  B  B8  1  0.000140  0.999206  0.202994  1
  B  B9  1  0.499206  0.500140  0.797006  1
  B  B10  1  0.000140  0.999206  0.797006  1
  B  B11  1  0.499206  0.500140  0.202994  1
  B  B12  1  0.587113  0.087113  0.500000  1
  B  B13  1  0.086343  0.412866  0.500000  1
  B  B14  1  0.912866  0.586343  0.500000  1
  B  B15  1  0.413587  0.913587  0.500000  1
  B  B16  1  0.037803  0.176558  0.500000  1
  B  B17  1  0.175546  0.962709  0.500000  1
  B  B18  1  0.824638  0.038685  0.500000  1
  B  B19  1  0.961194  0.824349  0.500000  1
