# generated using pymatgen
data_Hf2TiSi2W
_symmetry_space_group_name_H-M   'P 1'
_cell_length_a   3.56334600
_cell_length_b   6.88861000
_cell_length_c   8.26877500
_cell_angle_alpha   90.00000000
_cell_angle_beta   90.00000000
_cell_angle_gamma   90.00000000
_symmetry_Int_Tables_number   1
_chemical_formula_structural   Hf2TiSi2W
_chemical_formula_sum   'Hf4 Ti2 Si4 W2'
_cell_volume   202.96949289
_cell_formula_units_Z   2
loop_
 _symmetry_equiv_pos_site_id
 _symmetry_equiv_pos_as_xyz
  1  'x, y, z'
loop_
 _atom_site_type_symbol
 _atom_site_label
 _atom_site_symmetry_multiplicity
 _atom_site_fract_x
 _atom_site_fract_y
 _atom_site_fract_z
 _atom_site_occupancy
  Hf  Hf0  1  0.250000  0.548247  0.166037  1
  Hf  Hf1  1  0.250000  0.048247  0.333963  1
  Hf  Hf2  1  0.750000  0.457694  0.834161  1
  Hf  Hf3  1  0.750000  0.957694  0.665839  1
  Ti  Ti4  1  0.250000  0.626924  0.559913  1
  Ti  Ti5  1  0.250000  0.126924  0.940087  1
  Si  Si6  1  0.250000  0.755129  0.860634  1
  Si  Si7  1  0.250000  0.255129  0.639366  1
  Si  Si8  1  0.750000  0.244964  0.138506  1
  Si  Si9  1  0.750000  0.744964  0.361494  1
  W  W10  1  0.750000  0.367042  0.439492  1
  W  W11  1  0.750000  0.867042  0.060508  1
