# generated using pymatgen
data_TbNi(PRu)2
_symmetry_space_group_name_H-M   'P 1'
_cell_length_a   3.93441700
_cell_length_b   10.69610300
_cell_length_c   12.75908200
_cell_angle_alpha   90.00000000
_cell_angle_beta   90.00000000
_cell_angle_gamma   90.00000000
_symmetry_Int_Tables_number   1
_chemical_formula_structural   TbNi(PRu)2
_chemical_formula_sum   'Tb6 Ni6 P12 Ru12'
_cell_volume   536.93954800
_cell_formula_units_Z   6
loop_
 _symmetry_equiv_pos_site_id
 _symmetry_equiv_pos_as_xyz
  1  'x, y, z'
loop_
 _atom_site_type_symbol
 _atom_site_label
 _atom_site_symmetry_multiplicity
 _atom_site_fract_x
 _atom_site_fract_y
 _atom_site_fract_z
 _atom_site_occupancy
  Tb  Tb0  1  0.751868  0.000000  0.478416  1
  Tb  Tb1  1  0.251868  0.500000  0.521584  1
  Tb  Tb2  1  0.251803  0.683069  0.794772  1
  Tb  Tb3  1  0.251803  0.316931  0.794772  1
  Tb  Tb4  1  0.751803  0.816931  0.205228  1
  Tb  Tb5  1  0.751803  0.183069  0.205228  1
  Ni  Ni6  1  0.251672  0.172327  0.011948  1
  Ni  Ni7  1  0.251672  0.827673  0.011948  1
  Ni  Ni8  1  0.751672  0.327673  0.988052  1
  Ni  Ni9  1  0.751672  0.672327  0.988052  1
  Ni  Ni10  1  0.251675  0.000000  0.299773  1
  Ni  Ni11  1  0.751675  0.500000  0.700227  1
  P  P12  1  0.251861  0.186319  0.384884  1
  P  P13  1  0.251861  0.813681  0.384884  1
  P  P14  1  0.751861  0.313681  0.615116  1
  P  P15  1  0.751861  0.686319  0.615116  1
  P  P16  1  0.251792  0.000000  0.124324  1
  P  P17  1  0.751792  0.500000  0.875676  1
  P  P18  1  0.251810  0.651533  0.107593  1
  P  P19  1  0.251810  0.348467  0.107593  1
  P  P20  1  0.751810  0.848467  0.892407  1
  P  P21  1  0.751810  0.151533  0.892407  1
  P  P22  1  0.251901  0.000000  0.659757  1
  P  P23  1  0.751901  0.500000  0.340243  1
  Ru  Ru24  1  0.751776  0.000000  0.017869  1
  Ru  Ru25  1  0.251776  0.500000  0.982131  1
  Ru  Ru26  1  0.251867  0.202615  0.571498  1
  Ru  Ru27  1  0.251867  0.797385  0.571498  1
  Ru  Ru28  1  0.751867  0.297385  0.428502  1
  Ru  Ru29  1  0.751867  0.702615  0.428502  1
  Ru  Ru30  1  0.251912  0.624791  0.284809  1
  Ru  Ru31  1  0.251912  0.375209  0.284809  1
  Ru  Ru32  1  0.751912  0.875209  0.715191  1
  Ru  Ru33  1  0.751912  0.124791  0.715191  1
  Ru  Ru34  1  0.251936  0.000000  0.848710  1
  Ru  Ru35  1  0.751936  0.500000  0.151290  1
