# generated using pymatgen
data_Tb16Tm4(Ir3Ru)3
_symmetry_space_group_name_H-M   'P 1'
_cell_length_a   10.86342700
_cell_length_b   10.86342700
_cell_length_c   6.42168200
_cell_angle_alpha   90.00000000
_cell_angle_beta   90.00000000
_cell_angle_gamma   90.00000000
_symmetry_Int_Tables_number   1
_chemical_formula_structural   Tb16Tm4(Ir3Ru)3
_chemical_formula_sum   'Tb16 Tm4 Ir9 Ru3'
_cell_volume   757.84867613
_cell_formula_units_Z   1
loop_
 _symmetry_equiv_pos_site_id
 _symmetry_equiv_pos_as_xyz
  1  'x, y, z'
loop_
 _atom_site_type_symbol
 _atom_site_label
 _atom_site_symmetry_multiplicity
 _atom_site_fract_x
 _atom_site_fract_y
 _atom_site_fract_z
 _atom_site_occupancy
  Tb  Tb0  1  0.292668  0.086451  0.377436  1
  Tb  Tb1  1  0.292685  0.913718  0.877683  1
  Tb  Tb2  1  0.707315  0.086282  0.877683  1
  Tb  Tb3  1  0.707332  0.913549  0.377436  1
  Tb  Tb4  1  0.586282  0.792685  0.877683  1
  Tb  Tb5  1  0.586451  0.207332  0.377436  1
  Tb  Tb6  1  0.413549  0.792668  0.377436  1
  Tb  Tb7  1  0.413718  0.207315  0.877683  1
  Tb  Tb8  1  0.208790  0.413097  0.623681  1
  Tb  Tb9  1  0.208673  0.586836  0.121133  1
  Tb  Tb10  1  0.791327  0.413164  0.121133  1
  Tb  Tb11  1  0.791210  0.586903  0.623681  1
  Tb  Tb12  1  0.913164  0.708673  0.121133  1
  Tb  Tb13  1  0.913097  0.291210  0.623681  1
  Tb  Tb14  1  0.086903  0.708790  0.623681  1
  Tb  Tb15  1  0.086836  0.291327  0.121133  1
  Tm  Tm16  1  0.000000  0.000000  0.499890  1
  Tm  Tm17  1  0.000000  0.000000  0.999841  1
  Tm  Tm18  1  0.500000  0.500000  0.999841  1
  Tm  Tm19  1  0.500000  0.500000  0.499890  1
  Ir  Ir20  1  0.849501  0.150967  0.250124  1
  Ir  Ir21  1  0.849194  0.849070  0.749831  1
  Ir  Ir22  1  0.150806  0.150930  0.749831  1
  Ir  Ir23  1  0.150499  0.849033  0.250124  1
  Ir  Ir24  1  0.650930  0.349194  0.749831  1
  Ir  Ir25  1  0.650967  0.650499  0.250124  1
  Ir  Ir26  1  0.349033  0.349501  0.250124  1
  Ir  Ir27  1  0.349070  0.650806  0.749831  1
  Ir  Ir28  1  0.000000  0.500000  0.378944  1
  Ru  Ru29  1  0.500000  0.000000  0.121656  1
  Ru  Ru30  1  0.500000  0.000000  0.621333  1
  Ru  Ru31  1  0.000000  0.500000  0.879053  1
