# generated using pymatgen
data_TbPrTa2(SnPt)4
_symmetry_space_group_name_H-M   'P 1'
_cell_length_a   6.52404972
_cell_length_b   4.56525400
_cell_length_c   9.20958841
_cell_angle_alpha   90.00000000
_cell_angle_beta   89.80692717
_cell_angle_gamma   90.00000000
_symmetry_Int_Tables_number   1
_chemical_formula_structural   TbPrTa2(SnPt)4
_chemical_formula_sum   'Tb1 Pr1 Ta2 Sn4 Pt4'
_cell_volume   274.29630862
_cell_formula_units_Z   1
loop_
 _symmetry_equiv_pos_site_id
 _symmetry_equiv_pos_as_xyz
  1  'x, y, z'
loop_
 _atom_site_type_symbol
 _atom_site_label
 _atom_site_symmetry_multiplicity
 _atom_site_fract_x
 _atom_site_fract_y
 _atom_site_fract_z
 _atom_site_occupancy
  Tb  Tb0  1  0.003212  0.000000  0.376886  1
  Pr  Pr1  1  0.503473  0.500001  0.622639  1
  Ta  Ta2  1  0.496341  0.500001  0.120834  1
  Ta  Ta3  1  0.998795  0.000000  0.879504  1
  Sn  Sn4  1  0.980530  0.500001  0.125320  1
  Sn  Sn5  1  0.509658  0.000000  0.364928  1
  Sn  Sn6  1  0.012030  0.500001  0.630084  1
  Sn  Sn7  1  0.483944  0.000000  0.879118  1
  Pt  Pt8  1  0.735094  0.000000  0.108822  1
  Pt  Pt9  1  0.266225  0.500001  0.347713  1
  Pt  Pt10  1  0.778742  0.000000  0.649910  1
  Pt  Pt11  1  0.231952  0.500001  0.894248  1
