# generated using pymatgen
data_Tb7Er9Cd4PdRu3
_symmetry_space_group_name_H-M   'P 1'
_cell_length_a   9.57816138
_cell_length_b   9.62134717
_cell_length_c   9.66134500
_cell_angle_alpha   59.86238207
_cell_angle_beta   59.71229017
_cell_angle_gamma   59.65920474
_symmetry_Int_Tables_number   1
_chemical_formula_structural   Tb7Er9Cd4PdRu3
_chemical_formula_sum   'Tb7 Er9 Cd4 Pd1 Ru3'
_cell_volume   625.90982916
_cell_formula_units_Z   1
loop_
 _symmetry_equiv_pos_site_id
 _symmetry_equiv_pos_as_xyz
  1  'x, y, z'
loop_
 _atom_site_type_symbol
 _atom_site_label
 _atom_site_symmetry_multiplicity
 _atom_site_fract_x
 _atom_site_fract_y
 _atom_site_fract_z
 _atom_site_occupancy
  Tb  Tb0  1  0.816610  0.804694  0.189348  1
  Tb  Tb1  1  0.937834  0.559390  0.562562  1
  Tb  Tb2  1  0.556102  0.938908  0.938511  1
  Tb  Tb3  1  0.556102  0.938908  0.566480  1
  Tb  Tb4  1  0.937834  0.559390  0.940214  1
  Tb  Tb5  1  0.555467  0.565695  0.939420  1
  Tb  Tb6  1  0.937866  0.939294  0.561420  1
  Er  Er7  1  0.345403  0.351735  0.350856  1
  Er  Er8  1  0.345403  0.351735  0.952007  1
  Er  Er9  1  0.344908  0.956032  0.349530  1
  Er  Er10  1  0.965564  0.344562  0.344938  1
  Er  Er11  1  0.816021  0.188957  0.189712  1
  Er  Er12  1  0.186256  0.811980  0.811911  1
  Er  Er13  1  0.186256  0.811980  0.189853  1
  Er  Er14  1  0.816021  0.188957  0.805310  1
  Er  Er15  1  0.186330  0.187475  0.813097  1
  Cd  Cd16  1  0.580390  0.579555  0.580565  1
  Cd  Cd17  1  0.580390  0.579555  0.259489  1
  Cd  Cd18  1  0.580869  0.258036  0.580547  1
  Cd  Cd19  1  0.256684  0.581033  0.581142  1
  Pd  Pd20  1  0.573062  0.145265  0.140837  1
  Ru  Ru21  1  0.145394  0.140228  0.137103  1
  Ru  Ru22  1  0.145394  0.140228  0.577275  1
  Ru  Ru23  1  0.147840  0.576411  0.137874  1
