# generated using pymatgen
data_MnNb3Si(TcGe)2
_symmetry_space_group_name_H-M   'P 1'
_cell_length_a   6.86645059
_cell_length_b   6.81419698
_cell_length_c   3.36486200
_cell_angle_alpha   90.00000000
_cell_angle_beta   90.00000000
_cell_angle_gamma   119.74856236
_symmetry_Int_Tables_number   1
_chemical_formula_structural   MnNb3Si(TcGe)2
_chemical_formula_sum   'Mn1 Nb3 Si1 Tc2 Ge2'
_cell_volume   136.69091693
_cell_formula_units_Z   1
loop_
 _symmetry_equiv_pos_site_id
 _symmetry_equiv_pos_as_xyz
  1  'x, y, z'
loop_
 _atom_site_type_symbol
 _atom_site_label
 _atom_site_symmetry_multiplicity
 _atom_site_fract_x
 _atom_site_fract_y
 _atom_site_fract_z
 _atom_site_occupancy
  Mn  Mn0  1  0.000000  0.252977  0.000000  1
  Nb  Nb1  1  0.000000  0.595469  0.500000  1
  Nb  Nb2  1  0.397989  0.399032  0.500000  1
  Nb  Nb3  1  0.602011  0.001042  0.500000  1
  Si  Si4  1  0.000000  0.014588  0.500000  1
  Tc  Tc5  1  0.249461  0.997501  0.000000  1
  Tc  Tc6  1  0.750539  0.748038  0.000000  1
  Ge  Ge7  1  0.669675  0.330513  0.000000  1
  Ge  Ge8  1  0.330325  0.660839  0.000000  1
