# generated using pymatgen
data_Er3Tm13In4IrPt3
_symmetry_space_group_name_H-M   'P 1'
_cell_length_a   9.59385016
_cell_length_b   9.60883308
_cell_length_c   9.59385100
_cell_angle_alpha   60.05156792
_cell_angle_beta   60.00000054
_cell_angle_gamma   60.05156774
_symmetry_Int_Tables_number   1
_chemical_formula_structural   Er3Tm13In4IrPt3
_chemical_formula_sum   'Er3 Tm13 In4 Ir1 Pt3'
_cell_volume   625.86349857
_cell_formula_units_Z   1
loop_
 _symmetry_equiv_pos_site_id
 _symmetry_equiv_pos_as_xyz
  1  'x, y, z'
loop_
 _atom_site_type_symbol
 _atom_site_label
 _atom_site_symmetry_multiplicity
 _atom_site_fract_x
 _atom_site_fract_y
 _atom_site_fract_z
 _atom_site_occupancy
  Er  Er0  1  0.060974  0.437001  0.441053  1
  Er  Er1  1  0.441053  0.437001  0.060974  1
  Er  Er2  1  0.060974  0.437001  0.060974  1
  Tm  Tm3  1  0.062167  0.060848  0.438493  1
  Tm  Tm4  1  0.649130  0.052612  0.649130  1
  Tm  Tm5  1  0.190131  0.810468  0.190131  1
  Tm  Tm6  1  0.438493  0.060848  0.438493  1
  Tm  Tm7  1  0.186219  0.192308  0.810736  1
  Tm  Tm8  1  0.651414  0.647271  0.651414  1
  Tm  Tm9  1  0.049903  0.647271  0.651414  1
  Tm  Tm10  1  0.438493  0.060848  0.062167  1
  Tm  Tm11  1  0.651414  0.647271  0.049903  1
  Tm  Tm12  1  0.190131  0.810468  0.809271  1
  Tm  Tm13  1  0.810736  0.192308  0.810736  1
  Tm  Tm14  1  0.810736  0.192308  0.186219  1
  Tm  Tm15  1  0.809271  0.810468  0.190131  1
  In  In16  1  0.749397  0.416612  0.416996  1
  In  In17  1  0.416996  0.416612  0.749397  1
  In  In18  1  0.416272  0.751184  0.416272  1
  In  In19  1  0.416996  0.416612  0.416996  1
  Ir  Ir20  1  0.857585  0.427245  0.857585  1
  Pt  Pt21  1  0.857066  0.858479  0.857066  1
  Pt  Pt22  1  0.427390  0.858479  0.857066  1
  Pt  Pt23  1  0.857066  0.858479  0.427390  1
