# generated using pymatgen
data_Ba2TiCl2O3
_symmetry_space_group_name_H-M   'P 1'
_cell_length_a   10.05434487
_cell_length_b   10.05434460
_cell_length_c   10.05434487
_cell_angle_alpha   105.05333465
_cell_angle_beta   105.05333557
_cell_angle_gamma   118.72222956
_symmetry_Int_Tables_number   1
_chemical_formula_structural   Ba2TiCl2O3
_chemical_formula_sum   'Ba8 Ti4 Cl8 O12'
_cell_volume   766.90147755
_cell_formula_units_Z   4
loop_
 _symmetry_equiv_pos_site_id
 _symmetry_equiv_pos_as_xyz
  1  'x, y, z'
loop_
 _atom_site_type_symbol
 _atom_site_label
 _atom_site_symmetry_multiplicity
 _atom_site_fract_x
 _atom_site_fract_y
 _atom_site_fract_z
 _atom_site_occupancy
  Ba  Ba0  1  0.848320  0.519661  0.827614  1
  Ba  Ba1  1  0.692045  0.020706  0.172386  1
  Ba  Ba2  1  0.519661  0.692045  0.671339  1
  Ba  Ba3  1  0.020706  0.848320  0.328661  1
  Ba  Ba4  1  0.151681  0.480340  0.172386  1
  Ba  Ba5  1  0.307956  0.979295  0.827614  1
  Ba  Ba6  1  0.480340  0.307956  0.328661  1
  Ba  Ba7  1  0.979295  0.151681  0.671339  1
  Ti  Ti8  1  0.685434  0.400345  0.085780  1
  Ti  Ti9  1  0.314566  0.599656  0.914221  1
  Ti  Ti10  1  0.400345  0.314566  0.714910  1
  Ti  Ti11  1  0.599655  0.685434  0.285090  1
  Cl  Cl12  1  0.750000  0.250000  0.500000  1
  Cl  Cl13  1  0.250000  0.750000  0.500000  1
  Cl  Cl14  1  0.221671  0.221671  0.000000  1
  Cl  Cl15  1  0.778330  0.778330  0.000000  1
  Cl  Cl16  1  0.100580  0.244319  0.344899  1
  Cl  Cl17  1  0.899420  0.755681  0.655101  1
  Cl  Cl18  1  0.244319  0.899420  0.143739  1
  Cl  Cl19  1  0.755680  0.100580  0.856260  1
  O  O20  1  0.323839  0.447037  0.770876  1
  O  O21  1  0.676161  0.552962  0.229124  1
  O  O22  1  0.447037  0.676161  0.123199  1
  O  O23  1  0.552962  0.323839  0.876800  1
  O  O24  1  0.098373  0.482676  0.882406  1
  O  O25  1  0.600270  0.215969  0.117594  1
  O  O26  1  0.482676  0.600270  0.384301  1
  O  O27  1  0.215967  0.098373  0.615698  1
  O  O28  1  0.901626  0.517325  0.117594  1
  O  O29  1  0.399731  0.784033  0.882406  1
  O  O30  1  0.517324  0.399731  0.615698  1
  O  O31  1  0.784032  0.901626  0.384301  1
