# generated using pymatgen
data_Er4Ga2B4Ir9Ru
_symmetry_space_group_name_H-M   'P 1'
_cell_length_a   9.58312780
_cell_length_b   9.58312780
_cell_length_c   3.12861600
_cell_angle_alpha   90.00000000
_cell_angle_beta   90.00000000
_cell_angle_gamma   89.59856936
_symmetry_Int_Tables_number   1
_chemical_formula_structural   Er4Ga2B4Ir9Ru
_chemical_formula_sum   'Er4 Ga2 B4 Ir9 Ru1'
_cell_volume   287.31358595
_cell_formula_units_Z   1
loop_
 _symmetry_equiv_pos_site_id
 _symmetry_equiv_pos_as_xyz
  1  'x, y, z'
loop_
 _atom_site_type_symbol
 _atom_site_label
 _atom_site_symmetry_multiplicity
 _atom_site_fract_x
 _atom_site_fract_y
 _atom_site_fract_z
 _atom_site_occupancy
  Er  Er0  1  0.823096  0.323096  0.000000  1
  Er  Er1  1  0.176904  0.676904  0.000000  1
  Er  Er2  1  0.326189  0.173811  0.000000  1
  Er  Er3  1  0.673811  0.826189  0.000000  1
  Ga  Ga4  1  0.500000  0.500000  0.000000  1
  Ga  Ga5  1  0.000000  0.000000  0.000000  1
  B  B6  1  0.621493  0.121493  0.000000  1
  B  B7  1  0.378507  0.878507  0.000000  1
  B  B8  1  0.123047  0.376953  0.000000  1
  B  B9  1  0.876953  0.623047  0.000000  1
  Ir  Ir10  1  0.000000  0.500000  0.500000  1
  Ir  Ir11  1  0.719095  0.569267  0.500000  1
  Ir  Ir12  1  0.280905  0.430733  0.500000  1
  Ir  Ir13  1  0.218230  0.930704  0.500000  1
  Ir  Ir14  1  0.781770  0.069296  0.500000  1
  Ir  Ir15  1  0.430704  0.718230  0.500000  1
  Ir  Ir16  1  0.569296  0.281770  0.500000  1
  Ir  Ir17  1  0.069267  0.219095  0.500000  1
  Ir  Ir18  1  0.930733  0.780905  0.500000  1
  Ru  Ru19  1  0.500000  0.000000  0.500000  1
