# generated using pymatgen
data_Zr24Ga3AsSe4
_symmetry_space_group_name_H-M   'P 1'
_cell_length_a   11.09091424
_cell_length_b   11.05931876
_cell_length_c   5.50417278
_cell_angle_alpha   90.12482999
_cell_angle_beta   90.08525784
_cell_angle_gamma   89.97963772
_symmetry_Int_Tables_number   1
_chemical_formula_structural   Zr24Ga3AsSe4
_chemical_formula_sum   'Zr24 Ga3 As1 Se4'
_cell_volume   675.12819031
_cell_formula_units_Z   1
loop_
 _symmetry_equiv_pos_site_id
 _symmetry_equiv_pos_as_xyz
  1  'x, y, z'
loop_
 _atom_site_type_symbol
 _atom_site_label
 _atom_site_symmetry_multiplicity
 _atom_site_fract_x
 _atom_site_fract_y
 _atom_site_fract_z
 _atom_site_occupancy
  Zr  Zr0  1  0.894325  0.583339  0.040885  1
  Zr  Zr1  1  0.105827  0.417096  0.040820  1
  Zr  Zr2  1  0.917590  0.394902  0.541998  1
  Zr  Zr3  1  0.083202  0.606261  0.536551  1
  Zr  Zr4  1  0.603881  0.917100  0.461330  1
  Zr  Zr5  1  0.395953  0.083265  0.461009  1
  Zr  Zr6  1  0.583213  0.104565  0.961167  1
  Zr  Zr7  1  0.417074  0.894985  0.963150  1
  Zr  Zr8  1  0.858483  0.023436  0.716359  1
  Zr  Zr9  1  0.140703  0.971423  0.714327  1
  Zr  Zr10  1  0.474317  0.359107  0.216234  1
  Zr  Zr11  1  0.525604  0.642005  0.215189  1
  Zr  Zr12  1  0.639638  0.475373  0.782754  1
  Zr  Zr13  1  0.359788  0.526375  0.782230  1
  Zr  Zr14  1  0.025097  0.139579  0.283020  1
  Zr  Zr15  1  0.976039  0.860710  0.284419  1
  Zr  Zr16  1  0.285228  0.181975  0.990294  1
  Zr  Zr17  1  0.715115  0.817238  0.990650  1
  Zr  Zr18  1  0.318645  0.785916  0.489174  1
  Zr  Zr19  1  0.682271  0.214816  0.491070  1
  Zr  Zr20  1  0.214707  0.316173  0.507209  1
  Zr  Zr21  1  0.785187  0.685270  0.510069  1
  Zr  Zr22  1  0.181454  0.715270  0.010519  1
  Zr  Zr23  1  0.816152  0.284985  0.006355  1
  Ga  Ga24  1  0.703846  0.461009  0.290453  1
  Ga  Ga25  1  0.296560  0.539791  0.288810  1
  Ga  Ga26  1  0.039425  0.202068  0.789477  1
  As  As27  1  0.960389  0.794108  0.789765  1
  Se  Se28  1  0.792817  0.039469  0.211849  1
  Se  Se29  1  0.207845  0.961616  0.211076  1
  Se  Se30  1  0.460217  0.293319  0.711353  1
  Se  Se31  1  0.539411  0.707456  0.710433  1
