# generated using pymatgen
data_AcCo(As4Os)3
_symmetry_space_group_name_H-M   'P 1'
_cell_length_a   7.44355538
_cell_length_b   7.44355584
_cell_length_c   7.48500500
_cell_angle_alpha   109.58406370
_cell_angle_beta   109.58406497
_cell_angle_gamma   109.35814355
_symmetry_Int_Tables_number   1
_chemical_formula_structural   AcCo(As4Os)3
_chemical_formula_sum   'Ac1 Co1 As12 Os3'
_cell_volume   318.80443569
_cell_formula_units_Z   1
loop_
 _symmetry_equiv_pos_site_id
 _symmetry_equiv_pos_as_xyz
  1  'x, y, z'
loop_
 _atom_site_type_symbol
 _atom_site_label
 _atom_site_symmetry_multiplicity
 _atom_site_fract_x
 _atom_site_fract_y
 _atom_site_fract_z
 _atom_site_occupancy
  Ac  Ac0  1  0.000000  0.000000  0.000000  1
  Co  Co1  1  0.000000  0.000000  0.500000  1
  As  As2  1  0.341923  0.194435  0.842477  1
  As  As3  1  0.658077  0.805565  0.157523  1
  As  As4  1  0.650029  0.500076  0.849168  1
  As  As5  1  0.349971  0.499924  0.150832  1
  As  As6  1  0.194435  0.852512  0.351958  1
  As  As7  1  0.805565  0.147488  0.648042  1
  As  As8  1  0.500076  0.850047  0.650908  1
  As  As9  1  0.499924  0.149953  0.349092  1
  As  As10  1  0.850047  0.349971  0.199139  1
  As  As11  1  0.149953  0.650029  0.800861  1
  As  As12  1  0.852512  0.658077  0.500555  1
  As  As13  1  0.147488  0.341923  0.499445  1
  Os  Os14  1  0.500000  0.000000  0.000000  1
  Os  Os15  1  0.000000  0.500000  0.000000  1
  Os  Os16  1  0.500000  0.500000  0.500000  1
