# generated using pymatgen
data_Zn22CoPt2
_symmetry_space_group_name_H-M   'P 1'
_cell_length_a   7.75512574
_cell_length_b   7.75512583
_cell_length_c   7.77968735
_cell_angle_alpha   71.92002315
_cell_angle_beta   71.92000680
_cell_angle_gamma   58.27881454
_symmetry_Int_Tables_number   1
_chemical_formula_structural   Zn22CoPt2
_chemical_formula_sum   'Zn22 Co1 Pt2'
_cell_volume   372.02137557
_cell_formula_units_Z   1
loop_
 _symmetry_equiv_pos_site_id
 _symmetry_equiv_pos_as_xyz
  1  'x, y, z'
loop_
 _atom_site_type_symbol
 _atom_site_label
 _atom_site_symmetry_multiplicity
 _atom_site_fract_x
 _atom_site_fract_y
 _atom_site_fract_z
 _atom_site_occupancy
  Zn  Zn0  1  0.334651  0.741340  0.318571  1
  Zn  Zn1  1  0.665349  0.258660  0.681429  1
  Zn  Zn2  1  0.258660  0.665349  0.681429  1
  Zn  Zn3  1  0.741340  0.334651  0.318571  1
  Zn  Zn4  1  0.683689  0.316311  0.000000  1
  Zn  Zn5  1  0.316311  0.683689  0.000000  1
  Zn  Zn6  1  0.835652  0.835652  0.774193  1
  Zn  Zn7  1  0.164348  0.164348  0.225807  1
  Zn  Zn8  1  0.976430  0.976430  0.176917  1
  Zn  Zn9  1  0.023570  0.023570  0.823083  1
  Zn  Zn10  1  0.352514  0.352514  0.278014  1
  Zn  Zn11  1  0.647486  0.647486  0.721986  1
  Zn  Zn12  1  0.683495  0.683495  0.383026  1
  Zn  Zn13  1  0.316505  0.316505  0.616974  1
  Zn  Zn14  1  0.663546  0.021682  0.460291  1
  Zn  Zn15  1  0.336454  0.978318  0.539709  1
  Zn  Zn16  1  0.978318  0.336454  0.539709  1
  Zn  Zn17  1  0.021682  0.663546  0.460291  1
  Zn  Zn18  1  0.622588  0.997903  0.107606  1
  Zn  Zn19  1  0.377412  0.002097  0.892394  1
  Zn  Zn20  1  0.002097  0.377412  0.892394  1
  Zn  Zn21  1  0.997903  0.622588  0.107606  1
  Co  Co22  1  0.000000  0.000000  0.500000  1
  Pt  Pt23  1  0.658212  0.658212  0.055903  1
  Pt  Pt24  1  0.341788  0.341788  0.944097  1
