# generated using pymatgen
data_Tm14Sc6Bi11Au
_symmetry_space_group_name_H-M   'P 1'
_cell_length_a   7.98402433
_cell_length_b   9.26622795
_cell_length_c   11.78065420
_cell_angle_alpha   89.91543304
_cell_angle_beta   89.68467276
_cell_angle_gamma   89.96527517
_symmetry_Int_Tables_number   1
_chemical_formula_structural   Tm14Sc6Bi11Au
_chemical_formula_sum   'Tm14 Sc6 Bi11 Au1'
_cell_volume   871.53957329
_cell_formula_units_Z   1
loop_
 _symmetry_equiv_pos_site_id
 _symmetry_equiv_pos_as_xyz
  1  'x, y, z'
loop_
 _atom_site_type_symbol
 _atom_site_label
 _atom_site_symmetry_multiplicity
 _atom_site_fract_x
 _atom_site_fract_y
 _atom_site_fract_z
 _atom_site_occupancy
  Tm  Tm0  1  0.353933  0.248438  0.294265  1
  Tm  Tm1  1  0.652425  0.752267  0.717305  1
  Tm  Tm2  1  0.149255  0.750158  0.782987  1
  Tm  Tm3  1  0.851158  0.249614  0.214421  1
  Tm  Tm4  1  0.194277  0.249324  0.777288  1
  Tm  Tm5  1  0.811351  0.750791  0.217059  1
  Tm  Tm6  1  0.314601  0.751193  0.279605  1
  Tm  Tm7  1  0.670058  0.248963  0.711331  1
  Tm  Tm8  1  0.306719  0.952800  0.559000  1
  Tm  Tm9  1  0.806179  0.565053  0.942194  1
  Tm  Tm10  1  0.688852  0.071274  0.445766  1
  Tm  Tm11  1  0.193005  0.434332  0.060216  1
  Tm  Tm12  1  0.688703  0.428406  0.445872  1
  Tm  Tm13  1  0.306685  0.547468  0.558671  1
  Sc  Sc14  1  0.037395  0.249825  0.508287  1
  Sc  Sc15  1  0.981180  0.750083  0.490176  1
  Sc  Sc16  1  0.478402  0.752572  0.010905  1
  Sc  Sc17  1  0.523053  0.247415  0.989843  1
  Sc  Sc18  1  0.194693  0.068028  0.060887  1
  Sc  Sc19  1  0.803887  0.931839  0.942017  1
  Bi  Bi20  1  0.598362  0.749785  0.457236  1
  Bi  Bi21  1  0.099064  0.758208  0.041575  1
  Bi  Bi22  1  0.903285  0.241592  0.954162  1
  Bi  Bi23  1  0.060297  0.002163  0.326345  1
  Bi  Bi24  1  0.935391  0.998265  0.672944  1
  Bi  Bi25  1  0.437897  0.995864  0.832631  1
  Bi  Bi26  1  0.935437  0.501683  0.672088  1
  Bi  Bi27  1  0.561574  0.004542  0.168413  1
  Bi  Bi28  1  0.060121  0.498104  0.327450  1
  Bi  Bi29  1  0.563390  0.495334  0.169810  1
  Bi  Bi30  1  0.436796  0.504350  0.831229  1
  Au  Au31  1  0.402572  0.250266  0.538023  1
