# generated using pymatgen
data_Tm6MnCr(Co4P3)4
_symmetry_space_group_name_H-M   'P 1'
_cell_length_a   3.66522400
_cell_length_b   10.50295900
_cell_length_c   12.15759700
_cell_angle_alpha   90.00000000
_cell_angle_beta   90.00000000
_cell_angle_gamma   90.00000000
_symmetry_Int_Tables_number   1
_chemical_formula_structural   Tm6MnCr(Co4P3)4
_chemical_formula_sum   'Tm6 Mn1 Cr1 Co16 P12'
_cell_volume   468.01517520
_cell_formula_units_Z   1
loop_
 _symmetry_equiv_pos_site_id
 _symmetry_equiv_pos_as_xyz
  1  'x, y, z'
loop_
 _atom_site_type_symbol
 _atom_site_label
 _atom_site_symmetry_multiplicity
 _atom_site_fract_x
 _atom_site_fract_y
 _atom_site_fract_z
 _atom_site_occupancy
  Tm  Tm0  1  0.000000  0.500000  0.523346  1
  Tm  Tm1  1  0.500000  0.000000  0.476970  1
  Tm  Tm2  1  0.500000  0.818138  0.205484  1
  Tm  Tm3  1  0.500000  0.181862  0.205484  1
  Tm  Tm4  1  0.000000  0.681292  0.795156  1
  Tm  Tm5  1  0.000000  0.318708  0.795156  1
  Mn  Mn6  1  0.000000  0.000000  0.840426  1
  Cr  Cr7  1  0.500000  0.500000  0.156468  1
  Co  Co8  1  0.500000  0.500000  0.702645  1
  Co  Co9  1  0.000000  0.000000  0.297173  1
  Co  Co10  1  0.000000  0.500000  0.987231  1
  Co  Co11  1  0.500000  0.000000  0.014239  1
  Co  Co12  1  0.500000  0.332350  0.992739  1
  Co  Co13  1  0.500000  0.667650  0.992739  1
  Co  Co14  1  0.000000  0.166921  0.006480  1
  Co  Co15  1  0.000000  0.833079  0.006480  1
  Co  Co16  1  0.500000  0.296593  0.431104  1
  Co  Co17  1  0.500000  0.703407  0.431104  1
  Co  Co18  1  0.000000  0.203181  0.569089  1
  Co  Co19  1  0.000000  0.796819  0.569089  1
  Co  Co20  1  0.500000  0.878414  0.708463  1
  Co  Co21  1  0.500000  0.121586  0.708463  1
  Co  Co22  1  0.000000  0.621301  0.291703  1
  Co  Co23  1  0.000000  0.378699  0.291703  1
  P  P24  1  0.500000  0.500000  0.881614  1
  P  P25  1  0.000000  0.000000  0.118391  1
  P  P26  1  0.500000  0.500000  0.347777  1
  P  P27  1  0.000000  0.000000  0.653489  1
  P  P28  1  0.500000  0.312497  0.616756  1
  P  P29  1  0.500000  0.687503  0.616756  1
  P  P30  1  0.000000  0.187442  0.383621  1
  P  P31  1  0.000000  0.812558  0.383621  1
  P  P32  1  0.500000  0.847651  0.891238  1
  P  P33  1  0.500000  0.152349  0.891238  1
  P  P34  1  0.000000  0.654084  0.108284  1
  P  P35  1  0.000000  0.345916  0.108284  1
