# generated using pymatgen
data_Gd10Si4HgPt
_symmetry_space_group_name_H-M   'P 1'
_cell_length_a   7.54451616
_cell_length_b   7.54451673
_cell_length_c   9.10105100
_cell_angle_alpha   114.48694693
_cell_angle_beta   114.48694890
_cell_angle_gamma   90.00000968
_symmetry_Int_Tables_number   1
_chemical_formula_structural   Gd10Si4HgPt
_chemical_formula_sum   'Gd10 Si4 Hg1 Pt1'
_cell_volume   419.70057476
_cell_formula_units_Z   1
loop_
 _symmetry_equiv_pos_site_id
 _symmetry_equiv_pos_as_xyz
  1  'x, y, z'
loop_
 _atom_site_type_symbol
 _atom_site_label
 _atom_site_symmetry_multiplicity
 _atom_site_fract_x
 _atom_site_fract_y
 _atom_site_fract_z
 _atom_site_occupancy
  Gd  Gd0  1  0.475461  0.475461  0.950921  1
  Gd  Gd1  1  0.024539  0.024539  0.049079  1
  Gd  Gd2  1  0.948409  0.797012  0.280321  1
  Gd  Gd3  1  0.331914  0.483310  0.280321  1
  Gd  Gd4  1  0.797012  0.331914  0.280321  1
  Gd  Gd5  1  0.483310  0.948409  0.280321  1
  Gd  Gd6  1  0.016690  0.168086  0.719679  1
  Gd  Gd7  1  0.702988  0.551591  0.719679  1
  Gd  Gd8  1  0.168086  0.702988  0.719679  1
  Gd  Gd9  1  0.551591  0.016690  0.719679  1
  Si  Si10  1  0.619315  0.880685  0.000000  1
  Si  Si11  1  0.380685  0.119315  0.000000  1
  Si  Si12  1  0.880685  0.380685  0.000000  1
  Si  Si13  1  0.119315  0.619315  0.000000  1
  Hg  Hg14  1  0.250000  0.250000  0.500000  1
  Pt  Pt15  1  0.750000  0.750000  0.500000  1
