# generated using pymatgen
data_Zr3FeGeAsOs3
_symmetry_space_group_name_H-M   'P 1'
_cell_length_a   6.67955500
_cell_length_b   6.67955584
_cell_length_c   3.85777000
_cell_angle_alpha   90.00000000
_cell_angle_beta   90.00000000
_cell_angle_gamma   120.00000078
_symmetry_Int_Tables_number   1
_chemical_formula_structural   Zr3FeGeAsOs3
_chemical_formula_sum   'Zr3 Fe1 Ge1 As1 Os3'
_cell_volume   149.06032883
_cell_formula_units_Z   1
loop_
 _symmetry_equiv_pos_site_id
 _symmetry_equiv_pos_as_xyz
  1  'x, y, z'
loop_
 _atom_site_type_symbol
 _atom_site_label
 _atom_site_symmetry_multiplicity
 _atom_site_fract_x
 _atom_site_fract_y
 _atom_site_fract_z
 _atom_site_occupancy
  Zr  Zr0  1  0.000607  0.394013  0.500000  1
  Zr  Zr1  1  0.605987  0.606594  0.500000  1
  Zr  Zr2  1  0.393406  0.999393  0.500000  1
  Fe  Fe3  1  0.000000  0.000000  0.500000  1
  Ge  Ge4  1  0.333333  0.666667  0.000000  1
  As  As5  1  0.666667  0.333333  0.000000  1
  Os  Os6  1  0.999220  0.764580  0.000000  1
  Os  Os7  1  0.235420  0.234640  0.000000  1
  Os  Os8  1  0.765360  0.000780  0.000000  1
