# generated using pymatgen
data_Tb4ErIr3
_symmetry_space_group_name_H-M   'P 1'
_cell_length_a   10.91149100
_cell_length_b   10.91149100
_cell_length_c   6.37646100
_cell_angle_alpha   90.00000000
_cell_angle_beta   90.00000000
_cell_angle_gamma   90.00000000
_symmetry_Int_Tables_number   1
_chemical_formula_structural   Tb4ErIr3
_chemical_formula_sum   'Tb16 Er4 Ir12'
_cell_volume   759.18550109
_cell_formula_units_Z   4
loop_
 _symmetry_equiv_pos_site_id
 _symmetry_equiv_pos_as_xyz
  1  'x, y, z'
loop_
 _atom_site_type_symbol
 _atom_site_label
 _atom_site_symmetry_multiplicity
 _atom_site_fract_x
 _atom_site_fract_y
 _atom_site_fract_z
 _atom_site_occupancy
  Tb  Tb0  1  0.290547  0.087761  0.377868  1
  Tb  Tb1  1  0.290547  0.912239  0.877868  1
  Tb  Tb2  1  0.709453  0.087761  0.877868  1
  Tb  Tb3  1  0.709453  0.912239  0.377868  1
  Tb  Tb4  1  0.587761  0.790547  0.877868  1
  Tb  Tb5  1  0.587761  0.209453  0.377868  1
  Tb  Tb6  1  0.412239  0.790547  0.377868  1
  Tb  Tb7  1  0.412239  0.209453  0.877868  1
  Tb  Tb8  1  0.209453  0.412239  0.622132  1
  Tb  Tb9  1  0.209453  0.587761  0.122132  1
  Tb  Tb10  1  0.790547  0.412239  0.122132  1
  Tb  Tb11  1  0.790547  0.587761  0.622132  1
  Tb  Tb12  1  0.912239  0.709453  0.122132  1
  Tb  Tb13  1  0.912239  0.290547  0.622132  1
  Tb  Tb14  1  0.087761  0.709453  0.622132  1
  Tb  Tb15  1  0.087761  0.290547  0.122132  1
  Er  Er16  1  0.000000  0.000000  0.500000  1
  Er  Er17  1  0.000000  0.000000  0.000000  1
  Er  Er18  1  0.500000  0.500000  0.000000  1
  Er  Er19  1  0.500000  0.500000  0.500000  1
  Ir  Ir20  1  0.847264  0.152736  0.250000  1
  Ir  Ir21  1  0.847264  0.847264  0.750000  1
  Ir  Ir22  1  0.152736  0.152736  0.750000  1
  Ir  Ir23  1  0.152736  0.847264  0.250000  1
  Ir  Ir24  1  0.652736  0.347264  0.750000  1
  Ir  Ir25  1  0.652736  0.652736  0.250000  1
  Ir  Ir26  1  0.347264  0.347264  0.250000  1
  Ir  Ir27  1  0.347264  0.652736  0.750000  1
  Ir  Ir28  1  0.500000  0.000000  0.120268  1
  Ir  Ir29  1  0.500000  0.000000  0.620268  1
  Ir  Ir30  1  0.000000  0.500000  0.879732  1
  Ir  Ir31  1  0.000000  0.500000  0.379732  1
