# generated using pymatgen
data_Dy3Ho2Zr5(Si5Ir2)4
_symmetry_space_group_name_H-M   'P 1'
_cell_length_a   12.52253213
_cell_length_b   12.52256313
_cell_length_c   4.17885200
_cell_angle_alpha   90.00000000
_cell_angle_beta   90.00000000
_cell_angle_gamma   90.01646232
_symmetry_Int_Tables_number   1
_chemical_formula_structural   Dy3Ho2Zr5(Si5Ir2)4
_chemical_formula_sum   'Dy3 Ho2 Zr5 Si20 Ir8'
_cell_volume   655.30330260
_cell_formula_units_Z   1
loop_
 _symmetry_equiv_pos_site_id
 _symmetry_equiv_pos_as_xyz
  1  'x, y, z'
loop_
 _atom_site_type_symbol
 _atom_site_label
 _atom_site_symmetry_multiplicity
 _atom_site_fract_x
 _atom_site_fract_y
 _atom_site_fract_z
 _atom_site_occupancy
  Dy  Dy0  1  0.884273  0.384595  0.500000  1
  Dy  Dy1  1  0.115733  0.615402  0.500000  1
  Dy  Dy2  1  0.384611  0.115721  0.500000  1
  Ho  Ho3  1  0.999976  0.999997  0.000000  1
  Ho  Ho4  1  0.615428  0.884262  0.500000  1
  Zr  Zr5  1  0.499988  0.500017  0.000000  1
  Zr  Zr6  1  0.674043  0.175394  0.500000  1
  Zr  Zr7  1  0.326014  0.824559  0.500000  1
  Zr  Zr8  1  0.175447  0.325958  0.500000  1
  Zr  Zr9  1  0.824513  0.674086  0.500000  1
  Si  Si10  1  0.566117  0.067560  0.000000  1
  Si  Si11  1  0.433967  0.932366  0.000000  1
  Si  Si12  1  0.067640  0.433878  0.000000  1
  Si  Si13  1  0.932355  0.566129  0.000000  1
  Si  Si14  1  0.665343  0.700406  0.000000  1
  Si  Si15  1  0.334665  0.299666  0.000000  1
  Si  Si16  1  0.164461  0.801049  0.000000  1
  Si  Si17  1  0.835522  0.198931  0.000000  1
  Si  Si18  1  0.299697  0.665353  0.000000  1
  Si  Si19  1  0.700325  0.334659  0.000000  1
  Si  Si20  1  0.198962  0.164453  0.000000  1
  Si  Si21  1  0.800971  0.835541  0.000000  1
  Si  Si22  1  0.652772  0.507254  0.500000  1
  Si  Si23  1  0.347235  0.492764  0.500000  1
  Si  Si24  1  0.157056  0.993154  0.500000  1
  Si  Si25  1  0.842887  0.006844  0.500000  1
  Si  Si26  1  0.492759  0.652814  0.500000  1
  Si  Si27  1  0.507241  0.347225  0.500000  1
  Si  Si28  1  0.006851  0.157048  0.500000  1
  Si  Si29  1  0.993139  0.842943  0.500000  1
  Ir  Ir30  1  0.742701  0.520699  0.000000  1
  Ir  Ir31  1  0.257294  0.479321  0.000000  1
  Ir  Ir32  1  0.245966  0.979245  0.000000  1
  Ir  Ir33  1  0.753875  0.020549  0.000000  1
  Ir  Ir34  1  0.479503  0.742912  0.000000  1
  Ir  Ir35  1  0.520685  0.257243  0.000000  1
  Ir  Ir36  1  0.020746  0.245908  0.000000  1
  Ir  Ir37  1  0.979239  0.754095  0.000000  1
