# generated using pymatgen
data_Y3In3Sn2Ru
_symmetry_space_group_name_H-M   'P 1'
_cell_length_a   7.57892000
_cell_length_b   7.57892115
_cell_length_c   4.46469300
_cell_angle_alpha   90.00000000
_cell_angle_beta   90.00000000
_cell_angle_gamma   120.00000372
_symmetry_Int_Tables_number   1
_chemical_formula_structural   Y3In3Sn2Ru
_chemical_formula_sum   'Y3 In3 Sn2 Ru1'
_cell_volume   222.09405229
_cell_formula_units_Z   1
loop_
 _symmetry_equiv_pos_site_id
 _symmetry_equiv_pos_as_xyz
  1  'x, y, z'
loop_
 _atom_site_type_symbol
 _atom_site_label
 _atom_site_symmetry_multiplicity
 _atom_site_fract_x
 _atom_site_fract_y
 _atom_site_fract_z
 _atom_site_occupancy
  Y  Y0  1  0.390087  0.000000  0.000000  1
  Y  Y1  1  0.000000  0.390087  0.000000  1
  Y  Y2  1  0.609913  0.609912  0.000000  1
  In  In3  1  0.767410  0.000000  0.500000  1
  In  In4  1  0.232591  0.232590  0.500000  1
  In  In5  1  0.000000  0.767410  0.500000  1
  Sn  Sn6  1  0.666667  0.333334  0.500000  1
  Sn  Sn7  1  0.333333  0.666666  0.500000  1
  Ru  Ru8  1  0.000000  0.000000  0.000000  1
