# generated using pymatgen
data_LaHo(ReO4)6
_symmetry_space_group_name_H-M   'P 1'
_cell_length_a   10.37163000
_cell_length_b   10.37163032
_cell_length_c   6.31072100
_cell_angle_alpha   90.00000000
_cell_angle_beta   90.00000000
_cell_angle_gamma   119.99999262
_symmetry_Int_Tables_number   1
_chemical_formula_structural   LaHo(ReO4)6
_chemical_formula_sum   'La1 Ho1 Re6 O24'
_cell_volume   587.90030831
_cell_formula_units_Z   1
loop_
 _symmetry_equiv_pos_site_id
 _symmetry_equiv_pos_as_xyz
  1  'x, y, z'
loop_
 _atom_site_type_symbol
 _atom_site_label
 _atom_site_symmetry_multiplicity
 _atom_site_fract_x
 _atom_site_fract_y
 _atom_site_fract_z
 _atom_site_occupancy
  La  La0  1  0.333333  0.666667  0.250000  1
  Ho  Ho1  1  0.666667  0.333333  0.750000  1
  Re  Re2  1  0.081059  0.388701  0.750000  1
  Re  Re3  1  0.401781  0.302934  0.250000  1
  Re  Re4  1  0.611299  0.692356  0.750000  1
  Re  Re5  1  0.901153  0.598219  0.250000  1
  Re  Re6  1  0.307644  0.918941  0.750000  1
  Re  Re7  1  0.697066  0.098847  0.250000  1
  O  O8  1  0.496530  0.647831  0.524447  1
  O  O9  1  0.352169  0.848699  0.524447  1
  O  O10  1  0.834924  0.721417  0.250000  1
  O  O11  1  0.119426  0.858521  0.750000  1
  O  O12  1  0.278583  0.113507  0.250000  1
  O  O13  1  0.141479  0.260905  0.750000  1
  O  O14  1  0.515383  0.350847  0.021922  1
  O  O15  1  0.886493  0.165076  0.250000  1
  O  O16  1  0.096623  0.696887  0.250000  1
  O  O17  1  0.151301  0.503470  0.975553  1
  O  O18  1  0.151301  0.503470  0.524447  1
  O  O19  1  0.885549  0.298855  0.750000  1
  O  O20  1  0.303113  0.399736  0.250000  1
  O  O21  1  0.701145  0.586694  0.750000  1
  O  O22  1  0.835464  0.484617  0.478078  1
  O  O23  1  0.413306  0.114451  0.750000  1
  O  O24  1  0.649153  0.164536  0.021922  1
  O  O25  1  0.496530  0.647831  0.975553  1
  O  O26  1  0.352169  0.848699  0.975553  1
  O  O27  1  0.649153  0.164536  0.478078  1
  O  O28  1  0.515383  0.350847  0.478078  1
  O  O29  1  0.835464  0.484617  0.021922  1
  O  O30  1  0.739095  0.880574  0.750000  1
  O  O31  1  0.600264  0.903377  0.250000  1
