# generated using pymatgen
data_LaYTmIrO7
_symmetry_space_group_name_H-M   'P 1'
_cell_length_a   6.46830965
_cell_length_b   6.46830879
_cell_length_c   7.51453500
_cell_angle_alpha   90.00000000
_cell_angle_beta   90.00000000
_cell_angle_gamma   109.45591551
_symmetry_Int_Tables_number   1
_chemical_formula_structural   LaYTmIrO7
_chemical_formula_sum   'La2 Y2 Tm2 Ir2 O14'
_cell_volume   296.44791166
_cell_formula_units_Z   2
loop_
 _symmetry_equiv_pos_site_id
 _symmetry_equiv_pos_as_xyz
  1  'x, y, z'
loop_
 _atom_site_type_symbol
 _atom_site_label
 _atom_site_symmetry_multiplicity
 _atom_site_fract_x
 _atom_site_fract_y
 _atom_site_fract_z
 _atom_site_occupancy
  La  La0  1  0.999282  0.000718  0.500000  1
  La  La1  1  0.999282  0.000718  0.000000  1
  Y  Y2  1  0.484430  0.938826  0.750000  1
  Y  Y3  1  0.061174  0.515570  0.250000  1
  Tm  Tm4  1  0.512757  0.060165  0.250000  1
  Tm  Tm5  1  0.939835  0.487243  0.750000  1
  Ir  Ir6  1  0.499810  0.500190  0.500000  1
  Ir  Ir7  1  0.499810  0.500190  0.000000  1
  O  O8  1  0.441887  0.179952  0.530578  1
  O  O9  1  0.820048  0.558113  0.469422  1
  O  O10  1  0.441887  0.179952  0.969422  1
  O  O11  1  0.820048  0.558113  0.030578  1
  O  O12  1  0.556439  0.818662  0.463132  1
  O  O13  1  0.181338  0.443561  0.536868  1
  O  O14  1  0.556439  0.818662  0.036868  1
  O  O15  1  0.181338  0.443561  0.963132  1
  O  O16  1  0.162761  0.879821  0.250000  1
  O  O17  1  0.120179  0.837239  0.750000  1
  O  O18  1  0.839838  0.127283  0.750000  1
  O  O19  1  0.872717  0.160162  0.250000  1
  O  O20  1  0.412078  0.403378  0.250000  1
  O  O21  1  0.596622  0.587922  0.750000  1
