# generated using pymatgen
data_Rb3Ba3InSb4
_symmetry_space_group_name_H-M   'P 1'
_cell_length_a   11.50710500
_cell_length_b   11.50710503
_cell_length_c   8.43986000
_cell_angle_alpha   90.00000000
_cell_angle_beta   90.00000000
_cell_angle_gamma   120.00000279
_symmetry_Int_Tables_number   1
_chemical_formula_structural   Rb3Ba3InSb4
_chemical_formula_sum   'Rb6 Ba6 In2 Sb8'
_cell_volume   967.82762729
_cell_formula_units_Z   2
loop_
 _symmetry_equiv_pos_site_id
 _symmetry_equiv_pos_as_xyz
  1  'x, y, z'
loop_
 _atom_site_type_symbol
 _atom_site_label
 _atom_site_symmetry_multiplicity
 _atom_site_fract_x
 _atom_site_fract_y
 _atom_site_fract_z
 _atom_site_occupancy
  Rb  Rb0  1  0.860946  0.721894  0.962338  1
  Rb  Rb1  1  0.860946  0.139054  0.962338  1
  Rb  Rb2  1  0.139054  0.278106  0.462338  1
  Rb  Rb3  1  0.278106  0.139054  0.962338  1
  Rb  Rb4  1  0.139054  0.860946  0.462338  1
  Rb  Rb5  1  0.721894  0.860946  0.462338  1
  Ba  Ba6  1  0.476827  0.953652  0.778956  1
  Ba  Ba7  1  0.476827  0.523173  0.778956  1
  Ba  Ba8  1  0.523173  0.046348  0.278956  1
  Ba  Ba9  1  0.046348  0.523173  0.778956  1
  Ba  Ba10  1  0.523173  0.476827  0.278956  1
  Ba  Ba11  1  0.953652  0.476827  0.278956  1
  In  In12  1  0.666667  0.333333  0.656915  1
  In  In13  1  0.333333  0.666667  0.156915  1
  Sb  Sb14  1  0.666667  0.333333  0.009911  1
  Sb  Sb15  1  0.333333  0.666667  0.509911  1
  Sb  Sb16  1  0.803753  0.607506  0.545232  1
  Sb  Sb17  1  0.803753  0.196247  0.545232  1
  Sb  Sb18  1  0.196247  0.392494  0.045232  1
  Sb  Sb19  1  0.392494  0.196247  0.545232  1
  Sb  Sb20  1  0.196247  0.803753  0.045232  1
  Sb  Sb21  1  0.607506  0.803753  0.045232  1
