# generated using pymatgen
data_Er4Al12Si6IrOs5
_symmetry_space_group_name_H-M   'P 1'
_cell_length_a   7.47414505
_cell_length_b   7.43680466
_cell_length_c   9.33962083
_cell_angle_alpha   90.00319682
_cell_angle_beta   90.00189551
_cell_angle_gamma   119.81614341
_symmetry_Int_Tables_number   1
_chemical_formula_structural   Er4Al12Si6IrOs5
_chemical_formula_sum   'Er4 Al12 Si6 Ir1 Os5'
_cell_volume   450.41142067
_cell_formula_units_Z   1
loop_
 _symmetry_equiv_pos_site_id
 _symmetry_equiv_pos_as_xyz
  1  'x, y, z'
loop_
 _atom_site_type_symbol
 _atom_site_label
 _atom_site_symmetry_multiplicity
 _atom_site_fract_x
 _atom_site_fract_y
 _atom_site_fract_z
 _atom_site_occupancy
  Er  Er0  1  0.000027  0.674948  0.250132  1
  Er  Er1  1  0.007185  0.337530  0.754436  1
  Er  Er2  1  0.675183  0.000665  0.248754  1
  Er  Er3  1  0.313219  0.990727  0.746613  1
  Al  Al4  1  0.004028  0.331591  0.426758  1
  Al  Al5  1  0.668386  0.998172  0.577043  1
  Al  Al6  1  0.661254  0.995538  0.922875  1
  Al  Al7  1  0.340970  0.005906  0.072302  1
  Al  Al8  1  0.333947  0.337122  0.560684  1
  Al  Al9  1  0.660350  0.666634  0.439919  1
  Al  Al10  1  0.661220  0.664873  0.057848  1
  Al  Al11  1  0.339366  0.333976  0.940962  1
  Al  Al12  1  0.333244  0.547924  0.249917  1
  Al  Al13  1  0.668049  0.453864  0.752118  1
  Al  Al14  1  0.546333  0.337493  0.249013  1
  Al  Al15  1  0.453950  0.663330  0.748866  1
  Si  Si16  1  0.128850  0.125768  0.250126  1
  Si  Si17  1  0.870631  0.875886  0.749843  1
  Si  Si18  1  0.003480  0.331595  0.074375  1
  Si  Si19  1  0.996206  0.666524  0.933488  1
  Si  Si20  1  0.992632  0.658121  0.568550  1
  Si  Si21  1  0.340501  0.005831  0.425264  1
  Ir  Ir22  1  0.671523  0.328074  0.499737  1
  Os  Os23  1  0.688356  0.335738  0.002650  1
  Os  Os24  1  0.312409  0.663591  0.997864  1
  Os  Os25  1  0.319798  0.679353  0.499926  1
  Os  Os26  1  0.000728  0.998787  0.000277  1
  Os  Os27  1  0.008175  0.990439  0.499658  1
