# generated using pymatgen
data_Nd6RhAu7
_symmetry_space_group_name_H-M   'P 1'
_cell_length_a   8.36084071
_cell_length_b   8.36084155
_cell_length_c   8.36084134
_cell_angle_alpha   114.49370889
_cell_angle_beta   114.49370447
_cell_angle_gamma   114.49371297
_symmetry_Int_Tables_number   1
_chemical_formula_structural   Nd6RhAu7
_chemical_formula_sum   'Nd6 Rh1 Au7'
_cell_volume   341.69799936
_cell_formula_units_Z   1
loop_
 _symmetry_equiv_pos_site_id
 _symmetry_equiv_pos_as_xyz
  1  'x, y, z'
loop_
 _atom_site_type_symbol
 _atom_site_label
 _atom_site_symmetry_multiplicity
 _atom_site_fract_x
 _atom_site_fract_y
 _atom_site_fract_z
 _atom_site_occupancy
  Nd  Nd0  1  0.736231  0.615941  0.985673  1
  Nd  Nd1  1  0.985673  0.736231  0.615941  1
  Nd  Nd2  1  0.615941  0.985673  0.736231  1
  Nd  Nd3  1  0.263769  0.384059  0.014327  1
  Nd  Nd4  1  0.014327  0.263769  0.384059  1
  Nd  Nd5  1  0.384059  0.014327  0.263769  1
  Rh  Rh6  1  0.000000  0.000000  0.000000  1
  Au  Au7  1  0.568337  0.234174  0.070706  1
  Au  Au8  1  0.070706  0.568337  0.234174  1
  Au  Au9  1  0.234174  0.070706  0.568337  1
  Au  Au10  1  0.431663  0.765826  0.929294  1
  Au  Au11  1  0.929294  0.431663  0.765826  1
  Au  Au12  1  0.765826  0.929294  0.431663  1
  Au  Au13  1  0.500000  0.500000  0.500000  1
