# generated using pymatgen
data_YHo7Sc12Si15Sn
_symmetry_space_group_name_H-M   'P 1'
_cell_length_a   7.12069319
_cell_length_b   7.40811597
_cell_length_c   14.05181909
_cell_angle_alpha   90.01666850
_cell_angle_beta   89.57073622
_cell_angle_gamma   90.03192006
_symmetry_Int_Tables_number   1
_chemical_formula_structural   YHo7Sc12Si15Sn
_chemical_formula_sum   'Y1 Ho7 Sc12 Si15 Sn1'
_cell_volume   741.22544877
_cell_formula_units_Z   1
loop_
 _symmetry_equiv_pos_site_id
 _symmetry_equiv_pos_as_xyz
  1  'x, y, z'
loop_
 _atom_site_type_symbol
 _atom_site_label
 _atom_site_symmetry_multiplicity
 _atom_site_fract_x
 _atom_site_fract_y
 _atom_site_fract_z
 _atom_site_occupancy
  Y  Y0  1  0.011482  0.175788  0.096317  1
  Ho  Ho1  1  0.988238  0.824471  0.904326  1
  Ho  Ho2  1  0.489009  0.676068  0.904324  1
  Ho  Ho3  1  0.989146  0.830340  0.598411  1
  Ho  Ho4  1  0.510918  0.323978  0.096814  1
  Ho  Ho5  1  0.005775  0.169658  0.399029  1
  Ho  Ho6  1  0.513110  0.320335  0.399515  1
  Ho  Ho7  1  0.501200  0.684459  0.600001  1
  Sc  Sc8  1  0.162673  0.502467  0.755104  1
  Sc  Sc9  1  0.836824  0.497629  0.249204  1
  Sc  Sc10  1  0.337298  0.002713  0.249385  1
  Sc  Sc11  1  0.664333  0.997207  0.751784  1
  Sc  Sc12  1  0.343270  0.162543  0.630826  1
  Sc  Sc13  1  0.663856  0.825016  0.372649  1
  Sc  Sc14  1  0.163363  0.683488  0.369249  1
  Sc  Sc15  1  0.667512  0.822776  0.124101  1
  Sc  Sc16  1  0.823299  0.323709  0.626618  1
  Sc  Sc17  1  0.330751  0.175938  0.875588  1
  Sc  Sc18  1  0.831222  0.323418  0.875566  1
  Sc  Sc19  1  0.168638  0.676712  0.124960  1
  Si  Si20  1  0.035053  0.118352  0.751245  1
  Si  Si21  1  0.963039  0.885053  0.246943  1
  Si  Si22  1  0.465296  0.615171  0.248527  1
  Si  Si23  1  0.533147  0.385714  0.752257  1
  Si  Si24  1  0.286667  0.869744  0.752497  1
  Si  Si25  1  0.711927  0.126950  0.247579  1
  Si  Si26  1  0.212188  0.372667  0.249280  1
  Si  Si27  1  0.789605  0.628400  0.751647  1
  Si  Si28  1  0.829990  0.538951  0.458643  1
  Si  Si29  1  0.337977  0.964051  0.460313  1
  Si  Si30  1  0.841671  0.534980  0.039405  1
  Si  Si31  1  0.662551  0.037146  0.537856  1
  Si  Si32  1  0.157397  0.465178  0.961450  1
  Si  Si33  1  0.657145  0.035174  0.960775  1
  Si  Si34  1  0.341944  0.965048  0.039688  1
  Sn  Sn35  1  0.172485  0.458712  0.538122  1
