# generated using pymatgen
data_Lu2AlCoOs
_symmetry_space_group_name_H-M   'P 1'
_cell_length_a   5.42748659
_cell_length_b   5.42748854
_cell_length_c   5.42748787
_cell_angle_alpha   136.50936469
_cell_angle_beta   118.54142007
_cell_angle_gamma   78.27111826
_symmetry_Int_Tables_number   1
_chemical_formula_structural   Lu2AlCoOs
_chemical_formula_sum   'Lu2 Al1 Co1 Os1'
_cell_volume   93.90691060
_cell_formula_units_Z   1
loop_
 _symmetry_equiv_pos_site_id
 _symmetry_equiv_pos_as_xyz
  1  'x, y, z'
loop_
 _atom_site_type_symbol
 _atom_site_label
 _atom_site_symmetry_multiplicity
 _atom_site_fract_x
 _atom_site_fract_y
 _atom_site_fract_z
 _atom_site_occupancy
  Lu  Lu0  1  0.300075  0.793138  0.506937  1
  Lu  Lu1  1  0.713799  0.206862  0.506937  1
  Al  Al2  1  0.004323  0.000000  0.004323  1
  Co  Co3  1  0.273990  0.500000  0.773990  1
  Os  Os4  1  0.707812  0.500000  0.207812  1
