# generated using pymatgen
data_Ho3MgSc2Bi2Rh
_symmetry_space_group_name_H-M   'P 1'
_cell_length_a   7.95610500
_cell_length_b   7.91106016
_cell_length_c   4.20484700
_cell_angle_alpha   90.00000000
_cell_angle_beta   90.00000000
_cell_angle_gamma   120.18853654
_symmetry_Int_Tables_number   1
_chemical_formula_structural   Ho3MgSc2Bi2Rh
_chemical_formula_sum   'Ho3 Mg1 Sc2 Bi2 Rh1'
_cell_volume   228.76406383
_cell_formula_units_Z   1
loop_
 _symmetry_equiv_pos_site_id
 _symmetry_equiv_pos_as_xyz
  1  'x, y, z'
loop_
 _atom_site_type_symbol
 _atom_site_label
 _atom_site_symmetry_multiplicity
 _atom_site_fract_x
 _atom_site_fract_y
 _atom_site_fract_z
 _atom_site_occupancy
  Ho  Ho0  1  0.612161  0.000000  0.500000  1
  Ho  Ho1  1  0.005516  0.618597  0.500000  1
  Ho  Ho2  1  0.386919  0.381403  0.500000  1
  Mg  Mg3  1  0.230138  0.000000  0.000000  1
  Sc  Sc4  1  0.999050  0.225233  0.000000  1
  Sc  Sc5  1  0.773817  0.774767  0.000000  1
  Bi  Bi6  1  0.335227  0.663332  0.000000  1
  Bi  Bi7  1  0.671896  0.336668  0.000000  1
  Rh  Rh8  1  0.985275  0.000000  0.500000  1
