# generated using pymatgen
data_TmTiReB6
_symmetry_space_group_name_H-M   'P 1'
_cell_length_a   3.51759300
_cell_length_b   8.84519200
_cell_length_c   11.20747000
_cell_angle_alpha   90.00000000
_cell_angle_beta   90.00000000
_cell_angle_gamma   90.00000000
_symmetry_Int_Tables_number   1
_chemical_formula_structural   TmTiReB6
_chemical_formula_sum   'Tm4 Ti4 Re4 B24'
_cell_volume   348.70681716
_cell_formula_units_Z   4
loop_
 _symmetry_equiv_pos_site_id
 _symmetry_equiv_pos_as_xyz
  1  'x, y, z'
loop_
 _atom_site_type_symbol
 _atom_site_label
 _atom_site_symmetry_multiplicity
 _atom_site_fract_x
 _atom_site_fract_y
 _atom_site_fract_z
 _atom_site_occupancy
  Tm  Tm0  1  0.000000  0.319673  0.413519  1
  Tm  Tm1  1  0.000000  0.680327  0.586481  1
  Tm  Tm2  1  0.000000  0.819673  0.086481  1
  Tm  Tm3  1  0.000000  0.180327  0.913519  1
  Ti  Ti4  1  0.000000  0.945285  0.374307  1
  Ti  Ti5  1  0.000000  0.054715  0.625693  1
  Ti  Ti6  1  0.000000  0.445285  0.125693  1
  Ti  Ti7  1  0.000000  0.554715  0.874307  1
  Re  Re8  1  0.000000  0.642343  0.316556  1
  Re  Re9  1  0.000000  0.357657  0.683444  1
  Re  Re10  1  0.000000  0.142343  0.183444  1
  Re  Re11  1  0.000000  0.857657  0.816556  1
  B  B12  1  0.500000  0.553966  0.433656  1
  B  B13  1  0.500000  0.446034  0.566344  1
  B  B14  1  0.500000  0.053966  0.066344  1
  B  B15  1  0.500000  0.946034  0.933656  1
  B  B16  1  0.500000  0.756409  0.418693  1
  B  B17  1  0.500000  0.243591  0.581307  1
  B  B18  1  0.500000  0.256409  0.081307  1
  B  B19  1  0.500000  0.743591  0.918693  1
  B  B20  1  0.500000  0.796859  0.264178  1
  B  B21  1  0.500000  0.203141  0.735822  1
  B  B22  1  0.500000  0.296859  0.235822  1
  B  B23  1  0.500000  0.703141  0.764178  1
  B  B24  1  0.500000  0.628309  0.180849  1
  B  B25  1  0.500000  0.371691  0.819151  1
  B  B26  1  0.500000  0.128309  0.319151  1
  B  B27  1  0.500000  0.871691  0.680849  1
  B  B28  1  0.500000  0.980538  0.214120  1
  B  B29  1  0.500000  0.019462  0.785880  1
  B  B30  1  0.500000  0.480538  0.285880  1
  B  B31  1  0.500000  0.519462  0.714120  1
  B  B32  1  0.500000  0.596860  0.025880  1
  B  B33  1  0.500000  0.403140  0.974120  1
  B  B34  1  0.500000  0.096860  0.474120  1
  B  B35  1  0.500000  0.903140  0.525880  1
