# generated using pymatgen
data_Ho7LuSc12Si15P
_symmetry_space_group_name_H-M   'P 1'
_cell_length_a   7.07043158
_cell_length_b   7.35243733
_cell_length_c   13.93597210
_cell_angle_alpha   89.96420621
_cell_angle_beta   90.02820867
_cell_angle_gamma   90.08504389
_symmetry_Int_Tables_number   1
_chemical_formula_structural   Ho7LuSc12Si15P
_chemical_formula_sum   'Ho7 Lu1 Sc12 Si15 P1'
_cell_volume   724.45916000
_cell_formula_units_Z   1
loop_
 _symmetry_equiv_pos_site_id
 _symmetry_equiv_pos_as_xyz
  1  'x, y, z'
loop_
 _atom_site_type_symbol
 _atom_site_label
 _atom_site_symmetry_multiplicity
 _atom_site_fract_x
 _atom_site_fract_y
 _atom_site_fract_z
 _atom_site_occupancy
  Ho  Ho0  1  0.991374  0.826474  0.901073  1
  Ho  Ho1  1  0.489897  0.675162  0.904653  1
  Ho  Ho2  1  0.991006  0.826475  0.599590  1
  Ho  Ho3  1  0.511291  0.323710  0.096117  1
  Ho  Ho4  1  0.010098  0.175310  0.403952  1
  Ho  Ho5  1  0.511169  0.323955  0.403343  1
  Ho  Ho6  1  0.490290  0.675427  0.595891  1
  Lu  Lu7  1  0.009925  0.175917  0.096420  1
  Sc  Sc8  1  0.160141  0.501688  0.750341  1
  Sc  Sc9  1  0.838153  0.496273  0.249428  1
  Sc  Sc10  1  0.337834  0.002900  0.249730  1
  Sc  Sc11  1  0.662951  0.999543  0.750416  1
  Sc  Sc12  1  0.328163  0.172934  0.627566  1
  Sc  Sc13  1  0.668290  0.823342  0.374986  1
  Sc  Sc14  1  0.168157  0.677918  0.374811  1
  Sc  Sc15  1  0.668137  0.824400  0.123993  1
  Sc  Sc16  1  0.832547  0.323254  0.626583  1
  Sc  Sc17  1  0.327894  0.172736  0.872824  1
  Sc  Sc18  1  0.833146  0.322256  0.873852  1
  Sc  Sc19  1  0.167333  0.678427  0.124728  1
  Si  Si20  1  0.964531  0.885733  0.249479  1
  Si  Si21  1  0.465558  0.614824  0.249620  1
  Si  Si22  1  0.531709  0.383138  0.750321  1
  Si  Si23  1  0.296477  0.862337  0.750207  1
  Si  Si24  1  0.715000  0.127128  0.249140  1
  Si  Si25  1  0.213661  0.372243  0.249239  1
  Si  Si26  1  0.786985  0.629292  0.750247  1
  Si  Si27  1  0.158631  0.463730  0.539896  1
  Si  Si28  1  0.841359  0.535843  0.461438  1
  Si  Si29  1  0.340108  0.965389  0.460792  1
  Si  Si30  1  0.841867  0.534318  0.039027  1
  Si  Si31  1  0.660393  0.036797  0.540140  1
  Si  Si32  1  0.158472  0.462295  0.960696  1
  Si  Si33  1  0.660869  0.036679  0.959833  1
  Si  Si34  1  0.337263  0.966522  0.039476  1
  P  P35  1  0.029319  0.125631  0.750153  1
