# generated using pymatgen
data_Dy8Ti2Nb9Si16Rh
_symmetry_space_group_name_H-M   'P 1'
_cell_length_a   7.06117985
_cell_length_b   7.06117971
_cell_length_c   12.97475754
_cell_angle_alpha   89.78228652
_cell_angle_beta   90.21771192
_cell_angle_gamma   89.80089994
_symmetry_Int_Tables_number   1
_chemical_formula_structural   Dy8Ti2Nb9Si16Rh
_chemical_formula_sum   'Dy8 Ti2 Nb9 Si16 Rh1'
_cell_volume   646.91150351
_cell_formula_units_Z   1
loop_
 _symmetry_equiv_pos_site_id
 _symmetry_equiv_pos_as_xyz
  1  'x, y, z'
loop_
 _atom_site_type_symbol
 _atom_site_label
 _atom_site_symmetry_multiplicity
 _atom_site_fract_x
 _atom_site_fract_y
 _atom_site_fract_z
 _atom_site_occupancy
  Dy  Dy0  1  0.998614  0.657454  0.032560  1
  Dy  Dy1  1  0.001125  0.343748  0.532222  1
  Dy  Dy2  1  0.657454  0.998614  0.967440  1
  Dy  Dy3  1  0.158385  0.504251  0.781373  1
  Dy  Dy4  1  0.841872  0.498682  0.283923  1
  Dy  Dy5  1  0.504251  0.158385  0.218627  1
  Dy  Dy6  1  0.498682  0.841872  0.716077  1
  Dy  Dy7  1  0.343748  0.001125  0.467778  1
  Ti  Ti8  1  0.493802  0.651413  0.125407  1
  Ti  Ti9  1  0.651413  0.493802  0.874593  1
  Nb  Nb10  1  0.342422  0.506720  0.374998  1
  Nb  Nb11  1  0.851231  0.997017  0.375049  1
  Nb  Nb12  1  0.007282  0.151572  0.126276  1
  Nb  Nb13  1  0.997017  0.851231  0.624951  1
  Nb  Nb14  1  0.506720  0.342422  0.625002  1
  Nb  Nb15  1  0.151572  0.007282  0.873724  1
  Nb  Nb16  1  0.825621  0.171287  0.748003  1
  Nb  Nb17  1  0.171287  0.825621  0.251997  1
  Nb  Nb18  1  0.327363  0.327363  0.000000  1
  Si  Si19  1  0.045951  0.710761  0.439091  1
  Si  Si20  1  0.951709  0.294523  0.935205  1
  Si  Si21  1  0.710761  0.045951  0.560909  1
  Si  Si22  1  0.207965  0.453921  0.185593  1
  Si  Si23  1  0.789624  0.552242  0.683793  1
  Si  Si24  1  0.453921  0.207965  0.814407  1
  Si  Si25  1  0.552242  0.789624  0.316207  1
  Si  Si26  1  0.294523  0.951709  0.064795  1
  Si  Si27  1  0.794543  0.863925  0.183019  1
  Si  Si28  1  0.297119  0.629689  0.566946  1
  Si  Si29  1  0.701959  0.368508  0.065992  1
  Si  Si30  1  0.629689  0.297119  0.433054  1
  Si  Si31  1  0.368508  0.701959  0.934008  1
  Si  Si32  1  0.133745  0.205285  0.317080  1
  Si  Si33  1  0.205285  0.133745  0.682920  1
  Si  Si34  1  0.863925  0.794543  0.816981  1
  Rh  Rh35  1  0.668670  0.668670  0.500000  1
