# generated using pymatgen
data_Y3Tm16Lu(Cd3Ni)2
_symmetry_space_group_name_H-M   'P 1'
_cell_length_a   9.51775700
_cell_length_b   9.51771654
_cell_length_c   9.60993100
_cell_angle_alpha   89.99990952
_cell_angle_beta   90.00010784
_cell_angle_gamma   119.99994352
_symmetry_Int_Tables_number   1
_chemical_formula_structural   Y3Tm16Lu(Cd3Ni)2
_chemical_formula_sum   'Y3 Tm16 Lu1 Cd6 Ni2'
_cell_volume   753.90830434
_cell_formula_units_Z   1
loop_
 _symmetry_equiv_pos_site_id
 _symmetry_equiv_pos_as_xyz
  1  'x, y, z'
loop_
 _atom_site_type_symbol
 _atom_site_label
 _atom_site_symmetry_multiplicity
 _atom_site_fract_x
 _atom_site_fract_y
 _atom_site_fract_z
 _atom_site_occupancy
  Y  Y0  1  0.457430  0.542568  0.750011  1
  Y  Y1  1  0.457432  0.914863  0.750011  1
  Y  Y2  1  0.085137  0.542569  0.750013  1
  Tm  Tm3  1  0.999999  0.000000  0.999877  1
  Tm  Tm4  1  0.543331  0.456665  0.249992  1
  Tm  Tm5  1  0.543332  0.086666  0.249991  1
  Tm  Tm6  1  0.913333  0.456665  0.249992  1
  Tm  Tm7  1  0.210650  0.789350  0.436264  1
  Tm  Tm8  1  0.210650  0.421299  0.436265  1
  Tm  Tm9  1  0.578700  0.789350  0.436263  1
  Tm  Tm10  1  0.788979  0.211021  0.561080  1
  Tm  Tm11  1  0.788978  0.577956  0.561079  1
  Tm  Tm12  1  0.422042  0.211020  0.561078  1
  Tm  Tm13  1  0.788897  0.211101  0.939030  1
  Tm  Tm14  1  0.788896  0.577793  0.939030  1
  Tm  Tm15  1  0.422206  0.211101  0.939031  1
  Tm  Tm16  1  0.210754  0.789249  0.063631  1
  Tm  Tm17  1  0.210752  0.421504  0.063633  1
  Tm  Tm18  1  0.578495  0.789248  0.063632  1
  Lu  Lu19  1  0.000002  0.000000  0.500167  1
  Cd  Cd20  1  0.884566  0.115436  0.250159  1
  Cd  Cd21  1  0.884565  0.769131  0.250161  1
  Cd  Cd22  1  0.230871  0.115438  0.250161  1
  Cd  Cd23  1  0.114036  0.885965  0.749814  1
  Cd  Cd24  1  0.114037  0.228070  0.749814  1
  Cd  Cd25  1  0.771929  0.885964  0.749815  1
  Ni  Ni26  1  0.333333  0.666666  0.250082  1
  Ni  Ni27  1  0.666672  0.333337  0.749923  1
