# generated using pymatgen
data_Ti13Al5(ZnIr2)4
_symmetry_space_group_name_H-M   'P 1'
_cell_length_a   8.77185418
_cell_length_b   8.77185313
_cell_length_c   8.77185400
_cell_angle_alpha   59.65553074
_cell_angle_beta   59.65553476
_cell_angle_gamma   59.65553547
_symmetry_Int_Tables_number   1
_chemical_formula_structural   Ti13Al5(ZnIr2)4
_chemical_formula_sum   'Ti13 Al5 Zn4 Ir8'
_cell_volume   473.52913612
_cell_formula_units_Z   1
loop_
 _symmetry_equiv_pos_site_id
 _symmetry_equiv_pos_as_xyz
  1  'x, y, z'
loop_
 _atom_site_type_symbol
 _atom_site_label
 _atom_site_symmetry_multiplicity
 _atom_site_fract_x
 _atom_site_fract_y
 _atom_site_fract_z
 _atom_site_occupancy
  Ti  Ti0  1  0.214950  0.214950  0.787326  1
  Ti  Ti1  1  0.787326  0.214950  0.214950  1
  Ti  Ti2  1  0.214950  0.787326  0.214950  1
  Ti  Ti3  1  0.797224  0.797224  0.184762  1
  Ti  Ti4  1  0.184762  0.797224  0.797224  1
  Ti  Ti5  1  0.797224  0.184762  0.797224  1
  Ti  Ti6  1  0.375869  0.375869  0.375869  1
  Ti  Ti7  1  0.377019  0.874365  0.377019  1
  Ti  Ti8  1  0.874365  0.377019  0.377019  1
  Ti  Ti9  1  0.377019  0.377019  0.874365  1
  Ti  Ti10  1  0.845690  0.463644  0.845690  1
  Ti  Ti11  1  0.463644  0.845690  0.845690  1
  Ti  Ti12  1  0.845690  0.845690  0.463644  1
  Al  Al13  1  0.619037  0.619037  0.619037  1
  Al  Al14  1  0.619019  0.144001  0.619019  1
  Al  Al15  1  0.144001  0.619019  0.619019  1
  Al  Al16  1  0.619019  0.619019  0.144001  1
  Al  Al17  1  0.828121  0.828121  0.828121  1
  Zn  Zn18  1  0.151081  0.151081  0.151081  1
  Zn  Zn19  1  0.155740  0.538406  0.155740  1
  Zn  Zn20  1  0.538406  0.155740  0.155740  1
  Zn  Zn21  1  0.155740  0.155740  0.538406  1
  Ir  Ir22  1  0.000022  0.000022  0.503405  1
  Ir  Ir23  1  0.503405  0.000022  0.000022  1
  Ir  Ir24  1  0.000022  0.503405  0.000022  1
  Ir  Ir25  1  0.503570  0.503570  0.998579  1
  Ir  Ir26  1  0.998579  0.503570  0.503570  1
  Ir  Ir27  1  0.503570  0.998579  0.503570  1
  Ir  Ir28  1  0.500317  0.500317  0.500317  1
  Ir  Ir29  1  0.004616  0.004616  0.004616  1
