# generated using pymatgen
data_ErH2Cl
_symmetry_space_group_name_H-M   'P 1'
_cell_length_a   10.19281774
_cell_length_b   10.19281769
_cell_length_c   10.19281666
_cell_angle_alpha   20.72921983
_cell_angle_beta   20.72922118
_cell_angle_gamma   20.72922139
_symmetry_Int_Tables_number   1
_chemical_formula_structural   ErH2Cl
_chemical_formula_sum   'Er2 H4 Cl2'
_cell_volume   116.14803340
_cell_formula_units_Z   2
loop_
 _symmetry_equiv_pos_site_id
 _symmetry_equiv_pos_as_xyz
  1  'x, y, z'
loop_
 _atom_site_type_symbol
 _atom_site_label
 _atom_site_symmetry_multiplicity
 _atom_site_fract_x
 _atom_site_fract_y
 _atom_site_fract_z
 _atom_site_occupancy
  Er  Er0  1  0.886705  0.886705  0.886705  1
  Er  Er1  1  0.113295  0.113295  0.113295  1
  H  H2  1  0.813533  0.813533  0.813533  1
  H  H3  1  0.186467  0.186467  0.186467  1
  H  H4  1  0.546149  0.546149  0.546149  1
  H  H5  1  0.453851  0.453851  0.453851  1
  Cl  Cl6  1  0.721058  0.721058  0.721058  1
  Cl  Cl7  1  0.278942  0.278942  0.278942  1
