# generated using pymatgen
data_Yb(ZrSe2)8
_symmetry_space_group_name_H-M   'P 1'
_cell_length_a   7.59318800
_cell_length_b   7.59318862
_cell_length_c   14.16351900
_cell_angle_alpha   90.00000000
_cell_angle_beta   90.00000000
_cell_angle_gamma   119.99998857
_symmetry_Int_Tables_number   1
_chemical_formula_structural   Yb(ZrSe2)8
_chemical_formula_sum   'Yb1 Zr8 Se16'
_cell_volume   707.21292990
_cell_formula_units_Z   1
loop_
 _symmetry_equiv_pos_site_id
 _symmetry_equiv_pos_as_xyz
  1  'x, y, z'
loop_
 _atom_site_type_symbol
 _atom_site_label
 _atom_site_symmetry_multiplicity
 _atom_site_fract_x
 _atom_site_fract_y
 _atom_site_fract_z
 _atom_site_occupancy
  Yb  Yb0  1  0.000000  0.000000  0.000000  1
  Zr  Zr1  1  0.501888  0.498112  0.745056  1
  Zr  Zr2  1  0.498112  0.501888  0.254944  1
  Zr  Zr3  1  0.501888  0.003775  0.745056  1
  Zr  Zr4  1  0.498112  0.996225  0.254944  1
  Zr  Zr5  1  0.996225  0.498112  0.745056  1
  Zr  Zr6  1  0.003775  0.501888  0.254944  1
  Zr  Zr7  1  0.000000  0.000000  0.738516  1
  Zr  Zr8  1  0.000000  0.000000  0.261484  1
  Se  Se9  1  0.834312  0.668624  0.139942  1
  Se  Se10  1  0.832064  0.664129  0.631063  1
  Se  Se11  1  0.834312  0.165688  0.139942  1
  Se  Se12  1  0.832064  0.167936  0.631063  1
  Se  Se13  1  0.333333  0.666667  0.140408  1
  Se  Se14  1  0.333333  0.666667  0.635255  1
  Se  Se15  1  0.331376  0.165688  0.139942  1
  Se  Se16  1  0.335871  0.167936  0.631063  1
  Se  Se17  1  0.668624  0.834312  0.860058  1
  Se  Se18  1  0.664129  0.832064  0.368937  1
  Se  Se19  1  0.666667  0.333333  0.859592  1
  Se  Se20  1  0.666667  0.333333  0.364745  1
  Se  Se21  1  0.165688  0.834312  0.860058  1
  Se  Se22  1  0.167936  0.832064  0.368937  1
  Se  Se23  1  0.165688  0.331376  0.860058  1
  Se  Se24  1  0.167936  0.335871  0.368937  1
