# generated using pymatgen
data_V7P6W
_symmetry_space_group_name_H-M   'P 1'
_cell_length_a   6.85408739
_cell_length_b   6.85408698
_cell_length_c   17.31974500
_cell_angle_alpha   90.00000000
_cell_angle_beta   90.00000000
_cell_angle_gamma   152.53838496
_symmetry_Int_Tables_number   1
_chemical_formula_structural   V7P6W
_chemical_formula_sum   'V14 P12 W2'
_cell_volume   375.22085542
_cell_formula_units_Z   2
loop_
 _symmetry_equiv_pos_site_id
 _symmetry_equiv_pos_as_xyz
  1  'x, y, z'
loop_
 _atom_site_type_symbol
 _atom_site_label
 _atom_site_symmetry_multiplicity
 _atom_site_fract_x
 _atom_site_fract_y
 _atom_site_fract_z
 _atom_site_occupancy
  V  V0  1  0.738257  0.261743  0.661100  1
  V  V1  1  0.261743  0.738257  0.338900  1
  V  V2  1  0.738257  0.261743  0.838900  1
  V  V3  1  0.261743  0.738257  0.161100  1
  V  V4  1  0.534124  0.465876  0.620351  1
  V  V5  1  0.465876  0.534124  0.379649  1
  V  V6  1  0.534124  0.465876  0.879649  1
  V  V7  1  0.465876  0.534124  0.120351  1
  V  V8  1  0.667686  0.332314  0.473153  1
  V  V9  1  0.332314  0.667686  0.526847  1
  V  V10  1  0.667686  0.332314  0.026847  1
  V  V11  1  0.332314  0.667686  0.973153  1
  V  V12  1  0.000000  0.000000  0.500000  1
  V  V13  1  0.000000  0.000000  0.000000  1
  P  P14  1  0.902641  0.097359  0.613995  1
  P  P15  1  0.097359  0.902641  0.386005  1
  P  P16  1  0.902641  0.097359  0.886005  1
  P  P17  1  0.097359  0.902641  0.113995  1
  P  P18  1  0.842005  0.157995  0.423469  1
  P  P19  1  0.157995  0.842005  0.576531  1
  P  P20  1  0.842005  0.157995  0.076531  1
  P  P21  1  0.157995  0.842005  0.923469  1
  P  P22  1  0.699392  0.300608  0.250000  1
  P  P23  1  0.300608  0.699392  0.750000  1
  P  P24  1  0.411447  0.588553  0.250000  1
  P  P25  1  0.588553  0.411447  0.750000  1
  W  W26  1  0.055659  0.944341  0.250000  1
  W  W27  1  0.944341  0.055659  0.750000  1
