# generated using pymatgen
data_TbYb6YBi6
_symmetry_space_group_name_H-M   'P 1'
_cell_length_a   8.17441757
_cell_length_b   8.35571028
_cell_length_c   8.35570938
_cell_angle_alpha   109.90655821
_cell_angle_beta   109.03229396
_cell_angle_gamma   109.03229169
_symmetry_Int_Tables_number   1
_chemical_formula_structural   TbYb6YBi6
_chemical_formula_sum   'Tb1 Yb6 Y1 Bi6'
_cell_volume   441.69813639
_cell_formula_units_Z   1
loop_
 _symmetry_equiv_pos_site_id
 _symmetry_equiv_pos_as_xyz
  1  'x, y, z'
loop_
 _atom_site_type_symbol
 _atom_site_label
 _atom_site_symmetry_multiplicity
 _atom_site_fract_x
 _atom_site_fract_y
 _atom_site_fract_z
 _atom_site_occupancy
  Tb  Tb0  1  0.141758  0.500000  0.000000  1
  Yb  Yb1  1  0.500836  0.998841  0.646516  1
  Yb  Yb2  1  0.354416  0.352417  0.353552  1
  Yb  Yb3  1  0.502000  0.001135  0.147583  1
  Yb  Yb4  1  0.001995  0.647675  0.501159  1
  Yb  Yb5  1  0.854320  0.853484  0.852325  1
  Yb  Yb6  1  0.000865  0.146448  0.498865  1
  Y  Y7  1  0.641898  0.500000  0.000000  1
  Bi  Bi8  1  0.376767  0.623225  0.755764  1
  Bi  Bi9  1  0.876519  0.255676  0.123282  1
  Bi  Bi10  1  0.621003  0.744236  0.367462  1
  Bi  Bi11  1  0.120843  0.867607  0.244324  1
  Bi  Bi12  1  0.253542  0.132538  0.876775  1
  Bi  Bi13  1  0.753237  0.376718  0.632393  1
