# generated using pymatgen
data_Li2Tc(Ni3P2)3
_symmetry_space_group_name_H-M   'P 1'
_cell_length_a   3.56271200
_cell_length_b   10.36209600
_cell_length_c   11.79664300
_cell_angle_alpha   90.00000000
_cell_angle_beta   90.00000000
_cell_angle_gamma   90.00000000
_symmetry_Int_Tables_number   1
_chemical_formula_structural   Li2Tc(Ni3P2)3
_chemical_formula_sum   'Li4 Tc2 Ni18 P12'
_cell_volume   435.49860150
_cell_formula_units_Z   2
loop_
 _symmetry_equiv_pos_site_id
 _symmetry_equiv_pos_as_xyz
  1  'x, y, z'
loop_
 _atom_site_type_symbol
 _atom_site_label
 _atom_site_symmetry_multiplicity
 _atom_site_fract_x
 _atom_site_fract_y
 _atom_site_fract_z
 _atom_site_occupancy
  Li  Li0  1  0.250000  0.580358  0.702750  1
  Li  Li1  1  0.250000  0.919642  0.202750  1
  Li  Li2  1  0.750000  0.416368  0.295353  1
  Li  Li3  1  0.750000  0.083632  0.795353  1
  Tc  Tc4  1  0.250000  0.710229  0.990243  1
  Tc  Tc5  1  0.250000  0.789771  0.490243  1
  Ni  Ni6  1  0.750000  0.282634  0.009768  1
  Ni  Ni7  1  0.750000  0.217366  0.509768  1
  Ni  Ni8  1  0.250000  0.405976  0.483880  1
  Ni  Ni9  1  0.250000  0.094024  0.983880  1
  Ni  Ni10  1  0.750000  0.587655  0.515471  1
  Ni  Ni11  1  0.750000  0.912345  0.015471  1
  Ni  Ni12  1  0.250000  0.219217  0.177000  1
  Ni  Ni13  1  0.250000  0.280783  0.677000  1
  Ni  Ni14  1  0.750000  0.782263  0.821487  1
  Ni  Ni15  1  0.750000  0.717737  0.321487  1
  Ni  Ni16  1  0.250000  0.889031  0.703354  1
  Ni  Ni17  1  0.250000  0.610969  0.203354  1
  Ni  Ni18  1  0.750000  0.117676  0.299696  1
  Ni  Ni19  1  0.750000  0.382324  0.799696  1
  Ni  Ni20  1  0.250000  0.460984  0.930299  1
  Ni  Ni21  1  0.250000  0.039016  0.430299  1
  Ni  Ni22  1  0.750000  0.531511  0.070646  1
  Ni  Ni23  1  0.750000  0.968489  0.570646  1
  P  P24  1  0.250000  0.415504  0.117507  1
  P  P25  1  0.250000  0.084496  0.617507  1
  P  P26  1  0.750000  0.583675  0.881397  1
  P  P27  1  0.750000  0.916325  0.381397  1
  P  P28  1  0.250000  0.260856  0.866461  1
  P  P29  1  0.250000  0.239144  0.366461  1
  P  P30  1  0.750000  0.740091  0.133970  1
  P  P31  1  0.750000  0.759909  0.633970  1
  P  P32  1  0.250000  0.592087  0.389242  1
  P  P33  1  0.250000  0.907913  0.889242  1
  P  P34  1  0.750000  0.403399  0.611477  1
  P  P35  1  0.750000  0.096601  0.111477  1
