# generated using pymatgen
data_Pu2Cr2C3
_symmetry_space_group_name_H-M   'P 1'
_cell_length_a   5.52271154
_cell_length_b   5.52271127
_cell_length_c   5.56560858
_cell_angle_alpha   77.91591436
_cell_angle_beta   77.91591583
_cell_angle_gamma   33.53693964
_symmetry_Int_Tables_number   1
_chemical_formula_structural   Pu2Cr2C3
_chemical_formula_sum   'Pu2 Cr2 C3'
_cell_volume   91.51504295
_cell_formula_units_Z   1
loop_
 _symmetry_equiv_pos_site_id
 _symmetry_equiv_pos_as_xyz
  1  'x, y, z'
loop_
 _atom_site_type_symbol
 _atom_site_label
 _atom_site_symmetry_multiplicity
 _atom_site_fract_x
 _atom_site_fract_y
 _atom_site_fract_z
 _atom_site_occupancy
  Pu  Pu0  1  0.397786  0.397786  0.836711  1
  Pu  Pu1  1  0.602214  0.602214  0.163289  1
  Cr  Cr2  1  0.159163  0.159163  0.603440  1
  Cr  Cr3  1  0.840837  0.840837  0.396560  1
  C  C4  1  0.000000  0.000000  0.500000  1
  C  C5  1  0.729359  0.729359  0.740624  1
  C  C6  1  0.270641  0.270641  0.259376  1
