# generated using pymatgen
data_RbPbF5
_symmetry_space_group_name_H-M   'P 1'
_cell_length_a   6.13429600
_cell_length_b   8.40737900
_cell_length_c   10.74458800
_cell_angle_alpha   90.00000000
_cell_angle_beta   90.00000000
_cell_angle_gamma   90.00000000
_symmetry_Int_Tables_number   1
_chemical_formula_structural   RbPbF5
_chemical_formula_sum   'Rb4 Pb4 F20'
_cell_volume   554.13441225
_cell_formula_units_Z   4
loop_
 _symmetry_equiv_pos_site_id
 _symmetry_equiv_pos_as_xyz
  1  'x, y, z'
loop_
 _atom_site_type_symbol
 _atom_site_label
 _atom_site_symmetry_multiplicity
 _atom_site_fract_x
 _atom_site_fract_y
 _atom_site_fract_z
 _atom_site_occupancy
  Rb  Rb0  1  0.500000  0.875104  0.964016  1
  Rb  Rb1  1  0.500000  0.124896  0.464016  1
  Rb  Rb2  1  0.000000  0.374219  0.135360  1
  Rb  Rb3  1  0.000000  0.625781  0.635360  1
  Pb  Pb4  1  0.000000  0.885806  0.239759  1
  Pb  Pb5  1  0.500000  0.578090  0.343854  1
  Pb  Pb6  1  0.500000  0.421910  0.843854  1
  Pb  Pb7  1  0.000000  0.114194  0.739759  1
  F  F8  1  0.253076  0.544202  0.935142  1
  F  F9  1  0.746637  0.695426  0.221384  1
  F  F10  1  0.242103  0.058684  0.244787  1
  F  F11  1  0.746637  0.304574  0.721384  1
  F  F12  1  0.500000  0.219375  0.949812  1
  F  F13  1  0.757897  0.941316  0.744787  1
  F  F14  1  0.500000  0.590132  0.703647  1
  F  F15  1  0.242103  0.941316  0.744787  1
  F  F16  1  0.000000  0.870670  0.048598  1
  F  F17  1  0.757897  0.058684  0.244787  1
  F  F18  1  0.500000  0.409868  0.203647  1
  F  F19  1  0.746924  0.455798  0.435142  1
  F  F20  1  0.253363  0.695426  0.221384  1
  F  F21  1  0.000000  0.822417  0.423837  1
  F  F22  1  0.000000  0.129330  0.548598  1
  F  F23  1  0.253363  0.304574  0.721384  1
  F  F24  1  0.000000  0.177583  0.923837  1
  F  F25  1  0.253076  0.455798  0.435142  1
  F  F26  1  0.500000  0.780625  0.449812  1
  F  F27  1  0.746924  0.544202  0.935142  1
