# generated using pymatgen
data_La17Er(InIr6)2
_symmetry_space_group_name_H-M   'P 1'
_cell_length_a   11.36015900
_cell_length_b   11.36015900
_cell_length_c   6.44574600
_cell_angle_alpha   90.00000000
_cell_angle_beta   90.00000000
_cell_angle_gamma   90.00000000
_symmetry_Int_Tables_number   1
_chemical_formula_structural   La17Er(InIr6)2
_chemical_formula_sum   'La17 Er1 In2 Ir12'
_cell_volume   831.84422829
_cell_formula_units_Z   1
loop_
 _symmetry_equiv_pos_site_id
 _symmetry_equiv_pos_as_xyz
  1  'x, y, z'
loop_
 _atom_site_type_symbol
 _atom_site_label
 _atom_site_symmetry_multiplicity
 _atom_site_fract_x
 _atom_site_fract_y
 _atom_site_fract_z
 _atom_site_occupancy
  La  La0  1  0.279848  0.087012  0.389601  1
  La  La1  1  0.287334  0.912965  0.885468  1
  La  La2  1  0.712666  0.087035  0.885468  1
  La  La3  1  0.720152  0.912988  0.389601  1
  La  La4  1  0.587979  0.782392  0.890220  1
  La  La5  1  0.587304  0.208791  0.383930  1
  La  La6  1  0.412696  0.791209  0.383930  1
  La  La7  1  0.412021  0.217608  0.890220  1
  La  La8  1  0.208791  0.412696  0.616070  1
  La  La9  1  0.217608  0.587979  0.109780  1
  La  La10  1  0.782392  0.412021  0.109780  1
  La  La11  1  0.791209  0.587304  0.616070  1
  La  La12  1  0.912965  0.712666  0.114532  1
  La  La13  1  0.912988  0.279848  0.610399  1
  La  La14  1  0.087012  0.720152  0.610399  1
  La  La15  1  0.087035  0.287334  0.114532  1
  La  La16  1  0.500000  0.500000  0.500000  1
  Er  Er17  1  0.000000  0.000000  0.000000  1
  In  In18  1  0.000000  0.000000  0.500000  1
  In  In19  1  0.500000  0.500000  0.000000  1
  Ir  Ir20  1  0.851627  0.150538  0.241948  1
  Ir  Ir21  1  0.849462  0.851627  0.758052  1
  Ir  Ir22  1  0.150538  0.148373  0.758052  1
  Ir  Ir23  1  0.148373  0.849462  0.241948  1
  Ir  Ir24  1  0.654964  0.346469  0.744976  1
  Ir  Ir25  1  0.653531  0.654964  0.255024  1
  Ir  Ir26  1  0.346469  0.345036  0.255024  1
  Ir  Ir27  1  0.345036  0.653531  0.744976  1
  Ir  Ir28  1  0.500000  0.000000  0.118268  1
  Ir  Ir29  1  0.500000  0.000000  0.618454  1
  Ir  Ir30  1  0.000000  0.500000  0.881732  1
  Ir  Ir31  1  0.000000  0.500000  0.381546  1
