# generated using pymatgen
data_Ho12Tc2RuRh
_symmetry_space_group_name_H-M   'P 1'
_cell_length_a   6.28384101
_cell_length_b   7.35836100
_cell_length_c   9.11158600
_cell_angle_alpha   90.00000000
_cell_angle_beta   90.00000000
_cell_angle_gamma   90.09461691
_symmetry_Int_Tables_number   1
_chemical_formula_structural   Ho12Tc2RuRh
_chemical_formula_sum   'Ho12 Tc2 Ru1 Rh1'
_cell_volume   421.30796075
_cell_formula_units_Z   1
loop_
 _symmetry_equiv_pos_site_id
 _symmetry_equiv_pos_as_xyz
  1  'x, y, z'
loop_
 _atom_site_type_symbol
 _atom_site_label
 _atom_site_symmetry_multiplicity
 _atom_site_fract_x
 _atom_site_fract_y
 _atom_site_fract_z
 _atom_site_occupancy
  Ho  Ho0  1  0.335181  0.674827  0.062259  1
  Ho  Ho1  1  0.163970  0.178828  0.438739  1
  Ho  Ho2  1  0.663916  0.323564  0.563316  1
  Ho  Ho3  1  0.831426  0.823114  0.934260  1
  Ho  Ho4  1  0.663916  0.323564  0.936684  1
  Ho  Ho5  1  0.831426  0.823114  0.565740  1
  Ho  Ho6  1  0.335181  0.674827  0.437741  1
  Ho  Ho7  1  0.163970  0.178828  0.061261  1
  Ho  Ho8  1  0.871418  0.540236  0.250000  1
  Ho  Ho9  1  0.630045  0.041245  0.250000  1
  Ho  Ho10  1  0.130973  0.460183  0.750000  1
  Ho  Ho11  1  0.372586  0.957423  0.750000  1
  Tc  Tc12  1  0.462154  0.385381  0.250000  1
  Tc  Tc13  1  0.964334  0.113767  0.750000  1
  Ru  Ru14  1  0.538974  0.617075  0.750000  1
  Rh  Rh15  1  0.040534  0.884025  0.250000  1
