# generated using pymatgen
data_Pu2UCo2Si7
_symmetry_space_group_name_H-M   'P 1'
_cell_length_a   3.96881128
_cell_length_b   4.01152100
_cell_length_c   12.30612902
_cell_angle_alpha   90.00000000
_cell_angle_beta   99.27965966
_cell_angle_gamma   90.00000000
_symmetry_Int_Tables_number   1
_chemical_formula_structural   Pu2UCo2Si7
_chemical_formula_sum   'Pu2 U1 Co2 Si7'
_cell_volume   193.36143600
_cell_formula_units_Z   1
loop_
 _symmetry_equiv_pos_site_id
 _symmetry_equiv_pos_as_xyz
  1  'x, y, z'
loop_
 _atom_site_type_symbol
 _atom_site_label
 _atom_site_symmetry_multiplicity
 _atom_site_fract_x
 _atom_site_fract_y
 _atom_site_fract_z
 _atom_site_occupancy
  Pu  Pu0  1  0.314978  0.000000  0.629957  1
  Pu  Pu1  1  0.685022  0.000000  0.370043  1
  U  U2  1  0.000000  0.500000  0.000000  1
  Co  Co3  1  0.128174  0.500000  0.256348  1
  Co  Co4  1  0.871826  0.500000  0.743652  1
  Si  Si5  1  0.500000  0.000000  0.000000  1
  Si  Si6  1  0.413579  0.500000  0.827158  1
  Si  Si7  1  0.586421  0.500000  0.172842  1
  Si  Si8  1  0.087081  0.000000  0.174162  1
  Si  Si9  1  0.912919  0.000000  0.825838  1
  Si  Si10  1  0.221643  0.500000  0.443287  1
  Si  Si11  1  0.778357  0.500000  0.556713  1
