# generated using pymatgen
data_Tb20Ir5Au7
_symmetry_space_group_name_H-M   'P 1'
_cell_length_a   6.32179856
_cell_length_b   11.36259630
_cell_length_c   11.36259643
_cell_angle_alpha   90.07977834
_cell_angle_beta   89.91576694
_cell_angle_gamma   89.91577194
_symmetry_Int_Tables_number   1
_chemical_formula_structural   Tb20Ir5Au7
_chemical_formula_sum   'Tb20 Ir5 Au7'
_cell_volume   816.19598015
_cell_formula_units_Z   1
loop_
 _symmetry_equiv_pos_site_id
 _symmetry_equiv_pos_as_xyz
  1  'x, y, z'
loop_
 _atom_site_type_symbol
 _atom_site_label
 _atom_site_symmetry_multiplicity
 _atom_site_fract_x
 _atom_site_fract_y
 _atom_site_fract_z
 _atom_site_occupancy
  Tb  Tb0  1  0.358758  0.831430  0.549240  1
  Tb  Tb1  1  0.860012  0.655257  0.548786  1
  Tb  Tb2  1  0.857921  0.833188  0.950616  1
  Tb  Tb3  1  0.357167  0.664937  0.948528  1
  Tb  Tb4  1  0.858577  0.543452  0.826897  1
  Tb  Tb5  1  0.360491  0.952556  0.834037  1
  Tb  Tb6  1  0.371142  0.541973  0.660024  1
  Tb  Tb7  1  0.858935  0.948628  0.664883  1
  Tb  Tb8  1  0.641423  0.173103  0.456549  1
  Tb  Tb9  1  0.128858  0.339976  0.458028  1
  Tb  Tb10  1  0.139509  0.165963  0.047444  1
  Tb  Tb11  1  0.641065  0.335117  0.051372  1
  Tb  Tb12  1  0.141242  0.450761  0.168570  1
  Tb  Tb13  1  0.642079  0.049384  0.166812  1
  Tb  Tb14  1  0.639988  0.451215  0.344743  1
  Tb  Tb15  1  0.142833  0.051472  0.335063  1
  Tb  Tb16  1  0.501252  0.749547  0.249525  1
  Tb  Tb17  1  0.998748  0.750475  0.250453  1
  Tb  Tb18  1  0.998775  0.254161  0.743479  1
  Tb  Tb19  1  0.501225  0.256521  0.745839  1
  Ir  Ir20  1  0.750000  0.402281  0.597719  1
  Ir  Ir21  1  0.109289  0.749613  0.749716  1
  Ir  Ir22  1  0.608066  0.750336  0.749434  1
  Ir  Ir23  1  0.891934  0.250566  0.249664  1
  Ir  Ir24  1  0.390711  0.250284  0.250387  1
  Au  Au25  1  0.250000  0.905781  0.094219  1
  Au  Au26  1  0.750557  0.593807  0.091906  1
  Au  Au27  1  0.749443  0.908094  0.406193  1
  Au  Au28  1  0.250000  0.595448  0.404552  1
  Au  Au29  1  0.750000  0.096098  0.903902  1
  Au  Au30  1  0.248580  0.405982  0.907407  1
  Au  Au31  1  0.251420  0.092593  0.594018  1
