# generated using pymatgen
data_Tb3Sm2Bi3O14
_symmetry_space_group_name_H-M   'P 1'
_cell_length_a   6.63575666
_cell_length_b   6.67609588
_cell_length_c   7.81310145
_cell_angle_alpha   106.75709420
_cell_angle_beta   89.67130190
_cell_angle_gamma   98.57553503
_symmetry_Int_Tables_number   1
_chemical_formula_structural   Tb3Sm2Bi3O14
_chemical_formula_sum   'Tb3 Sm2 Bi3 O14'
_cell_volume   327.47059221
_cell_formula_units_Z   1
loop_
 _symmetry_equiv_pos_site_id
 _symmetry_equiv_pos_as_xyz
  1  'x, y, z'
loop_
 _atom_site_type_symbol
 _atom_site_label
 _atom_site_symmetry_multiplicity
 _atom_site_fract_x
 _atom_site_fract_y
 _atom_site_fract_z
 _atom_site_occupancy
  Tb  Tb0  1  0.459363  0.007285  0.253953  1
  Tb  Tb1  1  0.537035  0.999444  0.750305  1
  Tb  Tb2  1  0.271012  0.535118  0.882600  1
  Sm  Sm3  1  0.739295  0.459855  0.113162  1
  Sm  Sm4  1  0.746599  0.482080  0.619684  1
  Bi  Bi5  1  0.994789  0.000751  0.501112  1
  Bi  Bi6  1  0.000501  0.995941  0.996935  1
  Bi  Bi7  1  0.282530  0.534691  0.389149  1
  O  O8  1  0.446981  0.652669  0.167334  1
  O  O9  1  0.552049  0.352882  0.834792  1
  O  O10  1  0.302210  0.921104  0.951982  1
  O  O11  1  0.699429  0.072251  0.049883  1
  O  O12  1  0.297073  0.931591  0.515870  1
  O  O13  1  0.699052  0.082737  0.491272  1
  O  O14  1  0.546501  0.361368  0.344133  1
  O  O15  1  0.456631  0.642239  0.657686  1
  O  O16  1  0.930104  0.662477  0.947045  1
  O  O17  1  0.071951  0.322179  0.025683  1
  O  O18  1  0.070877  0.337020  0.629393  1
  O  O19  1  0.906885  0.667787  0.383177  1
  O  O20  1  0.871889  0.903728  0.726444  1
  O  O21  1  0.117243  0.074803  0.268407  1
