# generated using pymatgen
data_Tm4ZnReRu6
_symmetry_space_group_name_H-M   'P 1'
_cell_length_a   5.19065298
_cell_length_b   5.41118617
_cell_length_c   8.86464200
_cell_angle_alpha   90.00000000
_cell_angle_beta   90.00000000
_cell_angle_gamma   121.11896158
_symmetry_Int_Tables_number   1
_chemical_formula_structural   Tm4ZnReRu6
_chemical_formula_sum   'Tm4 Zn1 Re1 Ru6'
_cell_volume   213.15630730
_cell_formula_units_Z   1
loop_
 _symmetry_equiv_pos_site_id
 _symmetry_equiv_pos_as_xyz
  1  'x, y, z'
loop_
 _atom_site_type_symbol
 _atom_site_label
 _atom_site_symmetry_multiplicity
 _atom_site_fract_x
 _atom_site_fract_y
 _atom_site_fract_z
 _atom_site_occupancy
  Tm  Tm0  1  0.335320  0.667803  0.437801  1
  Tm  Tm1  1  0.659913  0.328704  0.566101  1
  Tm  Tm2  1  0.659913  0.328704  0.933899  1
  Tm  Tm3  1  0.335320  0.667803  0.062199  1
  Zn  Zn4  1  0.834184  0.172284  0.250000  1
  Re  Re5  1  0.667848  0.835885  0.750000  1
  Ru  Ru6  1  0.991023  0.985096  0.499640  1
  Ru  Ru7  1  0.991023  0.985096  0.000360  1
  Ru  Ru8  1  0.823906  0.662705  0.250000  1
  Ru  Ru9  1  0.346016  0.183608  0.250000  1
  Ru  Ru10  1  0.174758  0.832827  0.750000  1
  Ru  Ru11  1  0.180777  0.349486  0.750000  1
