# generated using pymatgen
data_Tb5U2O12
_symmetry_space_group_name_H-M   'P 1'
_cell_length_a   6.63167734
_cell_length_b   6.64681900
_cell_length_c   6.58853621
_cell_angle_alpha   99.38963054
_cell_angle_beta   98.76363768
_cell_angle_gamma   99.24481811
_symmetry_Int_Tables_number   1
_chemical_formula_structural   Tb5U2O12
_chemical_formula_sum   'Tb5 U2 O12'
_cell_volume   278.01130822
_cell_formula_units_Z   1
loop_
 _symmetry_equiv_pos_site_id
 _symmetry_equiv_pos_as_xyz
  1  'x, y, z'
loop_
 _atom_site_type_symbol
 _atom_site_label
 _atom_site_symmetry_multiplicity
 _atom_site_fract_x
 _atom_site_fract_y
 _atom_site_fract_z
 _atom_site_occupancy
  Tb  Tb0  1  0.860813  0.693921  0.394750  1
  Tb  Tb1  1  0.390196  0.856430  0.685191  1
  Tb  Tb2  1  0.309206  0.611544  0.143928  1
  Tb  Tb3  1  0.143680  0.312271  0.607280  1
  Tb  Tb4  1  0.606331  0.134047  0.311375  1
  U  U5  1  0.689722  0.396433  0.861564  1
  U  U6  1  0.002549  0.003367  0.000410  1
  O  O7  1  0.430396  0.177457  0.586797  1
  O  O8  1  0.588959  0.425233  0.166260  1
  O  O9  1  0.174631  0.583041  0.433234  1
  O  O10  1  0.567100  0.817994  0.411191  1
  O  O11  1  0.423005  0.568510  0.821981  1
  O  O12  1  0.812310  0.415320  0.576188  1
  O  O13  1  0.074814  0.317612  0.943955  1
  O  O14  1  0.687683  0.058206  0.922726  1
  O  O15  1  0.054823  0.925131  0.686783  1
  O  O16  1  0.925482  0.684547  0.055935  1
  O  O17  1  0.314157  0.944188  0.075059  1
  O  O18  1  0.944140  0.074747  0.315393  1
