# generated using pymatgen
data_Pr8AlZn7Ir8
_symmetry_space_group_name_H-M   'P 1'
_cell_length_a   4.09309400
_cell_length_b   7.32874616
_cell_length_c   16.67757221
_cell_angle_alpha   89.98385276
_cell_angle_beta   90.00000000
_cell_angle_gamma   90.00000000
_symmetry_Int_Tables_number   1
_chemical_formula_structural   Pr8AlZn7Ir8
_chemical_formula_sum   'Pr8 Al1 Zn7 Ir8'
_cell_volume   500.28123169
_cell_formula_units_Z   1
loop_
 _symmetry_equiv_pos_site_id
 _symmetry_equiv_pos_as_xyz
  1  'x, y, z'
loop_
 _atom_site_type_symbol
 _atom_site_label
 _atom_site_symmetry_multiplicity
 _atom_site_fract_x
 _atom_site_fract_y
 _atom_site_fract_z
 _atom_site_occupancy
  Pr  Pr0  1  0.750000  0.451408  0.217091  1
  Pr  Pr1  1  0.750000  0.954049  0.279708  1
  Pr  Pr2  1  0.750000  0.831957  0.059842  1
  Pr  Pr3  1  0.250000  0.046729  0.717748  1
  Pr  Pr4  1  0.250000  0.166762  0.939304  1
  Pr  Pr5  1  0.250000  0.546487  0.783327  1
  Pr  Pr6  1  0.750000  0.340322  0.439658  1
  Pr  Pr7  1  0.250000  0.665227  0.562716  1
  Al  Al8  1  0.250000  0.996893  0.437969  1
  Zn  Zn9  1  0.750000  0.501100  0.939420  1
  Zn  Zn10  1  0.750000  0.003034  0.563070  1
  Zn  Zn11  1  0.250000  0.628739  0.348467  1
  Zn  Zn12  1  0.750000  0.370702  0.649508  1
  Zn  Zn13  1  0.750000  0.873450  0.850631  1
  Zn  Zn14  1  0.250000  0.498493  0.060295  1
  Zn  Zn15  1  0.250000  0.125902  0.148264  1
  Ir  Ir16  1  0.250000  0.234884  0.561324  1
  Ir  Ir17  1  0.750000  0.258176  0.065223  1
  Ir  Ir18  1  0.250000  0.238636  0.318848  1
  Ir  Ir19  1  0.750000  0.253635  0.812604  1
  Ir  Ir20  1  0.250000  0.741158  0.934972  1
  Ir  Ir21  1  0.750000  0.752943  0.686375  1
  Ir  Ir22  1  0.750000  0.776408  0.436197  1
  Ir  Ir23  1  0.250000  0.742905  0.187443  1
