# generated using pymatgen
data_Cs2Cd(PSe3)2
_symmetry_space_group_name_H-M   'P 1'
_cell_length_a   13.32527000
_cell_length_b   6.74278877
_cell_length_c   10.47292450
_cell_angle_alpha   52.62098938
_cell_angle_beta   90.00000000
_cell_angle_gamma   90.00000000
_symmetry_Int_Tables_number   1
_chemical_formula_structural   Cs2Cd(PSe3)2
_chemical_formula_sum   'Cs4 Cd2 P4 Se12'
_cell_volume   747.74301669
_cell_formula_units_Z   2
loop_
 _symmetry_equiv_pos_site_id
 _symmetry_equiv_pos_as_xyz
  1  'x, y, z'
loop_
 _atom_site_type_symbol
 _atom_site_label
 _atom_site_symmetry_multiplicity
 _atom_site_fract_x
 _atom_site_fract_y
 _atom_site_fract_z
 _atom_site_occupancy
  Cs  Cs0  1  0.670673  0.223648  0.524445  1
  Cs  Cs1  1  0.170673  0.776352  0.975555  1
  Cs  Cs2  1  0.329327  0.776352  0.475555  1
  Cs  Cs3  1  0.829327  0.223648  0.024445  1
  Cd  Cd4  1  0.000000  0.500000  0.500000  1
  Cd  Cd5  1  0.500000  0.500000  0.000000  1
  P  P6  1  0.038926  0.158844  0.383500  1
  P  P7  1  0.538926  0.841156  0.116500  1
  P  P8  1  0.961074  0.841156  0.616500  1
  P  P9  1  0.461074  0.158844  0.883500  1
  Se  Se10  1  0.168278  0.268273  0.459882  1
  Se  Se11  1  0.668278  0.731727  0.040118  1
  Se  Se12  1  0.831722  0.731727  0.540118  1
  Se  Se13  1  0.331722  0.268273  0.959882  1
  Se  Se14  1  0.928165  0.464984  0.255217  1
  Se  Se15  1  0.428165  0.535016  0.244783  1
  Se  Se16  1  0.071835  0.535016  0.744783  1
  Se  Se17  1  0.571835  0.464984  0.755217  1
  Se  Se18  1  0.078575  0.999463  0.259113  1
  Se  Se19  1  0.578575  0.000537  0.240887  1
  Se  Se20  1  0.921425  0.000537  0.740887  1
  Se  Se21  1  0.421425  0.999463  0.759113  1
