# generated using pymatgen
data_Th2Si5Os3
_symmetry_space_group_name_H-M   'P 1'
_cell_length_a   8.23038978
_cell_length_b   8.23038934
_cell_length_c   5.90001908
_cell_angle_alpha   70.44915185
_cell_angle_beta   70.44915073
_cell_angle_gamma   93.36290450
_symmetry_Int_Tables_number   1
_chemical_formula_structural   Th2Si5Os3
_chemical_formula_sum   'Th4 Si10 Os6'
_cell_volume   348.29188995
_cell_formula_units_Z   2
loop_
 _symmetry_equiv_pos_site_id
 _symmetry_equiv_pos_as_xyz
  1  'x, y, z'
loop_
 _atom_site_type_symbol
 _atom_site_label
 _atom_site_symmetry_multiplicity
 _atom_site_fract_x
 _atom_site_fract_y
 _atom_site_fract_z
 _atom_site_occupancy
  Th  Th0  1  0.866682  0.600767  0.759468  1
  Th  Th1  1  0.399233  0.133318  0.740532  1
  Th  Th2  1  0.133318  0.399233  0.240532  1
  Th  Th3  1  0.600767  0.866682  0.259468  1
  Si  Si4  1  0.057845  0.260908  0.838867  1
  Si  Si5  1  0.739092  0.942155  0.661133  1
  Si  Si6  1  0.942155  0.739092  0.161133  1
  Si  Si7  1  0.260908  0.057845  0.338867  1
  Si  Si8  1  0.208193  0.791807  0.750000  1
  Si  Si9  1  0.791807  0.208193  0.250000  1
  Si  Si10  1  0.513238  0.486762  0.750000  1
  Si  Si11  1  0.486762  0.513238  0.250000  1
  Si  Si12  1  0.773942  0.226058  0.750000  1
  Si  Si13  1  0.226058  0.773942  0.250000  1
  Os  Os14  1  0.255282  0.541856  0.633952  1
  Os  Os15  1  0.458144  0.744718  0.866048  1
  Os  Os16  1  0.744718  0.458144  0.366048  1
  Os  Os17  1  0.541856  0.255282  0.133952  1
  Os  Os18  1  0.002580  0.997420  0.750000  1
  Os  Os19  1  0.997420  0.002580  0.250000  1
