# generated using pymatgen
data_NdAs12Ru3Rh
_symmetry_space_group_name_H-M   'P 1'
_cell_length_a   7.45233555
_cell_length_b   7.45233672
_cell_length_c   7.45233604
_cell_angle_alpha   109.43460616
_cell_angle_beta   109.43461047
_cell_angle_gamma   109.43460131
_symmetry_Int_Tables_number   1
_chemical_formula_structural   NdAs12Ru3Rh
_chemical_formula_sum   'Nd1 As12 Ru3 Rh1'
_cell_volume   319.03825033
_cell_formula_units_Z   1
loop_
 _symmetry_equiv_pos_site_id
 _symmetry_equiv_pos_as_xyz
  1  'x, y, z'
loop_
 _atom_site_type_symbol
 _atom_site_label
 _atom_site_symmetry_multiplicity
 _atom_site_fract_x
 _atom_site_fract_y
 _atom_site_fract_z
 _atom_site_occupancy
  Nd  Nd0  1  0.000000  0.000000  0.000000  1
  As  As1  1  0.150211  0.803086  0.653258  1
  As  As2  1  0.849789  0.196914  0.346742  1
  As  As3  1  0.147029  0.497132  0.346904  1
  As  As4  1  0.852971  0.502868  0.653096  1
  As  As5  1  0.653258  0.150211  0.803086  1
  As  As6  1  0.346742  0.849789  0.196914  1
  As  As7  1  0.346904  0.147029  0.497132  1
  As  As8  1  0.653096  0.852971  0.502868  1
  As  As9  1  0.803086  0.653258  0.150211  1
  As  As10  1  0.196914  0.346742  0.849789  1
  As  As11  1  0.497132  0.346904  0.147029  1
  As  As12  1  0.502868  0.653096  0.852971  1
  Ru  Ru13  1  0.500000  0.000000  0.000000  1
  Ru  Ru14  1  0.000000  0.000000  0.500000  1
  Ru  Ru15  1  0.000000  0.500000  0.000000  1
  Rh  Rh16  1  0.500000  0.500000  0.500000  1
