# generated using pymatgen
data_LaLuSe2
_symmetry_space_group_name_H-M   'P 1'
_cell_length_a   7.38722513
_cell_length_b   7.38722525
_cell_length_c   7.38722499
_cell_angle_alpha   32.08892234
_cell_angle_beta   32.08891891
_cell_angle_gamma   32.08892346
_symmetry_Int_Tables_number   1
_chemical_formula_structural   LaLuSe2
_chemical_formula_sum   'La1 Lu1 Se2'
_cell_volume   101.09560761
_cell_formula_units_Z   1
loop_
 _symmetry_equiv_pos_site_id
 _symmetry_equiv_pos_as_xyz
  1  'x, y, z'
loop_
 _atom_site_type_symbol
 _atom_site_label
 _atom_site_symmetry_multiplicity
 _atom_site_fract_x
 _atom_site_fract_y
 _atom_site_fract_z
 _atom_site_occupancy
  La  La0  1  0.000000  0.000000  0.000000  1
  Lu  Lu1  1  0.500000  0.500000  0.500000  1
  Se  Se2  1  0.240809  0.240809  0.240809  1
  Se  Se3  1  0.759191  0.759191  0.759191  1
