# generated using pymatgen
data_TbAs4(RuRh)3
_symmetry_space_group_name_H-M   'P 1'
_cell_length_a   7.19458600
_cell_length_b   7.19458665
_cell_length_c   3.87216400
_cell_angle_alpha   90.00000000
_cell_angle_beta   90.00000000
_cell_angle_gamma   119.99999700
_symmetry_Int_Tables_number   1
_chemical_formula_structural   TbAs4(RuRh)3
_chemical_formula_sum   'Tb1 As4 Ru3 Rh3'
_cell_volume   173.57854505
_cell_formula_units_Z   1
loop_
 _symmetry_equiv_pos_site_id
 _symmetry_equiv_pos_as_xyz
  1  'x, y, z'
loop_
 _atom_site_type_symbol
 _atom_site_label
 _atom_site_symmetry_multiplicity
 _atom_site_fract_x
 _atom_site_fract_y
 _atom_site_fract_z
 _atom_site_occupancy
  Tb  Tb0  1  0.000000  0.000000  0.000000  1
  As  As1  1  0.805769  0.611536  0.500000  1
  As  As2  1  0.333333  0.666667  0.000000  1
  As  As3  1  0.388464  0.194231  0.500000  1
  As  As4  1  0.805769  0.194231  0.500000  1
  Ru  Ru5  1  0.533681  0.067364  0.000000  1
  Ru  Ru6  1  0.533681  0.466319  0.000000  1
  Ru  Ru7  1  0.932636  0.466319  0.000000  1
  Rh  Rh8  1  0.606079  0.803039  0.500000  1
  Rh  Rh9  1  0.196961  0.393921  0.500000  1
  Rh  Rh10  1  0.196961  0.803039  0.500000  1
