# generated using pymatgen
data_DyY18TmPb16
_symmetry_space_group_name_H-M   'P 1'
_cell_length_a   8.22296510
_cell_length_b   15.67797100
_cell_length_c   8.29311700
_cell_angle_alpha   90.00000000
_cell_angle_beta   89.99108125
_cell_angle_gamma   90.00000000
_symmetry_Int_Tables_number   1
_chemical_formula_structural   DyY18TmPb16
_chemical_formula_sum   'Dy1 Y18 Tm1 Pb16'
_cell_volume   1069.14372420
_cell_formula_units_Z   1
loop_
 _symmetry_equiv_pos_site_id
 _symmetry_equiv_pos_as_xyz
  1  'x, y, z'
loop_
 _atom_site_type_symbol
 _atom_site_label
 _atom_site_symmetry_multiplicity
 _atom_site_fract_x
 _atom_site_fract_y
 _atom_site_fract_z
 _atom_site_occupancy
  Dy  Dy0  1  0.709053  0.250000  0.996210  1
  Y  Y1  1  0.623266  0.620698  0.158764  1
  Y  Y2  1  0.122641  0.879116  0.341389  1
  Y  Y3  1  0.377113  0.120932  0.841525  1
  Y  Y4  1  0.876909  0.379085  0.658870  1
  Y  Y5  1  0.377113  0.379068  0.841525  1
  Y  Y6  1  0.876909  0.120915  0.658870  1
  Y  Y7  1  0.623266  0.879302  0.158764  1
  Y  Y8  1  0.122641  0.620884  0.341389  1
  Y  Y9  1  0.465159  0.600094  0.675681  1
  Y  Y10  1  0.964763  0.899932  0.824018  1
  Y  Y11  1  0.535154  0.100146  0.324003  1
  Y  Y12  1  0.035004  0.399789  0.175675  1
  Y  Y13  1  0.535154  0.399854  0.324003  1
  Y  Y14  1  0.035004  0.100211  0.175675  1
  Y  Y15  1  0.465159  0.899906  0.675681  1
  Y  Y16  1  0.964763  0.600068  0.824018  1
  Y  Y17  1  0.290985  0.750000  0.003608  1
  Y  Y18  1  0.209068  0.250000  0.503625  1
  Tm  Tm19  1  0.790649  0.750000  0.496148  1
  Pb  Pb20  1  0.718674  0.457122  0.967026  1
  Pb  Pb21  1  0.218677  0.042587  0.533373  1
  Pb  Pb22  1  0.281295  0.957363  0.033266  1
  Pb  Pb23  1  0.781428  0.543061  0.466838  1
  Pb  Pb24  1  0.281295  0.542637  0.033266  1
  Pb  Pb25  1  0.781428  0.956939  0.466838  1
  Pb  Pb26  1  0.718674  0.042878  0.967026  1
  Pb  Pb27  1  0.218677  0.457413  0.533373  1
  Pb  Pb28  1  0.428496  0.750000  0.374544  1
  Pb  Pb29  1  0.927281  0.750000  0.126370  1
  Pb  Pb30  1  0.572622  0.250000  0.626099  1
  Pb  Pb31  1  0.072071  0.250000  0.874422  1
  Pb  Pb32  1  0.653298  0.750000  0.846378  1
  Pb  Pb33  1  0.152286  0.750000  0.652218  1
  Pb  Pb34  1  0.347401  0.250000  0.152434  1
  Pb  Pb35  1  0.846620  0.250000  0.347090  1
