# generated using pymatgen
data_Tm2PaCo2
_symmetry_space_group_name_H-M   'P 1'
_cell_length_a   3.57985573
_cell_length_b   6.05574185
_cell_length_c   5.89360131
_cell_angle_alpha   120.91431864
_cell_angle_beta   107.68040047
_cell_angle_gamma   89.99999574
_symmetry_Int_Tables_number   1
_chemical_formula_structural   Tm2PaCo2
_chemical_formula_sum   'Tm2 Pa1 Co2'
_cell_volume   102.51676255
_cell_formula_units_Z   1
loop_
 _symmetry_equiv_pos_site_id
 _symmetry_equiv_pos_as_xyz
  1  'x, y, z'
loop_
 _atom_site_type_symbol
 _atom_site_label
 _atom_site_symmetry_multiplicity
 _atom_site_fract_x
 _atom_site_fract_y
 _atom_site_fract_z
 _atom_site_occupancy
  Tm  Tm0  1  0.808479  0.308479  0.616959  1
  Tm  Tm1  1  0.191521  0.691521  0.383041  1
  Pa  Pa2  1  0.000000  0.000000  0.000000  1
  Co  Co3  1  0.500000  0.284317  0.000000  1
  Co  Co4  1  0.500000  0.715683  0.000000  1
