# generated using pymatgen
data_Tb7ErCd3SnAu8
_symmetry_space_group_name_H-M   'P 1'
_cell_length_a   8.02582826
_cell_length_b   8.03430026
_cell_length_c   7.42143098
_cell_angle_alpha   89.99921140
_cell_angle_beta   90.05785836
_cell_angle_gamma   90.02951831
_symmetry_Int_Tables_number   1
_chemical_formula_structural   Tb7ErCd3SnAu8
_chemical_formula_sum   'Tb7 Er1 Cd3 Sn1 Au8'
_cell_volume   478.54776724
_cell_formula_units_Z   1
loop_
 _symmetry_equiv_pos_site_id
 _symmetry_equiv_pos_as_xyz
  1  'x, y, z'
loop_
 _atom_site_type_symbol
 _atom_site_label
 _atom_site_symmetry_multiplicity
 _atom_site_fract_x
 _atom_site_fract_y
 _atom_site_fract_z
 _atom_site_occupancy
  Tb  Tb0  1  0.185602  0.174726  0.000587  1
  Tb  Tb1  1  0.326664  0.685852  0.499586  1
  Tb  Tb2  1  0.673972  0.314970  0.499611  1
  Tb  Tb3  1  0.816241  0.826684  0.000414  1
  Tb  Tb4  1  0.342480  0.667265  0.000061  1
  Tb  Tb5  1  0.655782  0.329829  0.999752  1
  Tb  Tb6  1  0.830975  0.843464  0.500076  1
  Er  Er7  1  0.167624  0.155855  0.499717  1
  Cd  Cd8  1  0.000268  0.500317  0.749822  1
  Cd  Cd9  1  0.499807  0.000180  0.250095  1
  Cd  Cd10  1  0.000214  0.500319  0.250287  1
  Sn  Sn11  1  0.498989  0.999988  0.750501  1
  Au  Au12  1  0.122032  0.866410  0.766185  1
  Au  Au13  1  0.876215  0.133186  0.234517  1
  Au  Au14  1  0.366116  0.373912  0.270122  1
  Au  Au15  1  0.635066  0.620060  0.734000  1
  Au  Au16  1  0.632316  0.624183  0.265223  1
  Au  Au17  1  0.880523  0.135832  0.765927  1
  Au  Au18  1  0.363362  0.377982  0.728591  1
  Au  Au19  1  0.125753  0.868984  0.234926  1
