# generated using pymatgen
data_Rb6AgPtO4
_symmetry_space_group_name_H-M   'P 1'
_cell_length_a   9.14497800
_cell_length_b   9.14497800
_cell_length_c   14.38569200
_cell_angle_alpha   90.00000000
_cell_angle_beta   90.00000000
_cell_angle_gamma   90.00000000
_symmetry_Int_Tables_number   1
_chemical_formula_structural   Rb6AgPtO4
_chemical_formula_sum   'Rb24 Ag4 Pt4 O16'
_cell_volume   1203.08437879
_cell_formula_units_Z   4
loop_
 _symmetry_equiv_pos_site_id
 _symmetry_equiv_pos_as_xyz
  1  'x, y, z'
loop_
 _atom_site_type_symbol
 _atom_site_label
 _atom_site_symmetry_multiplicity
 _atom_site_fract_x
 _atom_site_fract_y
 _atom_site_fract_z
 _atom_site_occupancy
  Rb  Rb0  1  0.037500  0.061760  0.748536  1
  Rb  Rb1  1  0.962500  0.938240  0.248536  1
  Rb  Rb2  1  0.061760  0.962500  0.498536  1
  Rb  Rb3  1  0.938240  0.037500  0.998536  1
  Rb  Rb4  1  0.437285  0.464385  0.752321  1
  Rb  Rb5  1  0.562715  0.535615  0.252321  1
  Rb  Rb6  1  0.464385  0.562715  0.502321  1
  Rb  Rb7  1  0.535615  0.437285  0.002321  1
  Rb  Rb8  1  0.443441  0.054442  0.750108  1
  Rb  Rb9  1  0.556559  0.945558  0.250108  1
  Rb  Rb10  1  0.054442  0.556559  0.500108  1
  Rb  Rb11  1  0.945558  0.443441  0.000108  1
  Rb  Rb12  1  0.028559  0.472832  0.749982  1
  Rb  Rb13  1  0.971441  0.527168  0.249982  1
  Rb  Rb14  1  0.472832  0.971441  0.499982  1
  Rb  Rb15  1  0.527168  0.028559  0.999982  1
  Rb  Rb16  1  0.343822  0.263922  0.357971  1
  Rb  Rb17  1  0.656178  0.736078  0.857971  1
  Rb  Rb18  1  0.263922  0.656178  0.107971  1
  Rb  Rb19  1  0.736078  0.343822  0.607971  1
  Rb  Rb20  1  0.236101  0.150822  0.139858  1
  Rb  Rb21  1  0.763899  0.849178  0.639858  1
  Rb  Rb22  1  0.150822  0.763899  0.889858  1
  Rb  Rb23  1  0.849178  0.236101  0.389858  1
  Ag  Ag24  1  0.760183  0.736745  0.415663  1
  Ag  Ag25  1  0.239817  0.263255  0.915663  1
  Ag  Ag26  1  0.736745  0.239817  0.165663  1
  Ag  Ag27  1  0.263255  0.760183  0.665663  1
  Pt  Pt28  1  0.762799  0.737347  0.084927  1
  Pt  Pt29  1  0.237201  0.262653  0.584927  1
  Pt  Pt30  1  0.737347  0.237201  0.834927  1
  Pt  Pt31  1  0.262653  0.762799  0.334927  1
  O  O32  1  0.736865  0.451387  0.830622  1
  O  O33  1  0.263135  0.548613  0.330622  1
  O  O34  1  0.451387  0.263135  0.580622  1
  O  O35  1  0.548613  0.736865  0.080622  1
  O  O36  1  0.039904  0.762346  0.669690  1
  O  O37  1  0.960096  0.237654  0.169690  1
  O  O38  1  0.762346  0.960096  0.419690  1
  O  O39  1  0.237654  0.039904  0.919690  1
  O  O40  1  0.487282  0.758948  0.666563  1
  O  O41  1  0.512718  0.241052  0.166563  1
  O  O42  1  0.758948  0.512718  0.416563  1
  O  O43  1  0.241052  0.487282  0.916563  1
  O  O44  1  0.739687  0.022393  0.833760  1
  O  O45  1  0.260313  0.977607  0.333760  1
  O  O46  1  0.022393  0.260313  0.583760  1
  O  O47  1  0.977607  0.739687  0.083760  1
