# generated using pymatgen
data_Er20IrRuRh10
_symmetry_space_group_name_H-M   'P 1'
_cell_length_a   10.77965490
_cell_length_b   10.77810839
_cell_length_c   6.35063838
_cell_angle_alpha   89.96291594
_cell_angle_beta   90.01411715
_cell_angle_gamma   90.10839720
_symmetry_Int_Tables_number   1
_chemical_formula_structural   Er20IrRuRh10
_chemical_formula_sum   'Er20 Ir1 Ru1 Rh10'
_cell_volume   737.84290727
_cell_formula_units_Z   1
loop_
 _symmetry_equiv_pos_site_id
 _symmetry_equiv_pos_as_xyz
  1  'x, y, z'
loop_
 _atom_site_type_symbol
 _atom_site_label
 _atom_site_symmetry_multiplicity
 _atom_site_fract_x
 _atom_site_fract_y
 _atom_site_fract_z
 _atom_site_occupancy
  Er  Er0  1  0.292273  0.087155  0.378786  1
  Er  Er1  1  0.293400  0.910768  0.884131  1
  Er  Er2  1  0.706318  0.087316  0.883249  1
  Er  Er3  1  0.706929  0.912061  0.377323  1
  Er  Er4  1  0.585642  0.792414  0.883198  1
  Er  Er5  1  0.587607  0.207427  0.378352  1
  Er  Er6  1  0.411704  0.791782  0.379242  1
  Er  Er7  1  0.411859  0.205944  0.882805  1
  Er  Er8  1  0.210409  0.412865  0.621110  1
  Er  Er9  1  0.210007  0.588832  0.118828  1
  Er  Er10  1  0.791100  0.411725  0.119253  1
  Er  Er11  1  0.791377  0.589890  0.620949  1
  Er  Er12  1  0.912108  0.709501  0.119232  1
  Er  Er13  1  0.911240  0.290946  0.620769  1
  Er  Er14  1  0.091281  0.709448  0.620540  1
  Er  Er15  1  0.088758  0.291271  0.120664  1
  Er  Er16  1  0.999097  0.000031  0.497715  1
  Er  Er17  1  0.999961  0.000874  0.997203  1
  Er  Er18  1  0.499887  0.499227  0.997346  1
  Er  Er19  1  0.500654  0.500148  0.497240  1
  Ir  Ir20  1  0.346612  0.653125  0.749218  1
  Ru  Ru21  1  0.499897  0.000259  0.132182  1
  Rh  Rh22  1  0.847316  0.155311  0.249963  1
  Rh  Rh23  1  0.845671  0.846508  0.751385  1
  Rh  Rh24  1  0.152253  0.154405  0.748414  1
  Rh  Rh25  1  0.151288  0.845830  0.247960  1
  Rh  Rh26  1  0.654327  0.346386  0.749812  1
  Rh  Rh27  1  0.656601  0.652021  0.248464  1
  Rh  Rh28  1  0.345131  0.346391  0.249589  1
  Rh  Rh29  1  0.500057  0.000456  0.628272  1
  Rh  Rh30  1  0.999188  0.499548  0.873151  1
  Rh  Rh31  1  0.000050  0.500135  0.373652  1
