# generated using pymatgen
data_Yb7Sc(Si4Mo3)4
_symmetry_space_group_name_H-M   'P 1'
_cell_length_a   6.70273086
_cell_length_b   6.89930191
_cell_length_c   13.00741779
_cell_angle_alpha   89.82646048
_cell_angle_beta   89.99354955
_cell_angle_gamma   89.91473292
_symmetry_Int_Tables_number   1
_chemical_formula_structural   Yb7Sc(Si4Mo3)4
_chemical_formula_sum   'Yb7 Sc1 Si16 Mo12'
_cell_volume   601.51373006
_cell_formula_units_Z   1
loop_
 _symmetry_equiv_pos_site_id
 _symmetry_equiv_pos_as_xyz
  1  'x, y, z'
loop_
 _atom_site_type_symbol
 _atom_site_label
 _atom_site_symmetry_multiplicity
 _atom_site_fract_x
 _atom_site_fract_y
 _atom_site_fract_z
 _atom_site_occupancy
  Yb  Yb0  1  0.498033  0.333783  0.089998  1
  Yb  Yb1  1  0.998273  0.166237  0.409615  1
  Yb  Yb2  1  0.501620  0.666155  0.590736  1
  Yb  Yb3  1  0.000953  0.831576  0.909452  1
  Yb  Yb4  1  0.500580  0.667507  0.910183  1
  Yb  Yb5  1  0.001714  0.833186  0.590544  1
  Yb  Yb6  1  0.498175  0.333504  0.408567  1
  Sc  Sc7  1  0.998649  0.173000  0.095300  1
  Si  Si8  1  0.657927  0.043435  0.545576  1
  Si  Si9  1  0.157951  0.453736  0.956669  1
  Si  Si10  1  0.335047  0.960856  0.046004  1
  Si  Si11  1  0.841543  0.543929  0.454274  1
  Si  Si12  1  0.342343  0.955878  0.454027  1
  Si  Si13  1  0.842664  0.538834  0.045893  1
  Si  Si14  1  0.661251  0.042626  0.956330  1
  Si  Si15  1  0.158323  0.456812  0.545450  1
  Si  Si16  1  0.534685  0.374321  0.750723  1
  Si  Si17  1  0.034642  0.124575  0.749788  1
  Si  Si18  1  0.465376  0.628191  0.248695  1
  Si  Si19  1  0.966311  0.875576  0.247997  1
  Si  Si20  1  0.800343  0.632206  0.750424  1
  Si  Si21  1  0.300611  0.866491  0.750277  1
  Si  Si22  1  0.197726  0.364889  0.248865  1
  Si  Si23  1  0.700730  0.134522  0.248760  1
  Mo  Mo24  1  0.834712  0.331455  0.628335  1
  Mo  Mo25  1  0.333988  0.167820  0.873003  1
  Mo  Mo26  1  0.166112  0.667172  0.126455  1
  Mo  Mo27  1  0.666649  0.832516  0.370930  1
  Mo  Mo28  1  0.165258  0.668300  0.370533  1
  Mo  Mo29  1  0.668533  0.834811  0.126231  1
  Mo  Mo30  1  0.836481  0.328682  0.873982  1
  Mo  Mo31  1  0.335151  0.168114  0.628107  1
  Mo  Mo32  1  0.660763  0.008315  0.750904  1
  Mo  Mo33  1  0.160672  0.490513  0.750714  1
  Mo  Mo34  1  0.337358  0.994015  0.248232  1
  Mo  Mo35  1  0.838850  0.506461  0.248427  1
