# generated using pymatgen
data_BaHf(TcO4)6
_symmetry_space_group_name_H-M   'P 1'
_cell_length_a   10.34457200
_cell_length_b   10.34457088
_cell_length_c   6.11442100
_cell_angle_alpha   90.00000000
_cell_angle_beta   90.00000000
_cell_angle_gamma   119.99999080
_symmetry_Int_Tables_number   1
_chemical_formula_structural   BaHf(TcO4)6
_chemical_formula_sum   'Ba1 Hf1 Tc6 O24'
_cell_volume   566.64494180
_cell_formula_units_Z   1
loop_
 _symmetry_equiv_pos_site_id
 _symmetry_equiv_pos_as_xyz
  1  'x, y, z'
loop_
 _atom_site_type_symbol
 _atom_site_label
 _atom_site_symmetry_multiplicity
 _atom_site_fract_x
 _atom_site_fract_y
 _atom_site_fract_z
 _atom_site_occupancy
  Ba  Ba0  1  0.333333  0.666667  0.250000  1
  Hf  Hf1  1  0.666667  0.333333  0.750000  1
  Tc  Tc2  1  0.049546  0.362020  0.750000  1
  Tc  Tc3  1  0.417299  0.300525  0.250000  1
  Tc  Tc4  1  0.637980  0.687524  0.750000  1
  Tc  Tc5  1  0.883225  0.582701  0.250000  1
  Tc  Tc6  1  0.312476  0.950454  0.750000  1
  Tc  Tc7  1  0.699475  0.116775  0.250000  1
  O  O8  1  0.524883  0.650362  0.522686  1
  O  O9  1  0.349638  0.874521  0.522686  1
  O  O10  1  0.797740  0.687608  0.250000  1
  O  O11  1  0.128837  0.904266  0.750000  1
  O  O12  1  0.312392  0.110132  0.250000  1
  O  O13  1  0.095734  0.224572  0.750000  1
  O  O14  1  0.531849  0.361123  0.014599  1
  O  O15  1  0.889868  0.202260  0.250000  1
  O  O16  1  0.073293  0.700522  0.250000  1
  O  O17  1  0.125479  0.475117  0.977314  1
  O  O18  1  0.125479  0.475117  0.522686  1
  O  O19  1  0.852946  0.286933  0.750000  1
  O  O20  1  0.299478  0.372772  0.250000  1
  O  O21  1  0.713067  0.566013  0.750000  1
  O  O22  1  0.829275  0.468151  0.485401  1
  O  O23  1  0.433987  0.147054  0.750000  1
  O  O24  1  0.638877  0.170725  0.014599  1
  O  O25  1  0.524883  0.650362  0.977314  1
  O  O26  1  0.349638  0.874521  0.977314  1
  O  O27  1  0.638877  0.170725  0.485401  1
  O  O28  1  0.531849  0.361123  0.485401  1
  O  O29  1  0.829275  0.468151  0.014599  1
  O  O30  1  0.775428  0.871163  0.750000  1
  O  O31  1  0.627228  0.926707  0.250000  1
