# generated using pymatgen
data_YTmLu4FeSb2
_symmetry_space_group_name_H-M   'P 1'
_cell_length_a   8.03292135
_cell_length_b   8.04774126
_cell_length_c   4.10120900
_cell_angle_alpha   90.00000000
_cell_angle_beta   90.00000000
_cell_angle_gamma   120.10199133
_symmetry_Int_Tables_number   1
_chemical_formula_structural   YTmLu4FeSb2
_chemical_formula_sum   'Y1 Tm1 Lu4 Fe1 Sb2'
_cell_volume   229.37326539
_cell_formula_units_Z   1
loop_
 _symmetry_equiv_pos_site_id
 _symmetry_equiv_pos_as_xyz
  1  'x, y, z'
loop_
 _atom_site_type_symbol
 _atom_site_label
 _atom_site_symmetry_multiplicity
 _atom_site_fract_x
 _atom_site_fract_y
 _atom_site_fract_z
 _atom_site_occupancy
  Y  Y0  1  0.999403  0.604204  0.500000  1
  Tm  Tm1  1  0.607269  0.999533  0.500000  1
  Lu  Lu2  1  0.233685  0.000767  0.000000  1
  Lu  Lu3  1  0.767644  0.768381  0.000000  1
  Lu  Lu4  1  0.999999  0.233656  0.000000  1
  Lu  Lu5  1  0.390655  0.390829  0.500000  1
  Fe  Fe6  1  0.002446  0.004843  0.500000  1
  Sb  Sb7  1  0.334934  0.665885  0.000000  1
  Sb  Sb8  1  0.663965  0.331902  0.000000  1
