# generated using pymatgen
data_CsY3Se5
_symmetry_space_group_name_H-M   'P 1'
_cell_length_a   4.16291000
_cell_length_b   12.52677000
_cell_length_c   22.32121600
_cell_angle_alpha   90.00000000
_cell_angle_beta   90.00000000
_cell_angle_gamma   90.00000000
_symmetry_Int_Tables_number   1
_chemical_formula_structural   CsY3Se5
_chemical_formula_sum   'Cs4 Y12 Se20'
_cell_volume   1164.00266711
_cell_formula_units_Z   4
loop_
 _symmetry_equiv_pos_site_id
 _symmetry_equiv_pos_as_xyz
  1  'x, y, z'
loop_
 _atom_site_type_symbol
 _atom_site_label
 _atom_site_symmetry_multiplicity
 _atom_site_fract_x
 _atom_site_fract_y
 _atom_site_fract_z
 _atom_site_occupancy
  Cs  Cs0  1  0.250000  0.853395  0.092375  1
  Cs  Cs1  1  0.750000  0.146605  0.907625  1
  Cs  Cs2  1  0.750000  0.353395  0.407625  1
  Cs  Cs3  1  0.250000  0.646605  0.592375  1
  Y  Y4  1  0.750000  0.796879  0.825295  1
  Y  Y5  1  0.250000  0.203121  0.174705  1
  Y  Y6  1  0.250000  0.296879  0.674705  1
  Y  Y7  1  0.750000  0.703121  0.325295  1
  Y  Y8  1  0.250000  0.957376  0.697845  1
  Y  Y9  1  0.750000  0.042624  0.302155  1
  Y  Y10  1  0.750000  0.457376  0.802155  1
  Y  Y11  1  0.250000  0.542624  0.197845  1
  Y  Y12  1  0.750000  0.391856  0.054026  1
  Y  Y13  1  0.250000  0.608144  0.945974  1
  Y  Y14  1  0.250000  0.891856  0.445974  1
  Y  Y15  1  0.750000  0.108144  0.554026  1
  Se  Se16  1  0.250000  0.948132  0.569006  1
  Se  Se17  1  0.750000  0.051868  0.430994  1
  Se  Se18  1  0.750000  0.448132  0.930994  1
  Se  Se19  1  0.250000  0.551868  0.069006  1
  Se  Se20  1  0.750000  0.764424  0.952370  1
  Se  Se21  1  0.250000  0.235576  0.047630  1
  Se  Se22  1  0.250000  0.264424  0.547630  1
  Se  Se23  1  0.750000  0.735576  0.452370  1
  Se  Se24  1  0.250000  0.949574  0.825514  1
  Se  Se25  1  0.750000  0.050426  0.174486  1
  Se  Se26  1  0.750000  0.449574  0.674486  1
  Se  Se27  1  0.250000  0.550426  0.325514  1
  Se  Se28  1  0.750000  0.126041  0.684771  1
  Se  Se29  1  0.250000  0.873959  0.315229  1
  Se  Se30  1  0.250000  0.626041  0.815229  1
  Se  Se31  1  0.750000  0.373959  0.184771  1
  Se  Se32  1  0.750000  0.693942  0.197610  1
  Se  Se33  1  0.250000  0.306058  0.802390  1
  Se  Se34  1  0.250000  0.193942  0.302390  1
  Se  Se35  1  0.750000  0.806058  0.697610  1
