# generated using pymatgen
data_Tm16MgIn3Pt4
_symmetry_space_group_name_H-M   'P 1'
_cell_length_a   9.63264768
_cell_length_b   9.59665485
_cell_length_c   9.59665500
_cell_angle_alpha   60.00000292
_cell_angle_beta   60.12353009
_cell_angle_gamma   60.12352256
_symmetry_Int_Tables_number   1
_chemical_formula_structural   Tm16MgIn3Pt4
_chemical_formula_sum   'Tm16 Mg1 In3 Pt4'
_cell_volume   628.46167447
_cell_formula_units_Z   1
loop_
 _symmetry_equiv_pos_site_id
 _symmetry_equiv_pos_as_xyz
  1  'x, y, z'
loop_
 _atom_site_type_symbol
 _atom_site_label
 _atom_site_symmetry_multiplicity
 _atom_site_fract_x
 _atom_site_fract_y
 _atom_site_fract_z
 _atom_site_occupancy
  Tm  Tm0  1  0.600952  0.599981  0.599981  1
  Tm  Tm1  1  0.600952  0.599981  0.199086  1
  Tm  Tm2  1  0.600952  0.199086  0.599981  1
  Tm  Tm3  1  0.196592  0.601136  0.601136  1
  Tm  Tm4  1  0.059031  0.440382  0.440382  1
  Tm  Tm5  1  0.437565  0.061964  0.061964  1
  Tm  Tm6  1  0.437565  0.061964  0.438507  1
  Tm  Tm7  1  0.059031  0.440382  0.060206  1
  Tm  Tm8  1  0.437565  0.438507  0.061964  1
  Tm  Tm9  1  0.059031  0.060206  0.440382  1
  Tm  Tm10  1  0.185383  0.814262  0.814262  1
  Tm  Tm11  1  0.814252  0.186827  0.186827  1
  Tm  Tm12  1  0.814252  0.186827  0.812095  1
  Tm  Tm13  1  0.185383  0.814262  0.186093  1
  Tm  Tm14  1  0.814252  0.812095  0.186827  1
  Tm  Tm15  1  0.185383  0.186093  0.814262  1
  Mg  Mg16  1  0.514389  0.828536  0.828536  1
  In  In17  1  0.832895  0.833473  0.833473  1
  In  In18  1  0.832895  0.833473  0.500158  1
  In  In19  1  0.832895  0.500158  0.833473  1
  Pt  Pt20  1  0.392202  0.393045  0.393045  1
  Pt  Pt21  1  0.392202  0.393045  0.821709  1
  Pt  Pt22  1  0.392202  0.821709  0.393045  1
  Pt  Pt23  1  0.822179  0.392608  0.392608  1
