# generated using pymatgen
data_WSF34
_symmetry_space_group_name_H-M   'P 1'
_cell_length_a   8.79418658
_cell_length_b   8.56982218
_cell_length_c   10.11013714
_cell_angle_alpha   81.49106484
_cell_angle_beta   86.89388880
_cell_angle_gamma   66.68804759
_symmetry_Int_Tables_number   1
_chemical_formula_structural   WSF34
_chemical_formula_sum   'W1 S1 F34'
_cell_volume   692.03397444
_cell_formula_units_Z   1
loop_
 _symmetry_equiv_pos_site_id
 _symmetry_equiv_pos_as_xyz
  1  'x, y, z'
loop_
 _atom_site_type_symbol
 _atom_site_label
 _atom_site_symmetry_multiplicity
 _atom_site_fract_x
 _atom_site_fract_y
 _atom_site_fract_z
 _atom_site_occupancy
  W  W0  1  0.134855  0.749778  0.240062  1
  S  S1  1  0.862371  0.249364  0.761577  1
  F  F2  1  0.613590  0.198698  0.484753  1
  F  F3  1  0.399587  0.789219  0.517262  1
  F  F4  1  0.827021  0.699649  0.715116  1
  F  F5  1  0.174215  0.300292  0.283879  1
  F  F6  1  0.085229  0.759028  0.860707  1
  F  F7  1  0.916785  0.231050  0.139496  1
  F  F8  1  0.554293  0.147514  0.376725  1
  F  F9  1  0.440491  0.858292  0.624005  1
  F  F10  1  0.676116  0.312985  0.709240  1
  F  F11  1  0.353874  0.675866  0.301355  1
  F  F12  1  0.918465  0.094283  0.675313  1
  F  F13  1  0.061015  0.926246  0.347635  1
  F  F14  1  0.900827  0.366635  0.637828  1
  F  F15  1  0.090823  0.608920  0.384150  1
  F  F16  1  0.858721  0.812996  0.609959  1
  F  F17  1  0.148513  0.183698  0.389649  1
  F  F18  1  0.806247  0.405005  0.847876  1
  F  F19  1  0.201761  0.567576  0.137534  1
  F  F20  1  0.214961  0.687720  0.769420  1
  F  F21  1  0.786395  0.314816  0.226428  1
  F  F22  1  0.920397  0.824072  0.169745  1
  F  F23  1  0.047496  0.185972  0.815161  1
  F  F24  1  0.822923  0.131718  0.885280  1
  F  F25  1  0.182822  0.893982  0.099964  1
  F  F26  1  0.491314  0.589450  0.981329  1
  F  F27  1  0.516776  0.413234  0.013779  1
  F  F28  1  0.454388  0.088813  0.867338  1
  F  F29  1  0.538243  0.923451  0.133138  1
  F  F30  1  0.287332  0.244295  0.610661  1
  F  F31  1  0.711122  0.755242  0.386707  1
  F  F32  1  0.258706  0.389524  0.676616  1
  F  F33  1  0.746835  0.604956  0.325412  1
  F  F34  1  0.557004  0.922347  0.836094  1
  F  F35  1  0.438487  0.093318  0.158807  1
