# generated using pymatgen
data_Y3Er2P12Ir16Os3
_symmetry_space_group_name_H-M   'P 1'
_cell_length_a   12.68286100
_cell_length_b   12.68286054
_cell_length_c   3.98962800
_cell_angle_alpha   90.00000000
_cell_angle_beta   90.00000000
_cell_angle_gamma   120.00000381
_symmetry_Int_Tables_number   1
_chemical_formula_structural   Y3Er2P12Ir16Os3
_chemical_formula_sum   'Y3 Er2 P12 Ir16 Os3'
_cell_volume   555.77303010
_cell_formula_units_Z   1
loop_
 _symmetry_equiv_pos_site_id
 _symmetry_equiv_pos_as_xyz
  1  'x, y, z'
loop_
 _atom_site_type_symbol
 _atom_site_label
 _atom_site_symmetry_multiplicity
 _atom_site_fract_x
 _atom_site_fract_y
 _atom_site_fract_z
 _atom_site_occupancy
  Y  Y0  1  0.817290  0.817290  0.500000  1
  Y  Y1  1  0.182710  0.000000  0.500000  1
  Y  Y2  1  0.000000  0.182710  0.500000  1
  Er  Er3  1  0.666667  0.333333  0.000000  1
  Er  Er4  1  0.333333  0.666667  0.000000  1
  P  P5  1  0.690244  0.171309  0.500000  1
  P  P6  1  0.828691  0.518934  0.500000  1
  P  P7  1  0.481066  0.309756  0.500000  1
  P  P8  1  0.171309  0.690244  0.500000  1
  P  P9  1  0.518934  0.828691  0.500000  1
  P  P10  1  0.309756  0.481066  0.500000  1
  P  P11  1  0.641921  0.641921  0.000000  1
  P  P12  1  0.358079  0.000000  0.000000  1
  P  P13  1  0.000000  0.358079  0.000000  1
  P  P14  1  0.181386  0.181386  0.000000  1
  P  P15  1  0.818614  0.000000  0.000000  1
  P  P16  1  0.000000  0.818614  0.000000  1
  Ir  Ir17  1  0.804867  0.183159  0.000000  1
  Ir  Ir18  1  0.816841  0.621709  0.000000  1
  Ir  Ir19  1  0.378291  0.195133  0.000000  1
  Ir  Ir20  1  0.183159  0.804867  0.000000  1
  Ir  Ir21  1  0.621709  0.816841  0.000000  1
  Ir  Ir22  1  0.195133  0.378291  0.000000  1
  Ir  Ir23  1  0.460498  0.460498  0.000000  1
  Ir  Ir24  1  0.539502  0.000000  0.000000  1
  Ir  Ir25  1  0.000000  0.539502  0.000000  1
  Ir  Ir26  1  0.867889  0.362898  0.500000  1
  Ir  Ir27  1  0.637102  0.504990  0.500000  1
  Ir  Ir28  1  0.495010  0.132111  0.500000  1
  Ir  Ir29  1  0.362898  0.867889  0.500000  1
  Ir  Ir30  1  0.504990  0.637102  0.500000  1
  Ir  Ir31  1  0.132111  0.495010  0.500000  1
  Ir  Ir32  1  0.000000  0.000000  0.000000  1
  Os  Os33  1  0.286224  0.286224  0.500000  1
  Os  Os34  1  0.713776  0.000000  0.500000  1
  Os  Os35  1  0.000000  0.713776  0.500000  1
