# generated using pymatgen
data_La4ErIr2Rh
_symmetry_space_group_name_H-M   'P 1'
_cell_length_a   11.31600300
_cell_length_b   11.31600300
_cell_length_c   6.61275100
_cell_angle_alpha   90.00000000
_cell_angle_beta   90.00000000
_cell_angle_gamma   90.00000000
_symmetry_Int_Tables_number   1
_chemical_formula_structural   La4ErIr2Rh
_chemical_formula_sum   'La16 Er4 Ir8 Rh4'
_cell_volume   846.77548780
_cell_formula_units_Z   4
loop_
 _symmetry_equiv_pos_site_id
 _symmetry_equiv_pos_as_xyz
  1  'x, y, z'
loop_
 _atom_site_type_symbol
 _atom_site_label
 _atom_site_symmetry_multiplicity
 _atom_site_fract_x
 _atom_site_fract_y
 _atom_site_fract_z
 _atom_site_occupancy
  La  La0  1  0.286605  0.087965  0.390641  1
  La  La1  1  0.286605  0.912035  0.890641  1
  La  La2  1  0.713395  0.087965  0.890641  1
  La  La3  1  0.713395  0.912035  0.390641  1
  La  La4  1  0.587965  0.786605  0.890641  1
  La  La5  1  0.587965  0.213395  0.390641  1
  La  La6  1  0.412035  0.786605  0.390641  1
  La  La7  1  0.412035  0.213395  0.890641  1
  La  La8  1  0.213395  0.412035  0.609359  1
  La  La9  1  0.213395  0.587965  0.109359  1
  La  La10  1  0.786605  0.412035  0.109359  1
  La  La11  1  0.786605  0.587965  0.609359  1
  La  La12  1  0.912035  0.713395  0.109359  1
  La  La13  1  0.912035  0.286605  0.609359  1
  La  La14  1  0.087965  0.713395  0.609359  1
  La  La15  1  0.087965  0.286605  0.109359  1
  Er  Er16  1  0.000000  0.000000  0.500000  1
  Er  Er17  1  0.000000  0.000000  0.000000  1
  Er  Er18  1  0.500000  0.500000  0.000000  1
  Er  Er19  1  0.500000  0.500000  0.500000  1
  Ir  Ir20  1  0.851716  0.148284  0.250000  1
  Ir  Ir21  1  0.851716  0.851716  0.750000  1
  Ir  Ir22  1  0.148284  0.148284  0.750000  1
  Ir  Ir23  1  0.148284  0.851716  0.250000  1
  Ir  Ir24  1  0.648284  0.351716  0.750000  1
  Ir  Ir25  1  0.648284  0.648284  0.250000  1
  Ir  Ir26  1  0.351716  0.351716  0.250000  1
  Ir  Ir27  1  0.351716  0.648284  0.750000  1
  Rh  Rh28  1  0.500000  0.000000  0.117198  1
  Rh  Rh29  1  0.500000  0.000000  0.617198  1
  Rh  Rh30  1  0.000000  0.500000  0.882802  1
  Rh  Rh31  1  0.000000  0.500000  0.382802  1
