# generated using pymatgen
data_YbGd3H10
_symmetry_space_group_name_H-M   'P 1'
_cell_length_a   6.44556374
_cell_length_b   6.44556339
_cell_length_c   6.44556310
_cell_angle_alpha   131.88683416
_cell_angle_beta   131.48047897
_cell_angle_gamma   70.72962077
_symmetry_Int_Tables_number   1
_chemical_formula_structural   YbGd3H10
_chemical_formula_sum   'Yb1 Gd3 H10'
_cell_volume   146.29919894
_cell_formula_units_Z   1
loop_
 _symmetry_equiv_pos_site_id
 _symmetry_equiv_pos_as_xyz
  1  'x, y, z'
loop_
 _atom_site_type_symbol
 _atom_site_label
 _atom_site_symmetry_multiplicity
 _atom_site_fract_x
 _atom_site_fract_y
 _atom_site_fract_z
 _atom_site_occupancy
  Yb  Yb0  1  0.507796  0.007796  0.500000  1
  Gd  Gd1  1  0.239086  0.239086  0.000000  1
  Gd  Gd2  1  0.990333  0.490333  0.500000  1
  Gd  Gd3  1  0.759329  0.759329  0.000000  1
  H  H4  1  0.600728  0.619648  0.473770  1
  H  H5  1  0.145878  0.126956  0.526230  1
  H  H6  1  0.600728  0.126956  0.981078  1
  H  H7  1  0.145878  0.619648  0.018922  1
  H  H8  1  0.373656  0.403749  0.524660  1
  H  H9  1  0.879089  0.848996  0.475340  1
  H  H10  1  0.879089  0.403749  0.030093  1
  H  H11  1  0.373656  0.848996  0.969907  1
  H  H12  1  0.755735  0.255735  0.500000  1
  H  H13  1  0.999018  0.999018  0.000000  1
