# generated using pymatgen
data_Zr4V4GaP3
_symmetry_space_group_name_H-M   'P 1'
_cell_length_a   3.50798900
_cell_length_b   6.75110329
_cell_length_c   8.07218409
_cell_angle_alpha   89.49954887
_cell_angle_beta   90.00000000
_cell_angle_gamma   90.00000000
_symmetry_Int_Tables_number   1
_chemical_formula_structural   Zr4V4GaP3
_chemical_formula_sum   'Zr4 V4 Ga1 P3'
_cell_volume   191.16459733
_cell_formula_units_Z   1
loop_
 _symmetry_equiv_pos_site_id
 _symmetry_equiv_pos_as_xyz
  1  'x, y, z'
loop_
 _atom_site_type_symbol
 _atom_site_label
 _atom_site_symmetry_multiplicity
 _atom_site_fract_x
 _atom_site_fract_y
 _atom_site_fract_z
 _atom_site_occupancy
  Zr  Zr0  1  0.250000  0.041166  0.829252  1
  Zr  Zr1  1  0.750000  0.963195  0.160617  1
  Zr  Zr2  1  0.250000  0.541330  0.672752  1
  Zr  Zr3  1  0.750000  0.445482  0.330715  1
  V  V4  1  0.750000  0.370765  0.941598  1
  V  V5  1  0.250000  0.622260  0.050661  1
  V  V6  1  0.750000  0.883455  0.565672  1
  V  V7  1  0.250000  0.132010  0.446669  1
  Ga  Ga8  1  0.250000  0.757491  0.363231  1
  P  P9  1  0.750000  0.244048  0.638731  1
  P  P10  1  0.250000  0.261180  0.135649  1
  P  P11  1  0.750000  0.737619  0.864452  1
