# generated using pymatgen
data_NdGd(YB5)2
_symmetry_space_group_name_H-M   'P 1'
_cell_length_a   7.16527200
_cell_length_b   7.15365962
_cell_length_c   7.18665737
_cell_angle_alpha   76.89772659
_cell_angle_beta   90.00000000
_cell_angle_gamma   90.00000000
_symmetry_Int_Tables_number   1
_chemical_formula_structural   NdGd(YB5)2
_chemical_formula_sum   'Nd2 Gd2 Y4 B20'
_cell_volume   358.78322045
_cell_formula_units_Z   2
loop_
 _symmetry_equiv_pos_site_id
 _symmetry_equiv_pos_as_xyz
  1  'x, y, z'
loop_
 _atom_site_type_symbol
 _atom_site_label
 _atom_site_symmetry_multiplicity
 _atom_site_fract_x
 _atom_site_fract_y
 _atom_site_fract_z
 _atom_site_occupancy
  Nd  Nd0  1  0.689560  0.776771  0.624603  1
  Nd  Nd1  1  0.189560  0.223229  0.875397  1
  Gd  Gd2  1  0.307476  0.231813  0.372431  1
  Gd  Gd3  1  0.807476  0.768187  0.127569  1
  Y  Y4  1  0.315125  0.755231  0.254208  1
  Y  Y5  1  0.815125  0.244769  0.245792  1
  Y  Y6  1  0.684433  0.246089  0.746379  1
  Y  Y7  1  0.184433  0.753911  0.753621  1
  B  B8  1  0.503635  0.314194  0.041641  1
  B  B9  1  0.003635  0.685806  0.458359  1
  B  B10  1  0.497123  0.684874  0.961946  1
  B  B11  1  0.997123  0.315126  0.538054  1
  B  B12  1  0.490384  0.923924  0.930809  1
  B  B13  1  0.990384  0.076076  0.569191  1
  B  B14  1  0.514605  0.073909  0.076484  1
  B  B15  1  0.014605  0.926091  0.423516  1
  B  B16  1  0.326490  0.496584  0.040655  1
  B  B17  1  0.826490  0.503416  0.459345  1
  B  B18  1  0.672966  0.503540  0.961085  1
  B  B19  1  0.172966  0.496460  0.538915  1
  B  B20  1  0.909825  0.499924  0.910312  1
  B  B21  1  0.409825  0.500076  0.589688  1
  B  B22  1  0.089247  0.501888  0.089360  1
  B  B23  1  0.589247  0.498112  0.410640  1
  B  B24  1  0.961037  0.497419  0.672693  1
  B  B25  1  0.461037  0.502581  0.827307  1
  B  B26  1  0.038093  0.503861  0.325403  1
  B  B27  1  0.538093  0.496139  0.174597  1
