# generated using pymatgen
data_YEr3Al17Co6Si
_symmetry_space_group_name_H-M   'P 1'
_cell_length_a   7.37028413
_cell_length_b   7.36922841
_cell_length_c   9.23914500
_cell_angle_alpha   90.00000000
_cell_angle_beta   90.00000000
_cell_angle_gamma   119.27495010
_symmetry_Int_Tables_number   1
_chemical_formula_structural   YEr3Al17Co6Si
_chemical_formula_sum   'Y1 Er3 Al17 Co6 Si1'
_cell_volume   437.71911649
_cell_formula_units_Z   1
loop_
 _symmetry_equiv_pos_site_id
 _symmetry_equiv_pos_as_xyz
  1  'x, y, z'
loop_
 _atom_site_type_symbol
 _atom_site_label
 _atom_site_symmetry_multiplicity
 _atom_site_fract_x
 _atom_site_fract_y
 _atom_site_fract_z
 _atom_site_occupancy
  Y  Y0  1  0.328273  0.006057  0.750000  1
  Er  Er1  1  0.992691  0.677454  0.250000  1
  Er  Er2  1  0.005997  0.328324  0.750000  1
  Er  Er3  1  0.677557  0.992826  0.250000  1
  Al  Al4  1  0.876192  0.876708  0.750000  1
  Al  Al5  1  0.331349  0.331821  0.545639  1
  Al  Al6  1  0.665925  0.665925  0.041827  1
  Al  Al7  1  0.331349  0.331821  0.954361  1
  Al  Al8  1  0.665925  0.665925  0.458173  1
  Al  Al9  1  0.336342  0.554714  0.250000  1
  Al  Al10  1  0.661876  0.446119  0.750000  1
  Al  Al11  1  0.554713  0.336352  0.250000  1
  Al  Al12  1  0.445531  0.660729  0.750000  1
  Al  Al13  1  0.998447  0.336899  0.073471  1
  Al  Al14  1  0.001917  0.664592  0.570887  1
  Al  Al15  1  0.336933  0.998476  0.426006  1
  Al  Al16  1  0.665698  0.002475  0.929145  1
  Al  Al17  1  0.001917  0.664592  0.929113  1
  Al  Al18  1  0.998447  0.336899  0.426529  1
  Al  Al19  1  0.665698  0.002475  0.570855  1
  Al  Al20  1  0.336933  0.998476  0.073994  1
  Co  Co21  1  0.000632  0.000829  0.008673  1
  Co  Co22  1  0.000632  0.000829  0.491327  1
  Co  Co23  1  0.669836  0.327805  0.000925  1
  Co  Co24  1  0.327635  0.669491  0.499085  1
  Co  Co25  1  0.327635  0.669491  0.000915  1
  Co  Co26  1  0.669836  0.327805  0.499075  1
  Si  Si27  1  0.124084  0.124090  0.250000  1
