# generated using pymatgen
data_Dy7Er9InAg3Rh4
_symmetry_space_group_name_H-M   'P 1'
_cell_length_a   9.52047274
_cell_length_b   9.50726376
_cell_length_c   9.51093353
_cell_angle_alpha   60.15675637
_cell_angle_beta   60.11474479
_cell_angle_gamma   60.15897826
_symmetry_Int_Tables_number   1
_chemical_formula_structural   Dy7Er9InAg3Rh4
_chemical_formula_sum   'Dy7 Er9 In1 Ag3 Rh4'
_cell_volume   610.70486558
_cell_formula_units_Z   1
loop_
 _symmetry_equiv_pos_site_id
 _symmetry_equiv_pos_as_xyz
  1  'x, y, z'
loop_
 _atom_site_type_symbol
 _atom_site_label
 _atom_site_symmetry_multiplicity
 _atom_site_fract_x
 _atom_site_fract_y
 _atom_site_fract_z
 _atom_site_occupancy
  Dy  Dy0  1  0.189024  0.189958  0.810755  1
  Dy  Dy1  1  0.436557  0.062930  0.062883  1
  Dy  Dy2  1  0.435518  0.061160  0.434438  1
  Dy  Dy3  1  0.062733  0.436098  0.063484  1
  Dy  Dy4  1  0.648487  0.053810  0.647798  1
  Dy  Dy5  1  0.188948  0.811769  0.812806  1
  Dy  Dy6  1  0.062661  0.063440  0.435762  1
  Er  Er7  1  0.810305  0.189393  0.189132  1
  Er  Er8  1  0.812466  0.812437  0.189004  1
  Er  Er9  1  0.648065  0.648065  0.053844  1
  Er  Er10  1  0.648881  0.648012  0.648302  1
  Er  Er11  1  0.060345  0.436211  0.435125  1
  Er  Er12  1  0.053155  0.648418  0.647951  1
  Er  Er13  1  0.811952  0.189367  0.812772  1
  Er  Er14  1  0.435713  0.435527  0.060705  1
  Er  Er15  1  0.189573  0.809827  0.190115  1
  In  In16  1  0.420742  0.421866  0.420562  1
  Ag  Ag17  1  0.417924  0.747797  0.417575  1
  Ag  Ag18  1  0.417873  0.418229  0.748507  1
  Ag  Ag19  1  0.748566  0.418313  0.417633  1
  Rh  Rh20  1  0.855759  0.430276  0.856467  1
  Rh  Rh21  1  0.857655  0.855583  0.428767  1
  Rh  Rh22  1  0.430026  0.854977  0.857666  1
  Rh  Rh23  1  0.857073  0.856538  0.857948  1
