# generated using pymatgen
data_Ta5TiAl4(CuC)2
_symmetry_space_group_name_H-M   'P 1'
_cell_length_a   8.26918454
_cell_length_b   8.26918503
_cell_length_c   8.25096700
_cell_angle_alpha   60.07285601
_cell_angle_beta   60.07285405
_cell_angle_gamma   59.85429099
_symmetry_Int_Tables_number   1
_chemical_formula_structural   Ta5TiAl4(CuC)2
_chemical_formula_sum   'Ta10 Ti2 Al8 Cu4 C4'
_cell_volume   398.94317792
_cell_formula_units_Z   2
loop_
 _symmetry_equiv_pos_site_id
 _symmetry_equiv_pos_as_xyz
  1  'x, y, z'
loop_
 _atom_site_type_symbol
 _atom_site_label
 _atom_site_symmetry_multiplicity
 _atom_site_fract_x
 _atom_site_fract_y
 _atom_site_fract_z
 _atom_site_occupancy
  Ta  Ta0  1  0.932978  0.932978  0.567022  1
  Ta  Ta1  1  0.684526  0.316183  0.316252  1
  Ta  Ta2  1  0.316183  0.684526  0.683038  1
  Ta  Ta3  1  0.682978  0.682978  0.317022  1
  Ta  Ta4  1  0.684526  0.316183  0.683038  1
  Ta  Ta5  1  0.316183  0.684526  0.316252  1
  Ta  Ta6  1  0.566962  0.933748  0.565474  1
  Ta  Ta7  1  0.566962  0.933748  0.933817  1
  Ta  Ta8  1  0.933748  0.566962  0.565474  1
  Ta  Ta9  1  0.933748  0.566962  0.933817  1
  Ti  Ti10  1  0.318106  0.318106  0.681894  1
  Ti  Ti11  1  0.568106  0.568106  0.931894  1
  Al  Al12  1  0.914219  0.252267  0.916757  1
  Al  Al13  1  0.333243  0.333243  0.997733  1
  Al  Al14  1  0.999787  0.333886  0.333164  1
  Al  Al15  1  0.333243  0.333243  0.335781  1
  Al  Al16  1  0.252267  0.914219  0.916757  1
  Al  Al17  1  0.916836  0.916836  0.916114  1
  Al  Al18  1  0.916836  0.916836  0.250213  1
  Al  Al19  1  0.333886  0.999787  0.333164  1
  Cu  Cu20  1  0.125236  0.624439  0.125162  1
  Cu  Cu21  1  0.124838  0.124838  0.625561  1
  Cu  Cu22  1  0.624439  0.125236  0.125162  1
  Cu  Cu23  1  0.124838  0.124838  0.124764  1
  C  C24  1  0.619321  0.128341  0.626169  1
  C  C25  1  0.623831  0.623831  0.121659  1
  C  C26  1  0.128341  0.619321  0.626169  1
  C  C27  1  0.623831  0.623831  0.630679  1
