# generated using pymatgen
data_Mn8NbTc2W
_symmetry_space_group_name_H-M   'P 1'
_cell_length_a   4.69843200
_cell_length_b   4.69843073
_cell_length_c   7.77051500
_cell_angle_alpha   90.00000000
_cell_angle_beta   90.00000000
_cell_angle_gamma   120.00000896
_symmetry_Int_Tables_number   1
_chemical_formula_structural   Mn8NbTc2W
_chemical_formula_sum   'Mn8 Nb1 Tc2 W1'
_cell_volume   148.55462227
_cell_formula_units_Z   1
loop_
 _symmetry_equiv_pos_site_id
 _symmetry_equiv_pos_as_xyz
  1  'x, y, z'
loop_
 _atom_site_type_symbol
 _atom_site_label
 _atom_site_symmetry_multiplicity
 _atom_site_fract_x
 _atom_site_fract_y
 _atom_site_fract_z
 _atom_site_occupancy
  Mn  Mn0  1  0.172404  0.344807  0.748376  1
  Mn  Mn1  1  0.827216  0.172784  0.252021  1
  Mn  Mn2  1  0.345569  0.172784  0.252021  1
  Mn  Mn3  1  0.655193  0.827596  0.748376  1
  Mn  Mn4  1  0.000000  0.000000  0.999790  1
  Mn  Mn5  1  0.000000  0.000000  0.500987  1
  Mn  Mn6  1  0.827216  0.654431  0.252021  1
  Mn  Mn7  1  0.172404  0.827596  0.748376  1
  Nb  Nb8  1  0.333333  0.666667  0.061877  1
  Tc  Tc9  1  0.666667  0.333333  0.926122  1
  Tc  Tc10  1  0.666667  0.333333  0.569348  1
  W  W11  1  0.333333  0.666667  0.440684  1
