# generated using pymatgen
data_Tb9Th(TcBi2)2
_symmetry_space_group_name_H-M   'P 1'
_cell_length_a   8.11046747
_cell_length_b   9.03514285
_cell_length_c   12.49917501
_cell_angle_alpha   90.25683236
_cell_angle_beta   90.14773192
_cell_angle_gamma   90.23519005
_symmetry_Int_Tables_number   1
_chemical_formula_structural   Tb9Th(TcBi2)2
_chemical_formula_sum   'Tb18 Th2 Tc4 Bi8'
_cell_volume   915.90994060
_cell_formula_units_Z   2
loop_
 _symmetry_equiv_pos_site_id
 _symmetry_equiv_pos_as_xyz
  1  'x, y, z'
loop_
 _atom_site_type_symbol
 _atom_site_label
 _atom_site_symmetry_multiplicity
 _atom_site_fract_x
 _atom_site_fract_y
 _atom_site_fract_z
 _atom_site_occupancy
  Tb  Tb0  1  0.843231  0.749528  0.793661  1
  Tb  Tb1  1  0.156769  0.250472  0.206339  1
  Tb  Tb2  1  0.337808  0.250953  0.710092  1
  Tb  Tb3  1  0.662192  0.749047  0.289908  1
  Tb  Tb4  1  0.373483  0.746711  0.699261  1
  Tb  Tb5  1  0.626517  0.253289  0.300739  1
  Tb  Tb6  1  0.877603  0.249091  0.806116  1
  Tb  Tb7  1  0.122397  0.750909  0.193884  1
  Tb  Tb8  1  0.953350  0.751059  0.502719  1
  Tb  Tb9  1  0.046650  0.248941  0.497281  1
  Tb  Tb10  1  0.445260  0.251304  0.996568  1
  Tb  Tb11  1  0.554740  0.748696  0.003432  1
  Tb  Tb12  1  0.175279  0.959526  0.937238  1
  Tb  Tb13  1  0.325643  0.540373  0.436281  1
  Tb  Tb14  1  0.824721  0.040474  0.062762  1
  Tb  Tb15  1  0.674357  0.459627  0.563719  1
  Tb  Tb16  1  0.825857  0.458940  0.063431  1
  Tb  Tb17  1  0.174143  0.541060  0.936569  1
  Th  Th18  1  0.678042  0.038181  0.564701  1
  Th  Th19  1  0.321958  0.961819  0.435299  1
  Tc  Tc20  1  0.579985  0.768867  0.515731  1
  Tc  Tc21  1  0.420015  0.231133  0.484269  1
  Tc  Tc22  1  0.080250  0.249908  0.985489  1
  Tc  Tc23  1  0.919750  0.750092  0.014511  1
  Bi  Bi24  1  0.572772  0.491401  0.827181  1
  Bi  Bi25  1  0.427228  0.508599  0.172819  1
  Bi  Bi26  1  0.069865  0.506403  0.671170  1
  Bi  Bi27  1  0.429516  0.992862  0.170116  1
  Bi  Bi28  1  0.930135  0.493597  0.328830  1
  Bi  Bi29  1  0.570484  0.007138  0.829884  1
  Bi  Bi30  1  0.925326  0.009120  0.324880  1
  Bi  Bi31  1  0.074674  0.990880  0.675120  1
