# generated using pymatgen
data_Tb3Y5Tc3B24Ru
_symmetry_space_group_name_H-M   'P 1'
_cell_length_a   3.68999100
_cell_length_b   9.17816264
_cell_length_c   11.57105402
_cell_angle_alpha   89.92503582
_cell_angle_beta   90.00000000
_cell_angle_gamma   90.00000000
_symmetry_Int_Tables_number   1
_chemical_formula_structural   Tb3Y5Tc3B24Ru
_chemical_formula_sum   'Tb3 Y5 Tc3 B24 Ru1'
_cell_volume   391.88045708
_cell_formula_units_Z   1
loop_
 _symmetry_equiv_pos_site_id
 _symmetry_equiv_pos_as_xyz
  1  'x, y, z'
loop_
 _atom_site_type_symbol
 _atom_site_label
 _atom_site_symmetry_multiplicity
 _atom_site_fract_x
 _atom_site_fract_y
 _atom_site_fract_z
 _atom_site_occupancy
  Tb  Tb0  1  0.000000  0.323727  0.414050  1
  Tb  Tb1  1  0.000000  0.674929  0.584228  1
  Tb  Tb2  1  0.000000  0.823311  0.087174  1
  Y  Y3  1  0.000000  0.177903  0.914497  1
  Y  Y4  1  0.000000  0.942580  0.370328  1
  Y  Y5  1  0.000000  0.057950  0.630658  1
  Y  Y6  1  0.000000  0.442927  0.129880  1
  Y  Y7  1  0.000000  0.557770  0.869171  1
  Tc  Tc8  1  0.000000  0.638245  0.320598  1
  Tc  Tc9  1  0.000000  0.361706  0.679963  1
  Tc  Tc10  1  0.000000  0.137861  0.178230  1
  B  B11  1  0.500000  0.553073  0.432540  1
  B  B12  1  0.500000  0.446490  0.567107  1
  B  B13  1  0.500000  0.053128  0.067059  1
  B  B14  1  0.500000  0.946081  0.932592  1
  B  B15  1  0.500000  0.748037  0.418454  1
  B  B16  1  0.500000  0.251362  0.581762  1
  B  B17  1  0.500000  0.248698  0.081422  1
  B  B18  1  0.500000  0.752006  0.918171  1
  B  B19  1  0.500000  0.791351  0.265628  1
  B  B20  1  0.500000  0.208973  0.735069  1
  B  B21  1  0.500000  0.291309  0.234500  1
  B  B22  1  0.500000  0.709762  0.765361  1
  B  B23  1  0.500000  0.631163  0.185813  1
  B  B24  1  0.500000  0.368977  0.814598  1
  B  B25  1  0.500000  0.130621  0.313814  1
  B  B26  1  0.500000  0.868772  0.686066  1
  B  B27  1  0.500000  0.982129  0.211733  1
  B  B28  1  0.500000  0.016455  0.788540  1
  B  B29  1  0.500000  0.482442  0.287999  1
  B  B30  1  0.500000  0.517214  0.711523  1
  B  B31  1  0.500000  0.602676  0.028221  1
  B  B32  1  0.500000  0.398890  0.971371  1
  B  B33  1  0.500000  0.101929  0.471934  1
  B  B34  1  0.500000  0.897782  0.528932  1
  Ru  Ru35  1  0.000000  0.861771  0.821018  1
