# generated using pymatgen
data_Y3Ho7In3Ru
_symmetry_space_group_name_H-M   'P 1'
_cell_length_a   9.70257702
_cell_length_b   9.70356832
_cell_length_c   9.75217000
_cell_angle_alpha   90.00000000
_cell_angle_beta   90.00000000
_cell_angle_gamma   120.00315541
_symmetry_Int_Tables_number   1
_chemical_formula_structural   Y3Ho7In3Ru
_chemical_formula_sum   'Y6 Ho14 In6 Ru2'
_cell_volume   795.12727624
_cell_formula_units_Z   2
loop_
 _symmetry_equiv_pos_site_id
 _symmetry_equiv_pos_as_xyz
  1  'x, y, z'
loop_
 _atom_site_type_symbol
 _atom_site_label
 _atom_site_symmetry_multiplicity
 _atom_site_fract_x
 _atom_site_fract_y
 _atom_site_fract_z
 _atom_site_occupancy
  Y  Y0  1  0.539345  0.460764  0.250000  1
  Y  Y1  1  0.539335  0.078566  0.250000  1
  Y  Y2  1  0.921376  0.460694  0.250000  1
  Y  Y3  1  0.460655  0.539236  0.750000  1
  Y  Y4  1  0.460665  0.921434  0.750000  1
  Y  Y5  1  0.078624  0.539306  0.750000  1
  Ho  Ho6  1  0.000000  0.000000  0.500000  1
  Ho  Ho7  1  0.000000  0.000000  0.000000  1
  Ho  Ho8  1  0.209815  0.790097  0.438443  1
  Ho  Ho9  1  0.209856  0.419716  0.438481  1
  Ho  Ho10  1  0.580285  0.790101  0.438431  1
  Ho  Ho11  1  0.790185  0.209903  0.561557  1
  Ho  Ho12  1  0.790144  0.580284  0.561519  1
  Ho  Ho13  1  0.419715  0.209899  0.561569  1
  Ho  Ho14  1  0.790185  0.209903  0.938443  1
  Ho  Ho15  1  0.790144  0.580284  0.938481  1
  Ho  Ho16  1  0.419715  0.209899  0.938431  1
  Ho  Ho17  1  0.209815  0.790097  0.061557  1
  Ho  Ho18  1  0.209856  0.419716  0.061519  1
  Ho  Ho19  1  0.580285  0.790101  0.061569  1
  In  In20  1  0.884447  0.115573  0.250000  1
  In  In21  1  0.884418  0.768848  0.250000  1
  In  In22  1  0.231115  0.115574  0.250000  1
  In  In23  1  0.115553  0.884427  0.750000  1
  In  In24  1  0.115582  0.231152  0.750000  1
  In  In25  1  0.768885  0.884426  0.750000  1
  Ru  Ru26  1  0.333339  0.666659  0.250000  1
  Ru  Ru27  1  0.666661  0.333341  0.750000  1
