# generated using pymatgen
data_Tb5NdC2Br7
_symmetry_space_group_name_H-M   'P 1'
_cell_length_a   10.62291575
_cell_length_b   10.62291639
_cell_length_c   12.06687739
_cell_angle_alpha   57.49615032
_cell_angle_beta   57.49614818
_cell_angle_gamma   20.83742833
_symmetry_Int_Tables_number   1
_chemical_formula_structural   Tb5NdC2Br7
_chemical_formula_sum   'Tb5 Nd1 C2 Br7'
_cell_volume   405.69266610
_cell_formula_units_Z   1
loop_
 _symmetry_equiv_pos_site_id
 _symmetry_equiv_pos_as_xyz
  1  'x, y, z'
loop_
 _atom_site_type_symbol
 _atom_site_label
 _atom_site_symmetry_multiplicity
 _atom_site_fract_x
 _atom_site_fract_y
 _atom_site_fract_z
 _atom_site_occupancy
  Tb  Tb0  1  0.313224  0.313224  0.365336  1
  Tb  Tb1  1  0.131356  0.131356  0.442095  1
  Tb  Tb2  1  0.868237  0.868237  0.558305  1
  Tb  Tb3  1  0.687477  0.687477  0.634297  1
  Tb  Tb4  1  0.769656  0.769656  0.164290  1
  Nd  Nd5  1  0.229219  0.229219  0.841558  1
  C  C6  1  0.280744  0.280744  0.601804  1
  C  C7  1  0.720295  0.720295  0.392509  1
  Br  Br8  1  0.164060  0.164060  0.167468  1
  Br  Br9  1  0.842100  0.842100  0.832434  1
  Br  Br10  1  0.060032  0.060032  0.716416  1
  Br  Br11  1  0.940356  0.940356  0.281752  1
  Br  Br12  1  0.500507  0.500507  0.499250  1
  Br  Br13  1  0.388143  0.388143  0.070165  1
  Br  Br14  1  0.604594  0.604594  0.932321  1
