# generated using pymatgen
data_Ho8Ti11Si16Pd
_symmetry_space_group_name_H-M   'P 1'
_cell_length_a   7.04345920
_cell_length_b   7.04345920
_cell_length_c   12.86201359
_cell_angle_alpha   90.11290908
_cell_angle_beta   89.88709092
_cell_angle_gamma   89.68993144
_symmetry_Int_Tables_number   1
_chemical_formula_structural   Ho8Ti11Si16Pd
_chemical_formula_sum   'Ho8 Ti11 Si16 Pd1'
_cell_volume   638.07674347
_cell_formula_units_Z   1
loop_
 _symmetry_equiv_pos_site_id
 _symmetry_equiv_pos_as_xyz
  1  'x, y, z'
loop_
 _atom_site_type_symbol
 _atom_site_label
 _atom_site_symmetry_multiplicity
 _atom_site_fract_x
 _atom_site_fract_y
 _atom_site_fract_z
 _atom_site_occupancy
  Ho  Ho0  1  0.340531  0.003028  0.466716  1
  Ho  Ho1  1  0.497012  0.841770  0.717555  1
  Ho  Ho2  1  0.501158  0.157654  0.214267  1
  Ho  Ho3  1  0.841770  0.497012  0.282445  1
  Ho  Ho4  1  0.157654  0.501158  0.785733  1
  Ho  Ho5  1  0.656043  0.999862  0.968272  1
  Ho  Ho6  1  0.003028  0.340531  0.533284  1
  Ho  Ho7  1  0.999862  0.656043  0.031728  1
  Ti  Ti8  1  0.175598  0.826050  0.249053  1
  Ti  Ti9  1  0.826050  0.175598  0.750947  1
  Ti  Ti10  1  0.673116  0.673116  0.500000  1
  Ti  Ti11  1  0.148366  0.005788  0.877009  1
  Ti  Ti12  1  0.494478  0.653114  0.124024  1
  Ti  Ti13  1  0.507609  0.350161  0.626653  1
  Ti  Ti14  1  0.653114  0.494478  0.875976  1
  Ti  Ti15  1  0.350161  0.507609  0.373347  1
  Ti  Ti16  1  0.849982  0.993010  0.374496  1
  Ti  Ti17  1  0.005788  0.148366  0.122991  1
  Ti  Ti18  1  0.993010  0.849982  0.625504  1
  Si  Si19  1  0.201764  0.133038  0.685301  1
  Si  Si20  1  0.372950  0.711207  0.931693  1
  Si  Si21  1  0.631230  0.294518  0.432951  1
  Si  Si22  1  0.711207  0.372950  0.068307  1
  Si  Si23  1  0.294518  0.631230  0.567049  1
  Si  Si24  1  0.797415  0.867749  0.183032  1
  Si  Si25  1  0.133038  0.201764  0.314699  1
  Si  Si26  1  0.867749  0.797415  0.816968  1
  Si  Si27  1  0.286164  0.943462  0.064820  1
  Si  Si28  1  0.547434  0.791434  0.314749  1
  Si  Si29  1  0.450649  0.209841  0.813754  1
  Si  Si30  1  0.791434  0.547434  0.685251  1
  Si  Si31  1  0.209841  0.450649  0.186246  1
  Si  Si32  1  0.708398  0.047810  0.565070  1
  Si  Si33  1  0.943462  0.286164  0.935180  1
  Si  Si34  1  0.047810  0.708398  0.434930  1
  Pd  Pd35  1  0.330608  0.330608  0.000000  1
