# generated using pymatgen
data_Ta7NbFe3Co5Si14
_symmetry_space_group_name_H-M   'P 1'
_cell_length_a   9.21152564
_cell_length_b   9.21152572
_cell_length_c   9.22164640
_cell_angle_alpha   94.24341372
_cell_angle_beta   94.24341250
_cell_angle_gamma   148.43798426
_symmetry_Int_Tables_number   1
_chemical_formula_structural   Ta7NbFe3Co5Si14
_chemical_formula_sum   'Ta7 Nb1 Fe3 Co5 Si14'
_cell_volume   394.11461838
_cell_formula_units_Z   1
loop_
 _symmetry_equiv_pos_site_id
 _symmetry_equiv_pos_as_xyz
  1  'x, y, z'
loop_
 _atom_site_type_symbol
 _atom_site_label
 _atom_site_symmetry_multiplicity
 _atom_site_fract_x
 _atom_site_fract_y
 _atom_site_fract_z
 _atom_site_occupancy
  Ta  Ta0  1  0.308289  0.499156  0.808475  1
  Ta  Ta1  1  0.690815  0.499627  0.190217  1
  Ta  Ta2  1  0.500844  0.691711  0.191525  1
  Ta  Ta3  1  0.500373  0.309185  0.809783  1
  Ta  Ta4  1  0.133283  0.133193  0.267833  1
  Ta  Ta5  1  0.866807  0.866717  0.732167  1
  Ta  Ta6  1  0.134038  0.865962  0.000000  1
  Nb  Nb7  1  0.865996  0.134004  0.000000  1
  Fe  Fe8  1  0.398376  0.898572  0.798973  1
  Fe  Fe9  1  0.101428  0.601624  0.201027  1
  Fe  Fe10  1  0.899197  0.100803  0.500000  1
  Co  Co11  1  0.601184  0.398816  0.500000  1
  Co  Co12  1  0.600019  0.101265  0.200955  1
  Co  Co13  1  0.898735  0.399981  0.799045  1
  Co  Co14  1  0.100130  0.899870  0.500000  1
  Co  Co15  1  0.399888  0.600112  0.500000  1
  Si  Si16  1  0.291858  0.291826  0.583265  1
  Si  Si17  1  0.708174  0.708142  0.416735  1
  Si  Si18  1  0.291488  0.708512  0.000000  1
  Si  Si19  1  0.708971  0.291029  0.000000  1
  Si  Si20  1  0.092307  0.498780  0.594177  1
  Si  Si21  1  0.909624  0.502903  0.404442  1
  Si  Si22  1  0.501220  0.907693  0.405823  1
  Si  Si23  1  0.497097  0.090376  0.595558  1
  Si  Si24  1  0.248781  0.249030  0.999994  1
  Si  Si25  1  0.750970  0.751219  0.000006  1
  Si  Si26  1  0.295408  0.997787  0.297139  1
  Si  Si27  1  0.701860  0.999370  0.703070  1
  Si  Si28  1  0.002213  0.704592  0.702861  1
  Si  Si29  1  0.000630  0.298140  0.296930  1
