# generated using pymatgen
data_Mg3Ag(BrO3)8
_symmetry_space_group_name_H-M   'P 1'
_cell_length_a   5.79050942
_cell_length_b   10.54543025
_cell_length_c   10.80975032
_cell_angle_alpha   118.90496177
_cell_angle_beta   88.84721019
_cell_angle_gamma   89.18287962
_symmetry_Int_Tables_number   1
_chemical_formula_structural   Mg3Ag(BrO3)8
_chemical_formula_sum   'Mg3 Ag1 Br8 O24'
_cell_volume   577.51528261
_cell_formula_units_Z   1
loop_
 _symmetry_equiv_pos_site_id
 _symmetry_equiv_pos_as_xyz
  1  'x, y, z'
loop_
 _atom_site_type_symbol
 _atom_site_label
 _atom_site_symmetry_multiplicity
 _atom_site_fract_x
 _atom_site_fract_y
 _atom_site_fract_z
 _atom_site_occupancy
  Mg  Mg0  1  0.636778  0.234796  0.491261  1
  Mg  Mg1  1  0.139820  0.262829  0.006243  1
  Mg  Mg2  1  0.641191  0.738180  0.992316  1
  Ag  Ag3  1  0.134107  0.766937  0.510902  1
  Br  Br4  1  0.261692  0.413251  0.346143  1
  Br  Br5  1  0.753656  0.581157  0.651012  1
  Br  Br6  1  0.278451  0.915543  0.861621  1
  Br  Br7  1  0.767414  0.084990  0.151868  1
  Br  Br8  1  0.785234  0.097486  0.699657  1
  Br  Br9  1  0.292236  0.918277  0.309989  1
  Br  Br10  1  0.286232  0.417106  0.811815  1
  Br  Br11  1  0.781678  0.582677  0.176346  1
  O  O12  1  0.431774  0.894928  0.982791  1
  O  O13  1  0.939769  0.120389  0.045777  1
  O  O14  1  0.404605  0.801943  0.705309  1
  O  O15  1  0.865959  0.190054  0.316999  1
  O  O16  1  0.363844  0.300973  0.180385  1
  O  O17  1  0.857596  0.689974  0.812203  1
  O  O18  1  0.939078  0.229343  0.825948  1
  O  O19  1  0.434074  0.777281  0.175078  1
  O  O20  1  0.914275  0.939461  0.673059  1
  O  O21  1  0.435683  0.068221  0.339459  1
  O  O22  1  0.355802  0.081707  0.888347  1
  O  O23  1  0.857658  0.915737  0.111981  1
  O  O24  1  0.430020  0.279172  0.672888  1
  O  O25  1  0.908273  0.726373  0.303276  1
  O  O26  1  0.349805  0.387740  0.947716  1
  O  O27  1  0.837802  0.593033  0.026340  1
  O  O28  1  0.424914  0.569459  0.845000  1
  O  O29  1  0.940514  0.436200  0.154408  1
  O  O30  1  0.358936  0.577697  0.373086  1
  O  O31  1  0.840587  0.412737  0.615755  1
  O  O32  1  0.428712  0.380742  0.453759  1
  O  O33  1  0.928408  0.604854  0.535609  1
  O  O34  1  0.845366  0.106396  0.550488  1
  O  O35  1  0.357658  0.902357  0.455166  1
