# generated using pymatgen
data_Er5Bi2P
_symmetry_space_group_name_H-M   'P 1'
_cell_length_a   7.91874900
_cell_length_b   8.91285900
_cell_length_c   12.04122300
_cell_angle_alpha   90.00000000
_cell_angle_beta   90.00000000
_cell_angle_gamma   90.00000000
_symmetry_Int_Tables_number   1
_chemical_formula_structural   Er5Bi2P
_chemical_formula_sum   'Er20 Bi8 P4'
_cell_volume   849.85378499
_cell_formula_units_Z   4
loop_
 _symmetry_equiv_pos_site_id
 _symmetry_equiv_pos_as_xyz
  1  'x, y, z'
loop_
 _atom_site_type_symbol
 _atom_site_label
 _atom_site_symmetry_multiplicity
 _atom_site_fract_x
 _atom_site_fract_y
 _atom_site_fract_z
 _atom_site_occupancy
  Er  Er0  1  0.652414  0.750000  0.706682  1
  Er  Er1  1  0.347586  0.250000  0.293318  1
  Er  Er2  1  0.152414  0.250000  0.793318  1
  Er  Er3  1  0.847586  0.750000  0.206682  1
  Er  Er4  1  0.127019  0.750000  0.802732  1
  Er  Er5  1  0.872981  0.250000  0.197268  1
  Er  Er6  1  0.627019  0.250000  0.697268  1
  Er  Er7  1  0.372981  0.750000  0.302732  1
  Er  Er8  1  0.540947  0.750000  0.998149  1
  Er  Er9  1  0.459053  0.250000  0.001851  1
  Er  Er10  1  0.040947  0.250000  0.501851  1
  Er  Er11  1  0.959053  0.750000  0.498149  1
  Er  Er12  1  0.818159  0.449490  0.935198  1
  Er  Er13  1  0.181841  0.550510  0.064802  1
  Er  Er14  1  0.318159  0.550510  0.564802  1
  Er  Er15  1  0.181841  0.949490  0.064802  1
  Er  Er16  1  0.681841  0.449490  0.435198  1
  Er  Er17  1  0.818159  0.050510  0.935198  1
  Er  Er18  1  0.681841  0.050510  0.435198  1
  Er  Er19  1  0.318159  0.949490  0.564802  1
  Bi  Bi20  1  0.926053  0.008837  0.673523  1
  Bi  Bi21  1  0.073947  0.991163  0.326477  1
  Bi  Bi22  1  0.426053  0.991163  0.826477  1
  Bi  Bi23  1  0.073947  0.508837  0.326477  1
  Bi  Bi24  1  0.573947  0.008837  0.173523  1
  Bi  Bi25  1  0.926053  0.491163  0.673523  1
  Bi  Bi26  1  0.573947  0.491163  0.173523  1
  Bi  Bi27  1  0.426053  0.508837  0.826477  1
  P  P28  1  0.923903  0.750000  0.988349  1
  P  P29  1  0.076097  0.250000  0.011651  1
  P  P30  1  0.423903  0.250000  0.511651  1
  P  P31  1  0.576097  0.750000  0.488349  1
