# generated using pymatgen
data_ErOsI18
_symmetry_space_group_name_H-M   'P 1'
_cell_length_a   10.24368541
_cell_length_b   10.21600968
_cell_length_c   10.21736764
_cell_angle_alpha   93.60034898
_cell_angle_beta   93.38458515
_cell_angle_gamma   93.66243406
_symmetry_Int_Tables_number   1
_chemical_formula_structural   ErOsI18
_chemical_formula_sum   'Er1 Os1 I18'
_cell_volume   1062.81769334
_cell_formula_units_Z   1
loop_
 _symmetry_equiv_pos_site_id
 _symmetry_equiv_pos_as_xyz
  1  'x, y, z'
loop_
 _atom_site_type_symbol
 _atom_site_label
 _atom_site_symmetry_multiplicity
 _atom_site_fract_x
 _atom_site_fract_y
 _atom_site_fract_z
 _atom_site_occupancy
  Er  Er0  1  0.500000  0.500000  0.500000  1
  Os  Os1  1  0.000000  0.000000  0.000000  1
  I  I2  1  0.793193  0.480388  0.525162  1
  I  I3  1  0.524243  0.793149  0.479207  1
  I  I4  1  0.480140  0.524902  0.793568  1
  I  I5  1  0.206807  0.519612  0.474838  1
  I  I6  1  0.475757  0.206851  0.520793  1
  I  I7  1  0.519860  0.475098  0.206432  1
  I  I8  1  0.898514  0.361992  0.765491  1
  I  I9  1  0.765451  0.900405  0.362377  1
  I  I10  1  0.363082  0.767520  0.897871  1
  I  I11  1  0.101486  0.638008  0.234509  1
  I  I12  1  0.234549  0.099595  0.637623  1
  I  I13  1  0.636918  0.232480  0.102129  1
  I  I14  1  0.001053  0.969722  0.735090  1
  I  I15  1  0.737017  0.004134  0.964205  1
  I  I16  1  0.969735  0.739141  0.003992  1
  I  I17  1  0.998947  0.030278  0.264910  1
  I  I18  1  0.262983  0.995866  0.035795  1
  I  I19  1  0.030265  0.260859  0.996008  1
