# generated using pymatgen
data_Tb3HoCd2(CuNi)2
_symmetry_space_group_name_H-M   'P 1'
_cell_length_a   7.50995306
_cell_length_b   7.50995336
_cell_length_c   3.66372900
_cell_angle_alpha   90.00000000
_cell_angle_beta   90.00000000
_cell_angle_gamma   89.25684661
_symmetry_Int_Tables_number   1
_chemical_formula_structural   Tb3HoCd2(CuNi)2
_chemical_formula_sum   'Tb3 Ho1 Cd2 Cu2 Ni2'
_cell_volume   206.61472636
_cell_formula_units_Z   1
loop_
 _symmetry_equiv_pos_site_id
 _symmetry_equiv_pos_as_xyz
  1  'x, y, z'
loop_
 _atom_site_type_symbol
 _atom_site_label
 _atom_site_symmetry_multiplicity
 _atom_site_fract_x
 _atom_site_fract_y
 _atom_site_fract_z
 _atom_site_occupancy
  Tb  Tb0  1  0.332763  0.832763  0.500000  1
  Tb  Tb1  1  0.184598  0.315232  0.500000  1
  Tb  Tb2  1  0.815232  0.684598  0.500000  1
  Ho  Ho3  1  0.667077  0.167077  0.500000  1
  Cd  Cd4  1  0.999600  0.000302  0.000000  1
  Cd  Cd5  1  0.500302  0.499600  0.000000  1
  Cu  Cu6  1  0.118091  0.618091  0.000000  1
  Cu  Cu7  1  0.881289  0.381289  0.000000  1
  Ni  Ni8  1  0.618610  0.882437  0.000000  1
  Ni  Ni9  1  0.382437  0.118610  0.000000  1
