# generated using pymatgen
data_Dy3Ho7Si5P
_symmetry_space_group_name_H-M   'P 1'
_cell_length_a   8.38651500
_cell_length_b   8.39415212
_cell_length_c   6.27666800
_cell_angle_alpha   90.00000000
_cell_angle_beta   90.00000000
_cell_angle_gamma   119.96991209
_symmetry_Int_Tables_number   1
_chemical_formula_structural   Dy3Ho7Si5P
_chemical_formula_sum   'Dy3 Ho7 Si5 P1'
_cell_volume   382.78044649
_cell_formula_units_Z   1
loop_
 _symmetry_equiv_pos_site_id
 _symmetry_equiv_pos_as_xyz
  1  'x, y, z'
loop_
 _atom_site_type_symbol
 _atom_site_label
 _atom_site_symmetry_multiplicity
 _atom_site_fract_x
 _atom_site_fract_y
 _atom_site_fract_z
 _atom_site_occupancy
  Dy  Dy0  1  0.001093  0.757070  0.750000  1
  Dy  Dy1  1  0.755223  0.000000  0.750000  1
  Dy  Dy2  1  0.244023  0.242930  0.750000  1
  Ho  Ho3  1  0.000929  0.244082  0.250000  1
  Ho  Ho4  1  0.756847  0.755918  0.250000  1
  Ho  Ho5  1  0.243528  0.000000  0.250000  1
  Ho  Ho6  1  0.333732  0.667446  0.500448  1
  Ho  Ho7  1  0.666287  0.332554  0.999552  1
  Ho  Ho8  1  0.666287  0.332554  0.500448  1
  Ho  Ho9  1  0.333732  0.667446  0.999552  1
  Si  Si10  1  0.394378  0.393761  0.250000  1
  Si  Si11  1  0.000617  0.606239  0.250000  1
  Si  Si12  1  0.000104  0.393779  0.750000  1
  Si  Si13  1  0.606324  0.606221  0.750000  1
  Si  Si14  1  0.607057  0.000000  0.250000  1
  P  P15  1  0.389838  0.000000  0.750000  1
