# generated using pymatgen
data_Ho2Si6GeRh12
_symmetry_space_group_name_H-M   'P 1'
_cell_length_a   9.78025400
_cell_length_b   9.78025587
_cell_length_c   3.85142300
_cell_angle_alpha   90.00000000
_cell_angle_beta   90.00000000
_cell_angle_gamma   120.00000044
_symmetry_Int_Tables_number   1
_chemical_formula_structural   Ho2Si6GeRh12
_chemical_formula_sum   'Ho2 Si6 Ge1 Rh12'
_cell_volume   319.04518896
_cell_formula_units_Z   1
loop_
 _symmetry_equiv_pos_site_id
 _symmetry_equiv_pos_as_xyz
  1  'x, y, z'
loop_
 _atom_site_type_symbol
 _atom_site_label
 _atom_site_symmetry_multiplicity
 _atom_site_fract_x
 _atom_site_fract_y
 _atom_site_fract_z
 _atom_site_occupancy
  Ho  Ho0  1  0.333333  0.666667  0.751440  1
  Ho  Ho1  1  0.666667  0.333333  0.251325  1
  Si  Si2  1  0.887597  0.598456  0.751717  1
  Si  Si3  1  0.401544  0.289141  0.751717  1
  Si  Si4  1  0.710859  0.112403  0.751717  1
  Si  Si5  1  0.111695  0.401840  0.250788  1
  Si  Si6  1  0.598160  0.709854  0.250788  1
  Si  Si7  1  0.290146  0.888305  0.250788  1
  Ge  Ge8  1  0.000000  0.000000  0.577847  1
  Rh  Rh9  1  0.619643  0.554546  0.752090  1
  Rh  Rh10  1  0.445454  0.065097  0.752090  1
  Rh  Rh11  1  0.934903  0.380357  0.752090  1
  Rh  Rh12  1  0.383327  0.444948  0.250004  1
  Rh  Rh13  1  0.555052  0.938379  0.250004  1
  Rh  Rh14  1  0.061621  0.616673  0.250004  1
  Rh  Rh15  1  0.123860  0.849691  0.749701  1
  Rh  Rh16  1  0.150309  0.274169  0.749701  1
  Rh  Rh17  1  0.725831  0.876140  0.749701  1
  Rh  Rh18  1  0.881336  0.143838  0.253589  1
  Rh  Rh19  1  0.856162  0.737499  0.253589  1
  Rh  Rh20  1  0.262501  0.118664  0.253589  1
