# generated using pymatgen
data_YErMg(PRh2)6
_symmetry_space_group_name_H-M   'P 1'
_cell_length_a   9.70860400
_cell_length_b   9.70860339
_cell_length_c   3.89136000
_cell_angle_alpha   90.00000000
_cell_angle_beta   90.00000000
_cell_angle_gamma   120.00000206
_symmetry_Int_Tables_number   1
_chemical_formula_structural   YErMg(PRh2)6
_chemical_formula_sum   'Y1 Er1 Mg1 P6 Rh12'
_cell_volume   317.64760148
_cell_formula_units_Z   1
loop_
 _symmetry_equiv_pos_site_id
 _symmetry_equiv_pos_as_xyz
  1  'x, y, z'
loop_
 _atom_site_type_symbol
 _atom_site_label
 _atom_site_symmetry_multiplicity
 _atom_site_fract_x
 _atom_site_fract_y
 _atom_site_fract_z
 _atom_site_occupancy
  Y  Y0  1  0.333333  0.666667  0.752776  1
  Er  Er1  1  0.666667  0.333333  0.247186  1
  Mg  Mg2  1  0.000000  0.000000  0.499915  1
  P  P3  1  0.402524  0.285183  0.746764  1
  P  P4  1  0.714817  0.117340  0.746764  1
  P  P5  1  0.882660  0.597476  0.746764  1
  P  P6  1  0.597980  0.714976  0.253224  1
  P  P7  1  0.285024  0.883004  0.253224  1
  P  P8  1  0.116996  0.402020  0.253224  1
  Rh  Rh9  1  0.454150  0.067251  0.748556  1
  Rh  Rh10  1  0.932749  0.386898  0.748556  1
  Rh  Rh11  1  0.613102  0.545850  0.748556  1
  Rh  Rh12  1  0.546911  0.934211  0.251460  1
  Rh  Rh13  1  0.065789  0.612701  0.251460  1
  Rh  Rh14  1  0.387299  0.453089  0.251460  1
  Rh  Rh15  1  0.161156  0.289000  0.754185  1
  Rh  Rh16  1  0.711000  0.872157  0.754185  1
  Rh  Rh17  1  0.127843  0.838844  0.754185  1
  Rh  Rh18  1  0.838714  0.710577  0.245852  1
  Rh  Rh19  1  0.289423  0.128136  0.245852  1
  Rh  Rh20  1  0.871864  0.161286  0.245852  1
