# generated using pymatgen
data_Sc4CrOs5Ru2
_symmetry_space_group_name_H-M   'P 1'
_cell_length_a   5.08129517
_cell_length_b   5.24678047
_cell_length_c   8.69534200
_cell_angle_alpha   90.00000000
_cell_angle_beta   90.00000000
_cell_angle_gamma   121.08331466
_symmetry_Int_Tables_number   1
_chemical_formula_structural   Sc4CrOs5Ru2
_chemical_formula_sum   'Sc4 Cr1 Os5 Ru2'
_cell_volume   198.53610734
_cell_formula_units_Z   1
loop_
 _symmetry_equiv_pos_site_id
 _symmetry_equiv_pos_as_xyz
  1  'x, y, z'
loop_
 _atom_site_type_symbol
 _atom_site_label
 _atom_site_symmetry_multiplicity
 _atom_site_fract_x
 _atom_site_fract_y
 _atom_site_fract_z
 _atom_site_occupancy
  Sc  Sc0  1  0.335491  0.667746  0.434812  1
  Sc  Sc1  1  0.662350  0.331175  0.567341  1
  Sc  Sc2  1  0.662350  0.331175  0.932659  1
  Sc  Sc3  1  0.335491  0.667746  0.065188  1
  Cr  Cr4  1  0.668204  0.834103  0.750000  1
  Os  Os5  1  0.832637  0.173361  0.250000  1
  Os  Os6  1  0.832637  0.659274  0.250000  1
  Os  Os7  1  0.342654  0.171326  0.250000  1
  Os  Os8  1  0.182844  0.830754  0.750000  1
  Os  Os9  1  0.182844  0.352093  0.750000  1
  Ru  Ru10  1  0.981249  0.990624  0.503597  1
  Ru  Ru11  1  0.981249  0.990624  0.996403  1
