# generated using pymatgen
data_LiYb2Eu2FeC8
_symmetry_space_group_name_H-M   'P 1'
_cell_length_a   6.92527320
_cell_length_b   6.84908342
_cell_length_c   6.84908151
_cell_angle_alpha   134.24369959
_cell_angle_beta   112.39201543
_cell_angle_gamma   85.29767302
_symmetry_Int_Tables_number   1
_chemical_formula_structural   LiYb2Eu2FeC8
_chemical_formula_sum   'Li1 Yb2 Eu2 Fe1 C8'
_cell_volume   206.72675740
_cell_formula_units_Z   1
loop_
 _symmetry_equiv_pos_site_id
 _symmetry_equiv_pos_as_xyz
  1  'x, y, z'
loop_
 _atom_site_type_symbol
 _atom_site_label
 _atom_site_symmetry_multiplicity
 _atom_site_fract_x
 _atom_site_fract_y
 _atom_site_fract_z
 _atom_site_occupancy
  Li  Li0  1  0.000000  0.249213  0.249213  1
  Yb  Yb1  1  0.515703  0.857994  0.662890  1
  Yb  Yb2  1  0.484297  0.147186  0.342289  1
  Eu  Eu3  1  0.201350  0.347345  0.840777  1
  Eu  Eu4  1  0.798650  0.639428  0.145996  1
  Fe  Fe5  1  0.000000  0.751603  0.751603  1
  C  C6  1  0.794949  0.129228  0.677783  1
  C  C7  1  0.205051  0.882832  0.334278  1
  C  C8  1  0.448192  0.617688  0.812456  1
  C  C9  1  0.551808  0.364263  0.169495  1
  C  C10  1  0.903065  0.013288  0.759114  1
  C  C11  1  0.096935  0.856049  0.110223  1
  C  C12  1  0.256931  0.657544  0.743270  1
  C  C13  1  0.743069  0.486339  0.400613  1
