# generated using pymatgen
data_K2Ba(SnSe3)2
_symmetry_space_group_name_H-M   'P 1'
_cell_length_a   9.12998371
_cell_length_b   9.12998336
_cell_length_c   10.13493649
_cell_angle_alpha   89.54837260
_cell_angle_beta   89.54836216
_cell_angle_gamma   112.71318358
_symmetry_Int_Tables_number   1
_chemical_formula_structural   K2Ba(SnSe3)2
_chemical_formula_sum   'K4 Ba2 Sn4 Se12'
_cell_volume   779.21903128
_cell_formula_units_Z   2
loop_
 _symmetry_equiv_pos_site_id
 _symmetry_equiv_pos_as_xyz
  1  'x, y, z'
loop_
 _atom_site_type_symbol
 _atom_site_label
 _atom_site_symmetry_multiplicity
 _atom_site_fract_x
 _atom_site_fract_y
 _atom_site_fract_z
 _atom_site_occupancy
  K  K0  1  0.275080  0.541582  0.519574  1
  K  K1  1  0.724920  0.458418  0.480426  1
  K  K2  1  0.458418  0.724920  0.980426  1
  K  K3  1  0.541582  0.275080  0.019574  1
  Ba  Ba4  1  0.960102  0.039898  0.250000  1
  Ba  Ba5  1  0.039898  0.960102  0.750000  1
  Sn  Sn6  1  0.973234  0.659445  0.074505  1
  Sn  Sn7  1  0.026766  0.340555  0.925495  1
  Sn  Sn8  1  0.340555  0.026766  0.425495  1
  Sn  Sn9  1  0.659445  0.973234  0.574505  1
  Se  Se10  1  0.650137  0.724125  0.686064  1
  Se  Se11  1  0.897304  0.532276  0.837348  1
  Se  Se12  1  0.275875  0.349863  0.813936  1
  Se  Se13  1  0.532276  0.897304  0.337348  1
  Se  Se14  1  0.349863  0.275875  0.313936  1
  Se  Se15  1  0.926669  0.196132  0.542523  1
  Se  Se16  1  0.803868  0.073331  0.957477  1
  Se  Se17  1  0.196132  0.926669  0.042523  1
  Se  Se18  1  0.102696  0.467724  0.162652  1
  Se  Se19  1  0.467724  0.102696  0.662652  1
  Se  Se20  1  0.073331  0.803868  0.457477  1
  Se  Se21  1  0.724125  0.650137  0.186064  1
