# generated using pymatgen
data_LaPr3Al13Au9
_symmetry_space_group_name_H-M   'P 1'
_cell_length_a   11.78530200
_cell_length_b   11.78530157
_cell_length_c   4.28366000
_cell_angle_alpha   90.00000000
_cell_angle_beta   90.00000000
_cell_angle_gamma   119.99999560
_symmetry_Int_Tables_number   1
_chemical_formula_structural   LaPr3Al13Au9
_chemical_formula_sum   'La1 Pr3 Al13 Au9'
_cell_volume   515.26074801
_cell_formula_units_Z   1
loop_
 _symmetry_equiv_pos_site_id
 _symmetry_equiv_pos_as_xyz
  1  'x, y, z'
loop_
 _atom_site_type_symbol
 _atom_site_label
 _atom_site_symmetry_multiplicity
 _atom_site_fract_x
 _atom_site_fract_y
 _atom_site_fract_z
 _atom_site_occupancy
  La  La0  1  0.666667  0.333333  0.000000  1
  Pr  Pr1  1  0.204657  0.795343  0.500000  1
  Pr  Pr2  1  0.590687  0.795343  0.500000  1
  Pr  Pr3  1  0.204657  0.409313  0.500000  1
  Al  Al4  1  0.947859  0.291326  0.000000  1
  Al  Al5  1  0.708674  0.656533  0.000000  1
  Al  Al6  1  0.947859  0.656533  0.000000  1
  Al  Al7  1  0.343467  0.052141  0.000000  1
  Al  Al8  1  0.165340  0.082669  0.500000  1
  Al  Al9  1  0.917331  0.834660  0.500000  1
  Al  Al10  1  0.708674  0.052141  0.000000  1
  Al  Al11  1  0.531611  0.063221  0.500000  1
  Al  Al12  1  0.917331  0.082669  0.500000  1
  Al  Al13  1  0.343467  0.291326  0.000000  1
  Al  Al14  1  0.531611  0.468389  0.500000  1
  Al  Al15  1  0.936779  0.468389  0.500000  1
  Al  Al16  1  0.333333  0.666667  0.000000  1
  Au  Au17  1  0.457983  0.542017  0.000000  1
  Au  Au18  1  0.828284  0.914142  0.000000  1
  Au  Au19  1  0.457983  0.915964  0.000000  1
  Au  Au20  1  0.085858  0.171716  0.000000  1
  Au  Au21  1  0.085858  0.914142  0.000000  1
  Au  Au22  1  0.790242  0.580484  0.500000  1
  Au  Au23  1  0.084036  0.542017  0.000000  1
  Au  Au24  1  0.790242  0.209758  0.500000  1
  Au  Au25  1  0.419516  0.209758  0.500000  1
