# generated using pymatgen
data_Y16Cd4IrRu2Pt
_symmetry_space_group_name_H-M   'P 1'
_cell_length_a   9.68503940
_cell_length_b   9.66678317
_cell_length_c   9.66678237
_cell_angle_alpha   60.05047055
_cell_angle_beta   60.06677042
_cell_angle_gamma   60.06676903
_symmetry_Int_Tables_number   1
_chemical_formula_structural   Y16Cd4IrRu2Pt
_chemical_formula_sum   'Y16 Cd4 Ir1 Ru2 Pt1'
_cell_volume   640.84587007
_cell_formula_units_Z   1
loop_
 _symmetry_equiv_pos_site_id
 _symmetry_equiv_pos_as_xyz
  1  'x, y, z'
loop_
 _atom_site_type_symbol
 _atom_site_label
 _atom_site_symmetry_multiplicity
 _atom_site_fract_x
 _atom_site_fract_y
 _atom_site_fract_z
 _atom_site_occupancy
  Y  Y0  1  0.347818  0.347981  0.347981  1
  Y  Y1  1  0.350369  0.352765  0.950855  1
  Y  Y2  1  0.350369  0.950855  0.352765  1
  Y  Y3  1  0.952309  0.350922  0.350922  1
  Y  Y4  1  0.806618  0.190559  0.190559  1
  Y  Y5  1  0.188495  0.811243  0.811243  1
  Y  Y6  1  0.190522  0.805435  0.189309  1
  Y  Y7  1  0.812253  0.188451  0.808942  1
  Y  Y8  1  0.190522  0.189309  0.805435  1
  Y  Y9  1  0.812253  0.808942  0.188451  1
  Y  Y10  1  0.938598  0.561720  0.561720  1
  Y  Y11  1  0.564547  0.937226  0.937226  1
  Y  Y12  1  0.560863  0.938756  0.563120  1
  Y  Y13  1  0.937393  0.565001  0.938294  1
  Y  Y14  1  0.560863  0.563120  0.938756  1
  Y  Y15  1  0.937393  0.938294  0.565001  1
  Cd  Cd16  1  0.580635  0.580710  0.580710  1
  Cd  Cd17  1  0.580502  0.580512  0.257872  1
  Cd  Cd18  1  0.580502  0.257872  0.580512  1
  Cd  Cd19  1  0.258036  0.580404  0.580404  1
  Ir  Ir20  1  0.576158  0.140549  0.140549  1
  Ru  Ru21  1  0.140448  0.141021  0.576622  1
  Ru  Ru22  1  0.140448  0.576622  0.141021  1
  Pt  Pt23  1  0.142085  0.141730  0.141730  1
