# generated using pymatgen
data_Nd9Dy(YIn10)2
_symmetry_space_group_name_H-M   'P 1'
_cell_length_a   6.69475967
_cell_length_b   10.57397200
_cell_length_c   12.50018902
_cell_angle_alpha   90.00000000
_cell_angle_beta   89.96251933
_cell_angle_gamma   90.00000000
_symmetry_Int_Tables_number   1
_chemical_formula_structural   Nd9Dy(YIn10)2
_chemical_formula_sum   'Nd9 Dy1 Y2 In20'
_cell_volume   884.89070797
_cell_formula_units_Z   1
loop_
 _symmetry_equiv_pos_site_id
 _symmetry_equiv_pos_as_xyz
  1  'x, y, z'
loop_
 _atom_site_type_symbol
 _atom_site_label
 _atom_site_symmetry_multiplicity
 _atom_site_fract_x
 _atom_site_fract_y
 _atom_site_fract_z
 _atom_site_occupancy
  Nd  Nd0  1  0.349903  0.750000  0.059830  1
  Nd  Nd1  1  0.887881  0.490473  0.143754  1
  Nd  Nd2  1  0.612322  0.011163  0.643203  1
  Nd  Nd3  1  0.110177  0.991280  0.855547  1
  Nd  Nd4  1  0.389437  0.509282  0.356314  1
  Nd  Nd5  1  0.110177  0.508720  0.855547  1
  Nd  Nd6  1  0.389437  0.990718  0.356314  1
  Nd  Nd7  1  0.887881  0.009527  0.143754  1
  Nd  Nd8  1  0.612322  0.488837  0.643203  1
  Dy  Dy9  1  0.649598  0.250000  0.940147  1
  Y  Y10  1  0.150548  0.750000  0.558843  1
  Y  Y11  1  0.850023  0.250000  0.440775  1
  In  In12  1  0.617397  0.750000  0.505499  1
  In  In13  1  0.876614  0.750000  0.002329  1
  In  In14  1  0.384214  0.250000  0.496554  1
  In  In15  1  0.113632  0.250000  0.996389  1
  In  In16  1  0.659691  0.750000  0.246209  1
  In  In17  1  0.846321  0.750000  0.743326  1
  In  In18  1  0.346611  0.250000  0.755352  1
  In  In19  1  0.153760  0.250000  0.255900  1
  In  In20  1  0.111987  0.750000  0.287791  1
  In  In21  1  0.389087  0.750000  0.782453  1
  In  In22  1  0.889860  0.250000  0.715772  1
  In  In23  1  0.612605  0.250000  0.216462  1
  In  In24  1  0.874444  0.544834  0.404577  1
  In  In25  1  0.624603  0.956293  0.902398  1
  In  In26  1  0.126568  0.045152  0.596013  1
  In  In27  1  0.373642  0.451400  0.096378  1
  In  In28  1  0.126568  0.454848  0.596013  1
  In  In29  1  0.373642  0.048600  0.096378  1
  In  In30  1  0.874444  0.955166  0.404577  1
  In  In31  1  0.624603  0.543707  0.902398  1
