# generated using pymatgen
data_Ta3BeGe
_symmetry_space_group_name_H-M   'P 1'
_cell_length_a   6.65846400
_cell_length_b   6.67932100
_cell_length_c   3.46665300
_cell_angle_alpha   90.00000000
_cell_angle_beta   90.00000000
_cell_angle_gamma   90.00000000
_symmetry_Int_Tables_number   1
_chemical_formula_structural   Ta3BeGe
_chemical_formula_sum   'Ta6 Be2 Ge2'
_cell_volume   154.17598939
_cell_formula_units_Z   2
loop_
 _symmetry_equiv_pos_site_id
 _symmetry_equiv_pos_as_xyz
  1  'x, y, z'
loop_
 _atom_site_type_symbol
 _atom_site_label
 _atom_site_symmetry_multiplicity
 _atom_site_fract_x
 _atom_site_fract_y
 _atom_site_fract_z
 _atom_site_occupancy
  Ta  Ta0  1  0.996025  0.991905  0.000000  1
  Ta  Ta1  1  0.496025  0.508095  0.000000  1
  Ta  Ta2  1  0.680531  0.163398  0.500000  1
  Ta  Ta3  1  0.180531  0.336602  0.500000  1
  Ta  Ta4  1  0.821547  0.689957  0.500000  1
  Ta  Ta5  1  0.321547  0.810043  0.500000  1
  Be  Be6  1  0.621477  0.875131  0.000000  1
  Be  Be7  1  0.121477  0.624869  0.000000  1
  Ge  Ge8  1  0.880421  0.386200  0.000000  1
  Ge  Ge9  1  0.380421  0.113800  0.000000  1
