# generated using pymatgen
data_Tb6NdPI12
_symmetry_space_group_name_H-M   'P 1'
_cell_length_a   9.75732484
_cell_length_b   9.78229313
_cell_length_c   9.78714706
_cell_angle_alpha   108.02669115
_cell_angle_beta   107.89666000
_cell_angle_gamma   108.12624545
_symmetry_Int_Tables_number   1
_chemical_formula_structural   Tb6NdPI12
_chemical_formula_sum   'Tb6 Nd1 P1 I12'
_cell_volume   755.37509581
_cell_formula_units_Z   1
loop_
 _symmetry_equiv_pos_site_id
 _symmetry_equiv_pos_as_xyz
  1  'x, y, z'
loop_
 _atom_site_type_symbol
 _atom_site_label
 _atom_site_symmetry_multiplicity
 _atom_site_fract_x
 _atom_site_fract_y
 _atom_site_fract_z
 _atom_site_occupancy
  Tb  Tb0  1  0.967001  0.897543  0.699083  1
  Tb  Tb1  1  0.697636  0.964328  0.897584  1
  Tb  Tb2  1  0.098982  0.302464  0.027919  1
  Tb  Tb3  1  0.027277  0.097762  0.299448  1
  Tb  Tb4  1  0.300273  0.027010  0.097894  1
  Tb  Tb5  1  0.512869  0.513088  0.512383  1
  Nd  Nd6  1  0.894917  0.692329  0.965384  1
  P  P7  1  0.001931  0.003754  0.001205  1
  I  I8  1  0.614187  0.850045  0.534485  1
  I  I9  1  0.521971  0.611890  0.843459  1
  I  I10  1  0.848445  0.531695  0.604986  1
  I  I11  1  0.385480  0.159173  0.463284  1
  I  I12  1  0.464517  0.385077  0.158861  1
  I  I13  1  0.157701  0.463306  0.383789  1
  I  I14  1  0.687153  0.076638  0.224120  1
  I  I15  1  0.234376  0.689026  0.080542  1
  I  I16  1  0.075924  0.224541  0.687831  1
  I  I17  1  0.312596  0.926117  0.774856  1
  I  I18  1  0.770830  0.306093  0.922719  1
  I  I19  1  0.925935  0.778122  0.320168  1
