# generated using pymatgen
data_Dy2Lu14In3HgIr4
_symmetry_space_group_name_H-M   'P 1'
_cell_length_a   9.50040171
_cell_length_b   9.50040168
_cell_length_c   9.46745450
_cell_angle_alpha   59.94162434
_cell_angle_beta   59.94162374
_cell_angle_gamma   59.82202406
_symmetry_Int_Tables_number   1
_chemical_formula_structural   Dy2Lu14In3HgIr4
_chemical_formula_sum   'Dy2 Lu14 In3 Hg1 Ir4'
_cell_volume   602.88138556
_cell_formula_units_Z   1
loop_
 _symmetry_equiv_pos_site_id
 _symmetry_equiv_pos_as_xyz
  1  'x, y, z'
loop_
 _atom_site_type_symbol
 _atom_site_label
 _atom_site_symmetry_multiplicity
 _atom_site_fract_x
 _atom_site_fract_y
 _atom_site_fract_z
 _atom_site_occupancy
  Dy  Dy0  1  0.818140  0.818140  0.179185  1
  Dy  Dy1  1  0.183701  0.183701  0.814894  1
  Lu  Lu2  1  0.600879  0.600879  0.593315  1
  Lu  Lu3  1  0.602807  0.602807  0.201496  1
  Lu  Lu4  1  0.594452  0.202019  0.603061  1
  Lu  Lu5  1  0.202019  0.594452  0.603061  1
  Lu  Lu6  1  0.057823  0.440656  0.441020  1
  Lu  Lu7  1  0.437704  0.059273  0.059839  1
  Lu  Lu8  1  0.440656  0.057823  0.441020  1
  Lu  Lu9  1  0.059273  0.437704  0.059839  1
  Lu  Lu10  1  0.443072  0.443072  0.056287  1
  Lu  Lu11  1  0.056349  0.056349  0.441800  1
  Lu  Lu12  1  0.191947  0.807126  0.805863  1
  Lu  Lu13  1  0.805804  0.194079  0.193813  1
  Lu  Lu14  1  0.807126  0.191947  0.805863  1
  Lu  Lu15  1  0.194079  0.805804  0.193813  1
  In  In16  1  0.833062  0.833062  0.502005  1
  In  In17  1  0.833164  0.502012  0.833628  1
  In  In18  1  0.502012  0.833164  0.833628  1
  Hg  Hg19  1  0.838041  0.838041  0.834243  1
  Ir  Ir20  1  0.392977  0.392977  0.386653  1
  Ir  Ir21  1  0.392932  0.392932  0.827741  1
  Ir  Ir22  1  0.385482  0.826500  0.393967  1
  Ir  Ir23  1  0.826500  0.385482  0.393967  1
