# generated using pymatgen
data_Nd2ErTm7(In2Pt)4
_symmetry_space_group_name_H-M   'P 1'
_cell_length_a   3.59860200
_cell_length_b   8.17028846
_cell_length_c   18.29775302
_cell_angle_alpha   89.96177781
_cell_angle_beta   90.00000000
_cell_angle_gamma   90.00000000
_symmetry_Int_Tables_number   1
_chemical_formula_structural   Nd2ErTm7(In2Pt)4
_chemical_formula_sum   'Nd2 Er1 Tm7 In8 Pt4'
_cell_volume   537.98339501
_cell_formula_units_Z   1
loop_
 _symmetry_equiv_pos_site_id
 _symmetry_equiv_pos_as_xyz
  1  'x, y, z'
loop_
 _atom_site_type_symbol
 _atom_site_label
 _atom_site_symmetry_multiplicity
 _atom_site_fract_x
 _atom_site_fract_y
 _atom_site_fract_z
 _atom_site_occupancy
  Nd  Nd0  1  0.000000  0.999972  0.999974  1
  Nd  Nd1  1  0.000000  0.500028  0.500024  1
  Er  Er2  1  0.000000  0.742394  0.280513  1
  Tm  Tm3  1  0.000000  0.120516  0.413516  1
  Tm  Tm4  1  0.000000  0.879522  0.586541  1
  Tm  Tm5  1  0.000000  0.379542  0.913462  1
  Tm  Tm6  1  0.000000  0.620428  0.086481  1
  Tm  Tm7  1  0.000000  0.242443  0.219531  1
  Tm  Tm8  1  0.000000  0.757541  0.780470  1
  Tm  Tm9  1  0.000000  0.257519  0.719538  1
  In  In10  1  0.500000  0.421269  0.348023  1
  In  In11  1  0.500000  0.578562  0.652007  1
  In  In12  1  0.500000  0.078556  0.847988  1
  In  In13  1  0.500000  0.921551  0.151934  1
  In  In14  1  0.500000  0.301163  0.067454  1
  In  In15  1  0.500000  0.698778  0.932547  1
  In  In16  1  0.500000  0.198791  0.567475  1
  In  In17  1  0.500000  0.801293  0.432660  1
  Pt  Pt18  1  0.500000  0.026580  0.303630  1
  Pt  Pt19  1  0.500000  0.974070  0.696434  1
  Pt  Pt20  1  0.500000  0.474048  0.803596  1
  Pt  Pt21  1  0.500000  0.525434  0.196202  1
