# generated using pymatgen
data_CrTc4(NiP)4
_symmetry_space_group_name_H-M   'P 1'
_cell_length_a   6.74313611
_cell_length_b   6.74313600
_cell_length_c   6.74313615
_cell_angle_alpha   94.33285549
_cell_angle_beta   94.33286255
_cell_angle_gamma   148.09209480
_symmetry_Int_Tables_number   1
_chemical_formula_structural   CrTc4(NiP)4
_chemical_formula_sum   'Cr1 Tc4 Ni4 P4'
_cell_volume   155.81810450
_cell_formula_units_Z   1
loop_
 _symmetry_equiv_pos_site_id
 _symmetry_equiv_pos_as_xyz
  1  'x, y, z'
loop_
 _atom_site_type_symbol
 _atom_site_label
 _atom_site_symmetry_multiplicity
 _atom_site_fract_x
 _atom_site_fract_y
 _atom_site_fract_z
 _atom_site_occupancy
  Cr  Cr0  1  0.500000  0.500000  0.000000  1
  Tc  Tc1  1  0.878277  0.187922  0.066199  1
  Tc  Tc2  1  0.121723  0.812078  0.933801  1
  Tc  Tc3  1  0.187922  0.121723  0.309645  1
  Tc  Tc4  1  0.812078  0.878277  0.690355  1
  Ni  Ni5  1  0.605544  0.091493  0.697037  1
  Ni  Ni6  1  0.394456  0.908507  0.302963  1
  Ni  Ni7  1  0.091493  0.394456  0.485948  1
  Ni  Ni8  1  0.908507  0.605544  0.514052  1
  P  P9  1  0.747672  0.428169  0.175840  1
  P  P10  1  0.252328  0.571831  0.824160  1
  P  P11  1  0.428169  0.252328  0.680498  1
  P  P12  1  0.571831  0.747672  0.319502  1
