# generated using pymatgen
data_Tm16ScHg3Pt4
_symmetry_space_group_name_H-M   'P 1'
_cell_length_a   9.62564999
_cell_length_b   9.62565018
_cell_length_c   9.62564951
_cell_angle_alpha   59.19052610
_cell_angle_beta   59.19052578
_cell_angle_gamma   59.19052639
_symmetry_Int_Tables_number   1
_chemical_formula_structural   Tm16ScHg3Pt4
_chemical_formula_sum   'Tm16 Sc1 Hg3 Pt4'
_cell_volume   618.99958321
_cell_formula_units_Z   1
loop_
 _symmetry_equiv_pos_site_id
 _symmetry_equiv_pos_as_xyz
  1  'x, y, z'
loop_
 _atom_site_type_symbol
 _atom_site_label
 _atom_site_symmetry_multiplicity
 _atom_site_fract_x
 _atom_site_fract_y
 _atom_site_fract_z
 _atom_site_occupancy
  Tm  Tm0  1  0.355821  0.355821  0.355821  1
  Tm  Tm1  1  0.351765  0.351765  0.948285  1
  Tm  Tm2  1  0.351765  0.948285  0.351765  1
  Tm  Tm3  1  0.948285  0.351765  0.351765  1
  Tm  Tm4  1  0.808746  0.192830  0.192830  1
  Tm  Tm5  1  0.190505  0.813502  0.813502  1
  Tm  Tm6  1  0.192830  0.808746  0.192830  1
  Tm  Tm7  1  0.813502  0.190505  0.813502  1
  Tm  Tm8  1  0.192830  0.192830  0.808746  1
  Tm  Tm9  1  0.813502  0.813502  0.190505  1
  Tm  Tm10  1  0.931486  0.565339  0.565339  1
  Tm  Tm11  1  0.563384  0.935177  0.935177  1
  Tm  Tm12  1  0.565339  0.931486  0.565339  1
  Tm  Tm13  1  0.935177  0.563384  0.935177  1
  Tm  Tm14  1  0.565339  0.565339  0.931486  1
  Tm  Tm15  1  0.935177  0.935177  0.563384  1
  Sc  Sc16  1  0.566040  0.566040  0.566040  1
  Hg  Hg17  1  0.588432  0.588432  0.236362  1
  Hg  Hg18  1  0.588432  0.236362  0.588432  1
  Hg  Hg19  1  0.236362  0.588432  0.588432  1
  Pt  Pt20  1  0.143035  0.143035  0.143035  1
  Pt  Pt21  1  0.145956  0.145956  0.570336  1
  Pt  Pt22  1  0.145956  0.570336  0.145956  1
  Pt  Pt23  1  0.570336  0.145956  0.145956  1
