# generated using pymatgen
data_V3Si12W17
_symmetry_space_group_name_H-M   'P 1'
_cell_length_a   7.27433293
_cell_length_b   7.27433350
_cell_length_c   13.69389600
_cell_angle_alpha   90.00000000
_cell_angle_beta   90.00000000
_cell_angle_gamma   140.83414639
_symmetry_Int_Tables_number   1
_chemical_formula_structural   V3Si12W17
_chemical_formula_sum   'V3 Si12 W17'
_cell_volume   457.64958915
_cell_formula_units_Z   1
loop_
 _symmetry_equiv_pos_site_id
 _symmetry_equiv_pos_as_xyz
  1  'x, y, z'
loop_
 _atom_site_type_symbol
 _atom_site_label
 _atom_site_symmetry_multiplicity
 _atom_site_fract_x
 _atom_site_fract_y
 _atom_site_fract_z
 _atom_site_occupancy
  V  V0  1  0.499896  0.499896  0.000000  1
  V  V1  1  0.500166  0.500166  0.500000  1
  V  V2  1  0.000758  0.000758  0.000000  1
  Si  Si3  1  0.250011  0.750004  0.750588  1
  Si  Si4  1  0.750004  0.250011  0.249412  1
  Si  Si5  1  0.750004  0.250011  0.750588  1
  Si  Si6  1  0.250011  0.750004  0.249412  1
  Si  Si7  1  0.260364  0.260364  0.664969  1
  Si  Si8  1  0.750867  0.750867  0.162293  1
  Si  Si9  1  0.260364  0.260364  0.335031  1
  Si  Si10  1  0.750867  0.750867  0.837707  1
  Si  Si11  1  0.573944  0.904254  0.500000  1
  Si  Si12  1  0.086728  0.412336  0.000000  1
  Si  Si13  1  0.904254  0.573944  0.500000  1
  Si  Si14  1  0.412336  0.086728  0.000000  1
  W  W15  1  0.073210  0.425746  0.400482  1
  W  W16  1  0.573914  0.925759  0.901622  1
  W  W17  1  0.425746  0.073210  0.599518  1
  W  W18  1  0.925759  0.573914  0.098378  1
  W  W19  1  0.848876  0.651834  0.677001  1
  W  W20  1  0.348924  0.151728  0.175512  1
  W  W21  1  0.651834  0.848876  0.322999  1
  W  W22  1  0.151728  0.348924  0.824488  1
  W  W23  1  0.651834  0.848876  0.677001  1
  W  W24  1  0.151728  0.348924  0.175512  1
  W  W25  1  0.848876  0.651834  0.322999  1
  W  W26  1  0.348924  0.151728  0.824488  1
  W  W27  1  0.425746  0.073210  0.400482  1
  W  W28  1  0.925759  0.573914  0.901622  1
  W  W29  1  0.073210  0.425746  0.599518  1
  W  W30  1  0.573914  0.925759  0.098378  1
  W  W31  1  0.999438  0.999438  0.500000  1
