# generated using pymatgen
data_NaTcO4
_symmetry_space_group_name_H-M   'P 1'
_cell_length_a   9.08472400
_cell_length_b   6.03585631
_cell_length_c   9.10255901
_cell_angle_alpha   54.15324905
_cell_angle_beta   90.00000000
_cell_angle_gamma   90.00000000
_symmetry_Int_Tables_number   1
_chemical_formula_structural   NaTcO4
_chemical_formula_sum   'Na4 Tc4 O16'
_cell_volume   404.58834169
_cell_formula_units_Z   4
loop_
 _symmetry_equiv_pos_site_id
 _symmetry_equiv_pos_as_xyz
  1  'x, y, z'
loop_
 _atom_site_type_symbol
 _atom_site_label
 _atom_site_symmetry_multiplicity
 _atom_site_fract_x
 _atom_site_fract_y
 _atom_site_fract_z
 _atom_site_occupancy
  Na  Na0  1  0.546752  0.874358  0.361097  1
  Na  Na1  1  0.046752  0.125642  0.138903  1
  Na  Na2  1  0.953248  0.874358  0.861097  1
  Na  Na3  1  0.453248  0.125642  0.638903  1
  Tc  Tc4  1  0.693156  0.382136  0.856007  1
  Tc  Tc5  1  0.193156  0.617864  0.643993  1
  Tc  Tc6  1  0.806844  0.382136  0.356007  1
  Tc  Tc7  1  0.306844  0.617864  0.143993  1
  O  O8  1  0.766917  0.704978  0.298975  1
  O  O9  1  0.610324  0.414267  0.670778  1
  O  O10  1  0.855720  0.192836  0.912822  1
  O  O11  1  0.074137  0.784093  0.460637  1
  O  O12  1  0.574137  0.215907  0.039363  1
  O  O13  1  0.355720  0.807164  0.587178  1
  O  O14  1  0.110324  0.585733  0.829222  1
  O  O15  1  0.733083  0.704978  0.798975  1
  O  O16  1  0.266917  0.295022  0.201025  1
  O  O17  1  0.889676  0.414267  0.170778  1
  O  O18  1  0.644280  0.192836  0.412822  1
  O  O19  1  0.425863  0.784093  0.960637  1
  O  O20  1  0.925863  0.215907  0.539363  1
  O  O21  1  0.144280  0.807164  0.087178  1
  O  O22  1  0.389676  0.585733  0.329222  1
  O  O23  1  0.233083  0.295022  0.701025  1
