# generated using pymatgen
data_Y3Tl2InPdPt2
_symmetry_space_group_name_H-M   'P 1'
_cell_length_a   7.86747291
_cell_length_b   7.84940290
_cell_length_c   3.77277100
_cell_angle_alpha   90.00000000
_cell_angle_beta   90.00000000
_cell_angle_gamma   119.92406149
_symmetry_Int_Tables_number   1
_chemical_formula_structural   Y3Tl2InPdPt2
_chemical_formula_sum   'Y3 Tl2 In1 Pd1 Pt2'
_cell_volume   201.92717588
_cell_formula_units_Z   1
loop_
 _symmetry_equiv_pos_site_id
 _symmetry_equiv_pos_as_xyz
  1  'x, y, z'
loop_
 _atom_site_type_symbol
 _atom_site_label
 _atom_site_symmetry_multiplicity
 _atom_site_fract_x
 _atom_site_fract_y
 _atom_site_fract_z
 _atom_site_occupancy
  Y  Y0  1  0.409314  0.999158  0.500000  1
  Y  Y1  1  0.000000  0.409705  0.500000  1
  Y  Y2  1  0.590686  0.589844  0.500000  1
  Tl  Tl3  1  0.736330  0.999245  0.000000  1
  Tl  Tl4  1  0.263670  0.262914  0.000000  1
  In  In5  1  0.000000  0.737888  0.000000  1
  Pd  Pd6  1  0.000000  0.991394  0.500000  1
  Pt  Pt7  1  0.674370  0.342111  0.000000  1
  Pt  Pt8  1  0.325630  0.667742  0.000000  1
