# generated using pymatgen
data_Dy3Ho9IrOs3
_symmetry_space_group_name_H-M   'P 1'
_cell_length_a   6.35104700
_cell_length_b   7.35268361
_cell_length_c   9.02888300
_cell_angle_alpha   90.00000000
_cell_angle_beta   90.00000000
_cell_angle_gamma   90.05840536
_symmetry_Int_Tables_number   1
_chemical_formula_structural   Dy3Ho9IrOs3
_chemical_formula_sum   'Dy3 Ho9 Ir1 Os3'
_cell_volume   421.62369029
_cell_formula_units_Z   1
loop_
 _symmetry_equiv_pos_site_id
 _symmetry_equiv_pos_as_xyz
  1  'x, y, z'
loop_
 _atom_site_type_symbol
 _atom_site_label
 _atom_site_symmetry_multiplicity
 _atom_site_fract_x
 _atom_site_fract_y
 _atom_site_fract_z
 _atom_site_occupancy
  Dy  Dy0  1  0.870463  0.538074  0.250000  1
  Dy  Dy1  1  0.629676  0.039535  0.250000  1
  Dy  Dy2  1  0.129982  0.461435  0.750000  1
  Ho  Ho3  1  0.332682  0.674233  0.062275  1
  Ho  Ho4  1  0.169554  0.176867  0.438055  1
  Ho  Ho5  1  0.669074  0.324468  0.563090  1
  Ho  Ho6  1  0.828479  0.824140  0.935070  1
  Ho  Ho7  1  0.669074  0.324468  0.936910  1
  Ho  Ho8  1  0.828479  0.824140  0.564930  1
  Ho  Ho9  1  0.332682  0.674233  0.437725  1
  Ho  Ho10  1  0.169554  0.176867  0.061945  1
  Ho  Ho11  1  0.369170  0.961209  0.750000  1
  Ir  Ir12  1  0.040657  0.884061  0.250000  1
  Os  Os13  1  0.460124  0.383772  0.250000  1
  Os  Os14  1  0.961733  0.115725  0.750000  1
  Os  Os15  1  0.538619  0.616775  0.750000  1
