# generated using pymatgen
data_Nd(PaTe2)6
_symmetry_space_group_name_H-M   'P 1'
_cell_length_a   12.40694754
_cell_length_b   12.43831025
_cell_length_c   4.22724900
_cell_angle_alpha   90.00000000
_cell_angle_beta   90.00000000
_cell_angle_gamma   119.80885330
_symmetry_Int_Tables_number   1
_chemical_formula_structural   Nd(PaTe2)6
_chemical_formula_sum   'Nd1 Pa6 Te12'
_cell_volume   566.04124627
_cell_formula_units_Z   1
loop_
 _symmetry_equiv_pos_site_id
 _symmetry_equiv_pos_as_xyz
  1  'x, y, z'
loop_
 _atom_site_type_symbol
 _atom_site_label
 _atom_site_symmetry_multiplicity
 _atom_site_fract_x
 _atom_site_fract_y
 _atom_site_fract_z
 _atom_site_occupancy
  Nd  Nd0  1  0.389994  0.492488  0.000000  1
  Pa  Pa1  1  0.509686  0.900324  0.000000  1
  Pa  Pa2  1  0.100784  0.610101  0.000000  1
  Pa  Pa3  1  0.212494  0.041460  0.500000  1
  Pa  Pa4  1  0.958335  0.170560  0.500000  1
  Pa  Pa5  1  0.829492  0.787709  0.500000  1
  Pa  Pa6  1  0.664542  0.333650  0.000000  1
  Te  Te7  1  0.409444  0.083766  0.000000  1
  Te  Te8  1  0.913309  0.324188  0.000000  1
  Te  Te9  1  0.678082  0.592123  0.000000  1
  Te  Te10  1  0.156802  0.194961  0.000000  1
  Te  Te11  1  0.803121  0.961806  0.000000  1
  Te  Te12  1  0.039059  0.841467  0.000000  1
  Te  Te13  1  0.532223  0.724805  0.500000  1
  Te  Te14  1  0.881126  0.544167  0.500000  1
  Te  Te15  1  0.663379  0.119327  0.500000  1
  Te  Te16  1  0.458941  0.331177  0.500000  1
  Te  Te17  1  0.184308  0.470065  0.500000  1
  Te  Te18  1  0.281546  0.809184  0.500000  1
