# generated using pymatgen
data_TlCrSb6(Pb4O13)2
_symmetry_space_group_name_H-M   'P 1'
_cell_length_a   7.56118518
_cell_length_b   13.14779331
_cell_length_c   7.56096190
_cell_angle_alpha   89.57174371
_cell_angle_beta   60.42013787
_cell_angle_gamma   106.48766001
_symmetry_Int_Tables_number   1
_chemical_formula_structural   TlCrSb6(Pb4O13)2
_chemical_formula_sum   'Tl1 Cr1 Sb6 Pb8 O26'
_cell_volume   616.92035238
_cell_formula_units_Z   1
loop_
 _symmetry_equiv_pos_site_id
 _symmetry_equiv_pos_as_xyz
  1  'x, y, z'
loop_
 _atom_site_type_symbol
 _atom_site_label
 _atom_site_symmetry_multiplicity
 _atom_site_fract_x
 _atom_site_fract_y
 _atom_site_fract_z
 _atom_site_occupancy
  Tl  Tl0  1  0.499979  0.749968  0.250075  1
  Cr  Cr1  1  0.500852  0.249858  0.751122  1
  Sb  Sb2  1  0.999019  0.249960  0.750565  1
  Sb  Sb3  1  0.998890  0.749839  0.249799  1
  Sb  Sb4  1  0.502505  0.004133  0.998374  1
  Sb  Sb5  1  0.497761  0.496882  0.500848  1
  Sb  Sb6  1  0.500452  0.249967  0.249196  1
  Sb  Sb7  1  0.499627  0.749837  0.749048  1
  Pb  Pb8  1  0.003377  0.499585  0.004017  1
  Pb  Pb9  1  0.999950  0.998329  0.502036  1
  Pb  Pb10  1  0.497942  0.494407  0.998328  1
  Pb  Pb11  1  0.500024  0.006415  0.499796  1
  Pb  Pb12  1  0.001829  0.251854  0.249291  1
  Pb  Pb13  1  0.997424  0.749656  0.747777  1
  Pb  Pb14  1  0.992660  0.494405  0.503579  1
  Pb  Pb15  1  0.006665  0.006319  0.993438  1
  O  O16  1  0.879191  0.063764  0.315104  1
  O  O17  1  0.876736  0.558761  0.818029  1
  O  O18  1  0.171700  0.212857  0.859810  1
  O  O19  1  0.139989  0.706161  0.383301  1
  O  O20  1  0.572503  0.413170  0.659365  1
  O  O21  1  0.589000  0.930487  0.158478  1
  O  O22  1  0.572419  0.212900  0.459035  1
  O  O23  1  0.589243  0.706164  0.934027  1
  O  O24  1  0.578128  0.408725  0.266804  1
  O  O25  1  0.577454  0.910209  0.776299  1
  O  O26  1  0.179364  0.215407  0.464024  1
  O  O27  1  0.183899  0.707052  0.976819  1
  O  O28  1  0.175637  0.408655  0.669382  1
  O  O29  1  0.186480  0.910246  0.167264  1
  O  O30  1  0.824274  0.286142  0.645174  1
  O  O31  1  0.856674  0.792329  0.118421  1
  O  O32  1  0.430418  0.089083  0.841233  1
  O  O33  1  0.412703  0.571039  0.341963  1
  O  O34  1  0.431276  0.286071  0.038194  1
  O  O35  1  0.410830  0.792365  0.564261  1
  O  O36  1  0.422430  0.092025  0.230671  1
  O  O37  1  0.423609  0.590833  0.720652  1
  O  O38  1  0.818748  0.283590  0.035223  1
  O  O39  1  0.814134  0.792713  0.521437  1
  O  O40  1  0.822669  0.092026  0.830196  1
  O  O41  1  0.811538  0.590811  0.332546  1
