# generated using pymatgen
data_Li2Dy5Tm11(InRh2)2
_symmetry_space_group_name_H-M   'P 1'
_cell_length_a   9.60350626
_cell_length_b   9.56302654
_cell_length_c   9.56302629
_cell_angle_alpha   59.57916169
_cell_angle_beta   59.62554193
_cell_angle_gamma   59.62554280
_symmetry_Int_Tables_number   1
_chemical_formula_structural   Li2Dy5Tm11(InRh2)2
_chemical_formula_sum   'Li2 Dy5 Tm11 In2 Rh4'
_cell_volume   615.51628133
_cell_formula_units_Z   1
loop_
 _symmetry_equiv_pos_site_id
 _symmetry_equiv_pos_as_xyz
  1  'x, y, z'
loop_
 _atom_site_type_symbol
 _atom_site_label
 _atom_site_symmetry_multiplicity
 _atom_site_fract_x
 _atom_site_fract_y
 _atom_site_fract_z
 _atom_site_occupancy
  Li  Li0  1  0.428262  0.427953  0.427953  1
  Li  Li1  1  0.721598  0.427668  0.427668  1
  Dy  Dy2  1  0.061476  0.065859  0.436899  1
  Dy  Dy3  1  0.435463  0.063132  0.435339  1
  Dy  Dy4  1  0.061476  0.436899  0.065859  1
  Dy  Dy5  1  0.052217  0.649961  0.649961  1
  Dy  Dy6  1  0.435463  0.435339  0.063132  1
  Tm  Tm7  1  0.651228  0.040896  0.652355  1
  Tm  Tm8  1  0.188914  0.812802  0.187121  1
  Tm  Tm9  1  0.188914  0.187121  0.812802  1
  Tm  Tm10  1  0.811142  0.811642  0.188524  1
  Tm  Tm11  1  0.436584  0.062606  0.062606  1
  Tm  Tm12  1  0.819414  0.182845  0.182845  1
  Tm  Tm13  1  0.059575  0.440346  0.440346  1
  Tm  Tm14  1  0.811142  0.188524  0.811642  1
  Tm  Tm15  1  0.191825  0.809703  0.809703  1
  Tm  Tm16  1  0.651228  0.652355  0.040896  1
  Tm  Tm17  1  0.647908  0.651502  0.651502  1
  In  In18  1  0.422626  0.743606  0.415211  1
  In  In19  1  0.422626  0.415211  0.743606  1
  Rh  Rh20  1  0.858269  0.853444  0.425761  1
  Rh  Rh21  1  0.857472  0.857677  0.857677  1
  Rh  Rh22  1  0.426911  0.857145  0.857145  1
  Rh  Rh23  1  0.858269  0.425761  0.853444  1
