# generated using pymatgen
data_AcAs12Os3Rh
_symmetry_space_group_name_H-M   'P 1'
_cell_length_a   7.49233704
_cell_length_b   7.49233693
_cell_length_c   7.49233702
_cell_angle_alpha   109.42708281
_cell_angle_beta   109.42709119
_cell_angle_gamma   109.42709111
_symmetry_Int_Tables_number   1
_chemical_formula_structural   AcAs12Os3Rh
_chemical_formula_sum   'Ac1 As12 Os3 Rh1'
_cell_volume   324.29302812
_cell_formula_units_Z   1
loop_
 _symmetry_equiv_pos_site_id
 _symmetry_equiv_pos_as_xyz
  1  'x, y, z'
loop_
 _atom_site_type_symbol
 _atom_site_label
 _atom_site_symmetry_multiplicity
 _atom_site_fract_x
 _atom_site_fract_y
 _atom_site_fract_z
 _atom_site_occupancy
  Ac  Ac0  1  0.000000  0.000000  0.000000  1
  As  As1  1  0.348456  0.197799  0.848803  1
  As  As2  1  0.651544  0.802201  0.151197  1
  As  As3  1  0.651240  0.500413  0.852093  1
  As  As4  1  0.348760  0.499587  0.147907  1
  As  As5  1  0.197799  0.848803  0.348456  1
  As  As6  1  0.802201  0.151197  0.651544  1
  As  As7  1  0.500413  0.852093  0.651240  1
  As  As8  1  0.499587  0.147907  0.348760  1
  As  As9  1  0.848803  0.348456  0.197799  1
  As  As10  1  0.151197  0.651544  0.802201  1
  As  As11  1  0.852093  0.651240  0.500413  1
  As  As12  1  0.147907  0.348760  0.499587  1
  Os  Os13  1  0.000000  0.000000  0.500000  1
  Os  Os14  1  0.500000  0.000000  0.000000  1
  Os  Os15  1  0.000000  0.500000  0.000000  1
  Rh  Rh16  1  0.500000  0.500000  0.500000  1
