# generated using pymatgen
data_YTh(Al3Pd)6
_symmetry_space_group_name_H-M   'P 1'
_cell_length_a   10.44200197
_cell_length_b   10.44200278
_cell_length_c   10.44200400
_cell_angle_alpha   42.38541349
_cell_angle_beta   42.38541678
_cell_angle_gamma   42.38541059
_symmetry_Int_Tables_number   1
_chemical_formula_structural   YTh(Al3Pd)6
_chemical_formula_sum   'Y1 Th1 Al18 Pd6'
_cell_volume   468.37903844
_cell_formula_units_Z   1
loop_
 _symmetry_equiv_pos_site_id
 _symmetry_equiv_pos_as_xyz
  1  'x, y, z'
loop_
 _atom_site_type_symbol
 _atom_site_label
 _atom_site_symmetry_multiplicity
 _atom_site_fract_x
 _atom_site_fract_y
 _atom_site_fract_z
 _atom_site_occupancy
  Y  Y0  1  0.833145  0.833145  0.833145  1
  Th  Th1  1  0.166874  0.166874  0.166874  1
  Al  Al2  1  0.106598  0.436905  0.758969  1
  Al  Al3  1  0.436905  0.758969  0.106598  1
  Al  Al4  1  0.568964  0.890528  0.238114  1
  Al  Al5  1  0.950122  0.950122  0.950122  1
  Al  Al6  1  0.049322  0.049322  0.049322  1
  Al  Al7  1  0.295556  0.700211  0.504246  1
  Al  Al8  1  0.890528  0.238114  0.568964  1
  Al  Al9  1  0.384142  0.384142  0.384142  1
  Al  Al10  1  0.504246  0.295556  0.700211  1
  Al  Al11  1  0.238114  0.568964  0.890528  1
  Al  Al12  1  0.716232  0.716232  0.716232  1
  Al  Al13  1  0.615848  0.615848  0.615848  1
  Al  Al14  1  0.334782  0.999394  0.665796  1
  Al  Al15  1  0.700211  0.504246  0.295556  1
  Al  Al16  1  0.665796  0.334782  0.999394  1
  Al  Al17  1  0.284238  0.284238  0.284238  1
  Al  Al18  1  0.999394  0.665796  0.334782  1
  Al  Al19  1  0.758969  0.106598  0.436905  1
  Pd  Pd20  1  0.418106  0.077181  0.760769  1
  Pd  Pd21  1  0.580665  0.239959  0.923334  1
  Pd  Pd22  1  0.077181  0.760769  0.418106  1
  Pd  Pd23  1  0.760769  0.418106  0.077181  1
  Pd  Pd24  1  0.923334  0.580665  0.239959  1
  Pd  Pd25  1  0.239959  0.923334  0.580665  1
