# generated using pymatgen
data_NaSc6BCl12
_symmetry_space_group_name_H-M   'P 1'
_cell_length_a   8.20113476
_cell_length_b   8.16279023
_cell_length_c   8.17210500
_cell_angle_alpha   106.28173663
_cell_angle_beta   107.01540985
_cell_angle_gamma   106.44971975
_symmetry_Int_Tables_number   1
_chemical_formula_structural   NaSc6BCl12
_chemical_formula_sum   'Na1 Sc6 B1 Cl12'
_cell_volume   460.68572712
_cell_formula_units_Z   1
loop_
 _symmetry_equiv_pos_site_id
 _symmetry_equiv_pos_as_xyz
  1  'x, y, z'
loop_
 _atom_site_type_symbol
 _atom_site_label
 _atom_site_symmetry_multiplicity
 _atom_site_fract_x
 _atom_site_fract_y
 _atom_site_fract_z
 _atom_site_occupancy
  Na  Na0  1  0.500000  0.500000  0.500000  1
  Sc  Sc1  1  0.103588  0.313014  0.026639  1
  Sc  Sc2  1  0.312638  0.027082  0.102861  1
  Sc  Sc3  1  0.025923  0.104381  0.312122  1
  Sc  Sc4  1  0.974078  0.895619  0.687879  1
  Sc  Sc5  1  0.687362  0.972919  0.897139  1
  Sc  Sc6  1  0.896412  0.686986  0.973361  1
  B  B7  1  0.000000  0.000000  0.000000  1
  Cl  Cl8  1  0.220917  0.684792  0.076682  1
  Cl  Cl9  1  0.441958  0.362388  0.135627  1
  Cl  Cl10  1  0.683549  0.075384  0.221336  1
  Cl  Cl11  1  0.925784  0.779882  0.316274  1
  Cl  Cl12  1  0.135995  0.443021  0.361647  1
  Cl  Cl13  1  0.359615  0.134446  0.440727  1
  Cl  Cl14  1  0.640385  0.865554  0.559274  1
  Cl  Cl15  1  0.864006  0.556979  0.638353  1
  Cl  Cl16  1  0.074217  0.220118  0.683727  1
  Cl  Cl17  1  0.316452  0.924617  0.778664  1
  Cl  Cl18  1  0.558042  0.637612  0.864374  1
  Cl  Cl19  1  0.779083  0.315208  0.923318  1
