# generated using pymatgen
data_Ba12Pr3YAl8O30
_symmetry_space_group_name_H-M   'P 1'
_cell_length_a   6.03463725
_cell_length_b   8.02395833
_cell_length_c   18.73903998
_cell_angle_alpha   88.63945268
_cell_angle_beta   89.92639511
_cell_angle_gamma   89.99340865
_symmetry_Int_Tables_number   1
_chemical_formula_structural   Ba12Pr3YAl8O30
_chemical_formula_sum   'Ba12 Pr3 Y1 Al8 O30'
_cell_volume   907.11919396
_cell_formula_units_Z   1
loop_
 _symmetry_equiv_pos_site_id
 _symmetry_equiv_pos_as_xyz
  1  'x, y, z'
loop_
 _atom_site_type_symbol
 _atom_site_label
 _atom_site_symmetry_multiplicity
 _atom_site_fract_x
 _atom_site_fract_y
 _atom_site_fract_z
 _atom_site_occupancy
  Ba  Ba0  1  0.756699  0.502833  0.085188  1
  Ba  Ba1  1  0.243305  0.496329  0.915597  1
  Ba  Ba2  1  0.758616  0.499414  0.415719  1
  Ba  Ba3  1  0.246634  0.504382  0.581747  1
  Ba  Ba4  1  0.749195  0.964891  0.094255  1
  Ba  Ba5  1  0.250990  0.033619  0.906853  1
  Ba  Ba6  1  0.749589  0.029826  0.409052  1
  Ba  Ba7  1  0.254480  0.967493  0.588611  1
  Ba  Ba8  1  0.726774  0.997848  0.748406  1
  Ba  Ba9  1  0.271320  0.000333  0.253073  1
  Ba  Ba10  1  0.670742  0.499542  0.749762  1
  Ba  Ba11  1  0.326524  0.501647  0.251910  1
  Pr  Pr12  1  0.748723  0.754719  0.910648  1
  Pr  Pr13  1  0.251136  0.244668  0.090351  1
  Pr  Pr14  1  0.750672  0.247154  0.588604  1
  Y  Y15  1  0.253085  0.752165  0.410711  1
  Al  Al16  1  0.750645  0.752857  0.554044  1
  Al  Al17  1  0.254896  0.248716  0.440580  1
  Al  Al18  1  0.747406  0.247337  0.941272  1
  Al  Al19  1  0.252261  0.752021  0.059541  1
  Al  Al20  1  0.769329  0.780585  0.269500  1
  Al  Al21  1  0.225710  0.219718  0.733526  1
  Al  Al22  1  0.772127  0.219419  0.235556  1
  Al  Al23  1  0.225964  0.780147  0.764418  1
  O  O24  1  0.206786  0.000027  0.749300  1
  O  O25  1  0.789985  0.999409  0.251834  1
  O  O26  1  0.502125  0.763786  0.007832  1
  O  O27  1  0.497481  0.235818  0.992941  1
  O  O28  1  0.500976  0.236898  0.493468  1
  O  O29  1  0.500178  0.763564  0.501382  1
  O  O30  1  0.766035  0.938060  0.605523  1
  O  O31  1  0.239399  0.055239  0.392968  1
  O  O32  1  0.765364  0.062024  0.889354  1
  O  O33  1  0.235011  0.936902  0.111563  1
  O  O34  1  0.022525  0.763440  0.998459  1
  O  O35  1  0.976897  0.235872  0.002515  1
  O  O36  1  0.022719  0.238594  0.500734  1
  O  O37  1  0.985448  0.763489  0.493604  1
  O  O38  1  0.320657  0.697306  0.684310  1
  O  O39  1  0.675050  0.304326  0.314738  1
  O  O40  1  0.318523  0.303934  0.813586  1
  O  O41  1  0.690773  0.692127  0.188954  1
  O  O42  1  0.434042  0.752508  0.832413  1
  O  O43  1  0.566178  0.246229  0.167222  1
  O  O44  1  0.434871  0.247357  0.666056  1
  O  O45  1  0.547441  0.754935  0.333352  1
  O  O46  1  0.965566  0.727825  0.803072  1
  O  O47  1  0.033792  0.271370  0.197937  1
  O  O48  1  0.965016  0.272585  0.695828  1
  O  O49  1  0.023318  0.731686  0.313799  1
  O  O50  1  0.758753  0.545999  0.591418  1
  O  O51  1  0.247305  0.461278  0.405876  1
  O  O52  1  0.757387  0.455511  0.904311  1
  O  O53  1  0.243576  0.544236  0.096725  1
