# generated using pymatgen
data_HoMgAlPt3
_symmetry_space_group_name_H-M   'P 1'
_cell_length_a   5.14478519
_cell_length_b   5.14478457
_cell_length_c   5.14478439
_cell_angle_alpha   64.81926154
_cell_angle_beta   64.81926064
_cell_angle_gamma   64.81925496
_symmetry_Int_Tables_number   1
_chemical_formula_structural   HoMgAlPt3
_chemical_formula_sum   'Ho1 Mg1 Al1 Pt3'
_cell_volume   106.44072632
_cell_formula_units_Z   1
loop_
 _symmetry_equiv_pos_site_id
 _symmetry_equiv_pos_as_xyz
  1  'x, y, z'
loop_
 _atom_site_type_symbol
 _atom_site_label
 _atom_site_symmetry_multiplicity
 _atom_site_fract_x
 _atom_site_fract_y
 _atom_site_fract_z
 _atom_site_occupancy
  Ho  Ho0  1  0.246825  0.246825  0.246825  1
  Mg  Mg1  1  0.993106  0.993106  0.993106  1
  Al  Al2  1  0.627506  0.627506  0.627506  1
  Pt  Pt3  1  0.628330  0.628330  0.125907  1
  Pt  Pt4  1  0.628330  0.125907  0.628330  1
  Pt  Pt5  1  0.125907  0.628330  0.628330  1
