# generated using pymatgen
data_La5Nd3SbPd24
_symmetry_space_group_name_H-M   'P 1'
_cell_length_a   8.58079587
_cell_length_b   8.58079587
_cell_length_c   8.58079587
_cell_angle_alpha   90.05341858
_cell_angle_beta   90.05341858
_cell_angle_gamma   90.05341858
_symmetry_Int_Tables_number   1
_chemical_formula_structural   La5Nd3SbPd24
_chemical_formula_sum   'La5 Nd3 Sb1 Pd24'
_cell_volume   631.80367028
_cell_formula_units_Z   1
loop_
 _symmetry_equiv_pos_site_id
 _symmetry_equiv_pos_as_xyz
  1  'x, y, z'
loop_
 _atom_site_type_symbol
 _atom_site_label
 _atom_site_symmetry_multiplicity
 _atom_site_fract_x
 _atom_site_fract_y
 _atom_site_fract_z
 _atom_site_occupancy
  La  La0  1  0.747784  0.747784  0.747784  1
  La  La1  1  0.747965  0.252181  0.252181  1
  La  La2  1  0.252181  0.252181  0.747965  1
  La  La3  1  0.252181  0.747965  0.252181  1
  La  La4  1  0.251847  0.251847  0.251847  1
  Nd  Nd5  1  0.748237  0.748237  0.251662  1
  Nd  Nd6  1  0.748237  0.251662  0.748237  1
  Nd  Nd7  1  0.251662  0.748237  0.748237  1
  Sb  Sb8  1  0.999869  0.999869  0.999869  1
  Pd  Pd9  1  0.999532  0.999532  0.313941  1
  Pd  Pd10  1  0.732652  0.000039  0.500033  1
  Pd  Pd11  1  0.732652  0.500033  0.000039  1
  Pd  Pd12  1  0.500033  0.000039  0.732652  1
  Pd  Pd13  1  0.000039  0.732652  0.500033  1
  Pd  Pd14  1  0.500256  0.999635  0.267342  1
  Pd  Pd15  1  0.999635  0.267342  0.500256  1
  Pd  Pd16  1  0.500033  0.732652  0.000039  1
  Pd  Pd17  1  0.255474  0.500368  0.500368  1
  Pd  Pd18  1  0.500000  0.500000  0.744551  1
  Pd  Pd19  1  0.500368  0.500368  0.255474  1
  Pd  Pd20  1  0.500368  0.255474  0.500368  1
  Pd  Pd21  1  0.500000  0.744551  0.500000  1
  Pd  Pd22  1  0.744551  0.500000  0.500000  1
  Pd  Pd23  1  0.313941  0.999532  0.999532  1
  Pd  Pd24  1  0.000051  0.000051  0.686254  1
  Pd  Pd25  1  0.999635  0.500256  0.267342  1
  Pd  Pd26  1  0.999532  0.313941  0.999532  1
  Pd  Pd27  1  0.000051  0.686254  0.000051  1
  Pd  Pd28  1  0.686254  0.000051  0.000051  1
  Pd  Pd29  1  0.267342  0.500256  0.999635  1
  Pd  Pd30  1  0.267342  0.999635  0.500256  1
  Pd  Pd31  1  0.000039  0.500033  0.732652  1
  Pd  Pd32  1  0.500256  0.267342  0.999635  1
