# generated using pymatgen
data_K5Tc3S7
_symmetry_space_group_name_H-M   'P 1'
_cell_length_a   10.51158006
_cell_length_b   10.51158055
_cell_length_c   10.72128643
_cell_angle_alpha   59.56008995
_cell_angle_beta   59.56008999
_cell_angle_gamma   59.78920529
_symmetry_Int_Tables_number   1
_chemical_formula_structural   K5Tc3S7
_chemical_formula_sum   'K10 Tc6 S14'
_cell_volume   830.73144254
_cell_formula_units_Z   2
loop_
 _symmetry_equiv_pos_site_id
 _symmetry_equiv_pos_as_xyz
  1  'x, y, z'
loop_
 _atom_site_type_symbol
 _atom_site_label
 _atom_site_symmetry_multiplicity
 _atom_site_fract_x
 _atom_site_fract_y
 _atom_site_fract_z
 _atom_site_occupancy
  K  K0  1  0.008527  0.008527  0.990787  1
  K  K1  1  0.411096  0.985751  0.002132  1
  K  K2  1  0.401775  0.996585  0.597019  1
  K  K3  1  0.855555  0.855555  0.861796  1
  K  K4  1  0.839448  0.839448  0.422748  1
  K  K5  1  0.996585  0.401775  0.597019  1
  K  K6  1  0.031256  0.031256  0.430640  1
  K  K7  1  0.985751  0.411096  0.002132  1
  K  K8  1  0.182117  0.588784  0.114412  1
  K  K9  1  0.588784  0.182117  0.114412  1
  Tc  Tc10  1  0.373326  0.626478  0.623021  1
  Tc  Tc11  1  0.373315  0.373315  0.627350  1
  Tc  Tc12  1  0.371202  0.625175  0.378927  1
  Tc  Tc13  1  0.626478  0.373326  0.623021  1
  Tc  Tc14  1  0.625499  0.625499  0.372305  1
  Tc  Tc15  1  0.625175  0.371202  0.378927  1
  S  S16  1  0.209184  0.209184  0.794103  1
  S  S17  1  0.201046  0.792123  0.780430  1
  S  S18  1  0.385040  0.385040  0.841713  1
  S  S19  1  0.150870  0.614439  0.617878  1
  S  S20  1  0.616540  0.616540  0.608515  1
  S  S21  1  0.191480  0.795462  0.233425  1
  S  S22  1  0.382668  0.382668  0.390233  1
  S  S23  1  0.388645  0.847043  0.381849  1
  S  S24  1  0.614439  0.150870  0.617878  1
  S  S25  1  0.792123  0.201046  0.780430  1
  S  S26  1  0.847043  0.388645  0.381849  1
  S  S27  1  0.612404  0.612404  0.159532  1
  S  S28  1  0.791968  0.791968  0.196892  1
  S  S29  1  0.795462  0.191480  0.233425  1
