# generated using pymatgen
data_Zr4Ti5AlPt2
_symmetry_space_group_name_H-M   'P 1'
_cell_length_a   5.52210900
_cell_length_b   5.52402269
_cell_length_c   8.42187600
_cell_angle_alpha   90.00000000
_cell_angle_beta   90.00000000
_cell_angle_gamma   119.98854682
_symmetry_Int_Tables_number   1
_chemical_formula_structural   Zr4Ti5AlPt2
_chemical_formula_sum   'Zr4 Ti5 Al1 Pt2'
_cell_volume   222.51024579
_cell_formula_units_Z   1
loop_
 _symmetry_equiv_pos_site_id
 _symmetry_equiv_pos_as_xyz
  1  'x, y, z'
loop_
 _atom_site_type_symbol
 _atom_site_label
 _atom_site_symmetry_multiplicity
 _atom_site_fract_x
 _atom_site_fract_y
 _atom_site_fract_z
 _atom_site_occupancy
  Zr  Zr0  1  0.668706  0.337411  0.063595  1
  Zr  Zr1  1  0.668706  0.337411  0.436406  1
  Zr  Zr2  1  0.339241  0.678481  0.563689  1
  Zr  Zr3  1  0.339241  0.678481  0.936311  1
  Ti  Ti4  1  0.169478  0.338954  0.250000  1
  Ti  Ti5  1  0.173773  0.830677  0.250000  1
  Ti  Ti6  1  0.656906  0.830677  0.250000  1
  Ti  Ti7  1  0.335406  0.159333  0.750000  1
  Ti  Ti8  1  0.823927  0.159333  0.750000  1
  Al  Al9  1  0.825498  0.650995  0.750000  1
  Pt  Pt10  1  0.999561  0.999122  0.000685  1
  Pt  Pt11  1  0.999561  0.999122  0.499316  1
