# generated using pymatgen
data_Th3CuHg3Au2
_symmetry_space_group_name_H-M   'P 1'
_cell_length_a   7.86246315
_cell_length_b   7.86246546
_cell_length_c   4.03276100
_cell_angle_alpha   90.00000000
_cell_angle_beta   90.00000000
_cell_angle_gamma   120.07721659
_symmetry_Int_Tables_number   1
_chemical_formula_structural   Th3CuHg3Au2
_chemical_formula_sum   'Th3 Cu1 Hg3 Au2'
_cell_volume   215.73074601
_cell_formula_units_Z   1
loop_
 _symmetry_equiv_pos_site_id
 _symmetry_equiv_pos_as_xyz
  1  'x, y, z'
loop_
 _atom_site_type_symbol
 _atom_site_label
 _atom_site_symmetry_multiplicity
 _atom_site_fract_x
 _atom_site_fract_y
 _atom_site_fract_z
 _atom_site_occupancy
  Th  Th0  1  0.403993  0.403993  0.000000  1
  Th  Th1  1  0.596405  0.000361  0.000000  1
  Th  Th2  1  0.000361  0.596405  0.000000  1
  Cu  Cu3  1  0.998077  0.998077  0.000000  1
  Hg  Hg4  1  0.248725  0.001028  0.500000  1
  Hg  Hg5  1  0.001028  0.248725  0.500000  1
  Hg  Hg6  1  0.750343  0.750343  0.500000  1
  Au  Au7  1  0.333182  0.667884  0.500000  1
  Au  Au8  1  0.667884  0.333182  0.500000  1
