# generated using pymatgen
data_CaCd4O5
_symmetry_space_group_name_H-M   'P 1'
_cell_length_a   5.86248748
_cell_length_b   5.86248768
_cell_length_c   7.56441804
_cell_angle_alpha   130.18849016
_cell_angle_beta   130.18849164
_cell_angle_gamma   48.43632458
_symmetry_Int_Tables_number   1
_chemical_formula_structural   CaCd4O5
_chemical_formula_sum   'Ca1 Cd4 O5'
_cell_volume   137.45586437
_cell_formula_units_Z   1
loop_
 _symmetry_equiv_pos_site_id
 _symmetry_equiv_pos_as_xyz
  1  'x, y, z'
loop_
 _atom_site_type_symbol
 _atom_site_label
 _atom_site_symmetry_multiplicity
 _atom_site_fract_x
 _atom_site_fract_y
 _atom_site_fract_z
 _atom_site_occupancy
  Ca  Ca0  1  0.000000  0.000000  0.000000  1
  Cd  Cd1  1  0.401963  0.401963  0.202811  1
  Cd  Cd2  1  0.800847  0.800847  0.398926  1
  Cd  Cd3  1  0.199153  0.199153  0.601074  1
  Cd  Cd4  1  0.598037  0.598037  0.797189  1
  O  O5  1  0.500000  0.500000  0.000000  1
  O  O6  1  0.898892  0.898892  0.200065  1
  O  O7  1  0.300277  0.300277  0.401112  1
  O  O8  1  0.699722  0.699722  0.598888  1
  O  O9  1  0.101108  0.101108  0.799935  1
