# generated using pymatgen
data_La7CeZn8(IrRh3)2
_symmetry_space_group_name_H-M   'P 1'
_cell_length_a   4.01718700
_cell_length_b   7.51005191
_cell_length_c   16.67533841
_cell_angle_alpha   90.00466655
_cell_angle_beta   90.00000000
_cell_angle_gamma   90.00000000
_symmetry_Int_Tables_number   1
_chemical_formula_structural   La7CeZn8(IrRh3)2
_chemical_formula_sum   'La7 Ce1 Zn8 Ir2 Rh6'
_cell_volume   503.08300059
_cell_formula_units_Z   1
loop_
 _symmetry_equiv_pos_site_id
 _symmetry_equiv_pos_as_xyz
  1  'x, y, z'
loop_
 _atom_site_type_symbol
 _atom_site_label
 _atom_site_symmetry_multiplicity
 _atom_site_fract_x
 _atom_site_fract_y
 _atom_site_fract_z
 _atom_site_occupancy
  La  La0  1  0.250000  0.050385  0.716651  1
  La  La1  1  0.250000  0.547341  0.782333  1
  La  La2  1  0.250000  0.671428  0.558778  1
  La  La3  1  0.750000  0.827711  0.060105  1
  La  La4  1  0.250000  0.173124  0.939675  1
  La  La5  1  0.750000  0.450435  0.218539  1
  La  La6  1  0.750000  0.951508  0.284544  1
  Ce  Ce7  1  0.750000  0.322869  0.440807  1
  Zn  Zn8  1  0.250000  0.123960  0.150256  1
  Zn  Zn9  1  0.250000  0.994660  0.440081  1
  Zn  Zn10  1  0.750000  0.874611  0.849880  1
  Zn  Zn11  1  0.750000  0.001345  0.557899  1
  Zn  Zn12  1  0.250000  0.498632  0.059527  1
  Zn  Zn13  1  0.750000  0.372331  0.647651  1
  Zn  Zn14  1  0.750000  0.501794  0.940508  1
  Zn  Zn15  1  0.250000  0.616858  0.351827  1
  Ir  Ir16  1  0.750000  0.258464  0.812782  1
  Ir  Ir17  1  0.250000  0.251522  0.324691  1
  Rh  Rh18  1  0.250000  0.743048  0.934648  1
  Rh  Rh19  1  0.250000  0.249625  0.557515  1
  Rh  Rh20  1  0.250000  0.747177  0.185532  1
  Rh  Rh21  1  0.750000  0.752762  0.434304  1
  Rh  Rh22  1  0.750000  0.259212  0.067338  1
  Rh  Rh23  1  0.750000  0.759197  0.684128  1
