# generated using pymatgen
data_Nd2GdGa2
_symmetry_space_group_name_H-M   'P 1'
_cell_length_a   7.74108700
_cell_length_b   7.74108700
_cell_length_c   4.59305000
_cell_angle_alpha   90.00000000
_cell_angle_beta   90.00000000
_cell_angle_gamma   89.99943748
_symmetry_Int_Tables_number   1
_chemical_formula_structural   Nd2GdGa2
_chemical_formula_sum   'Nd4 Gd2 Ga4'
_cell_volume   275.23589375
_cell_formula_units_Z   2
loop_
 _symmetry_equiv_pos_site_id
 _symmetry_equiv_pos_as_xyz
  1  'x, y, z'
loop_
 _atom_site_type_symbol
 _atom_site_label
 _atom_site_symmetry_multiplicity
 _atom_site_fract_x
 _atom_site_fract_y
 _atom_site_fract_z
 _atom_site_occupancy
  Nd  Nd0  1  0.324524  0.175475  0.500000  1
  Nd  Nd1  1  0.824645  0.324645  0.500000  1
  Nd  Nd2  1  0.175354  0.675354  0.500000  1
  Nd  Nd3  1  0.675475  0.824524  0.500000  1
  Gd  Gd4  1  0.000000  0.000000  0.000000  1
  Gd  Gd5  1  0.500000  0.500000  0.000000  1
  Ga  Ga6  1  0.618082  0.118082  0.000000  1
  Ga  Ga7  1  0.118086  0.381913  0.000000  1
  Ga  Ga8  1  0.881914  0.618086  0.000000  1
  Ga  Ga9  1  0.381917  0.881918  0.000000  1
