# generated using pymatgen
data_TbAl3CdNi
_symmetry_space_group_name_H-M   'P 1'
_cell_length_a   8.18944587
_cell_length_b   8.18944547
_cell_length_c   6.64437500
_cell_angle_alpha   90.00000000
_cell_angle_beta   90.00000000
_cell_angle_gamma   150.93577268
_symmetry_Int_Tables_number   1
_chemical_formula_structural   TbAl3CdNi
_chemical_formula_sum   'Tb2 Al6 Cd2 Ni2'
_cell_volume   216.47686515
_cell_formula_units_Z   2
loop_
 _symmetry_equiv_pos_site_id
 _symmetry_equiv_pos_as_xyz
  1  'x, y, z'
loop_
 _atom_site_type_symbol
 _atom_site_label
 _atom_site_symmetry_multiplicity
 _atom_site_fract_x
 _atom_site_fract_y
 _atom_site_fract_z
 _atom_site_occupancy
  Tb  Tb0  1  0.875452  0.124548  0.250000  1
  Tb  Tb1  1  0.124548  0.875452  0.750000  1
  Al  Al2  1  0.308729  0.691271  0.553087  1
  Al  Al3  1  0.691271  0.308729  0.446913  1
  Al  Al4  1  0.691271  0.308729  0.053087  1
  Al  Al5  1  0.308729  0.691271  0.946913  1
  Al  Al6  1  0.920704  0.079296  0.750000  1
  Al  Al7  1  0.079296  0.920704  0.250000  1
  Cd  Cd8  1  0.500000  0.500000  0.000000  1
  Cd  Cd9  1  0.500000  0.500000  0.500000  1
  Ni  Ni10  1  0.225648  0.774352  0.250000  1
  Ni  Ni11  1  0.774352  0.225648  0.750000  1
