# generated using pymatgen
data_SrTbEr2MgAl17Pd6
_symmetry_space_group_name_H-M   'P 1'
_cell_length_a   7.67692422
_cell_length_b   7.69930819
_cell_length_c   9.54886932
_cell_angle_alpha   90.20096081
_cell_angle_beta   89.87096243
_cell_angle_gamma   119.48029433
_symmetry_Int_Tables_number   1
_chemical_formula_structural   SrTbEr2MgAl17Pd6
_chemical_formula_sum   'Sr1 Tb1 Er2 Mg1 Al17 Pd6'
_cell_volume   491.32561431
_cell_formula_units_Z   1
loop_
 _symmetry_equiv_pos_site_id
 _symmetry_equiv_pos_as_xyz
  1  'x, y, z'
loop_
 _atom_site_type_symbol
 _atom_site_label
 _atom_site_symmetry_multiplicity
 _atom_site_fract_x
 _atom_site_fract_y
 _atom_site_fract_z
 _atom_site_occupancy
  Sr  Sr0  1  0.995085  0.673549  0.250826  1
  Tb  Tb1  1  0.330663  0.005463  0.749754  1
  Er  Er2  1  0.003237  0.330840  0.747812  1
  Er  Er3  1  0.664755  0.987048  0.252132  1
  Mg  Mg4  1  0.996123  0.333682  0.076492  1
  Al  Al5  1  0.132520  0.135268  0.251107  1
  Al  Al6  1  0.870028  0.873103  0.751257  1
  Al  Al7  1  0.999572  0.663355  0.918239  1
  Al  Al8  1  0.999218  0.664265  0.581718  1
  Al  Al9  1  0.338633  0.004182  0.428865  1
  Al  Al10  1  0.000865  0.330699  0.423935  1
  Al  Al11  1  0.666313  0.000587  0.576523  1
  Al  Al12  1  0.667887  0.003480  0.924788  1
  Al  Al13  1  0.337845  0.004169  0.070740  1
  Al  Al14  1  0.331684  0.332609  0.560570  1
  Al  Al15  1  0.663854  0.665489  0.451120  1
  Al  Al16  1  0.664174  0.666293  0.046635  1
  Al  Al17  1  0.328843  0.332780  0.938556  1
  Al  Al18  1  0.352091  0.547550  0.250609  1
  Al  Al19  1  0.658335  0.452621  0.749097  1
  Al  Al20  1  0.545055  0.328844  0.249285  1
  Al  Al21  1  0.453379  0.663676  0.750728  1
  Pd  Pd22  1  0.661128  0.326732  0.993736  1
  Pd  Pd23  1  0.335063  0.679071  0.998362  1
  Pd  Pd24  1  0.328353  0.671509  0.502710  1
  Pd  Pd25  1  0.672217  0.327220  0.502501  1
  Pd  Pd26  1  0.001665  0.995597  0.998083  1
  Pd  Pd27  1  0.001415  0.000320  0.503822  1
