# generated using pymatgen
data_TbDy(LuZn6)2
_symmetry_space_group_name_H-M   'P 1'
_cell_length_a   4.36346100
_cell_length_b   6.63952890
_cell_length_c   10.05262771
_cell_angle_alpha   90.36549063
_cell_angle_beta   90.00000000
_cell_angle_gamma   90.00000000
_symmetry_Int_Tables_number   1
_chemical_formula_structural   TbDy(LuZn6)2
_chemical_formula_sum   'Tb1 Dy1 Lu2 Zn12'
_cell_volume   291.23202307
_cell_formula_units_Z   1
loop_
 _symmetry_equiv_pos_site_id
 _symmetry_equiv_pos_as_xyz
  1  'x, y, z'
loop_
 _atom_site_type_symbol
 _atom_site_label
 _atom_site_symmetry_multiplicity
 _atom_site_fract_x
 _atom_site_fract_y
 _atom_site_fract_z
 _atom_site_occupancy
  Tb  Tb0  1  0.750000  0.720542  0.335421  1
  Dy  Dy1  1  0.250000  0.279630  0.664854  1
  Lu  Lu2  1  0.250000  0.778793  0.836253  1
  Lu  Lu3  1  0.750000  0.220571  0.163853  1
  Zn  Zn4  1  0.250000  0.535071  0.102574  1
  Zn  Zn5  1  0.250000  0.035384  0.396302  1
  Zn  Zn6  1  0.750000  0.464378  0.897114  1
  Zn  Zn7  1  0.750000  0.965903  0.603037  1
  Zn  Zn8  1  0.250000  0.920000  0.149772  1
  Zn  Zn9  1  0.250000  0.416788  0.349608  1
  Zn  Zn10  1  0.750000  0.078854  0.850724  1
  Zn  Zn11  1  0.750000  0.583593  0.649965  1
  Zn  Zn12  1  0.250000  0.211304  0.959080  1
  Zn  Zn13  1  0.250000  0.718849  0.544527  1
  Zn  Zn14  1  0.750000  0.787598  0.041438  1
  Zn  Zn15  1  0.750000  0.282741  0.455477  1
