# generated using pymatgen
data_Sc8TiNb7Si16Mo3W
_symmetry_space_group_name_H-M   'P 1'
_cell_length_a   6.62305366
_cell_length_b   6.86679171
_cell_length_c   13.06271232
_cell_angle_alpha   89.97986014
_cell_angle_beta   90.01557087
_cell_angle_gamma   89.95169360
_symmetry_Int_Tables_number   1
_chemical_formula_structural   Sc8TiNb7Si16Mo3W
_chemical_formula_sum   'Sc8 Ti1 Nb7 Si16 Mo3 W1'
_cell_volume   594.08052123
_cell_formula_units_Z   1
loop_
 _symmetry_equiv_pos_site_id
 _symmetry_equiv_pos_as_xyz
  1  'x, y, z'
loop_
 _atom_site_type_symbol
 _atom_site_label
 _atom_site_symmetry_multiplicity
 _atom_site_fract_x
 _atom_site_fract_y
 _atom_site_fract_z
 _atom_site_occupancy
  Sc  Sc0  1  0.501769  0.674852  0.594018  1
  Sc  Sc1  1  0.001041  0.826281  0.905578  1
  Sc  Sc2  1  0.499364  0.325797  0.094125  1
  Sc  Sc3  1  0.999148  0.174019  0.406159  1
  Sc  Sc4  1  0.499268  0.325561  0.406134  1
  Sc  Sc5  1  0.998715  0.174331  0.094002  1
  Sc  Sc6  1  0.501224  0.674396  0.905557  1
  Sc  Sc7  1  0.000828  0.826952  0.594081  1
  Ti  Ti8  1  0.165915  0.330376  0.626428  1
  Nb  Nb9  1  0.667447  0.169100  0.625414  1
  Nb  Nb10  1  0.165733  0.330096  0.873845  1
  Nb  Nb11  1  0.333861  0.830605  0.125363  1
  Nb  Nb12  1  0.833761  0.669545  0.374686  1
  Nb  Nb13  1  0.333086  0.830041  0.374973  1
  Nb  Nb14  1  0.833421  0.669506  0.125542  1
  Nb  Nb15  1  0.666776  0.169319  0.874567  1
  Si  Si16  1  0.668756  0.965596  0.458778  1
  Si  Si17  1  0.168716  0.534037  0.041256  1
  Si  Si18  1  0.331064  0.034530  0.958440  1
  Si  Si19  1  0.832828  0.465081  0.542208  1
  Si  Si20  1  0.328955  0.037665  0.542054  1
  Si  Si21  1  0.830499  0.465715  0.958325  1
  Si  Si22  1  0.669150  0.965922  0.041342  1
  Si  Si23  1  0.168998  0.531968  0.460453  1
  Si  Si24  1  0.466036  0.388022  0.748864  1
  Si  Si25  1  0.968141  0.112674  0.748808  1
  Si  Si26  1  0.531903  0.610801  0.250160  1
  Si  Si27  1  0.033251  0.888478  0.250085  1
  Si  Si28  1  0.705198  0.857774  0.750124  1
  Si  Si29  1  0.204988  0.640951  0.748596  1
  Si  Si30  1  0.295238  0.142723  0.250081  1
  Si  Si31  1  0.795379  0.357500  0.250331  1
  Mo  Mo32  1  0.841129  0.496024  0.749788  1
  Mo  Mo33  1  0.339406  0.004828  0.749609  1
  Mo  Mo34  1  0.159631  0.503710  0.250212  1
  W  W35  1  0.659383  0.995222  0.250015  1
