# generated using pymatgen
data_Sm4Y12Cd4Co3Ni
_symmetry_space_group_name_H-M   'P 1'
_cell_length_a   9.63555955
_cell_length_b   9.63344984
_cell_length_c   9.63345000
_cell_angle_alpha   60.00000632
_cell_angle_beta   60.00724886
_cell_angle_gamma   60.00724953
_symmetry_Int_Tables_number   1
_chemical_formula_structural   Sm4Y12Cd4Co3Ni
_chemical_formula_sum   'Sm4 Y12 Cd4 Co3 Ni1'
_cell_volume   632.37286795
_cell_formula_units_Z   1
loop_
 _symmetry_equiv_pos_site_id
 _symmetry_equiv_pos_as_xyz
  1  'x, y, z'
loop_
 _atom_site_type_symbol
 _atom_site_label
 _atom_site_symmetry_multiplicity
 _atom_site_fract_x
 _atom_site_fract_y
 _atom_site_fract_z
 _atom_site_occupancy
  Sm  Sm0  1  0.595687  0.599220  0.599220  1
  Sm  Sm1  1  0.595687  0.599220  0.205872  1
  Sm  Sm2  1  0.595687  0.205872  0.599220  1
  Sm  Sm3  1  0.210600  0.596467  0.596467  1
  Y  Y4  1  0.066446  0.437414  0.437414  1
  Y  Y5  1  0.436639  0.062865  0.062865  1
  Y  Y6  1  0.436639  0.062865  0.437631  1
  Y  Y7  1  0.066446  0.437414  0.058724  1
  Y  Y8  1  0.436639  0.437631  0.062865  1
  Y  Y9  1  0.066446  0.058724  0.437414  1
  Y  Y10  1  0.185057  0.813776  0.813776  1
  Y  Y11  1  0.811003  0.187054  0.187054  1
  Y  Y12  1  0.811003  0.187054  0.814890  1
  Y  Y13  1  0.185057  0.813776  0.187390  1
  Y  Y14  1  0.811003  0.814890  0.187054  1
  Y  Y15  1  0.185057  0.187390  0.813776  1
  Cd  Cd16  1  0.830952  0.830296  0.830296  1
  Cd  Cd17  1  0.830952  0.830296  0.508454  1
  Cd  Cd18  1  0.830952  0.508454  0.830296  1
  Cd  Cd19  1  0.506645  0.831118  0.831118  1
  Co  Co20  1  0.392768  0.390354  0.390354  1
  Co  Co21  1  0.392768  0.390354  0.826525  1
  Co  Co22  1  0.392768  0.826525  0.390354  1
  Ni  Ni23  1  0.827098  0.390968  0.390968  1
