# generated using pymatgen
data_Y5TcMoO12
_symmetry_space_group_name_H-M   'P 1'
_cell_length_a   6.84372201
_cell_length_b   6.84372054
_cell_length_c   7.53797811
_cell_angle_alpha   73.85806426
_cell_angle_beta   73.85806610
_cell_angle_gamma   50.06640971
_symmetry_Int_Tables_number   1
_chemical_formula_structural   Y5TcMoO12
_chemical_formula_sum   'Y5 Tc1 Mo1 O12'
_cell_volume   257.65766457
_cell_formula_units_Z   1
loop_
 _symmetry_equiv_pos_site_id
 _symmetry_equiv_pos_as_xyz
  1  'x, y, z'
loop_
 _atom_site_type_symbol
 _atom_site_label
 _atom_site_symmetry_multiplicity
 _atom_site_fract_x
 _atom_site_fract_y
 _atom_site_fract_z
 _atom_site_occupancy
  Y  Y0  1  0.313609  0.294554  0.360142  1
  Y  Y1  1  0.705446  0.686391  0.639858  1
  Y  Y2  1  0.316914  0.309231  0.824024  1
  Y  Y3  1  0.690769  0.683086  0.175976  1
  Y  Y4  1  0.006208  0.993792  0.500000  1
  Tc  Tc5  1  0.766118  0.233882  0.000000  1
  Mo  Mo6  1  0.210752  0.789248  0.000000  1
  O  O7  1  0.909832  0.428934  0.914781  1
  O  O8  1  0.417049  0.903805  0.916265  1
  O  O9  1  0.096195  0.582951  0.083735  1
  O  O10  1  0.571066  0.090168  0.085219  1
  O  O11  1  0.104899  0.591089  0.571408  1
  O  O12  1  0.597715  0.090811  0.576311  1
  O  O13  1  0.909189  0.402285  0.423689  1
  O  O14  1  0.408911  0.895101  0.428592  1
  O  O15  1  0.991811  0.005043  0.798665  1
  O  O16  1  0.994957  0.008189  0.201335  1
  O  O17  1  0.494471  0.505908  0.819334  1
  O  O18  1  0.494092  0.505529  0.180666  1
