# generated using pymatgen
data_Sr2Bi2IrRu3O14
_symmetry_space_group_name_H-M   'P 1'
_cell_length_a   7.37944487
_cell_length_b   7.37944561
_cell_length_c   7.34691060
_cell_angle_alpha   60.35046960
_cell_angle_beta   60.35046791
_cell_angle_gamma   60.32348583
_symmetry_Int_Tables_number   1
_chemical_formula_structural   Sr2Bi2IrRu3O14
_chemical_formula_sum   'Sr2 Bi2 Ir1 Ru3 O14'
_cell_volume   285.08820945
_cell_formula_units_Z   1
loop_
 _symmetry_equiv_pos_site_id
 _symmetry_equiv_pos_as_xyz
  1  'x, y, z'
loop_
 _atom_site_type_symbol
 _atom_site_label
 _atom_site_symmetry_multiplicity
 _atom_site_fract_x
 _atom_site_fract_y
 _atom_site_fract_z
 _atom_site_occupancy
  Sr  Sr0  1  0.125000  0.125000  0.625000  1
  Sr  Sr1  1  0.125000  0.125000  0.125000  1
  Bi  Bi2  1  0.125000  0.625000  0.125000  1
  Bi  Bi3  1  0.625000  0.125000  0.125000  1
  Ir  Ir4  1  0.625000  0.625000  0.625000  1
  Ru  Ru5  1  0.625000  0.625000  0.125000  1
  Ru  Ru6  1  0.625000  0.125000  0.625000  1
  Ru  Ru7  1  0.125000  0.625000  0.625000  1
  O  O8  1  0.261605  0.261605  0.238946  1
  O  O9  1  0.988395  0.988395  0.011054  1
  O  O10  1  0.560136  0.948066  0.540159  1
  O  O11  1  0.303749  0.687851  0.300257  1
  O  O12  1  0.549231  0.549231  0.950411  1
  O  O13  1  0.948066  0.560136  0.540159  1
  O  O14  1  0.562149  0.946251  0.949743  1
  O  O15  1  0.941406  0.941406  0.557393  1
  O  O16  1  0.946251  0.562149  0.949743  1
  O  O17  1  0.687851  0.303749  0.300257  1
  O  O18  1  0.301934  0.689864  0.709841  1
  O  O19  1  0.689864  0.301934  0.709841  1
  O  O20  1  0.308594  0.308594  0.692607  1
  O  O21  1  0.700769  0.700769  0.299589  1
