# generated using pymatgen
data_Yb3TmCu2Sn5
_symmetry_space_group_name_H-M   'P 1'
_cell_length_a   4.42584800
_cell_length_b   8.81637900
_cell_length_c   14.06139800
_cell_angle_alpha   90.00000000
_cell_angle_beta   90.00000000
_cell_angle_gamma   90.00000000
_symmetry_Int_Tables_number   1
_chemical_formula_structural   Yb3TmCu2Sn5
_chemical_formula_sum   'Yb6 Tm2 Cu4 Sn10'
_cell_volume   548.67509420
_cell_formula_units_Z   2
loop_
 _symmetry_equiv_pos_site_id
 _symmetry_equiv_pos_as_xyz
  1  'x, y, z'
loop_
 _atom_site_type_symbol
 _atom_site_label
 _atom_site_symmetry_multiplicity
 _atom_site_fract_x
 _atom_site_fract_y
 _atom_site_fract_z
 _atom_site_occupancy
  Yb  Yb0  1  0.500000  0.792776  0.742112  1
  Yb  Yb1  1  0.000000  0.207224  0.757888  1
  Yb  Yb2  1  0.000000  0.207224  0.242112  1
  Yb  Yb3  1  0.500000  0.135463  0.000000  1
  Yb  Yb4  1  0.000000  0.864537  0.500000  1
  Yb  Yb5  1  0.500000  0.792776  0.257888  1
  Tm  Tm6  1  0.500000  0.698833  0.000000  1
  Tm  Tm7  1  0.000000  0.301167  0.500000  1
  Cu  Cu8  1  0.500000  0.377686  0.643260  1
  Cu  Cu9  1  0.000000  0.622314  0.856740  1
  Cu  Cu10  1  0.000000  0.622314  0.143260  1
  Cu  Cu11  1  0.500000  0.377686  0.356740  1
  Sn  Sn12  1  0.500000  0.086301  0.396102  1
  Sn  Sn13  1  0.000000  0.554906  0.663481  1
  Sn  Sn14  1  0.000000  0.407155  0.000000  1
  Sn  Sn15  1  0.500000  0.445094  0.163481  1
  Sn  Sn16  1  0.500000  0.592845  0.500000  1
  Sn  Sn17  1  0.500000  0.445094  0.836519  1
  Sn  Sn18  1  0.000000  0.913699  0.896102  1
  Sn  Sn19  1  0.000000  0.554906  0.336519  1
  Sn  Sn20  1  0.500000  0.086301  0.603898  1
  Sn  Sn21  1  0.000000  0.913699  0.103898  1
