# generated using pymatgen
data_Tb3CdPd8
_symmetry_space_group_name_H-M   'P 1'
_cell_length_a   4.21250313
_cell_length_b   5.87287861
_cell_length_c   17.58004113
_cell_angle_alpha   89.99646023
_cell_angle_beta   90.00026808
_cell_angle_gamma   90.00759956
_symmetry_Int_Tables_number   1
_chemical_formula_structural   Tb3CdPd8
_chemical_formula_sum   'Tb6 Cd2 Pd16'
_cell_volume   434.92176659
_cell_formula_units_Z   2
loop_
 _symmetry_equiv_pos_site_id
 _symmetry_equiv_pos_as_xyz
  1  'x, y, z'
loop_
 _atom_site_type_symbol
 _atom_site_label
 _atom_site_symmetry_multiplicity
 _atom_site_fract_x
 _atom_site_fract_y
 _atom_site_fract_z
 _atom_site_occupancy
  Tb  Tb0  1  0.524499  0.340863  0.046964  1
  Tb  Tb1  1  0.524212  0.841759  0.206126  1
  Tb  Tb2  1  0.525794  0.340748  0.365331  1
  Tb  Tb3  1  0.527544  0.739329  0.546991  1
  Tb  Tb4  1  0.527805  0.236605  0.706172  1
  Tb  Tb5  1  0.526225  0.736904  0.865351  1
  Cd  Cd6  1  0.026726  0.040113  0.456113  1
  Cd  Cd7  1  0.025213  0.039143  0.956066  1
  Pd  Pd8  1  0.524558  0.829846  0.036824  1
  Pd  Pd9  1  0.024043  0.090250  0.122883  1
  Pd  Pd10  1  0.024122  0.593037  0.122822  1
  Pd  Pd11  1  0.524155  0.342550  0.206176  1
  Pd  Pd12  1  0.024952  0.592383  0.289526  1
  Pd  Pd13  1  0.024784  0.089740  0.289362  1
  Pd  Pd14  1  0.525893  0.829490  0.375513  1
  Pd  Pd15  1  0.026833  0.540094  0.456222  1
  Pd  Pd16  1  0.527506  0.250673  0.536825  1
  Pd  Pd17  1  0.028005  0.989860  0.622864  1
  Pd  Pd18  1  0.027960  0.487196  0.622908  1
  Pd  Pd19  1  0.527911  0.735674  0.706142  1
  Pd  Pd20  1  0.027065  0.484511  0.789553  1
  Pd  Pd21  1  0.027219  0.987173  0.789251  1
  Pd  Pd22  1  0.526019  0.247868  0.875365  1
  Pd  Pd23  1  0.025293  0.539157  0.956189  1
