# generated using pymatgen
data_ReTc3P2
_symmetry_space_group_name_H-M   'P 1'
_cell_length_a   5.55306400
_cell_length_b   2.94296200
_cell_length_c   10.07441500
_cell_angle_alpha   90.00000000
_cell_angle_beta   90.00000000
_cell_angle_gamma   90.00000000
_symmetry_Int_Tables_number   1
_chemical_formula_structural   ReTc3P2
_chemical_formula_sum   'Re2 Tc6 P4'
_cell_volume   164.64068724
_cell_formula_units_Z   2
loop_
 _symmetry_equiv_pos_site_id
 _symmetry_equiv_pos_as_xyz
  1  'x, y, z'
loop_
 _atom_site_type_symbol
 _atom_site_label
 _atom_site_symmetry_multiplicity
 _atom_site_fract_x
 _atom_site_fract_y
 _atom_site_fract_z
 _atom_site_occupancy
  Re  Re0  1  0.326543  0.250001  0.436302  1
  Re  Re1  1  0.173456  0.750001  0.936302  1
  Tc  Tc2  1  0.855936  0.250001  0.785884  1
  Tc  Tc3  1  0.644063  0.750001  0.285884  1
  Tc  Tc4  1  0.356364  0.250001  0.713693  1
  Tc  Tc5  1  0.143635  0.750001  0.213693  1
  Tc  Tc6  1  0.825642  0.250001  0.062921  1
  Tc  Tc7  1  0.674359  0.750001  0.562921  1
  P  P8  1  0.403362  0.250001  0.105172  1
  P  P9  1  0.096639  0.750001  0.605172  1
  P  P10  1  0.901713  0.250001  0.396029  1
  P  P11  1  0.598286  0.750001  0.896029  1
