# generated using pymatgen
data_Tb10ZnSn6Ge
_symmetry_space_group_name_H-M   'P 1'
_cell_length_a   9.23344700
_cell_length_b   9.23344581
_cell_length_c   6.59244900
_cell_angle_alpha   90.00000000
_cell_angle_beta   90.00000000
_cell_angle_gamma   120.00000786
_symmetry_Int_Tables_number   1
_chemical_formula_structural   Tb10ZnSn6Ge
_chemical_formula_sum   'Tb10 Zn1 Sn6 Ge1'
_cell_volume   486.74897009
_cell_formula_units_Z   1
loop_
 _symmetry_equiv_pos_site_id
 _symmetry_equiv_pos_as_xyz
  1  'x, y, z'
loop_
 _atom_site_type_symbol
 _atom_site_label
 _atom_site_symmetry_multiplicity
 _atom_site_fract_x
 _atom_site_fract_y
 _atom_site_fract_z
 _atom_site_occupancy
  Tb  Tb0  1  0.666667  0.333333  0.000000  1
  Tb  Tb1  1  0.333333  0.666667  0.000000  1
  Tb  Tb2  1  0.333333  0.666667  0.500000  1
  Tb  Tb3  1  0.666667  0.333333  0.500000  1
  Tb  Tb4  1  0.739837  0.739837  0.760636  1
  Tb  Tb5  1  0.260163  0.000000  0.760636  1
  Tb  Tb6  1  0.000000  0.260163  0.760636  1
  Tb  Tb7  1  0.260163  0.260163  0.239364  1
  Tb  Tb8  1  0.739837  0.000000  0.239364  1
  Tb  Tb9  1  0.000000  0.739837  0.239364  1
  Zn  Zn10  1  0.000000  0.000000  0.500000  1
  Sn  Sn11  1  0.387853  0.387853  0.750520  1
  Sn  Sn12  1  0.612147  0.000000  0.750520  1
  Sn  Sn13  1  0.000000  0.612147  0.750520  1
  Sn  Sn14  1  0.612147  0.612147  0.249480  1
  Sn  Sn15  1  0.387853  0.000000  0.249480  1
  Sn  Sn16  1  0.000000  0.387853  0.249480  1
  Ge  Ge17  1  0.000000  0.000000  0.000000  1
