# generated using pymatgen
data_Nd4Ga10RuRh5
_symmetry_space_group_name_H-M   'P 1'
_cell_length_a   8.67571875
_cell_length_b   8.69493515
_cell_length_c   5.79526829
_cell_angle_alpha   70.50712550
_cell_angle_beta   70.42361931
_cell_angle_gamma   95.80601974
_symmetry_Int_Tables_number   1
_chemical_formula_structural   Nd4Ga10RuRh5
_chemical_formula_sum   'Nd4 Ga10 Ru1 Rh5'
_cell_volume   376.95926718
_cell_formula_units_Z   1
loop_
 _symmetry_equiv_pos_site_id
 _symmetry_equiv_pos_as_xyz
  1  'x, y, z'
loop_
 _atom_site_type_symbol
 _atom_site_label
 _atom_site_symmetry_multiplicity
 _atom_site_fract_x
 _atom_site_fract_y
 _atom_site_fract_z
 _atom_site_occupancy
  Nd  Nd0  1  0.867705  0.588725  0.772065  1
  Nd  Nd1  1  0.410145  0.136039  0.726453  1
  Nd  Nd2  1  0.134843  0.409551  0.227343  1
  Nd  Nd3  1  0.588370  0.861984  0.275001  1
  Ga  Ga4  1  0.084416  0.267065  0.824280  1
  Ga  Ga5  1  0.737850  0.916263  0.672683  1
  Ga  Ga6  1  0.916581  0.737457  0.173009  1
  Ga  Ga7  1  0.261709  0.082238  0.327912  1
  Ga  Ga8  1  0.204619  0.794601  0.750840  1
  Ga  Ga9  1  0.794062  0.204566  0.249964  1
  Ga  Ga10  1  0.499115  0.498790  0.751866  1
  Ga  Ga11  1  0.498890  0.499096  0.250451  1
  Ga  Ga12  1  0.794272  0.204859  0.750770  1
  Ga  Ga13  1  0.204702  0.794263  0.250628  1
  Ru  Ru14  1  0.265053  0.561090  0.587770  1
  Rh  Rh15  1  0.442441  0.738346  0.909601  1
  Rh  Rh16  1  0.738426  0.442181  0.409381  1
  Rh  Rh17  1  0.556689  0.259863  0.091657  1
  Rh  Rh18  1  0.999647  0.001901  0.749808  1
  Rh  Rh19  1  0.000464  0.001120  0.248518  1
