# generated using pymatgen
data_Er7Lu5ZnCo4Sn
_symmetry_space_group_name_H-M   'P 1'
_cell_length_a   8.19424520
_cell_length_b   8.20503076
_cell_length_c   8.20503100
_cell_angle_alpha   111.46458381
_cell_angle_beta   110.16861896
_cell_angle_gamma   106.86540438
_symmetry_Int_Tables_number   1
_chemical_formula_structural   Er7Lu5ZnCo4Sn
_chemical_formula_sum   'Er7 Lu5 Zn1 Co4 Sn1'
_cell_volume   423.67947046
_cell_formula_units_Z   1
loop_
 _symmetry_equiv_pos_site_id
 _symmetry_equiv_pos_as_xyz
  1  'x, y, z'
loop_
 _atom_site_type_symbol
 _atom_site_label
 _atom_site_symmetry_multiplicity
 _atom_site_fract_x
 _atom_site_fract_y
 _atom_site_fract_z
 _atom_site_occupancy
  Er  Er0  1  0.572640  0.776482  0.796158  1
  Er  Er1  1  0.019351  0.223416  0.795934  1
  Er  Er2  1  0.980323  0.775329  0.204995  1
  Er  Er3  1  0.185589  0.285605  0.470440  1
  Er  Er4  1  0.814656  0.713423  0.528517  1
  Er  Er5  1  0.185589  0.715148  0.899984  1
  Er  Er6  1  0.814656  0.286140  0.101233  1
  Lu  Lu7  1  0.316136  0.620808  0.306097  1
  Lu  Lu8  1  0.683372  0.377670  0.692952  1
  Lu  Lu9  1  0.316136  0.010038  0.695329  1
  Lu  Lu10  1  0.683372  0.990421  0.305701  1
  Lu  Lu11  1  0.431048  0.225306  0.205743  1
  Zn  Zn12  1  0.005069  0.001669  0.003400  1
  Co  Co13  1  0.114292  0.613894  0.500398  1
  Co  Co14  1  0.883486  0.385741  0.497745  1
  Co  Co15  1  0.372858  0.000402  0.372456  1
  Co  Co16  1  0.622258  0.999085  0.623173  1
  Sn  Sn17  1  0.499171  0.499428  0.999744  1
