# generated using pymatgen
data_DyTm3FeSi4Rh
_symmetry_space_group_name_H-M   'P 1'
_cell_length_a   5.60563000
_cell_length_b   5.60562889
_cell_length_c   9.95840072
_cell_angle_alpha   63.38072331
_cell_angle_beta   63.38073032
_cell_angle_gamma   43.55888666
_symmetry_Int_Tables_number   1
_chemical_formula_structural   DyTm3FeSi4Rh
_chemical_formula_sum   'Dy1 Tm3 Fe1 Si4 Rh1'
_cell_volume   188.87419723
_cell_formula_units_Z   1
loop_
 _symmetry_equiv_pos_site_id
 _symmetry_equiv_pos_as_xyz
  1  'x, y, z'
loop_
 _atom_site_type_symbol
 _atom_site_label
 _atom_site_symmetry_multiplicity
 _atom_site_fract_x
 _atom_site_fract_y
 _atom_site_fract_z
 _atom_site_occupancy
  Dy  Dy0  1  0.186353  0.186353  0.891805  1
  Tm  Tm1  1  0.002447  0.002447  0.324906  1
  Tm  Tm2  1  0.000399  0.000399  0.671306  1
  Tm  Tm3  1  0.813098  0.813098  0.108347  1
  Fe  Fe4  1  0.271652  0.271652  0.378337  1
  Si  Si5  1  0.651809  0.651809  0.429785  1
  Si  Si6  1  0.361397  0.361397  0.557357  1
  Si  Si7  1  0.499824  0.499824  0.129746  1
  Si  Si8  1  0.485281  0.485281  0.881414  1
  Rh  Rh9  1  0.727740  0.727740  0.626997  1
