# generated using pymatgen
data_La5Nd2Tm3Si8O3
_symmetry_space_group_name_H-M   'P 1'
_cell_length_a   10.69470900
_cell_length_b   10.72203296
_cell_length_c   4.48570900
_cell_angle_alpha   90.00000000
_cell_angle_beta   90.00000000
_cell_angle_gamma   119.91573863
_symmetry_Int_Tables_number   1
_chemical_formula_structural   La5Nd2Tm3Si8O3
_chemical_formula_sum   'La5 Nd2 Tm3 Si8 O3'
_cell_volume   445.83684860
_cell_formula_units_Z   1
loop_
 _symmetry_equiv_pos_site_id
 _symmetry_equiv_pos_as_xyz
  1  'x, y, z'
loop_
 _atom_site_type_symbol
 _atom_site_label
 _atom_site_symmetry_multiplicity
 _atom_site_fract_x
 _atom_site_fract_y
 _atom_site_fract_z
 _atom_site_occupancy
  La  La0  1  0.787898  0.575796  0.000000  1
  La  La1  1  0.999750  0.999500  0.000000  1
  La  La2  1  0.212337  0.424673  0.000000  1
  La  La3  1  0.424315  0.211638  0.000000  1
  La  La4  1  0.787323  0.211638  0.000000  1
  Nd  Nd5  1  0.212357  0.789150  0.000000  1
  Nd  Nd6  1  0.576793  0.789150  0.000000  1
  Tm  Tm7  1  0.001706  0.501949  0.500000  1
  Tm  Tm8  1  0.500243  0.501949  0.500000  1
  Tm  Tm9  1  0.498396  0.996792  0.500000  1
  Si  Si10  1  0.000292  0.774786  0.500000  1
  Si  Si11  1  0.999281  0.223562  0.500000  1
  Si  Si12  1  0.224280  0.223562  0.500000  1
  Si  Si13  1  0.774017  0.998934  0.500000  1
  Si  Si14  1  0.334658  0.669316  0.500000  1
  Si  Si15  1  0.224917  0.998934  0.500000  1
  Si  Si16  1  0.666530  0.333058  0.500000  1
  Si  Si17  1  0.774494  0.774786  0.500000  1
  O  O18  1  0.001616  0.501202  0.000000  1
  O  O19  1  0.499585  0.501202  0.000000  1
  O  O20  1  0.499212  0.998424  0.000000  1
