# generated using pymatgen
data_Er20PdRh11
_symmetry_space_group_name_H-M   'P 1'
_cell_length_a   10.84726453
_cell_length_b   10.84660942
_cell_length_c   6.29430900
_cell_angle_alpha   89.97771369
_cell_angle_beta   89.98213611
_cell_angle_gamma   90.39256583
_symmetry_Int_Tables_number   1
_chemical_formula_structural   Er20PdRh11
_chemical_formula_sum   'Er20 Pd1 Rh11'
_cell_volume   740.54600650
_cell_formula_units_Z   1
loop_
 _symmetry_equiv_pos_site_id
 _symmetry_equiv_pos_as_xyz
  1  'x, y, z'
loop_
 _atom_site_type_symbol
 _atom_site_label
 _atom_site_symmetry_multiplicity
 _atom_site_fract_x
 _atom_site_fract_y
 _atom_site_fract_z
 _atom_site_occupancy
  Er  Er0  1  0.290413  0.083721  0.378031  1
  Er  Er1  1  0.291042  0.909740  0.878671  1
  Er  Er2  1  0.709367  0.088541  0.878709  1
  Er  Er3  1  0.708925  0.910758  0.377999  1
  Er  Er4  1  0.588415  0.791376  0.877125  1
  Er  Er5  1  0.592676  0.207563  0.379808  1
  Er  Er6  1  0.410668  0.789596  0.378302  1
  Er  Er7  1  0.413253  0.206262  0.871913  1
  Er  Er8  1  0.206804  0.414073  0.627825  1
  Er  Er9  1  0.207825  0.592767  0.119871  1
  Er  Er10  1  0.789864  0.410898  0.122170  1
  Er  Er11  1  0.791881  0.589342  0.623207  1
  Er  Er12  1  0.911094  0.709301  0.121559  1
  Er  Er13  1  0.910534  0.291163  0.621822  1
  Er  Er14  1  0.089491  0.709565  0.620984  1
  Er  Er15  1  0.083972  0.290816  0.122325  1
  Er  Er16  1  0.999438  0.000278  0.500569  1
  Er  Er17  1  0.000628  0.999882  0.999137  1
  Er  Er18  1  0.501570  0.501631  0.999681  1
  Er  Er19  1  0.502631  0.501597  0.500154  1
  Pd  Pd20  1  0.344159  0.344161  0.250320  1
  Rh  Rh21  1  0.346163  0.652755  0.749898  1
  Rh  Rh22  1  0.846720  0.154151  0.249176  1
  Rh  Rh23  1  0.844926  0.846121  0.750400  1
  Rh  Rh24  1  0.154898  0.155957  0.749463  1
  Rh  Rh25  1  0.153910  0.846560  0.250850  1
  Rh  Rh26  1  0.653338  0.346004  0.750154  1
  Rh  Rh27  1  0.655374  0.655354  0.249846  1
  Rh  Rh28  1  0.500027  0.000325  0.125770  1
  Rh  Rh29  1  0.499906  0.000204  0.623769  1
  Rh  Rh30  1  0.000043  0.499719  0.876067  1
  Rh  Rh31  1  0.000052  0.499823  0.374426  1
