# generated using pymatgen
data_Zr3Pa5(As3Rh4)4
_symmetry_space_group_name_H-M   'P 1'
_cell_length_a   13.32407300
_cell_length_b   13.32407351
_cell_length_c   4.03614000
_cell_angle_alpha   90.00000000
_cell_angle_beta   90.00000000
_cell_angle_gamma   120.00000122
_symmetry_Int_Tables_number   1
_chemical_formula_structural   Zr3Pa5(As3Rh4)4
_chemical_formula_sum   'Zr3 Pa5 As12 Rh16'
_cell_volume   620.54155823
_cell_formula_units_Z   1
loop_
 _symmetry_equiv_pos_site_id
 _symmetry_equiv_pos_as_xyz
  1  'x, y, z'
loop_
 _atom_site_type_symbol
 _atom_site_label
 _atom_site_symmetry_multiplicity
 _atom_site_fract_x
 _atom_site_fract_y
 _atom_site_fract_z
 _atom_site_occupancy
  Zr  Zr0  1  0.555367  0.555367  0.000000  1
  Zr  Zr1  1  0.444633  0.000000  0.000000  1
  Zr  Zr2  1  0.000000  0.444633  0.000000  1
  Pa  Pa3  1  0.183482  0.183482  0.500000  1
  Pa  Pa4  1  0.816518  0.000000  0.500000  1
  Pa  Pa5  1  0.000000  0.816518  0.500000  1
  Pa  Pa6  1  0.333333  0.666667  0.000000  1
  Pa  Pa7  1  0.666667  0.333333  0.000000  1
  As  As8  1  0.823802  0.823802  0.000000  1
  As  As9  1  0.176198  0.000000  0.000000  1
  As  As10  1  0.000000  0.176198  0.000000  1
  As  As11  1  0.169031  0.485591  0.500000  1
  As  As12  1  0.514409  0.683440  0.500000  1
  As  As13  1  0.316560  0.830969  0.500000  1
  As  As14  1  0.683440  0.514409  0.500000  1
  As  As15  1  0.830969  0.316560  0.500000  1
  As  As16  1  0.485591  0.169031  0.500000  1
  As  As17  1  0.356323  0.356323  0.000000  1
  As  As18  1  0.643677  0.000000  0.000000  1
  As  As19  1  0.000000  0.643677  0.000000  1
  Rh  Rh20  1  0.720787  0.720787  0.500000  1
  Rh  Rh21  1  0.279213  0.000000  0.500000  1
  Rh  Rh22  1  0.000000  0.279213  0.500000  1
  Rh  Rh23  1  0.177037  0.370945  0.000000  1
  Rh  Rh24  1  0.629055  0.806092  0.000000  1
  Rh  Rh25  1  0.193908  0.822963  0.000000  1
  Rh  Rh26  1  0.806092  0.629055  0.000000  1
  Rh  Rh27  1  0.822963  0.193908  0.000000  1
  Rh  Rh28  1  0.370945  0.177037  0.000000  1
  Rh  Rh29  1  0.354173  0.481177  0.500000  1
  Rh  Rh30  1  0.518823  0.872997  0.500000  1
  Rh  Rh31  1  0.127003  0.645827  0.500000  1
  Rh  Rh32  1  0.872997  0.518823  0.500000  1
  Rh  Rh33  1  0.645827  0.127003  0.500000  1
  Rh  Rh34  1  0.481177  0.354173  0.500000  1
  Rh  Rh35  1  0.000000  0.000000  0.000000  1
