# generated using pymatgen
data_Tb4Al18IrPd2Rh3
_symmetry_space_group_name_H-M   'P 1'
_cell_length_a   7.58870699
_cell_length_b   7.58870781
_cell_length_c   9.49179162
_cell_angle_alpha   90.03553561
_cell_angle_beta   90.03554254
_cell_angle_gamma   119.57452039
_symmetry_Int_Tables_number   1
_chemical_formula_structural   Tb4Al18IrPd2Rh3
_chemical_formula_sum   'Tb4 Al18 Ir1 Pd2 Rh3'
_cell_volume   475.40111048
_cell_formula_units_Z   1
loop_
 _symmetry_equiv_pos_site_id
 _symmetry_equiv_pos_as_xyz
  1  'x, y, z'
loop_
 _atom_site_type_symbol
 _atom_site_label
 _atom_site_symmetry_multiplicity
 _atom_site_fract_x
 _atom_site_fract_y
 _atom_site_fract_z
 _atom_site_occupancy
  Tb  Tb0  1  0.995398  0.670522  0.250975  1
  Tb  Tb1  1  0.004602  0.329478  0.749025  1
  Tb  Tb2  1  0.670522  0.995398  0.250975  1
  Tb  Tb3  1  0.329478  0.004602  0.749025  1
  Al  Al4  1  0.127718  0.127718  0.250156  1
  Al  Al5  1  0.872282  0.872282  0.749844  1
  Al  Al6  1  0.001410  0.331181  0.077298  1
  Al  Al7  1  0.998590  0.668819  0.922702  1
  Al  Al8  1  0.000262  0.665017  0.574086  1
  Al  Al9  1  0.334983  0.999738  0.425914  1
  Al  Al10  1  0.999738  0.334983  0.425914  1
  Al  Al11  1  0.665017  0.000262  0.574086  1
  Al  Al12  1  0.668819  0.998590  0.922702  1
  Al  Al13  1  0.331181  0.001410  0.077298  1
  Al  Al14  1  0.332711  0.332711  0.549202  1
  Al  Al15  1  0.667289  0.667289  0.450798  1
  Al  Al16  1  0.668870  0.668870  0.057105  1
  Al  Al17  1  0.331130  0.331130  0.942895  1
  Al  Al18  1  0.340353  0.547575  0.253821  1
  Al  Al19  1  0.659647  0.452425  0.746179  1
  Al  Al20  1  0.547575  0.340353  0.253821  1
  Al  Al21  1  0.452425  0.659647  0.746179  1
  Ir  Ir22  1  0.000000  0.000000  0.500000  1
  Pd  Pd23  1  0.672422  0.327578  0.000000  1
  Pd  Pd24  1  0.327578  0.672422  0.000000  1
  Rh  Rh25  1  0.328321  0.671679  0.500000  1
  Rh  Rh26  1  0.671679  0.328321  0.500000  1
  Rh  Rh27  1  0.000000  0.000000  0.000000  1
