# generated using pymatgen
data_Y10Zn3Co
_symmetry_space_group_name_H-M   'P 1'
_cell_length_a   9.49307700
_cell_length_b   9.49307775
_cell_length_c   9.54178100
_cell_angle_alpha   90.00000000
_cell_angle_beta   90.00000000
_cell_angle_gamma   119.99999389
_symmetry_Int_Tables_number   1
_chemical_formula_structural   Y10Zn3Co
_chemical_formula_sum   'Y20 Zn6 Co2'
_cell_volume   744.68763792
_cell_formula_units_Z   2
loop_
 _symmetry_equiv_pos_site_id
 _symmetry_equiv_pos_as_xyz
  1  'x, y, z'
loop_
 _atom_site_type_symbol
 _atom_site_label
 _atom_site_symmetry_multiplicity
 _atom_site_fract_x
 _atom_site_fract_y
 _atom_site_fract_z
 _atom_site_occupancy
  Y  Y0  1  0.000000  0.000000  0.500000  1
  Y  Y1  1  0.000000  0.000000  0.000000  1
  Y  Y2  1  0.542863  0.457137  0.250000  1
  Y  Y3  1  0.542863  0.085727  0.250000  1
  Y  Y4  1  0.914273  0.457137  0.250000  1
  Y  Y5  1  0.457137  0.542863  0.750000  1
  Y  Y6  1  0.457137  0.914273  0.750000  1
  Y  Y7  1  0.085727  0.542863  0.750000  1
  Y  Y8  1  0.209320  0.790680  0.436854  1
  Y  Y9  1  0.209320  0.418640  0.436854  1
  Y  Y10  1  0.581360  0.790680  0.436854  1
  Y  Y11  1  0.790680  0.209320  0.563146  1
  Y  Y12  1  0.790680  0.581360  0.563146  1
  Y  Y13  1  0.418640  0.209320  0.563146  1
  Y  Y14  1  0.790680  0.209320  0.936854  1
  Y  Y15  1  0.790680  0.581360  0.936854  1
  Y  Y16  1  0.418640  0.209320  0.936854  1
  Y  Y17  1  0.209320  0.790680  0.063146  1
  Y  Y18  1  0.209320  0.418640  0.063146  1
  Y  Y19  1  0.581360  0.790680  0.063146  1
  Zn  Zn20  1  0.884922  0.115078  0.250000  1
  Zn  Zn21  1  0.884922  0.769845  0.250000  1
  Zn  Zn22  1  0.230155  0.115078  0.250000  1
  Zn  Zn23  1  0.115078  0.884922  0.750000  1
  Zn  Zn24  1  0.115078  0.230155  0.750000  1
  Zn  Zn25  1  0.769845  0.884922  0.750000  1
  Co  Co26  1  0.333333  0.666667  0.250000  1
  Co  Co27  1  0.666667  0.333333  0.750000  1
