# generated using pymatgen
data_ErSc2Pa(Al3Rh)6
_symmetry_space_group_name_H-M   'P 1'
_cell_length_a   7.52661510
_cell_length_b   7.52222616
_cell_length_c   9.34111400
_cell_angle_alpha   90.00000000
_cell_angle_beta   90.00000000
_cell_angle_gamma   119.53755374
_symmetry_Int_Tables_number   1
_chemical_formula_structural   ErSc2Pa(Al3Rh)6
_chemical_formula_sum   'Er1 Sc2 Pa1 Al18 Rh6'
_cell_volume   460.12981017
_cell_formula_units_Z   1
loop_
 _symmetry_equiv_pos_site_id
 _symmetry_equiv_pos_as_xyz
  1  'x, y, z'
loop_
 _atom_site_type_symbol
 _atom_site_label
 _atom_site_symmetry_multiplicity
 _atom_site_fract_x
 _atom_site_fract_y
 _atom_site_fract_z
 _atom_site_occupancy
  Er  Er0  1  0.673195  0.994485  0.750000  1
  Sc  Sc1  1  0.004973  0.328138  0.250000  1
  Sc  Sc2  1  0.328121  0.004163  0.250000  1
  Pa  Pa3  1  0.994544  0.671793  0.750000  1
  Al  Al4  1  0.132866  0.131692  0.750000  1
  Al  Al5  1  0.879606  0.880865  0.250000  1
  Al  Al6  1  0.000849  0.332711  0.570848  1
  Al  Al7  1  0.003096  0.664454  0.414287  1
  Al  Al8  1  0.003096  0.664454  0.085713  1
  Al  Al9  1  0.338807  0.003625  0.928809  1
  Al  Al10  1  0.000849  0.332711  0.929152  1
  Al  Al11  1  0.664743  0.004067  0.083177  1
  Al  Al12  1  0.664743  0.004067  0.416823  1
  Al  Al13  1  0.338807  0.003625  0.571191  1
  Al  Al14  1  0.328786  0.328934  0.063168  1
  Al  Al15  1  0.663020  0.665667  0.954180  1
  Al  Al16  1  0.663020  0.665667  0.545820  1
  Al  Al17  1  0.328786  0.328934  0.436832  1
  Al  Al18  1  0.339420  0.548058  0.750000  1
  Al  Al19  1  0.658550  0.442334  0.250000  1
  Al  Al20  1  0.547499  0.341527  0.750000  1
  Al  Al21  1  0.443974  0.659790  0.250000  1
  Rh  Rh22  1  0.673687  0.329226  0.500715  1
  Rh  Rh23  1  0.326022  0.672193  0.500781  1
  Rh  Rh24  1  0.326022  0.672193  0.999219  1
  Rh  Rh25  1  0.673687  0.329226  0.999285  1
  Rh  Rh26  1  0.999615  0.997702  0.501590  1
  Rh  Rh27  1  0.999615  0.997702  0.998410  1
