# generated using pymatgen
data_Lu3GaSn3Rh2
_symmetry_space_group_name_H-M   'P 1'
_cell_length_a   7.39418900
_cell_length_b   7.39418954
_cell_length_c   4.00858300
_cell_angle_alpha   90.00000000
_cell_angle_beta   90.00000000
_cell_angle_gamma   120.00000742
_symmetry_Int_Tables_number   1
_chemical_formula_structural   Lu3GaSn3Rh2
_chemical_formula_sum   'Lu3 Ga1 Sn3 Rh2'
_cell_volume   189.80279588
_cell_formula_units_Z   1
loop_
 _symmetry_equiv_pos_site_id
 _symmetry_equiv_pos_as_xyz
  1  'x, y, z'
loop_
 _atom_site_type_symbol
 _atom_site_label
 _atom_site_symmetry_multiplicity
 _atom_site_fract_x
 _atom_site_fract_y
 _atom_site_fract_z
 _atom_site_occupancy
  Lu  Lu0  1  0.395454  0.410410  0.500000  1
  Lu  Lu1  1  0.589590  0.985044  0.500000  1
  Lu  Lu2  1  0.014956  0.604546  0.500000  1
  Ga  Ga3  1  0.666667  0.333333  0.000000  1
  Sn  Sn4  1  0.741514  0.744703  0.000000  1
  Sn  Sn5  1  0.255297  0.996811  0.000000  1
  Sn  Sn6  1  0.003189  0.258486  0.000000  1
  Rh  Rh7  1  0.333333  0.666667  0.000000  1
  Rh  Rh8  1  0.000000  0.000000  0.500000  1
