# generated using pymatgen
data_Nd16Ag4OsPt3
_symmetry_space_group_name_H-M   'P 1'
_cell_length_a   9.92448476
_cell_length_b   9.92448490
_cell_length_c   9.92448498
_cell_angle_alpha   59.99866517
_cell_angle_beta   59.99867044
_cell_angle_gamma   59.99867038
_symmetry_Int_Tables_number   1
_chemical_formula_structural   Nd16Ag4OsPt3
_chemical_formula_sum   'Nd16 Ag4 Os1 Pt3'
_cell_volume   691.18740589
_cell_formula_units_Z   1
loop_
 _symmetry_equiv_pos_site_id
 _symmetry_equiv_pos_as_xyz
  1  'x, y, z'
loop_
 _atom_site_type_symbol
 _atom_site_label
 _atom_site_symmetry_multiplicity
 _atom_site_fract_x
 _atom_site_fract_y
 _atom_site_fract_z
 _atom_site_occupancy
  Nd  Nd0  1  0.355134  0.355134  0.355134  1
  Nd  Nd1  1  0.350070  0.350070  0.944633  1
  Nd  Nd2  1  0.350070  0.944633  0.350070  1
  Nd  Nd3  1  0.944633  0.350070  0.350070  1
  Nd  Nd4  1  0.816731  0.187678  0.187678  1
  Nd  Nd5  1  0.191972  0.807215  0.807215  1
  Nd  Nd6  1  0.187678  0.816731  0.187678  1
  Nd  Nd7  1  0.807215  0.191972  0.807215  1
  Nd  Nd8  1  0.187678  0.187678  0.816731  1
  Nd  Nd9  1  0.807215  0.807215  0.191972  1
  Nd  Nd10  1  0.935520  0.563489  0.563489  1
  Nd  Nd11  1  0.559722  0.936443  0.936443  1
  Nd  Nd12  1  0.563489  0.935520  0.563489  1
  Nd  Nd13  1  0.936443  0.559722  0.936443  1
  Nd  Nd14  1  0.563489  0.563489  0.935520  1
  Nd  Nd15  1  0.936443  0.936443  0.559722  1
  Ag  Ag16  1  0.582167  0.582167  0.582167  1
  Ag  Ag17  1  0.583184  0.583184  0.253931  1
  Ag  Ag18  1  0.583184  0.253931  0.583184  1
  Ag  Ag19  1  0.253931  0.583184  0.583184  1
  Os  Os20  1  0.142530  0.142530  0.142530  1
  Pt  Pt21  1  0.145511  0.145511  0.570481  1
  Pt  Pt22  1  0.145511  0.570481  0.145511  1
  Pt  Pt23  1  0.570481  0.145511  0.145511  1
