# generated using pymatgen
data_Sc12In2MoI16
_symmetry_space_group_name_H-M   'P 1'
_cell_length_a   9.43746048
_cell_length_b   12.29053839
_cell_length_c   13.07779798
_cell_angle_alpha   116.94700955
_cell_angle_beta   101.34354749
_cell_angle_gamma   100.66042714
_symmetry_Int_Tables_number   1
_chemical_formula_structural   Sc12In2MoI16
_chemical_formula_sum   'Sc12 In2 Mo1 I16'
_cell_volume   1258.90522956
_cell_formula_units_Z   1
loop_
 _symmetry_equiv_pos_site_id
 _symmetry_equiv_pos_as_xyz
  1  'x, y, z'
loop_
 _atom_site_type_symbol
 _atom_site_label
 _atom_site_symmetry_multiplicity
 _atom_site_fract_x
 _atom_site_fract_y
 _atom_site_fract_z
 _atom_site_occupancy
  Sc  Sc0  1  0.088986  0.253755  0.348903  1
  Sc  Sc1  1  0.896947  0.731134  0.641722  1
  Sc  Sc2  1  0.765224  0.537209  0.332176  1
  Sc  Sc3  1  0.228218  0.459752  0.680874  1
  Sc  Sc4  1  0.288963  0.746632  0.649615  1
  Sc  Sc5  1  0.708690  0.268266  0.359203  1
  Sc  Sc6  1  0.148586  0.540441  0.318242  1
  Sc  Sc7  1  0.838004  0.462417  0.668848  1
  Sc  Sc8  1  0.422226  0.361433  0.280773  1
  Sc  Sc9  1  0.607315  0.638403  0.719230  1
  Sc  Sc10  1  0.473357  0.309194  0.518116  1
  Sc  Sc11  1  0.556302  0.691299  0.482130  1
  In  In12  1  0.995206  0.499695  0.500159  1
  In  In13  1  0.342764  0.500320  0.499626  1
  Mo  Mo14  1  0.662255  0.499932  0.500271  1
  I  I15  1  0.395430  0.730317  0.868705  1
  I  I16  1  0.608552  0.264113  0.122315  1
  I  I17  1  0.181054  0.955781  0.777410  1
  I  I18  1  0.811524  0.044315  0.222721  1
  I  I19  1  0.329975  0.099685  0.255647  1
  I  I20  1  0.654765  0.900290  0.744325  1
  I  I21  1  0.553027  0.435650  0.790360  1
  I  I22  1  0.425740  0.564533  0.210176  1
  I  I23  1  0.308606  0.820117  0.465831  1
  I  I24  1  0.696966  0.172422  0.534909  1
  I  I25  1  0.172908  0.180615  0.533139  1
  I  I26  1  0.837121  0.826872  0.466083  1
  I  I27  1  0.921641  0.575741  0.168519  1
  I  I28  1  0.068208  0.424148  0.831387  1
  I  I29  1  0.926711  0.735605  0.878468  1
  I  I30  1  0.084728  0.269911  0.130116  1
