# generated using pymatgen
data_Ho12Tm4In3HgRh4
_symmetry_space_group_name_H-M   'P 1'
_cell_length_a   9.57674683
_cell_length_b   9.57674728
_cell_length_c   9.58562368
_cell_angle_alpha   60.03738699
_cell_angle_beta   60.03738700
_cell_angle_gamma   60.04460090
_symmetry_Int_Tables_number   1
_chemical_formula_structural   Ho12Tm4In3HgRh4
_chemical_formula_sum   'Ho12 Tm4 In3 Hg1 Rh4'
_cell_volume   622.20420436
_cell_formula_units_Z   1
loop_
 _symmetry_equiv_pos_site_id
 _symmetry_equiv_pos_as_xyz
  1  'x, y, z'
loop_
 _atom_site_type_symbol
 _atom_site_label
 _atom_site_symmetry_multiplicity
 _atom_site_fract_x
 _atom_site_fract_y
 _atom_site_fract_z
 _atom_site_occupancy
  Ho  Ho0  1  0.061612  0.061612  0.439107  1
  Ho  Ho1  1  0.436565  0.064849  0.437121  1
  Ho  Ho2  1  0.061803  0.438844  0.061410  1
  Ho  Ho3  1  0.052321  0.648051  0.648464  1
  Ho  Ho4  1  0.437126  0.437126  0.064265  1
  Ho  Ho5  1  0.648051  0.052321  0.648464  1
  Ho  Ho6  1  0.189227  0.813133  0.188605  1
  Ho  Ho7  1  0.188307  0.188307  0.813538  1
  Ho  Ho8  1  0.810343  0.810343  0.190191  1
  Ho  Ho9  1  0.438844  0.061803  0.061410  1
  Ho  Ho10  1  0.813133  0.189227  0.188605  1
  Ho  Ho11  1  0.064849  0.436565  0.437121  1
  Tm  Tm12  1  0.810584  0.190520  0.810184  1
  Tm  Tm13  1  0.190520  0.810584  0.810184  1
  Tm  Tm14  1  0.648524  0.648524  0.051056  1
  Tm  Tm15  1  0.651444  0.651444  0.652127  1
  In  In16  1  0.746838  0.418430  0.417839  1
  In  In17  1  0.418430  0.746838  0.417839  1
  In  In18  1  0.418322  0.418322  0.746806  1
  Hg  Hg19  1  0.414244  0.414244  0.413499  1
  Rh  Rh20  1  0.857657  0.857657  0.427943  1
  Rh  Rh21  1  0.856910  0.856910  0.857319  1
  Rh  Rh22  1  0.427741  0.856602  0.858450  1
  Rh  Rh23  1  0.856602  0.427741  0.858450  1
