# generated using pymatgen
data_Na4Hf6BBr18
_symmetry_space_group_name_H-M   'P 1'
_cell_length_a   10.21857833
_cell_length_b   10.21458880
_cell_length_c   10.31765411
_cell_angle_alpha   118.99603195
_cell_angle_beta   99.68945358
_cell_angle_gamma   102.94836408
_symmetry_Int_Tables_number   1
_chemical_formula_structural   Na4Hf6BBr18
_chemical_formula_sum   'Na4 Hf6 B1 Br18'
_cell_volume   868.20449656
_cell_formula_units_Z   1
loop_
 _symmetry_equiv_pos_site_id
 _symmetry_equiv_pos_as_xyz
  1  'x, y, z'
loop_
 _atom_site_type_symbol
 _atom_site_label
 _atom_site_symmetry_multiplicity
 _atom_site_fract_x
 _atom_site_fract_y
 _atom_site_fract_z
 _atom_site_occupancy
  Na  Na0  1  0.153508  0.716371  0.551177  1
  Na  Na1  1  0.873092  0.971208  0.784500  1
  Na  Na2  1  0.126908  0.028792  0.215500  1
  Na  Na3  1  0.846492  0.283629  0.448823  1
  Hf  Hf4  1  0.352260  0.449216  0.770268  1
  Hf  Hf5  1  0.366388  0.636714  0.142034  1
  Hf  Hf6  1  0.642939  0.737340  0.040825  1
  Hf  Hf7  1  0.647740  0.550784  0.229732  1
  Hf  Hf8  1  0.357061  0.262660  0.959175  1
  Hf  Hf9  1  0.633612  0.363286  0.857966  1
  B  B10  1  0.500000  0.500000  0.000000  1
  Br  Br11  1  0.822357  0.410157  0.103491  1
  Br  Br12  1  0.519298  0.713484  0.423374  1
  Br  Br13  1  0.167932  0.972214  0.901600  1
  Br  Br14  1  0.177643  0.589843  0.896509  1
  Br  Br15  1  0.831682  0.832860  0.312778  1
  Br  Br16  1  0.505293  0.288684  0.215084  1
  Br  Br17  1  0.794164  0.199543  0.689279  1
  Br  Br18  1  0.168318  0.167140  0.687222  1
  Br  Br19  1  0.513215  0.925464  0.207061  1
  Br  Br20  1  0.816659  0.618230  0.890546  1
  Br  Br21  1  0.205836  0.800457  0.310721  1
  Br  Br22  1  0.158208  0.382726  0.487331  1
  Br  Br23  1  0.494707  0.711316  0.784916  1
  Br  Br24  1  0.832068  0.027786  0.098400  1
  Br  Br25  1  0.480702  0.286516  0.576626  1
  Br  Br26  1  0.183341  0.381770  0.109454  1
  Br  Br27  1  0.841792  0.617274  0.512669  1
  Br  Br28  1  0.486785  0.074536  0.792939  1
