# generated using pymatgen
data_Zr5Ta3(Si3Ni4)4
_symmetry_space_group_name_H-M   'P 1'
_cell_length_a   12.29030500
_cell_length_b   12.29030395
_cell_length_c   3.75019500
_cell_angle_alpha   90.00000000
_cell_angle_beta   90.00000000
_cell_angle_gamma   119.99999476
_symmetry_Int_Tables_number   1
_chemical_formula_structural   Zr5Ta3(Si3Ni4)4
_chemical_formula_sum   'Zr5 Ta3 Si12 Ni16'
_cell_volume   490.57994373
_cell_formula_units_Z   1
loop_
 _symmetry_equiv_pos_site_id
 _symmetry_equiv_pos_as_xyz
  1  'x, y, z'
loop_
 _atom_site_type_symbol
 _atom_site_label
 _atom_site_symmetry_multiplicity
 _atom_site_fract_x
 _atom_site_fract_y
 _atom_site_fract_z
 _atom_site_occupancy
  Zr  Zr0  1  0.666667  0.333333  0.000000  1
  Zr  Zr1  1  0.333333  0.666667  0.000000  1
  Zr  Zr2  1  0.821308  0.821308  0.500000  1
  Zr  Zr3  1  0.178692  0.000000  0.500000  1
  Zr  Zr4  1  0.000000  0.178692  0.500000  1
  Ta  Ta5  1  0.438822  0.438822  0.000000  1
  Ta  Ta6  1  0.561178  0.000000  0.000000  1
  Ta  Ta7  1  0.000000  0.561178  0.000000  1
  Si  Si8  1  0.647650  0.647650  0.000000  1
  Si  Si9  1  0.352350  0.000000  0.000000  1
  Si  Si10  1  0.000000  0.352350  0.000000  1
  Si  Si11  1  0.482314  0.310523  0.500000  1
  Si  Si12  1  0.689477  0.171791  0.500000  1
  Si  Si13  1  0.828209  0.517686  0.500000  1
  Si  Si14  1  0.517686  0.828209  0.500000  1
  Si  Si15  1  0.171791  0.689477  0.500000  1
  Si  Si16  1  0.821988  0.000000  0.000000  1
  Si  Si17  1  0.000000  0.821988  0.000000  1
  Si  Si18  1  0.310523  0.482314  0.500000  1
  Si  Si19  1  0.178012  0.178012  0.000000  1
  Ni  Ni20  1  0.195373  0.377237  0.000000  1
  Ni  Ni21  1  0.181863  0.804627  0.000000  1
  Ni  Ni22  1  0.818137  0.622763  0.000000  1
  Ni  Ni23  1  0.804627  0.181863  0.000000  1
  Ni  Ni24  1  0.377237  0.195373  0.000000  1
  Ni  Ni25  1  0.121218  0.479184  0.500000  1
  Ni  Ni26  1  0.357968  0.878782  0.500000  1
  Ni  Ni27  1  0.520816  0.642032  0.500000  1
  Ni  Ni28  1  0.642032  0.520816  0.500000  1
  Ni  Ni29  1  0.878782  0.357968  0.500000  1
  Ni  Ni30  1  0.479184  0.121218  0.500000  1
  Ni  Ni31  1  0.000000  0.000000  0.000000  1
  Ni  Ni32  1  0.721965  0.000000  0.500000  1
  Ni  Ni33  1  0.000000  0.721965  0.500000  1
  Ni  Ni34  1  0.622763  0.818137  0.000000  1
  Ni  Ni35  1  0.278035  0.278035  0.500000  1
