# generated using pymatgen
data_NaV2F6
_symmetry_space_group_name_H-M   'P 1'
_cell_length_a   4.93125200
_cell_length_b   4.93125200
_cell_length_c   9.78077800
_cell_angle_alpha   90.00000000
_cell_angle_beta   90.00000000
_cell_angle_gamma   90.00000000
_symmetry_Int_Tables_number   1
_chemical_formula_structural   NaV2F6
_chemical_formula_sum   'Na2 V4 F12'
_cell_volume   237.84158751
_cell_formula_units_Z   2
loop_
 _symmetry_equiv_pos_site_id
 _symmetry_equiv_pos_as_xyz
  1  'x, y, z'
loop_
 _atom_site_type_symbol
 _atom_site_label
 _atom_site_symmetry_multiplicity
 _atom_site_fract_x
 _atom_site_fract_y
 _atom_site_fract_z
 _atom_site_occupancy
  Na  Na0  1  0.500000  0.500000  0.832640  1
  Na  Na1  1  0.000000  0.000000  0.332640  1
  V  V2  1  0.500000  0.500000  0.501217  1
  V  V3  1  0.000000  0.000000  0.001217  1
  V  V4  1  0.500000  0.500000  0.165031  1
  V  V5  1  0.000000  0.000000  0.665031  1
  F  F6  1  0.197753  0.802247  0.516909  1
  F  F7  1  0.802247  0.197753  0.516909  1
  F  F8  1  0.697753  0.697753  0.016909  1
  F  F9  1  0.302247  0.302247  0.016909  1
  F  F10  1  0.180538  0.819462  0.824440  1
  F  F11  1  0.819462  0.180538  0.824440  1
  F  F12  1  0.680538  0.680538  0.324440  1
  F  F13  1  0.319462  0.319462  0.324440  1
  F  F14  1  0.783787  0.216213  0.157257  1
  F  F15  1  0.216213  0.783787  0.157257  1
  F  F16  1  0.283787  0.283787  0.657257  1
  F  F17  1  0.716213  0.716213  0.657257  1
