# generated using pymatgen
data_Tb10Si16Pd
_symmetry_space_group_name_H-M   'P 1'
_cell_length_a   11.17825811
_cell_length_b   11.16462581
_cell_length_c   11.17825712
_cell_angle_alpha   144.52002872
_cell_angle_beta   136.83414102
_cell_angle_gamma   57.08703084
_symmetry_Int_Tables_number   1
_chemical_formula_structural   Tb10Si16Pd
_chemical_formula_sum   'Tb10 Si16 Pd1'
_cell_volume   549.42534634
_cell_formula_units_Z   1
loop_
 _symmetry_equiv_pos_site_id
 _symmetry_equiv_pos_as_xyz
  1  'x, y, z'
loop_
 _atom_site_type_symbol
 _atom_site_label
 _atom_site_symmetry_multiplicity
 _atom_site_fract_x
 _atom_site_fract_y
 _atom_site_fract_z
 _atom_site_occupancy
  Tb  Tb0  1  0.754960  0.755218  0.500840  1
  Tb  Tb1  1  0.457882  0.960801  0.011053  1
  Tb  Tb2  1  0.854414  0.360826  0.013085  1
  Tb  Tb3  1  0.949749  0.960801  0.502919  1
  Tb  Tb4  1  0.152876  0.167796  0.515508  1
  Tb  Tb5  1  0.347740  0.360826  0.506411  1
  Tb  Tb6  1  0.254377  0.755218  0.000257  1
  Tb  Tb7  1  0.552363  0.565698  0.506341  1
  Tb  Tb8  1  0.059355  0.565698  0.013335  1
  Tb  Tb9  1  0.652288  0.167796  0.014920  1
  Si  Si10  1  0.203051  0.591626  0.388575  1
  Si  Si11  1  0.995454  0.061076  0.065622  1
  Si  Si12  1  0.701240  0.287825  0.586584  1
  Si  Si13  1  0.806188  0.224979  0.418792  1
  Si  Si14  1  0.904278  0.534380  0.630102  1
  Si  Si15  1  0.416515  0.862896  0.446382  1
  Si  Si16  1  0.105392  0.706143  0.600752  1
  Si  Si17  1  0.304129  0.897308  0.593178  1
  Si  Si18  1  0.588735  0.035249  0.446513  1
  Si  Si19  1  0.001856  0.419735  0.417879  1
  Si  Si20  1  0.816702  0.891204  0.074504  1
  Si  Si21  1  0.403092  0.496667  0.093576  1
  Si  Si22  1  0.116206  0.067118  0.950911  1
  Si  Si23  1  0.291971  0.235705  0.943734  1
  Si  Si24  1  0.502495  0.396461  0.893967  1
  Si  Si25  1  0.601403  0.698630  0.097227  1
  Pd  Pd26  1  0.705288  0.633819  0.928530  1
