# generated using pymatgen
data_Hf7Be(TlCl9)2
_symmetry_space_group_name_H-M   'P 1'
_cell_length_a   10.55124426
_cell_length_b   10.55124527
_cell_length_c   10.55124400
_cell_angle_alpha   55.67455436
_cell_angle_beta   55.67455060
_cell_angle_gamma   55.67455655
_symmetry_Int_Tables_number   1
_chemical_formula_structural   Hf7Be(TlCl9)2
_chemical_formula_sum   'Hf7 Be1 Tl2 Cl18'
_cell_volume   747.25389669
_cell_formula_units_Z   1
loop_
 _symmetry_equiv_pos_site_id
 _symmetry_equiv_pos_as_xyz
  1  'x, y, z'
loop_
 _atom_site_type_symbol
 _atom_site_label
 _atom_site_symmetry_multiplicity
 _atom_site_fract_x
 _atom_site_fract_y
 _atom_site_fract_z
 _atom_site_occupancy
  Hf  Hf0  1  0.162195  0.898324  0.791494  1
  Hf  Hf1  1  0.837805  0.101676  0.208506  1
  Hf  Hf2  1  0.101676  0.208506  0.837805  1
  Hf  Hf3  1  0.208506  0.837805  0.101676  1
  Hf  Hf4  1  0.898324  0.791494  0.162195  1
  Hf  Hf5  1  0.791494  0.162195  0.898324  1
  Hf  Hf6  1  0.500000  0.500000  0.500000  1
  Be  Be7  1  0.000000  0.000000  0.000000  1
  Tl  Tl8  1  0.775295  0.775295  0.775295  1
  Tl  Tl9  1  0.224705  0.224705  0.224705  1
  Cl  Cl10  1  0.229802  0.468699  0.640637  1
  Cl  Cl11  1  0.770198  0.531301  0.359363  1
  Cl  Cl12  1  0.344103  0.052552  0.934551  1
  Cl  Cl13  1  0.655897  0.947448  0.065449  1
  Cl  Cl14  1  0.934551  0.344103  0.052552  1
  Cl  Cl15  1  0.713147  0.878684  0.411575  1
  Cl  Cl16  1  0.359363  0.770198  0.531301  1
  Cl  Cl17  1  0.588425  0.286853  0.121316  1
  Cl  Cl18  1  0.286853  0.121316  0.588425  1
  Cl  Cl19  1  0.121316  0.588425  0.286853  1
  Cl  Cl20  1  0.947448  0.065449  0.655897  1
  Cl  Cl21  1  0.411575  0.713147  0.878684  1
  Cl  Cl22  1  0.878684  0.411575  0.713147  1
  Cl  Cl23  1  0.065449  0.655897  0.947448  1
  Cl  Cl24  1  0.468699  0.640637  0.229802  1
  Cl  Cl25  1  0.640637  0.229802  0.468699  1
  Cl  Cl26  1  0.531301  0.359363  0.770198  1
  Cl  Cl27  1  0.052552  0.934551  0.344103  1
