# generated using pymatgen
data_DyYRe7Si4Mo
_symmetry_space_group_name_H-M   'P 1'
_cell_length_a   7.14633001
_cell_length_b   7.68862971
_cell_length_c   4.17561300
_cell_angle_alpha   90.00000000
_cell_angle_beta   90.00000000
_cell_angle_gamma   90.10773843
_symmetry_Int_Tables_number   1
_chemical_formula_structural   DyYRe7Si4Mo
_chemical_formula_sum   'Dy1 Y1 Re7 Si4 Mo1'
_cell_volume   229.43067697
_cell_formula_units_Z   1
loop_
 _symmetry_equiv_pos_site_id
 _symmetry_equiv_pos_as_xyz
  1  'x, y, z'
loop_
 _atom_site_type_symbol
 _atom_site_label
 _atom_site_symmetry_multiplicity
 _atom_site_fract_x
 _atom_site_fract_y
 _atom_site_fract_z
 _atom_site_occupancy
  Dy  Dy0  1  0.999124  0.999935  0.500000  1
  Y  Y1  1  0.500760  0.498851  0.000000  1
  Re  Re2  1  0.155638  0.604935  0.500000  1
  Re  Re3  1  0.083379  0.340488  0.000000  1
  Re  Re4  1  0.918843  0.657540  0.000000  1
  Re  Re5  1  0.416924  0.840541  0.500000  1
  Re  Re6  1  0.581617  0.163556  0.500000  1
  Re  Re7  1  0.343817  0.107227  0.000000  1
  Re  Re8  1  0.846184  0.393901  0.500000  1
  Si  Si9  1  0.223576  0.806163  0.000000  1
  Si  Si10  1  0.778058  0.195536  0.000000  1
  Si  Si11  1  0.723788  0.693077  0.500000  1
  Si  Si12  1  0.276882  0.305406  0.500000  1
  Mo  Mo13  1  0.651410  0.892844  0.000000  1
