# generated using pymatgen
data_Tb15Ho5Ir7Au5
_symmetry_space_group_name_H-M   'P 1'
_cell_length_a   11.22401760
_cell_length_b   11.22222267
_cell_length_c   6.32421566
_cell_angle_alpha   89.97925316
_cell_angle_beta   89.94828837
_cell_angle_gamma   89.66990749
_symmetry_Int_Tables_number   1
_chemical_formula_structural   Tb15Ho5Ir7Au5
_chemical_formula_sum   'Tb15 Ho5 Ir7 Au5'
_cell_volume   796.57464704
_cell_formula_units_Z   1
loop_
 _symmetry_equiv_pos_site_id
 _symmetry_equiv_pos_as_xyz
  1  'x, y, z'
loop_
 _atom_site_type_symbol
 _atom_site_label
 _atom_site_symmetry_multiplicity
 _atom_site_fract_x
 _atom_site_fract_y
 _atom_site_fract_z
 _atom_site_occupancy
  Tb  Tb0  1  0.299160  0.091305  0.362763  1
  Tb  Tb1  1  0.300987  0.907189  0.862741  1
  Tb  Tb2  1  0.698093  0.080600  0.857682  1
  Tb  Tb3  1  0.698259  0.905595  0.360434  1
  Tb  Tb4  1  0.581026  0.783788  0.876269  1
  Tb  Tb5  1  0.576279  0.207047  0.361232  1
  Tb  Tb6  1  0.417238  0.787592  0.376148  1
  Tb  Tb7  1  0.410674  0.208513  0.875090  1
  Tb  Tb8  1  0.215970  0.418713  0.623691  1
  Tb  Tb9  1  0.212295  0.582384  0.123914  1
  Tb  Tb10  1  0.793204  0.423589  0.138694  1
  Tb  Tb11  1  0.791503  0.589316  0.625013  1
  Tb  Tb12  1  0.909015  0.700648  0.137046  1
  Tb  Tb13  1  0.919643  0.301849  0.642266  1
  Tb  Tb14  1  0.092810  0.699098  0.637301  1
  Ho  Ho15  1  0.094413  0.302599  0.139041  1
  Ho  Ho16  1  0.998376  0.001032  0.499291  1
  Ho  Ho17  1  0.999060  0.001939  0.000671  1
  Ho  Ho18  1  0.495936  0.501795  0.001242  1
  Ho  Ho19  1  0.498153  0.504019  0.498818  1
  Ir  Ir20  1  0.653067  0.650310  0.251197  1
  Ir  Ir21  1  0.349026  0.346751  0.248599  1
  Ir  Ir22  1  0.346125  0.653889  0.750013  1
  Ir  Ir23  1  0.499294  0.999112  0.109682  1
  Ir  Ir24  1  0.499002  0.000394  0.610653  1
  Ir  Ir25  1  0.999962  0.500439  0.889792  1
  Ir  Ir26  1  0.001124  0.500176  0.389774  1
  Au  Au27  1  0.842529  0.157938  0.249875  1
  Au  Au28  1  0.844394  0.846771  0.750832  1
  Au  Au29  1  0.153007  0.156023  0.750277  1
  Au  Au30  1  0.154649  0.845287  0.249970  1
  Au  Au31  1  0.655727  0.344301  0.749991  1
