# generated using pymatgen
data_LaLuNi9Ge
_symmetry_space_group_name_H-M   'P 1'
_cell_length_a   3.98952800
_cell_length_b   5.04328200
_cell_length_c   8.35743900
_cell_angle_alpha   90.00000000
_cell_angle_beta   90.00000000
_cell_angle_gamma   90.00000000
_symmetry_Int_Tables_number   1
_chemical_formula_structural   LaLuNi9Ge
_chemical_formula_sum   'La1 Lu1 Ni9 Ge1'
_cell_volume   168.15430319
_cell_formula_units_Z   1
loop_
 _symmetry_equiv_pos_site_id
 _symmetry_equiv_pos_as_xyz
  1  'x, y, z'
loop_
 _atom_site_type_symbol
 _atom_site_label
 _atom_site_symmetry_multiplicity
 _atom_site_fract_x
 _atom_site_fract_y
 _atom_site_fract_z
 _atom_site_occupancy
  La  La0  1  0.000000  0.500000  0.000000  1
  Lu  Lu1  1  0.000000  0.000000  0.500000  1
  Ni  Ni2  1  0.000000  0.500000  0.337307  1
  Ni  Ni3  1  0.000000  0.000000  0.830424  1
  Ni  Ni4  1  0.000000  0.000000  0.169576  1
  Ni  Ni5  1  0.000000  0.500000  0.662693  1
  Ni  Ni6  1  0.500000  0.000000  0.000000  1
  Ni  Ni7  1  0.500000  0.763155  0.261587  1
  Ni  Ni8  1  0.500000  0.236845  0.738413  1
  Ni  Ni9  1  0.500000  0.236845  0.261587  1
  Ni  Ni10  1  0.500000  0.763155  0.738413  1
  Ge  Ge11  1  0.500000  0.500000  0.500000  1
