# generated using pymatgen
data_Tb11Dy(SiPd)12
_symmetry_space_group_name_H-M   'P 1'
_cell_length_a   4.36344300
_cell_length_b   7.44680601
_cell_length_c   21.16302400
_cell_angle_alpha   90.00278523
_cell_angle_beta   90.00000000
_cell_angle_gamma   90.00000000
_symmetry_Int_Tables_number   1
_chemical_formula_structural   Tb11Dy(SiPd)12
_chemical_formula_sum   'Tb11 Dy1 Si12 Pd12'
_cell_volume   687.66523893
_cell_formula_units_Z   1
loop_
 _symmetry_equiv_pos_site_id
 _symmetry_equiv_pos_as_xyz
  1  'x, y, z'
loop_
 _atom_site_type_symbol
 _atom_site_label
 _atom_site_symmetry_multiplicity
 _atom_site_fract_x
 _atom_site_fract_y
 _atom_site_fract_z
 _atom_site_occupancy
  Tb  Tb0  1  0.750000  0.294198  0.667358  1
  Tb  Tb1  1  0.750000  0.205937  0.167175  1
  Tb  Tb2  1  0.250000  0.794042  0.832772  1
  Tb  Tb3  1  0.250000  0.794223  0.166406  1
  Tb  Tb4  1  0.750000  0.205959  0.833665  1
  Tb  Tb5  1  0.750000  0.294311  0.333614  1
  Tb  Tb6  1  0.250000  0.706049  0.666455  1
  Tb  Tb7  1  0.250000  0.710157  0.001150  1
  Tb  Tb8  1  0.750000  0.289887  0.998800  1
  Tb  Tb9  1  0.750000  0.210626  0.498754  1
  Tb  Tb10  1  0.250000  0.789924  0.501262  1
  Dy  Dy11  1  0.250000  0.706414  0.332962  1
  Si  Si12  1  0.250000  0.089600  0.071232  1
  Si  Si13  1  0.750000  0.910462  0.928614  1
  Si  Si14  1  0.750000  0.589334  0.429484  1
  Si  Si15  1  0.250000  0.410636  0.571726  1
  Si  Si16  1  0.250000  0.085508  0.271685  1
  Si  Si17  1  0.750000  0.914279  0.728436  1
  Si  Si18  1  0.750000  0.585845  0.228346  1
  Si  Si19  1  0.250000  0.414198  0.771588  1
  Si  Si20  1  0.250000  0.086548  0.394858  1
  Si  Si21  1  0.750000  0.912838  0.605057  1
  Si  Si22  1  0.750000  0.587437  0.104968  1
  Si  Si23  1  0.250000  0.412650  0.894987  1
  Pd  Pd24  1  0.250000  0.418263  0.237058  1
  Pd  Pd25  1  0.750000  0.582596  0.763179  1
  Pd  Pd26  1  0.750000  0.916529  0.263210  1
  Pd  Pd27  1  0.250000  0.082484  0.736933  1
  Pd  Pd28  1  0.250000  0.417437  0.436588  1
  Pd  Pd29  1  0.750000  0.582568  0.561915  1
  Pd  Pd30  1  0.750000  0.917487  0.062078  1
  Pd  Pd31  1  0.250000  0.082542  0.937951  1
  Pd  Pd32  1  0.250000  0.420301  0.093842  1
  Pd  Pd33  1  0.750000  0.579686  0.906269  1
  Pd  Pd34  1  0.750000  0.919044  0.405940  1
  Pd  Pd35  1  0.250000  0.079999  0.593683  1
