# generated using pymatgen
data_Ce4Co20GeAs11
_symmetry_space_group_name_H-M   'P 1'
_cell_length_a   3.84225700
_cell_length_b   12.13284375
_cell_length_c   10.79128854
_cell_angle_alpha   89.93862007
_cell_angle_beta   90.00000000
_cell_angle_gamma   90.00000000
_symmetry_Int_Tables_number   1
_chemical_formula_structural   Ce4Co20GeAs11
_chemical_formula_sum   'Ce4 Co20 Ge1 As11'
_cell_volume   503.06264614
_cell_formula_units_Z   1
loop_
 _symmetry_equiv_pos_site_id
 _symmetry_equiv_pos_as_xyz
  1  'x, y, z'
loop_
 _atom_site_type_symbol
 _atom_site_label
 _atom_site_symmetry_multiplicity
 _atom_site_fract_x
 _atom_site_fract_y
 _atom_site_fract_z
 _atom_site_occupancy
  Ce  Ce0  1  0.750000  0.700378  0.083026  1
  Ce  Ce1  1  0.250000  0.299749  0.916824  1
  Ce  Ce2  1  0.250000  0.798814  0.582701  1
  Ce  Ce3  1  0.750000  0.200591  0.417270  1
  Co  Co4  1  0.750000  0.696888  0.386101  1
  Co  Co5  1  0.250000  0.303741  0.614057  1
  Co  Co6  1  0.250000  0.803547  0.887094  1
  Co  Co7  1  0.750000  0.196524  0.113388  1
  Co  Co8  1  0.750000  0.992721  0.212522  1
  Co  Co9  1  0.250000  0.006920  0.787491  1
  Co  Co10  1  0.250000  0.509336  0.710570  1
  Co  Co11  1  0.750000  0.493456  0.287729  1
  Co  Co12  1  0.750000  0.677491  0.789574  1
  Co  Co13  1  0.250000  0.322826  0.213524  1
  Co  Co14  1  0.250000  0.823906  0.286119  1
  Co  Co15  1  0.750000  0.177229  0.713743  1
  Co  Co16  1  0.750000  0.931198  0.973061  1
  Co  Co17  1  0.250000  0.069154  0.026439  1
  Co  Co18  1  0.250000  0.567335  0.471495  1
  Co  Co19  1  0.750000  0.428470  0.525138  1
  Co  Co20  1  0.750000  0.985812  0.593240  1
  Co  Co21  1  0.250000  0.014742  0.407113  1
  Co  Co22  1  0.250000  0.514365  0.093164  1
  Co  Co23  1  0.750000  0.485744  0.907146  1
  Ge  Ge24  1  0.750000  0.610731  0.589323  1
  As  As25  1  0.250000  0.387076  0.412533  1
  As  As26  1  0.250000  0.887549  0.087073  1
  As  As27  1  0.750000  0.112678  0.912620  1
  As  As28  1  0.750000  0.891614  0.396325  1
  As  As29  1  0.250000  0.108372  0.604157  1
  As  As30  1  0.250000  0.608030  0.895861  1
  As  As31  1  0.750000  0.391853  0.104041  1
  As  As32  1  0.750000  0.870136  0.774539  1
  As  As33  1  0.250000  0.129126  0.225117  1
  As  As34  1  0.250000  0.630176  0.275293  1
  As  As35  1  0.750000  0.371722  0.724588  1
