# generated using pymatgen
data_Yb7YSiPd24
_symmetry_space_group_name_H-M   'P 1'
_cell_length_a   8.27382803
_cell_length_b   8.27382803
_cell_length_c   8.27382803
_cell_angle_alpha   89.99257622
_cell_angle_beta   90.00742378
_cell_angle_gamma   90.00742378
_symmetry_Int_Tables_number   1
_chemical_formula_structural   Yb7YSiPd24
_chemical_formula_sum   'Yb7 Y1 Si1 Pd24'
_cell_volume   566.39506354
_cell_formula_units_Z   1
loop_
 _symmetry_equiv_pos_site_id
 _symmetry_equiv_pos_as_xyz
  1  'x, y, z'
loop_
 _atom_site_type_symbol
 _atom_site_label
 _atom_site_symmetry_multiplicity
 _atom_site_fract_x
 _atom_site_fract_y
 _atom_site_fract_z
 _atom_site_occupancy
  Yb  Yb0  1  0.253016  0.253024  0.253024  1
  Yb  Yb1  1  0.746991  0.747002  0.747002  1
  Yb  Yb2  1  0.746976  0.746984  0.253024  1
  Yb  Yb3  1  0.746976  0.253024  0.746984  1
  Yb  Yb4  1  0.252998  0.253009  0.747002  1
  Yb  Yb5  1  0.252998  0.747002  0.253009  1
  Yb  Yb6  1  0.253059  0.746941  0.746941  1
  Y  Y7  1  0.746619  0.253381  0.253381  1
  Si  Si8  1  0.000244  0.999756  0.999756  1
  Pd  Pd9  1  0.257825  0.499998  0.000104  1
  Pd  Pd10  1  0.742211  0.500332  0.999641  1
  Pd  Pd11  1  0.000359  0.257789  0.500332  1
  Pd  Pd12  1  0.499668  0.257789  0.999641  1
  Pd  Pd13  1  0.999896  0.742175  0.499998  1
  Pd  Pd14  1  0.500002  0.742175  0.000104  1
  Pd  Pd15  1  0.499668  0.999641  0.257789  1
  Pd  Pd16  1  0.257825  0.000104  0.499998  1
  Pd  Pd17  1  0.500002  0.000104  0.742175  1
  Pd  Pd18  1  0.742211  0.999641  0.500332  1
  Pd  Pd19  1  0.000359  0.500332  0.257789  1
  Pd  Pd20  1  0.999896  0.499998  0.742175  1
  Pd  Pd21  1  0.252677  0.499929  0.499929  1
  Pd  Pd22  1  0.747320  0.500463  0.500463  1
  Pd  Pd23  1  0.499537  0.252680  0.500463  1
  Pd  Pd24  1  0.500071  0.747323  0.499929  1
  Pd  Pd25  1  0.499537  0.500463  0.252680  1
  Pd  Pd26  1  0.500071  0.499929  0.747323  1
  Pd  Pd27  1  0.281543  0.000007  0.000007  1
  Pd  Pd28  1  0.718272  0.999407  0.999407  1
  Pd  Pd29  1  0.000593  0.281728  0.999407  1
  Pd  Pd30  1  0.999993  0.718457  0.000007  1
  Pd  Pd31  1  0.000593  0.999407  0.281728  1
  Pd  Pd32  1  0.999993  0.000007  0.718457  1
