# generated using pymatgen
data_PrEu(SnRh)2
_symmetry_space_group_name_H-M   'P 1'
_cell_length_a   7.35883500
_cell_length_b   4.62097100
_cell_length_c   8.12263700
_cell_angle_alpha   90.00000000
_cell_angle_beta   90.00000000
_cell_angle_gamma   90.00000000
_symmetry_Int_Tables_number   1
_chemical_formula_structural   PrEu(SnRh)2
_chemical_formula_sum   'Pr2 Eu2 Sn4 Rh4'
_cell_volume   276.20997169
_cell_formula_units_Z   2
loop_
 _symmetry_equiv_pos_site_id
 _symmetry_equiv_pos_as_xyz
  1  'x, y, z'
loop_
 _atom_site_type_symbol
 _atom_site_label
 _atom_site_symmetry_multiplicity
 _atom_site_fract_x
 _atom_site_fract_y
 _atom_site_fract_z
 _atom_site_occupancy
  Pr  Pr0  1  0.531529  0.250000  0.179669  1
  Pr  Pr1  1  0.031528  0.250000  0.320332  1
  Eu  Eu2  1  0.970140  0.750000  0.682363  1
  Eu  Eu3  1  0.470139  0.750000  0.817638  1
  Sn  Sn4  1  0.845983  0.750000  0.069456  1
  Sn  Sn5  1  0.345982  0.750000  0.430544  1
  Sn  Sn6  1  0.655409  0.250000  0.571552  1
  Sn  Sn7  1  0.155408  0.250000  0.928449  1
  Rh  Rh8  1  0.218538  0.750000  0.114547  1
  Rh  Rh9  1  0.718538  0.750000  0.385453  1
  Rh  Rh10  1  0.278403  0.250000  0.607515  1
  Rh  Rh11  1  0.778403  0.250000  0.892485  1
