# generated using pymatgen
data_Tb4HoEr5Pb6
_symmetry_space_group_name_H-M   'P 1'
_cell_length_a   9.05062434
_cell_length_b   9.06453610
_cell_length_c   6.58752200
_cell_angle_alpha   90.00000000
_cell_angle_beta   90.00000000
_cell_angle_gamma   120.05085676
_symmetry_Int_Tables_number   1
_chemical_formula_structural   Tb4HoEr5Pb6
_chemical_formula_sum   'Tb4 Ho1 Er5 Pb6'
_cell_volume   467.79334886
_cell_formula_units_Z   1
loop_
 _symmetry_equiv_pos_site_id
 _symmetry_equiv_pos_as_xyz
  1  'x, y, z'
loop_
 _atom_site_type_symbol
 _atom_site_label
 _atom_site_symmetry_multiplicity
 _atom_site_fract_x
 _atom_site_fract_y
 _atom_site_fract_z
 _atom_site_occupancy
  Tb  Tb0  1  0.761200  0.761104  0.750000  1
  Tb  Tb1  1  0.238800  0.999904  0.750000  1
  Tb  Tb2  1  0.238864  0.238811  0.250000  1
  Tb  Tb3  1  0.761136  0.999947  0.250000  1
  Ho  Ho4  1  0.000000  0.239381  0.750000  1
  Er  Er5  1  0.666779  0.333408  0.000068  1
  Er  Er6  1  0.333221  0.666630  0.000068  1
  Er  Er7  1  0.333221  0.666630  0.499932  1
  Er  Er8  1  0.666779  0.333408  0.499932  1
  Er  Er9  1  0.000000  0.760723  0.250000  1
  Pb  Pb10  1  0.393613  0.393857  0.750000  1
  Pb  Pb11  1  0.606387  0.000244  0.750000  1
  Pb  Pb12  1  0.000000  0.605667  0.750000  1
  Pb  Pb13  1  0.606743  0.606255  0.250000  1
  Pb  Pb14  1  0.393257  0.999512  0.250000  1
  Pb  Pb15  1  0.000000  0.394522  0.250000  1
