# generated using pymatgen
data_Y7Lu(WC2)4
_symmetry_space_group_name_H-M   'P 1'
_cell_length_a   5.73972989
_cell_length_b   5.73972930
_cell_length_c   9.89039212
_cell_angle_alpha   89.77943792
_cell_angle_beta   90.22055940
_cell_angle_gamma   89.93394246
_symmetry_Int_Tables_number   1
_chemical_formula_structural   Y7Lu(WC2)4
_chemical_formula_sum   'Y7 Lu1 W4 C8'
_cell_volume   325.82893178
_cell_formula_units_Z   1
loop_
 _symmetry_equiv_pos_site_id
 _symmetry_equiv_pos_as_xyz
  1  'x, y, z'
loop_
 _atom_site_type_symbol
 _atom_site_label
 _atom_site_symmetry_multiplicity
 _atom_site_fract_x
 _atom_site_fract_y
 _atom_site_fract_z
 _atom_site_occupancy
  Y  Y0  1  0.199969  0.200739  0.341217  1
  Y  Y1  1  0.799611  0.800410  0.657404  1
  Y  Y2  1  0.300463  0.699537  0.842854  1
  Y  Y3  1  0.799261  0.800031  0.341217  1
  Y  Y4  1  0.199590  0.200389  0.657404  1
  Y  Y5  1  0.700214  0.299786  0.158090  1
  Y  Y6  1  0.699783  0.300217  0.842923  1
  Lu  Lu7  1  0.299151  0.700849  0.157151  1
  W  W8  1  0.178842  0.177166  0.001324  1
  W  W9  1  0.822834  0.821158  0.001324  1
  W  W10  1  0.321249  0.678751  0.498156  1
  W  W11  1  0.676824  0.323176  0.498916  1
  C  C12  1  0.004018  0.995982  0.154098  1
  C  C13  1  0.496677  0.503323  0.343604  1
  C  C14  1  0.499624  0.500376  0.652257  1
  C  C15  1  0.499292  0.996032  0.003335  1
  C  C16  1  0.003968  0.500708  0.003335  1
  C  C17  1  0.999959  0.000041  0.847590  1
  C  C18  1  0.499519  0.000849  0.498901  1
  C  C19  1  0.999151  0.500481  0.498901  1
