# generated using pymatgen
data_KEr(CO3)2
_symmetry_space_group_name_H-M   'P 1'
_cell_length_a   6.37404284
_cell_length_b   6.37404196
_cell_length_c   6.98401166
_cell_angle_alpha   76.24043673
_cell_angle_beta   76.24043727
_cell_angle_gamma   96.24774553
_symmetry_Int_Tables_number   1
_chemical_formula_structural   KEr(CO3)2
_chemical_formula_sum   'K2 Er2 C4 O12'
_cell_volume   263.55105440
_cell_formula_units_Z   2
loop_
 _symmetry_equiv_pos_site_id
 _symmetry_equiv_pos_as_xyz
  1  'x, y, z'
loop_
 _atom_site_type_symbol
 _atom_site_label
 _atom_site_symmetry_multiplicity
 _atom_site_fract_x
 _atom_site_fract_y
 _atom_site_fract_z
 _atom_site_occupancy
  K  K0  1  0.620248  0.379752  0.750000  1
  K  K1  1  0.379752  0.620248  0.250000  1
  Er  Er2  1  0.095204  0.904796  0.750000  1
  Er  Er3  1  0.904796  0.095204  0.250000  1
  C  C4  1  0.645527  0.891665  0.753028  1
  C  C5  1  0.354473  0.108335  0.246972  1
  C  C6  1  0.108335  0.354473  0.746972  1
  C  C7  1  0.891665  0.645527  0.253028  1
  O  O8  1  0.442002  0.896732  0.774234  1
  O  O9  1  0.557998  0.103268  0.225766  1
  O  O10  1  0.103268  0.557998  0.725766  1
  O  O11  1  0.896732  0.442002  0.274234  1
  O  O12  1  0.716021  0.753120  0.880678  1
  O  O13  1  0.283979  0.246880  0.119322  1
  O  O14  1  0.246880  0.283979  0.619322  1
  O  O15  1  0.753120  0.716021  0.380678  1
  O  O16  1  0.798591  0.033799  0.602761  1
  O  O17  1  0.201409  0.966201  0.397239  1
  O  O18  1  0.966201  0.201409  0.897239  1
  O  O19  1  0.033799  0.798591  0.102761  1
