# generated using pymatgen
data_La16Cd3Co2Tc2Hg
_symmetry_space_group_name_H-M   'P 1'
_cell_length_a   10.02285500
_cell_length_b   9.94755489
_cell_length_c   10.01642212
_cell_angle_alpha   60.22717644
_cell_angle_beta   60.78108706
_cell_angle_gamma   60.24820338
_symmetry_Int_Tables_number   1
_chemical_formula_structural   La16Cd3Co2Tc2Hg
_chemical_formula_sum   'La16 Cd3 Co2 Tc2 Hg1'
_cell_volume   712.80894000
_cell_formula_units_Z   1
loop_
 _symmetry_equiv_pos_site_id
 _symmetry_equiv_pos_as_xyz
  1  'x, y, z'
loop_
 _atom_site_type_symbol
 _atom_site_label
 _atom_site_symmetry_multiplicity
 _atom_site_fract_x
 _atom_site_fract_y
 _atom_site_fract_z
 _atom_site_occupancy
  La  La0  1  0.936353  0.946215  0.557561  1
  La  La1  1  0.556239  0.942780  0.558202  1
  La  La2  1  0.556133  0.946603  0.936527  1
  La  La3  1  0.684856  0.691922  0.309760  1
  La  La4  1  0.158684  0.150146  0.541022  1
  La  La5  1  0.308909  0.692516  0.685688  1
  La  La6  1  0.158652  0.148566  0.158572  1
  La  La7  1  0.539725  0.150738  0.158798  1
  La  La8  1  0.307520  0.692459  0.307562  1
  La  La9  1  0.308909  0.312887  0.685688  1
  La  La10  1  0.686823  0.313182  0.686813  1
  La  La11  1  0.936353  0.559873  0.557561  1
  La  La12  1  0.556133  0.560737  0.936527  1
  La  La13  1  0.158652  0.534209  0.158572  1
  La  La14  1  0.684856  0.313463  0.309760  1
  La  La15  1  0.942393  0.557582  0.942442  1
  Cd  Cd16  1  0.921455  0.920932  0.922306  1
  Cd  Cd17  1  0.920495  0.921687  0.236130  1
  Cd  Cd18  1  0.921455  0.235307  0.922306  1
  Co  Co19  1  0.367340  0.913386  0.367060  1
  Co  Co20  1  0.367340  0.352211  0.367060  1
  Tc  Tc21  1  0.905796  0.362392  0.369420  1
  Tc  Tc22  1  0.369880  0.361880  0.906358  1
  Hg  Hg23  1  0.245047  0.918325  0.918303  1
