# generated using pymatgen
data_Sm2ZnGa2Cu7
_symmetry_space_group_name_H-M   'P 1'
_cell_length_a   4.20796000
_cell_length_b   5.07578378
_cell_length_c   8.88419742
_cell_angle_alpha   89.50745242
_cell_angle_beta   90.00000000
_cell_angle_gamma   90.00000000
_symmetry_Int_Tables_number   1
_chemical_formula_structural   Sm2ZnGa2Cu7
_chemical_formula_sum   'Sm2 Zn1 Ga2 Cu7'
_cell_volume   189.74785245
_cell_formula_units_Z   1
loop_
 _symmetry_equiv_pos_site_id
 _symmetry_equiv_pos_as_xyz
  1  'x, y, z'
loop_
 _atom_site_type_symbol
 _atom_site_label
 _atom_site_symmetry_multiplicity
 _atom_site_fract_x
 _atom_site_fract_y
 _atom_site_fract_z
 _atom_site_occupancy
  Sm  Sm0  1  0.000000  0.248567  0.748995  1
  Sm  Sm1  1  0.000000  0.751433  0.251005  1
  Zn  Zn2  1  0.500000  0.000000  0.000000  1
  Ga  Ga3  1  0.500000  0.738731  0.745826  1
  Ga  Ga4  1  0.500000  0.261269  0.254174  1
  Cu  Cu5  1  0.000000  0.254530  0.082920  1
  Cu  Cu6  1  0.000000  0.751530  0.580284  1
  Cu  Cu7  1  0.000000  0.745470  0.917080  1
  Cu  Cu8  1  0.000000  0.248470  0.419716  1
  Cu  Cu9  1  0.500000  0.500000  0.500000  1
  Cu  Cu10  1  0.500000  0.500000  0.000000  1
  Cu  Cu11  1  0.500000  0.000000  0.500000  1
