# generated using pymatgen
data_Y2Si6SnRh12
_symmetry_space_group_name_H-M   'P 1'
_cell_length_a   9.91028500
_cell_length_b   9.91028612
_cell_length_c   3.84962700
_cell_angle_alpha   90.00000000
_cell_angle_beta   90.00000000
_cell_angle_gamma   120.00000626
_symmetry_Int_Tables_number   1
_chemical_formula_structural   Y2Si6SnRh12
_chemical_formula_sum   'Y2 Si6 Sn1 Rh12'
_cell_volume   327.43235628
_cell_formula_units_Z   1
loop_
 _symmetry_equiv_pos_site_id
 _symmetry_equiv_pos_as_xyz
  1  'x, y, z'
loop_
 _atom_site_type_symbol
 _atom_site_label
 _atom_site_symmetry_multiplicity
 _atom_site_fract_x
 _atom_site_fract_y
 _atom_site_fract_z
 _atom_site_occupancy
  Y  Y0  1  0.333333  0.666667  0.752534  1
  Y  Y1  1  0.000000  0.000000  0.248933  1
  Si  Si2  1  0.958068  0.222852  0.747522  1
  Si  Si3  1  0.777148  0.735216  0.747522  1
  Si  Si4  1  0.264784  0.041932  0.747522  1
  Si  Si5  1  0.373743  0.442904  0.252185  1
  Si  Si6  1  0.557096  0.930838  0.252185  1
  Si  Si7  1  0.069162  0.626257  0.252185  1
  Sn  Sn8  1  0.666667  0.333333  0.607770  1
  Rh  Rh9  1  0.735631  0.954183  0.749722  1
  Rh  Rh10  1  0.045817  0.781448  0.749722  1
  Rh  Rh11  1  0.218552  0.264369  0.749722  1
  Rh  Rh12  1  0.605466  0.719281  0.249887  1
  Rh  Rh13  1  0.280719  0.886186  0.249887  1
  Rh  Rh14  1  0.113814  0.394534  0.249887  1
  Rh  Rh15  1  0.955814  0.465383  0.753393  1
  Rh  Rh16  1  0.534617  0.490431  0.753393  1
  Rh  Rh17  1  0.509569  0.044186  0.753393  1
  Rh  Rh18  1  0.397001  0.210281  0.245607  1
  Rh  Rh19  1  0.789719  0.186721  0.245607  1
  Rh  Rh20  1  0.813279  0.602999  0.245607  1
