# generated using pymatgen
data_Ta7Nb5Ga8(CuC)4
_symmetry_space_group_name_H-M   'P 1'
_cell_length_a   8.29288258
_cell_length_b   8.29076665
_cell_length_c   8.30119305
_cell_angle_alpha   59.94747161
_cell_angle_beta   59.96951095
_cell_angle_gamma   59.96008101
_symmetry_Int_Tables_number   1
_chemical_formula_structural   Ta7Nb5Ga8(CuC)4
_chemical_formula_sum   'Ta7 Nb5 Ga8 Cu4 C4'
_cell_volume   403.20127818
_cell_formula_units_Z   1
loop_
 _symmetry_equiv_pos_site_id
 _symmetry_equiv_pos_as_xyz
  1  'x, y, z'
loop_
 _atom_site_type_symbol
 _atom_site_label
 _atom_site_symmetry_multiplicity
 _atom_site_fract_x
 _atom_site_fract_y
 _atom_site_fract_z
 _atom_site_occupancy
  Ta  Ta0  1  0.317287  0.317471  0.682922  1
  Ta  Ta1  1  0.566778  0.566375  0.933424  1
  Ta  Ta2  1  0.933654  0.565943  0.566510  1
  Ta  Ta3  1  0.566802  0.933273  0.933764  1
  Ta  Ta4  1  0.932653  0.932394  0.567943  1
  Ta  Ta5  1  0.683292  0.316755  0.683685  1
  Ta  Ta6  1  0.933209  0.566760  0.933399  1
  Nb  Nb7  1  0.565663  0.933936  0.565880  1
  Nb  Nb8  1  0.315436  0.683966  0.685500  1
  Nb  Nb9  1  0.684361  0.315950  0.315450  1
  Nb  Nb10  1  0.315406  0.684153  0.315149  1
  Nb  Nb11  1  0.685178  0.683980  0.315473  1
  Ga  Ga12  1  0.915497  0.914707  0.915479  1
  Ga  Ga13  1  0.995377  0.334727  0.334782  1
  Ga  Ga14  1  0.334947  0.994934  0.335415  1
  Ga  Ga15  1  0.334625  0.335073  0.995679  1
  Ga  Ga16  1  0.915338  0.254164  0.915595  1
  Ga  Ga17  1  0.914890  0.915137  0.254799  1
  Ga  Ga18  1  0.254716  0.914999  0.914975  1
  Ga  Ga19  1  0.335204  0.334568  0.334917  1
  Cu  Cu20  1  0.125558  0.125719  0.123726  1
  Cu  Cu21  1  0.625156  0.126172  0.122480  1
  Cu  Cu22  1  0.125039  0.624801  0.125014  1
  Cu  Cu23  1  0.122972  0.126736  0.625441  1
  C  C24  1  0.626376  0.623009  0.626691  1
  C  C25  1  0.123399  0.624247  0.626440  1
  C  C26  1  0.625127  0.124537  0.626791  1
  C  C27  1  0.626061  0.625515  0.122676  1
