# generated using pymatgen
data_Ce3Ho(BRu)16
_symmetry_space_group_name_H-M   'P 1'
_cell_length_a   9.25781768
_cell_length_b   7.49802398
_cell_length_c   7.49802372
_cell_angle_alpha   89.71792332
_cell_angle_beta   114.01338351
_cell_angle_gamma   114.01337937
_symmetry_Int_Tables_number   1
_chemical_formula_structural   Ce3Ho(BRu)16
_chemical_formula_sum   'Ce3 Ho1 B16 Ru16'
_cell_volume   426.15339979
_cell_formula_units_Z   1
loop_
 _symmetry_equiv_pos_site_id
 _symmetry_equiv_pos_as_xyz
  1  'x, y, z'
loop_
 _atom_site_type_symbol
 _atom_site_label
 _atom_site_symmetry_multiplicity
 _atom_site_fract_x
 _atom_site_fract_y
 _atom_site_fract_z
 _atom_site_occupancy
  Ce  Ce0  1  0.750000  0.875000  0.125000  1
  Ce  Ce1  1  0.249999  0.625000  0.374999  1
  Ce  Ce2  1  0.750000  0.375000  0.624999  1
  Ho  Ho3  1  0.249999  0.125000  0.875000  1
  B  B4  1  0.914261  0.288933  0.065750  1
  B  B5  1  0.414769  0.566008  0.124831  1
  B  B6  1  0.085231  0.210063  0.151239  1
  B  B7  1  0.583453  0.149386  0.208651  1
  B  B8  1  0.412917  0.064734  0.287384  1
  B  B9  1  0.914261  0.625329  0.348511  1
  B  B10  1  0.585738  0.651488  0.374672  1
  B  B11  1  0.085231  0.875169  0.433992  1
  B  B12  1  0.916546  0.125198  0.565933  1
  B  B13  1  0.412917  0.348183  0.625533  1
  B  B14  1  0.087083  0.374467  0.651817  1
  B  B15  1  0.585738  0.934249  0.711067  1
  B  B16  1  0.414769  0.848761  0.789937  1
  B  B17  1  0.916546  0.791348  0.850613  1
  B  B18  1  0.583453  0.434067  0.874801  1
  B  B19  1  0.087083  0.712616  0.935266  1
  Ru  Ru20  1  0.872272  0.550466  0.036099  1
  Ru  Ru21  1  0.372332  0.833886  0.050235  1
  Ru  Ru22  1  0.127668  0.949765  0.166114  1
  Ru  Ru23  1  0.626956  0.462374  0.177706  1
  Ru  Ru24  1  0.373346  0.336329  0.321891  1
  Ru  Ru25  1  0.872272  0.321806  0.336174  1
  Ru  Ru26  1  0.627729  0.963902  0.449534  1
  Ru  Ru27  1  0.127668  0.177902  0.461552  1
  Ru  Ru28  1  0.873045  0.822296  0.537626  1
  Ru  Ru29  1  0.373346  0.037017  0.551453  1
  Ru  Ru30  1  0.126654  0.678110  0.663671  1
  Ru  Ru31  1  0.627729  0.663827  0.678194  1
  Ru  Ru32  1  0.372332  0.538448  0.822098  1
  Ru  Ru33  1  0.873045  0.050750  0.835419  1
  Ru  Ru34  1  0.626956  0.164581  0.949249  1
  Ru  Ru35  1  0.126654  0.448547  0.962983  1
