# generated using pymatgen
data_Na3Tm2Ge3P9Ir19
_symmetry_space_group_name_H-M   'P 1'
_cell_length_a   12.79870300
_cell_length_b   12.79870281
_cell_length_c   3.95679500
_cell_angle_alpha   90.00000000
_cell_angle_beta   90.00000000
_cell_angle_gamma   119.99999791
_symmetry_Int_Tables_number   1
_chemical_formula_structural   Na3Tm2Ge3P9Ir19
_chemical_formula_sum   'Na3 Tm2 Ge3 P9 Ir19'
_cell_volume   561.31430059
_cell_formula_units_Z   1
loop_
 _symmetry_equiv_pos_site_id
 _symmetry_equiv_pos_as_xyz
  1  'x, y, z'
loop_
 _atom_site_type_symbol
 _atom_site_label
 _atom_site_symmetry_multiplicity
 _atom_site_fract_x
 _atom_site_fract_y
 _atom_site_fract_z
 _atom_site_occupancy
  Na  Na0  1  0.176844  0.176844  0.000000  1
  Na  Na1  1  0.823156  0.000000  0.000000  1
  Na  Na2  1  0.000000  0.823156  0.000000  1
  Tm  Tm3  1  0.333333  0.666667  0.500000  1
  Tm  Tm4  1  0.666667  0.333333  0.500000  1
  Ge  Ge5  1  0.352998  0.352998  0.500000  1
  Ge  Ge6  1  0.647002  0.000000  0.500000  1
  Ge  Ge7  1  0.000000  0.647002  0.500000  1
  P  P8  1  0.309267  0.827559  0.000000  1
  P  P9  1  0.172441  0.481708  0.000000  1
  P  P10  1  0.518292  0.690733  0.000000  1
  P  P11  1  0.827559  0.309267  0.000000  1
  P  P12  1  0.481708  0.172441  0.000000  1
  P  P13  1  0.690733  0.518292  0.000000  1
  P  P14  1  0.822188  0.822188  0.500000  1
  P  P15  1  0.177812  0.000000  0.500000  1
  P  P16  1  0.000000  0.177812  0.500000  1
  Ir  Ir17  1  0.206196  0.822748  0.500000  1
  Ir  Ir18  1  0.177252  0.383448  0.500000  1
  Ir  Ir19  1  0.616552  0.793804  0.500000  1
  Ir  Ir20  1  0.822748  0.206196  0.500000  1
  Ir  Ir21  1  0.383448  0.177252  0.500000  1
  Ir  Ir22  1  0.793804  0.616552  0.500000  1
  Ir  Ir23  1  0.134350  0.636709  0.000000  1
  Ir  Ir24  1  0.363291  0.497639  0.000000  1
  Ir  Ir25  1  0.502361  0.865650  0.000000  1
  Ir  Ir26  1  0.636709  0.134350  0.000000  1
  Ir  Ir27  1  0.497639  0.363291  0.000000  1
  Ir  Ir28  1  0.865650  0.502361  0.000000  1
  Ir  Ir29  1  0.544400  0.544400  0.500000  1
  Ir  Ir30  1  0.455600  0.000000  0.500000  1
  Ir  Ir31  1  0.000000  0.455600  0.500000  1
  Ir  Ir32  1  0.712550  0.712550  0.000000  1
  Ir  Ir33  1  0.287450  0.000000  0.000000  1
  Ir  Ir34  1  0.000000  0.287450  0.000000  1
  Ir  Ir35  1  0.000000  0.000000  0.500000  1
