# generated using pymatgen
data_Y10GaSi4Bi
_symmetry_space_group_name_H-M   'P 1'
_cell_length_a   8.68259700
_cell_length_b   8.68259680
_cell_length_c   6.46053500
_cell_angle_alpha   90.00000000
_cell_angle_beta   90.00000000
_cell_angle_gamma   120.38137862
_symmetry_Int_Tables_number   1
_chemical_formula_structural   Y10GaSi4Bi
_chemical_formula_sum   'Y10 Ga1 Si4 Bi1'
_cell_volume   420.16176430
_cell_formula_units_Z   1
loop_
 _symmetry_equiv_pos_site_id
 _symmetry_equiv_pos_as_xyz
  1  'x, y, z'
loop_
 _atom_site_type_symbol
 _atom_site_label
 _atom_site_symmetry_multiplicity
 _atom_site_fract_x
 _atom_site_fract_y
 _atom_site_fract_z
 _atom_site_occupancy
  Y  Y0  1  0.677801  0.329236  0.504234  1
  Y  Y1  1  0.329236  0.677801  0.504234  1
  Y  Y2  1  0.329236  0.677801  0.995766  1
  Y  Y3  1  0.677801  0.329236  0.995766  1
  Y  Y4  1  0.769254  0.769254  0.250000  1
  Y  Y5  1  0.241494  0.986476  0.250000  1
  Y  Y6  1  0.986476  0.241494  0.250000  1
  Y  Y7  1  0.237894  0.237894  0.750000  1
  Y  Y8  1  0.754071  0.998119  0.750000  1
  Y  Y9  1  0.998119  0.754071  0.750000  1
  Ga  Ga10  1  0.603221  0.603221  0.750000  1
  Si  Si11  1  0.605095  0.998794  0.250000  1
  Si  Si12  1  0.998794  0.605095  0.250000  1
  Si  Si13  1  0.392876  0.002941  0.750000  1
  Si  Si14  1  0.002941  0.392876  0.750000  1
  Bi  Bi15  1  0.395692  0.395692  0.250000  1
