# generated using pymatgen
data_TbNdTh6(ReC2)4
_symmetry_space_group_name_H-M   'P 1'
_cell_length_a   5.34695900
_cell_length_b   6.68398196
_cell_length_c   10.09027910
_cell_angle_alpha   90.28802744
_cell_angle_beta   90.00000000
_cell_angle_gamma   90.00000000
_symmetry_Int_Tables_number   1
_chemical_formula_structural   TbNdTh6(ReC2)4
_chemical_formula_sum   'Tb1 Nd1 Th6 Re4 C8'
_cell_volume   360.61170138
_cell_formula_units_Z   1
loop_
 _symmetry_equiv_pos_site_id
 _symmetry_equiv_pos_as_xyz
  1  'x, y, z'
loop_
 _atom_site_type_symbol
 _atom_site_label
 _atom_site_symmetry_multiplicity
 _atom_site_fract_x
 _atom_site_fract_y
 _atom_site_fract_z
 _atom_site_occupancy
  Tb  Tb0  1  0.250000  0.316519  0.446939  1
  Nd  Nd1  1  0.750000  0.192078  0.949011  1
  Th  Th2  1  0.250000  0.471643  0.777199  1
  Th  Th3  1  0.750000  0.028620  0.282191  1
  Th  Th4  1  0.250000  0.977644  0.720697  1
  Th  Th5  1  0.750000  0.523082  0.222674  1
  Th  Th6  1  0.250000  0.811900  0.048667  1
  Th  Th7  1  0.750000  0.687340  0.547419  1
  Re  Re8  1  0.250000  0.269484  0.140333  1
  Re  Re9  1  0.750000  0.228651  0.635937  1
  Re  Re10  1  0.250000  0.769682  0.363667  1
  Re  Re11  1  0.750000  0.731043  0.861478  1
  C  C12  1  0.250000  0.668931  0.551947  1
  C  C13  1  0.750000  0.822450  0.051540  1
  C  C14  1  0.250000  0.171315  0.951549  1
  C  C15  1  0.750000  0.329114  0.448127  1
  C  C16  1  0.250000  0.033928  0.260850  1
  C  C17  1  0.750000  0.467791  0.755500  1
  C  C18  1  0.250000  0.531469  0.243917  1
  C  C19  1  0.750000  0.967317  0.740355  1
