# generated using pymatgen
data_Y4ZnAs5Ir7
_symmetry_space_group_name_H-M   'P 1'
_cell_length_a   7.28546542
_cell_length_b   7.28583119
_cell_length_c   7.28583200
_cell_angle_alpha   108.33155221
_cell_angle_beta   110.04224521
_cell_angle_gamma   110.04224944
_symmetry_Int_Tables_number   1
_chemical_formula_structural   Y4ZnAs5Ir7
_chemical_formula_sum   'Y4 Zn1 As5 Ir7'
_cell_volume   297.63536931
_cell_formula_units_Z   1
loop_
 _symmetry_equiv_pos_site_id
 _symmetry_equiv_pos_as_xyz
  1  'x, y, z'
loop_
 _atom_site_type_symbol
 _atom_site_label
 _atom_site_symmetry_multiplicity
 _atom_site_fract_x
 _atom_site_fract_y
 _atom_site_fract_z
 _atom_site_occupancy
  Y  Y0  1  0.000079  0.996395  0.494828  1
  Y  Y1  1  0.000079  0.494828  0.996395  1
  Y  Y2  1  0.501899  0.996397  0.996397  1
  Y  Y3  1  0.498633  0.494944  0.494944  1
  Zn  Zn4  1  0.000109  0.694406  0.694406  1
  As  As5  1  0.683063  0.679037  0.996015  1
  As  As6  1  0.316746  0.996005  0.312719  1
  As  As7  1  0.000056  0.332047  0.332047  1
  As  As8  1  0.316746  0.312719  0.996005  1
  As  As9  1  0.683063  0.996015  0.679037  1
  Ir  Ir10  1  0.748593  0.247667  0.499082  1
  Ir  Ir11  1  0.748593  0.499082  0.247667  1
  Ir  Ir12  1  0.500063  0.246826  0.746835  1
  Ir  Ir13  1  0.251460  0.499129  0.750575  1
  Ir  Ir14  1  0.251460  0.750575  0.499129  1
  Ir  Ir15  1  0.500063  0.746835  0.246826  1
  Ir  Ir16  1  0.999295  0.017092  0.017092  1
