# generated using pymatgen
data_La3Ce4Ho(AlRh)8
_symmetry_space_group_name_H-M   'P 1'
_cell_length_a   4.23871100
_cell_length_b   7.13297663
_cell_length_c   16.08862803
_cell_angle_alpha   89.66604662
_cell_angle_beta   90.00000000
_cell_angle_gamma   90.00000000
_symmetry_Int_Tables_number   1
_chemical_formula_structural   La3Ce4Ho(AlRh)8
_chemical_formula_sum   'La3 Ce4 Ho1 Al8 Rh8'
_cell_volume   486.42539706
_cell_formula_units_Z   1
loop_
 _symmetry_equiv_pos_site_id
 _symmetry_equiv_pos_as_xyz
  1  'x, y, z'
loop_
 _atom_site_type_symbol
 _atom_site_label
 _atom_site_symmetry_multiplicity
 _atom_site_fract_x
 _atom_site_fract_y
 _atom_site_fract_z
 _atom_site_occupancy
  La  La0  1  0.750000  0.843878  0.441728  1
  La  La1  1  0.250000  0.656795  0.938534  1
  La  La2  1  0.750000  0.345508  0.060597  1
  Ce  Ce3  1  0.250000  0.028598  0.777893  1
  Ce  Ce4  1  0.750000  0.972704  0.221295  1
  Ce  Ce5  1  0.250000  0.529527  0.717999  1
  Ce  Ce6  1  0.750000  0.471123  0.281521  1
  Ho  Ho7  1  0.250000  0.159225  0.561371  1
  Al  Al8  1  0.250000  0.147552  0.351574  1
  Al  Al9  1  0.750000  0.859182  0.648335  1
  Al  Al10  1  0.250000  0.648740  0.152219  1
  Al  Al11  1  0.750000  0.352123  0.846231  1
  Al  Al12  1  0.250000  0.006227  0.062153  1
  Al  Al13  1  0.750000  0.996316  0.937480  1
  Al  Al14  1  0.250000  0.500574  0.440125  1
  Al  Al15  1  0.750000  0.487145  0.562051  1
  Rh  Rh16  1  0.750000  0.280309  0.427973  1
  Rh  Rh17  1  0.250000  0.718435  0.575880  1
  Rh  Rh18  1  0.750000  0.788423  0.077310  1
  Rh  Rh19  1  0.250000  0.212843  0.921404  1
  Rh  Rh20  1  0.750000  0.745583  0.811518  1
  Rh  Rh21  1  0.250000  0.257925  0.188323  1
  Rh  Rh22  1  0.750000  0.237015  0.683553  1
  Rh  Rh23  1  0.250000  0.754249  0.312937  1
