# generated using pymatgen
data_Ca6NbSb7(O6F)4
_symmetry_space_group_name_H-M   'P 1'
_cell_length_a   10.48927000
_cell_length_b   10.48876561
_cell_length_c   10.48876561
_cell_angle_alpha   89.78412942
_cell_angle_beta   90.00000000
_cell_angle_gamma   90.00000000
_symmetry_Int_Tables_number   1
_chemical_formula_structural   Ca6NbSb7(O6F)4
_chemical_formula_sum   'Ca12 Nb2 Sb14 O48 F8'
_cell_volume   1153.96049969
_cell_formula_units_Z   2
loop_
 _symmetry_equiv_pos_site_id
 _symmetry_equiv_pos_as_xyz
  1  'x, y, z'
loop_
 _atom_site_type_symbol
 _atom_site_label
 _atom_site_symmetry_multiplicity
 _atom_site_fract_x
 _atom_site_fract_y
 _atom_site_fract_z
 _atom_site_occupancy
  Ca  Ca0  1  0.875000  0.865193  0.615193  1
  Ca  Ca1  1  0.885442  0.124978  0.364349  1
  Ca  Ca2  1  0.634671  0.384463  0.375019  1
  Ca  Ca3  1  0.864558  0.614349  0.874978  1
  Ca  Ca4  1  0.375000  0.634807  0.384807  1
  Ca  Ca5  1  0.125000  0.364668  0.885332  1
  Ca  Ca6  1  0.364558  0.885651  0.125022  1
  Ca  Ca7  1  0.625000  0.135332  0.114668  1
  Ca  Ca8  1  0.115329  0.625019  0.134463  1
  Ca  Ca9  1  0.615329  0.874981  0.865537  1
  Ca  Ca10  1  0.134671  0.115537  0.624981  1
  Ca  Ca11  1  0.385442  0.375022  0.635651  1
  Nb  Nb12  1  0.625000  0.375079  0.874921  1
  Nb  Nb13  1  0.125000  0.124921  0.125079  1
  Sb  Sb14  1  0.875000  0.122597  0.872597  1
  Sb  Sb15  1  0.872722  0.874385  0.123622  1
  Sb  Sb16  1  0.372722  0.625615  0.876378  1
  Sb  Sb17  1  0.875000  0.625032  0.375032  1
  Sb  Sb18  1  0.626481  0.124400  0.622670  1
  Sb  Sb19  1  0.375000  0.377403  0.127403  1
  Sb  Sb20  1  0.375000  0.874968  0.624968  1
  Sb  Sb21  1  0.126481  0.375600  0.377330  1
  Sb  Sb22  1  0.123519  0.872670  0.874400  1
  Sb  Sb23  1  0.125000  0.623674  0.626326  1
  Sb  Sb24  1  0.623519  0.627330  0.125600  1
  Sb  Sb25  1  0.377278  0.126378  0.375615  1
  Sb  Sb26  1  0.877278  0.373622  0.624385  1
  Sb  Sb27  1  0.625000  0.876326  0.373674  1
  O  O28  1  0.002569  0.495901  0.702907  1
  O  O29  1  0.305475  0.010521  0.509110  1
  O  O30  1  0.490912  0.805502  0.489374  1
  O  O31  1  0.251536  0.453598  0.254161  1
  O  O32  1  0.060147  0.241569  0.261888  1
  O  O33  1  0.988097  0.008305  0.190169  1
  O  O34  1  0.046643  0.745722  0.751800  1
  O  O35  1  0.739478  0.555787  0.259128  1
  O  O36  1  0.990912  0.694498  0.510626  1
  O  O37  1  0.741465  0.238103  0.939953  1
  O  O38  1  0.495990  0.703430  0.001612  1
  O  O39  1  0.004279  0.296876  0.502455  1
  O  O40  1  0.502569  0.004099  0.297093  1
  O  O41  1  0.689853  0.511888  0.991569  1
  O  O42  1  0.995990  0.796570  0.998388  1
  O  O43  1  0.498464  0.504161  0.203598  1
  O  O44  1  0.796856  0.997691  0.995992  1
  O  O45  1  0.241465  0.261897  0.060047  1
  O  O46  1  0.759088  0.760626  0.444498  1
  O  O47  1  0.296856  0.502309  0.004008  1
  O  O48  1  0.254010  0.251612  0.453430  1
  O  O49  1  0.944525  0.740890  0.239479  1
  O  O50  1  0.247431  0.547093  0.754099  1
  O  O51  1  0.504279  0.203124  0.497545  1
  O  O52  1  0.444525  0.759110  0.760521  1
  O  O53  1  0.703357  0.001800  0.495722  1
  O  O54  1  0.998464  0.995839  0.796402  1
  O  O55  1  0.239478  0.944213  0.740872  1
  O  O56  1  0.245721  0.747545  0.953124  1
  O  O57  1  0.745721  0.752455  0.046876  1
  O  O58  1  0.203357  0.498200  0.504278  1
  O  O59  1  0.189853  0.988112  0.008431  1
  O  O60  1  0.560147  0.258431  0.738112  1
  O  O61  1  0.259088  0.739374  0.555502  1
  O  O62  1  0.488097  0.491695  0.809831  1
  O  O63  1  0.751536  0.046402  0.745839  1
  O  O64  1  0.453144  0.254008  0.252309  1
  O  O65  1  0.761903  0.440169  0.758305  1
  O  O66  1  0.754010  0.248388  0.546570  1
  O  O67  1  0.010522  0.509128  0.305787  1
  O  O68  1  0.546643  0.754278  0.248200  1
  O  O69  1  0.953144  0.245992  0.747691  1
  O  O70  1  0.261903  0.059831  0.241695  1
  O  O71  1  0.747431  0.952907  0.245901  1
  O  O72  1  0.510522  0.990872  0.694213  1
  O  O73  1  0.508535  0.310047  0.011897  1
  O  O74  1  0.805475  0.489479  0.490890  1
  O  O75  1  0.008535  0.189953  0.988103  1
  F  F76  1  0.510845  0.989395  0.011152  1
  F  F77  1  0.010845  0.510605  0.988848  1
  F  F78  1  0.488973  0.488733  0.489277  1
  F  F79  1  0.261027  0.739277  0.238733  1
  F  F80  1  0.739155  0.238848  0.260605  1
  F  F81  1  0.988973  0.011267  0.510723  1
  F  F82  1  0.239155  0.261152  0.739395  1
  F  F83  1  0.761027  0.760723  0.761267  1
