# generated using pymatgen
data_Nd6ZrCo16P12W
_symmetry_space_group_name_H-M   'P 1'
_cell_length_a   3.76792600
_cell_length_b   10.74186400
_cell_length_c   12.52469500
_cell_angle_alpha   90.00000000
_cell_angle_beta   90.00000000
_cell_angle_gamma   90.00000000
_symmetry_Int_Tables_number   1
_chemical_formula_structural   Nd6ZrCo16P12W
_chemical_formula_sum   'Nd6 Zr1 Co16 P12 W1'
_cell_volume   506.93137715
_cell_formula_units_Z   1
loop_
 _symmetry_equiv_pos_site_id
 _symmetry_equiv_pos_as_xyz
  1  'x, y, z'
loop_
 _atom_site_type_symbol
 _atom_site_label
 _atom_site_symmetry_multiplicity
 _atom_site_fract_x
 _atom_site_fract_y
 _atom_site_fract_z
 _atom_site_occupancy
  Nd  Nd0  1  0.000000  0.500000  0.528730  1
  Nd  Nd1  1  0.500000  0.000000  0.476496  1
  Nd  Nd2  1  0.500000  0.820319  0.206208  1
  Nd  Nd3  1  0.500000  0.179681  0.206208  1
  Nd  Nd4  1  0.000000  0.681336  0.794436  1
  Nd  Nd5  1  0.000000  0.318664  0.794436  1
  Zr  Zr6  1  0.500000  0.500000  0.153206  1
  Co  Co7  1  0.500000  0.500000  0.704296  1
  Co  Co8  1  0.000000  0.000000  0.295925  1
  Co  Co9  1  0.000000  0.500000  0.983705  1
  Co  Co10  1  0.500000  0.000000  0.009659  1
  Co  Co11  1  0.500000  0.327652  0.989075  1
  Co  Co12  1  0.500000  0.672348  0.989075  1
  Co  Co13  1  0.000000  0.163036  0.004089  1
  Co  Co14  1  0.000000  0.836964  0.004089  1
  Co  Co15  1  0.500000  0.294208  0.434432  1
  Co  Co16  1  0.500000  0.705792  0.434432  1
  Co  Co17  1  0.000000  0.202978  0.569924  1
  Co  Co18  1  0.000000  0.797022  0.569924  1
  Co  Co19  1  0.500000  0.881362  0.708145  1
  Co  Co20  1  0.500000  0.118638  0.708145  1
  Co  Co21  1  0.000000  0.620307  0.299679  1
  Co  Co22  1  0.000000  0.379693  0.299679  1
  P  P23  1  0.500000  0.500000  0.885169  1
  P  P24  1  0.000000  0.000000  0.114067  1
  P  P25  1  0.500000  0.500000  0.357537  1
  P  P26  1  0.000000  0.000000  0.653378  1
  P  P27  1  0.500000  0.305029  0.615568  1
  P  P28  1  0.500000  0.694971  0.615568  1
  P  P29  1  0.000000  0.192510  0.387687  1
  P  P30  1  0.000000  0.807490  0.387687  1
  P  P31  1  0.500000  0.848113  0.891130  1
  P  P32  1  0.500000  0.151887  0.891130  1
  P  P33  1  0.000000  0.661708  0.097086  1
  P  P34  1  0.000000  0.338292  0.097086  1
  W  W35  1  0.000000  0.000000  0.842912  1
