# generated using pymatgen
data_Pr3Mg2CdAg2Ir
_symmetry_space_group_name_H-M   'P 1'
_cell_length_a   7.97239058
_cell_length_b   7.98521808
_cell_length_c   4.02818600
_cell_angle_alpha   90.00000000
_cell_angle_beta   90.00000000
_cell_angle_gamma   119.68565159
_symmetry_Int_Tables_number   1
_chemical_formula_structural   Pr3Mg2CdAg2Ir
_chemical_formula_sum   'Pr3 Mg2 Cd1 Ag2 Ir1'
_cell_volume   222.78321323
_cell_formula_units_Z   1
loop_
 _symmetry_equiv_pos_site_id
 _symmetry_equiv_pos_as_xyz
  1  'x, y, z'
loop_
 _atom_site_type_symbol
 _atom_site_label
 _atom_site_symmetry_multiplicity
 _atom_site_fract_x
 _atom_site_fract_y
 _atom_site_fract_z
 _atom_site_occupancy
  Pr  Pr0  1  0.435358  0.407276  0.500000  1
  Pr  Pr1  1  0.598276  0.021767  0.500000  1
  Pr  Pr2  1  0.968155  0.571420  0.500000  1
  Mg  Mg3  1  0.252030  0.002832  0.000000  1
  Mg  Mg4  1  0.997656  0.248833  0.000000  1
  Cd  Cd5  1  0.747637  0.749379  0.000000  1
  Ag  Ag6  1  0.326909  0.665158  0.000000  1
  Ag  Ag7  1  0.009491  0.008938  0.500000  1
  Ir  Ir8  1  0.664490  0.324397  0.000000  1
