# generated using pymatgen
data_Zr3TiNbSn3As
_symmetry_space_group_name_H-M   'P 1'
_cell_length_a   8.58764400
_cell_length_b   8.58764548
_cell_length_c   5.78007100
_cell_angle_alpha   90.00000000
_cell_angle_beta   90.00000000
_cell_angle_gamma   120.00000198
_symmetry_Int_Tables_number   1
_chemical_formula_structural   Zr3TiNbSn3As
_chemical_formula_sum   'Zr6 Ti2 Nb2 Sn6 As2'
_cell_volume   369.15770405
_cell_formula_units_Z   2
loop_
 _symmetry_equiv_pos_site_id
 _symmetry_equiv_pos_as_xyz
  1  'x, y, z'
loop_
 _atom_site_type_symbol
 _atom_site_label
 _atom_site_symmetry_multiplicity
 _atom_site_fract_x
 _atom_site_fract_y
 _atom_site_fract_z
 _atom_site_occupancy
  Zr  Zr0  1  0.736051  0.736051  0.749439  1
  Zr  Zr1  1  0.263949  0.000000  0.749439  1
  Zr  Zr2  1  0.000000  0.263949  0.749439  1
  Zr  Zr3  1  0.263949  0.263949  0.250561  1
  Zr  Zr4  1  0.736051  0.000000  0.250561  1
  Zr  Zr5  1  0.000000  0.736051  0.250561  1
  Ti  Ti6  1  0.666667  0.333333  0.000000  1
  Ti  Ti7  1  0.333333  0.666667  0.000000  1
  Nb  Nb8  1  0.333333  0.666667  0.500000  1
  Nb  Nb9  1  0.666667  0.333333  0.500000  1
  Sn  Sn10  1  0.397699  0.397699  0.751296  1
  Sn  Sn11  1  0.602301  0.000000  0.751296  1
  Sn  Sn12  1  0.000000  0.602301  0.751296  1
  Sn  Sn13  1  0.602301  0.602301  0.248704  1
  Sn  Sn14  1  0.397699  0.000000  0.248704  1
  Sn  Sn15  1  0.000000  0.397699  0.248704  1
  As  As16  1  0.000000  0.000000  0.000000  1
  As  As17  1  0.000000  0.000000  0.500000  1
