# generated using pymatgen
data_YbPr4(SnBi)2
_symmetry_space_group_name_H-M   'P 1'
_cell_length_a   8.42169800
_cell_length_b   8.49134300
_cell_length_c   16.25175500
_cell_angle_alpha   90.00000000
_cell_angle_beta   90.00000000
_cell_angle_gamma   90.00000000
_symmetry_Int_Tables_number   1
_chemical_formula_structural   YbPr4(SnBi)2
_chemical_formula_sum   'Yb4 Pr16 Sn8 Bi8'
_cell_volume   1162.18780609
_cell_formula_units_Z   4
loop_
 _symmetry_equiv_pos_site_id
 _symmetry_equiv_pos_as_xyz
  1  'x, y, z'
loop_
 _atom_site_type_symbol
 _atom_site_label
 _atom_site_symmetry_multiplicity
 _atom_site_fract_x
 _atom_site_fract_y
 _atom_site_fract_z
 _atom_site_occupancy
  Yb  Yb0  1  0.221898  0.499448  0.750000  1
  Yb  Yb1  1  0.721898  0.000552  0.750000  1
  Yb  Yb2  1  0.778102  0.500552  0.250000  1
  Yb  Yb3  1  0.278102  0.999448  0.250000  1
  Pr  Pr4  1  0.392677  0.836381  0.879263  1
  Pr  Pr5  1  0.892677  0.663619  0.620737  1
  Pr  Pr6  1  0.607323  0.163619  0.379263  1
  Pr  Pr7  1  0.107323  0.336381  0.120737  1
  Pr  Pr8  1  0.607323  0.163619  0.120737  1
  Pr  Pr9  1  0.107323  0.336381  0.379263  1
  Pr  Pr10  1  0.392677  0.836381  0.620737  1
  Pr  Pr11  1  0.892677  0.663619  0.879263  1
  Pr  Pr12  1  0.549975  0.325283  0.889057  1
  Pr  Pr13  1  0.049975  0.174717  0.610943  1
  Pr  Pr14  1  0.450025  0.674717  0.389057  1
  Pr  Pr15  1  0.950025  0.825283  0.110943  1
  Pr  Pr16  1  0.450025  0.674717  0.110943  1
  Pr  Pr17  1  0.950025  0.825283  0.389057  1
  Pr  Pr18  1  0.549975  0.325283  0.610943  1
  Pr  Pr19  1  0.049975  0.174717  0.889057  1
  Sn  Sn20  1  0.590934  0.623060  0.750000  1
  Sn  Sn21  1  0.090934  0.876940  0.750000  1
  Sn  Sn22  1  0.409066  0.376940  0.250000  1
  Sn  Sn23  1  0.909066  0.123060  0.250000  1
  Sn  Sn24  1  0.350020  0.139424  0.750000  1
  Sn  Sn25  1  0.850020  0.360576  0.750000  1
  Sn  Sn26  1  0.649980  0.860576  0.250000  1
  Sn  Sn27  1  0.149980  0.639424  0.250000  1
  Bi  Bi28  1  0.268734  0.019855  0.044624  1
  Bi  Bi29  1  0.768734  0.480145  0.455376  1
  Bi  Bi30  1  0.731266  0.980145  0.544624  1
  Bi  Bi31  1  0.231266  0.519855  0.955376  1
  Bi  Bi32  1  0.731266  0.980145  0.955376  1
  Bi  Bi33  1  0.231266  0.519855  0.544624  1
  Bi  Bi34  1  0.268734  0.019855  0.455376  1
  Bi  Bi35  1  0.768734  0.480145  0.044624  1
