# generated using pymatgen
data_Ti2BeFe(Co2B)2
_symmetry_space_group_name_H-M   'P 1'
_cell_length_a   8.40160900
_cell_length_b   8.40160900
_cell_length_c   2.82698300
_cell_angle_alpha   90.00000000
_cell_angle_beta   90.00000000
_cell_angle_gamma   90.00000000
_symmetry_Int_Tables_number   1
_chemical_formula_structural   Ti2BeFe(Co2B)2
_chemical_formula_sum   'Ti4 Be2 Fe2 Co8 B4'
_cell_volume   199.54834454
_cell_formula_units_Z   2
loop_
 _symmetry_equiv_pos_site_id
 _symmetry_equiv_pos_as_xyz
  1  'x, y, z'
loop_
 _atom_site_type_symbol
 _atom_site_label
 _atom_site_symmetry_multiplicity
 _atom_site_fract_x
 _atom_site_fract_y
 _atom_site_fract_z
 _atom_site_occupancy
  Ti  Ti0  1  0.826496  0.326496  0.000000  1
  Ti  Ti1  1  0.326496  0.173504  0.000000  1
  Ti  Ti2  1  0.673504  0.826496  0.000000  1
  Ti  Ti3  1  0.173504  0.673504  0.000000  1
  Be  Be4  1  0.000000  0.000000  0.000000  1
  Be  Be5  1  0.500000  0.500000  0.000000  1
  Fe  Fe6  1  0.500000  0.000000  0.500000  1
  Fe  Fe7  1  0.000000  0.500000  0.500000  1
  Co  Co8  1  0.070067  0.209889  0.500000  1
  Co  Co9  1  0.209889  0.929933  0.500000  1
  Co  Co10  1  0.790111  0.070067  0.500000  1
  Co  Co11  1  0.929933  0.790111  0.500000  1
  Co  Co12  1  0.429933  0.709889  0.500000  1
  Co  Co13  1  0.570067  0.290111  0.500000  1
  Co  Co14  1  0.709889  0.570067  0.500000  1
  Co  Co15  1  0.290111  0.429933  0.500000  1
  B  B16  1  0.625802  0.125802  0.000000  1
  B  B17  1  0.125802  0.374198  0.000000  1
  B  B18  1  0.874198  0.625802  0.000000  1
  B  B19  1  0.374198  0.874198  0.000000  1
