# generated using pymatgen
data_Sm4MgCo2Hg
_symmetry_space_group_name_H-M   'P 1'
_cell_length_a   8.94542963
_cell_length_b   8.94543136
_cell_length_c   8.94622600
_cell_angle_alpha   130.81876809
_cell_angle_beta   130.81877765
_cell_angle_gamma   72.10112506
_symmetry_Int_Tables_number   1
_chemical_formula_structural   Sm4MgCo2Hg
_chemical_formula_sum   'Sm8 Mg2 Co4 Hg2'
_cell_volume   400.90655492
_cell_formula_units_Z   2
loop_
 _symmetry_equiv_pos_site_id
 _symmetry_equiv_pos_as_xyz
  1  'x, y, z'
loop_
 _atom_site_type_symbol
 _atom_site_label
 _atom_site_symmetry_multiplicity
 _atom_site_fract_x
 _atom_site_fract_y
 _atom_site_fract_z
 _atom_site_occupancy
  Sm  Sm0  1  0.694905  0.552318  0.499987  1
  Sm  Sm1  1  0.447634  0.947634  0.142457  1
  Sm  Sm2  1  0.805179  0.305179  0.857573  1
  Sm  Sm3  1  0.552366  0.052366  0.857543  1
  Sm  Sm4  1  0.052318  0.194905  0.499987  1
  Sm  Sm5  1  0.305095  0.447682  0.500013  1
  Sm  Sm6  1  0.194821  0.694821  0.142427  1
  Sm  Sm7  1  0.947682  0.805095  0.500013  1
  Mg  Mg8  1  0.000000  0.000000  0.000000  1
  Mg  Mg9  1  0.500000  0.500000  0.000000  1
  Co  Co10  1  0.112607  0.612607  0.725211  1
  Co  Co11  1  0.887393  0.387393  0.274789  1
  Co  Co12  1  0.612632  0.887368  0.500000  1
  Co  Co13  1  0.387368  0.112632  0.500000  1
  Hg  Hg14  1  0.249990  0.250010  0.000000  1
  Hg  Hg15  1  0.750010  0.749990  0.000000  1
