# generated using pymatgen
data_SmEr5(SbO7)2
_symmetry_space_group_name_H-M   'P 1'
_cell_length_a   6.44886130
_cell_length_b   6.44886147
_cell_length_c   7.51683844
_cell_angle_alpha   90.03220059
_cell_angle_beta   89.96779680
_cell_angle_gamma   109.27794137
_symmetry_Int_Tables_number   1
_chemical_formula_structural   SmEr5(SbO7)2
_chemical_formula_sum   'Sm1 Er5 Sb2 O14'
_cell_volume   295.08023811
_cell_formula_units_Z   1
loop_
 _symmetry_equiv_pos_site_id
 _symmetry_equiv_pos_as_xyz
  1  'x, y, z'
loop_
 _atom_site_type_symbol
 _atom_site_label
 _atom_site_symmetry_multiplicity
 _atom_site_fract_x
 _atom_site_fract_y
 _atom_site_fract_z
 _atom_site_occupancy
  Sm  Sm0  1  0.500000  0.500000  0.000000  1
  Er  Er1  1  0.500000  0.500000  0.500000  1
  Er  Er2  1  0.531451  0.000704  0.747874  1
  Er  Er3  1  0.000704  0.531451  0.252126  1
  Er  Er4  1  0.468549  0.999296  0.252126  1
  Er  Er5  1  0.999296  0.468549  0.747874  1
  Sb  Sb6  1  0.000000  0.000000  0.500000  1
  Sb  Sb7  1  0.000000  0.000000  0.000000  1
  O  O8  1  0.676955  0.927370  0.470325  1
  O  O9  1  0.927370  0.676955  0.529675  1
  O  O10  1  0.676566  0.929694  0.029890  1
  O  O11  1  0.929694  0.676566  0.970110  1
  O  O12  1  0.323045  0.072630  0.529675  1
  O  O13  1  0.072630  0.323045  0.470325  1
  O  O14  1  0.323434  0.070306  0.970110  1
  O  O15  1  0.070306  0.323434  0.029890  1
  O  O16  1  0.929318  0.070682  0.750234  1
  O  O17  1  0.070682  0.929318  0.249766  1
  O  O18  1  0.367214  0.632786  0.742619  1
  O  O19  1  0.632786  0.367214  0.257381  1
  O  O20  1  0.639383  0.360617  0.743419  1
  O  O21  1  0.360617  0.639383  0.256581  1
