# generated using pymatgen
data_CeEr11Os3Pt
_symmetry_space_group_name_H-M   'P 1'
_cell_length_a   6.35696259
_cell_length_b   7.24594574
_cell_length_c   9.09427300
_cell_angle_alpha   90.00000000
_cell_angle_beta   90.00000000
_cell_angle_gamma   91.09876103
_symmetry_Int_Tables_number   1
_chemical_formula_structural   CeEr11Os3Pt
_chemical_formula_sum   'Ce1 Er11 Os3 Pt1'
_cell_volume   418.82525153
_cell_formula_units_Z   1
loop_
 _symmetry_equiv_pos_site_id
 _symmetry_equiv_pos_as_xyz
  1  'x, y, z'
loop_
 _atom_site_type_symbol
 _atom_site_label
 _atom_site_symmetry_multiplicity
 _atom_site_fract_x
 _atom_site_fract_y
 _atom_site_fract_z
 _atom_site_occupancy
  Ce  Ce0  1  0.136340  0.448719  0.750000  1
  Er  Er1  1  0.335283  0.673605  0.060786  1
  Er  Er2  1  0.174238  0.179624  0.438871  1
  Er  Er3  1  0.666038  0.324847  0.561475  1
  Er  Er4  1  0.824878  0.822645  0.932280  1
  Er  Er5  1  0.666038  0.324847  0.938525  1
  Er  Er6  1  0.824878  0.822645  0.567720  1
  Er  Er7  1  0.335283  0.673605  0.439214  1
  Er  Er8  1  0.174238  0.179624  0.061129  1
  Er  Er9  1  0.872632  0.532369  0.250000  1
  Er  Er10  1  0.624319  0.038006  0.250000  1
  Er  Er11  1  0.371918  0.966430  0.750000  1
  Os  Os12  1  0.461389  0.384701  0.250000  1
  Os  Os13  1  0.965180  0.126126  0.750000  1
  Os  Os14  1  0.524035  0.615531  0.750000  1
  Pt  Pt15  1  0.043313  0.886676  0.250000  1
