# generated using pymatgen
data_Tb5Y4Er11(CoSb2)4
_symmetry_space_group_name_H-M   'P 1'
_cell_length_a   7.86967625
_cell_length_b   8.76521100
_cell_length_c   12.15456693
_cell_angle_alpha   90.00000000
_cell_angle_beta   89.93542923
_cell_angle_gamma   90.00000000
_symmetry_Int_Tables_number   1
_chemical_formula_structural   Tb5Y4Er11(CoSb2)4
_chemical_formula_sum   'Tb5 Y4 Er11 Co4 Sb8'
_cell_volume   838.41387137
_cell_formula_units_Z   1
loop_
 _symmetry_equiv_pos_site_id
 _symmetry_equiv_pos_as_xyz
  1  'x, y, z'
loop_
 _atom_site_type_symbol
 _atom_site_label
 _atom_site_symmetry_multiplicity
 _atom_site_fract_x
 _atom_site_fract_y
 _atom_site_fract_z
 _atom_site_occupancy
  Tb  Tb0  1  0.045911  0.750000  0.498073  1
  Tb  Tb1  1  0.622158  0.750000  0.306540  1
  Tb  Tb2  1  0.122103  0.250000  0.193268  1
  Tb  Tb3  1  0.377935  0.250000  0.693486  1
  Tb  Tb4  1  0.877849  0.750000  0.806747  1
  Y  Y5  1  0.154873  0.750000  0.203553  1
  Y  Y6  1  0.654874  0.250000  0.295943  1
  Y  Y7  1  0.845137  0.250000  0.796229  1
  Y  Y8  1  0.345459  0.750000  0.704226  1
  Er  Er9  1  0.453766  0.750000  0.998123  1
  Er  Er10  1  0.953793  0.250000  0.501802  1
  Er  Er11  1  0.546312  0.250000  0.001892  1
  Er  Er12  1  0.822375  0.964588  0.064416  1
  Er  Er13  1  0.322921  0.036016  0.435366  1
  Er  Er14  1  0.177534  0.464429  0.935608  1
  Er  Er15  1  0.677292  0.535255  0.564541  1
  Er  Er16  1  0.177534  0.035571  0.935608  1
  Er  Er17  1  0.677292  0.964745  0.564541  1
  Er  Er18  1  0.822375  0.535412  0.064416  1
  Er  Er19  1  0.322921  0.463984  0.435366  1
  Co  Co20  1  0.434433  0.750000  0.489800  1
  Co  Co21  1  0.933785  0.250000  0.010327  1
  Co  Co22  1  0.566086  0.250000  0.510232  1
  Co  Co23  1  0.066246  0.750000  0.989680  1
  Sb  Sb24  1  0.928299  0.992502  0.327548  1
  Sb  Sb25  1  0.428955  0.008409  0.171622  1
  Sb  Sb26  1  0.071184  0.490754  0.672562  1
  Sb  Sb27  1  0.571079  0.508273  0.828377  1
  Sb  Sb28  1  0.071184  0.009246  0.672562  1
  Sb  Sb29  1  0.571079  0.991727  0.828377  1
  Sb  Sb30  1  0.928299  0.507498  0.327548  1
  Sb  Sb31  1  0.428955  0.491591  0.171622  1
