# generated using pymatgen
data_La5CoRhO12
_symmetry_space_group_name_H-M   'P 1'
_cell_length_a   7.11944962
_cell_length_b   7.11944939
_cell_length_c   7.74891700
_cell_angle_alpha   74.32603184
_cell_angle_beta   74.32603237
_cell_angle_gamma   50.31926867
_symmetry_Int_Tables_number   1
_chemical_formula_structural   La5CoRhO12
_chemical_formula_sum   'La5 Co1 Rh1 O12'
_cell_volume   288.49913921
_cell_formula_units_Z   1
loop_
 _symmetry_equiv_pos_site_id
 _symmetry_equiv_pos_as_xyz
  1  'x, y, z'
loop_
 _atom_site_type_symbol
 _atom_site_label
 _atom_site_symmetry_multiplicity
 _atom_site_fract_x
 _atom_site_fract_y
 _atom_site_fract_z
 _atom_site_occupancy
  La  La0  1  0.319434  0.300046  0.354085  1
  La  La1  1  0.699954  0.680566  0.645915  1
  La  La2  1  0.694442  0.688694  0.163864  1
  La  La3  1  0.311306  0.305558  0.836136  1
  La  La4  1  0.001207  0.998793  0.500000  1
  Co  Co5  1  0.746805  0.253195  0.000000  1
  Rh  Rh6  1  0.234286  0.765714  0.000000  1
  O  O7  1  0.100411  0.594036  0.577751  1
  O  O8  1  0.982007  0.016658  0.163500  1
  O  O9  1  0.405964  0.899589  0.422249  1
  O  O10  1  0.504914  0.496378  0.165229  1
  O  O11  1  0.098751  0.584651  0.078103  1
  O  O12  1  0.912169  0.397783  0.420931  1
  O  O13  1  0.983342  0.017993  0.836500  1
  O  O14  1  0.602217  0.087830  0.579069  1
  O  O15  1  0.503622  0.495086  0.834771  1
  O  O16  1  0.587585  0.103763  0.075848  1
  O  O17  1  0.415349  0.901249  0.921897  1
  O  O18  1  0.896237  0.412415  0.924152  1
