# generated using pymatgen
data_BaGaAsO
_symmetry_space_group_name_H-M   'P 1'
_cell_length_a   4.17393900
_cell_length_b   4.17393944
_cell_length_c   6.13454800
_cell_angle_alpha   90.00000000
_cell_angle_beta   90.00000000
_cell_angle_gamma   119.99998862
_symmetry_Int_Tables_number   1
_chemical_formula_structural   BaGaAsO
_chemical_formula_sum   'Ba1 Ga1 As1 O1'
_cell_volume   92.55619479
_cell_formula_units_Z   1
loop_
 _symmetry_equiv_pos_site_id
 _symmetry_equiv_pos_as_xyz
  1  'x, y, z'
loop_
 _atom_site_type_symbol
 _atom_site_label
 _atom_site_symmetry_multiplicity
 _atom_site_fract_x
 _atom_site_fract_y
 _atom_site_fract_z
 _atom_site_occupancy
  Ba  Ba0  1  0.000000  0.000000  0.015175  1
  Ga  Ga1  1  0.333333  0.666667  0.563516  1
  As  As2  1  0.666667  0.333332  0.423547  1
  O  O3  1  0.333333  0.666667  0.868262  1
