# generated using pymatgen
data_Y2GaSiPd4
_symmetry_space_group_name_H-M   'P 1'
_cell_length_a   5.55480884
_cell_length_b   7.13922800
_cell_length_c   7.36646783
_cell_angle_alpha   90.00000000
_cell_angle_beta   88.83767206
_cell_angle_gamma   90.00000000
_symmetry_Int_Tables_number   1
_chemical_formula_structural   Y2GaSiPd4
_chemical_formula_sum   'Y4 Ga2 Si2 Pd8'
_cell_volume   292.07224935
_cell_formula_units_Z   2
loop_
 _symmetry_equiv_pos_site_id
 _symmetry_equiv_pos_as_xyz
  1  'x, y, z'
loop_
 _atom_site_type_symbol
 _atom_site_label
 _atom_site_symmetry_multiplicity
 _atom_site_fract_x
 _atom_site_fract_y
 _atom_site_fract_z
 _atom_site_occupancy
  Y  Y0  1  0.146985  0.250000  0.968687  1
  Y  Y1  1  0.364938  0.250000  0.473717  1
  Y  Y2  1  0.635062  0.750000  0.526283  1
  Y  Y3  1  0.853015  0.750000  0.031313  1
  Ga  Ga4  1  0.358432  0.750000  0.881185  1
  Ga  Ga5  1  0.641568  0.250000  0.118815  1
  Si  Si6  1  0.865879  0.250000  0.620497  1
  Si  Si7  1  0.134121  0.750000  0.379503  1
  Pd  Pd8  1  0.090167  0.552084  0.674271  1
  Pd  Pd9  1  0.090167  0.947916  0.674271  1
  Pd  Pd10  1  0.401563  0.554461  0.185431  1
  Pd  Pd11  1  0.909833  0.447916  0.325729  1
  Pd  Pd12  1  0.598437  0.445539  0.814569  1
  Pd  Pd13  1  0.909833  0.052084  0.325729  1
  Pd  Pd14  1  0.401563  0.945539  0.185431  1
  Pd  Pd15  1  0.598437  0.054461  0.814569  1
