# generated using pymatgen
data_KPr6OsI12
_symmetry_space_group_name_H-M   'P 1'
_cell_length_a   10.14666229
_cell_length_b   10.14666341
_cell_length_c   10.14666321
_cell_angle_alpha   105.53293678
_cell_angle_beta   105.53294841
_cell_angle_gamma   105.53293200
_symmetry_Int_Tables_number   1
_chemical_formula_structural   KPr6OsI12
_chemical_formula_sum   'K1 Pr6 Os1 I12'
_cell_volume   902.54966726
_cell_formula_units_Z   1
loop_
 _symmetry_equiv_pos_site_id
 _symmetry_equiv_pos_as_xyz
  1  'x, y, z'
loop_
 _atom_site_type_symbol
 _atom_site_label
 _atom_site_symmetry_multiplicity
 _atom_site_fract_x
 _atom_site_fract_y
 _atom_site_fract_z
 _atom_site_occupancy
  K  K0  1  0.500000  0.500000  0.500000  1
  Pr  Pr1  1  0.095998  0.299612  0.019471  1
  Pr  Pr2  1  0.299611  0.019470  0.095998  1
  Pr  Pr3  1  0.019470  0.095998  0.299612  1
  Pr  Pr4  1  0.980529  0.904002  0.700388  1
  Pr  Pr5  1  0.700389  0.980529  0.904001  1
  Pr  Pr6  1  0.904002  0.700388  0.980529  1
  Os  Os7  1  0.000000  0.000000  0.000000  1
  I  I8  1  0.223976  0.678844  0.075761  1
  I  I9  1  0.437129  0.355452  0.124210  1
  I  I10  1  0.678844  0.075762  0.223976  1
  I  I11  1  0.924239  0.776025  0.321157  1
  I  I12  1  0.124210  0.437129  0.355452  1
  I  I13  1  0.355452  0.124210  0.437130  1
  I  I14  1  0.644548  0.875790  0.562870  1
  I  I15  1  0.875789  0.562871  0.644548  1
  I  I16  1  0.075762  0.223976  0.678844  1
  I  I17  1  0.321157  0.924239  0.776024  1
  I  I18  1  0.562870  0.644547  0.875790  1
  I  I19  1  0.776024  0.321157  0.924239  1
