# generated using pymatgen
data_K2NdSc(SbAu)4
_symmetry_space_group_name_H-M   'P 1'
_cell_length_a   4.60636800
_cell_length_b   4.60636789
_cell_length_c   18.93068200
_cell_angle_alpha   90.00000000
_cell_angle_beta   90.00000000
_cell_angle_gamma   120.00001517
_symmetry_Int_Tables_number   1
_chemical_formula_structural   K2NdSc(SbAu)4
_chemical_formula_sum   'K2 Nd1 Sc1 Sb4 Au4'
_cell_volume   347.86767616
_cell_formula_units_Z   1
loop_
 _symmetry_equiv_pos_site_id
 _symmetry_equiv_pos_as_xyz
  1  'x, y, z'
loop_
 _atom_site_type_symbol
 _atom_site_label
 _atom_site_symmetry_multiplicity
 _atom_site_fract_x
 _atom_site_fract_y
 _atom_site_fract_z
 _atom_site_occupancy
  K  K0  1  0.000000  0.000000  0.503137  1
  K  K1  1  0.000000  0.000000  0.996863  1
  Nd  Nd2  1  0.000000  0.000000  0.250000  1
  Sc  Sc3  1  0.000000  0.000000  0.750000  1
  Sb  Sb4  1  0.333333  0.666667  0.370290  1
  Sb  Sb5  1  0.666667  0.333333  0.637505  1
  Sb  Sb6  1  0.666667  0.333333  0.862495  1
  Sb  Sb7  1  0.333333  0.666667  0.129710  1
  Au  Au8  1  0.666667  0.333333  0.342991  1
  Au  Au9  1  0.333333  0.666667  0.671973  1
  Au  Au10  1  0.333333  0.666667  0.828027  1
  Au  Au11  1  0.666667  0.333333  0.157009  1
