# generated using pymatgen
data_Pr8Ho11ErSi15Ir
_symmetry_space_group_name_H-M   'P 1'
_cell_length_a   7.40516409
_cell_length_b   7.80632045
_cell_length_c   14.64458000
_cell_angle_alpha   90.01313800
_cell_angle_beta   89.99087775
_cell_angle_gamma   90.03236268
_symmetry_Int_Tables_number   1
_chemical_formula_structural   Pr8Ho11ErSi15Ir
_chemical_formula_sum   'Pr8 Ho11 Er1 Si15 Ir1'
_cell_volume   846.56029679
_cell_formula_units_Z   1
loop_
 _symmetry_equiv_pos_site_id
 _symmetry_equiv_pos_as_xyz
  1  'x, y, z'
loop_
 _atom_site_type_symbol
 _atom_site_label
 _atom_site_symmetry_multiplicity
 _atom_site_fract_x
 _atom_site_fract_y
 _atom_site_fract_z
 _atom_site_occupancy
  Pr  Pr0  1  0.021844  0.183799  0.097717  1
  Pr  Pr1  1  0.982484  0.825313  0.904959  1
  Pr  Pr2  1  0.480847  0.677702  0.904355  1
  Pr  Pr3  1  0.982895  0.825550  0.594962  1
  Pr  Pr4  1  0.519843  0.320803  0.096196  1
  Pr  Pr5  1  0.021962  0.183806  0.402356  1
  Pr  Pr6  1  0.519860  0.320991  0.404010  1
  Pr  Pr7  1  0.481184  0.677569  0.595409  1
  Ho  Ho8  1  0.149632  0.511140  0.749898  1
  Ho  Ho9  1  0.845349  0.489313  0.250057  1
  Ho  Ho10  1  0.344945  0.013086  0.250116  1
  Ho  Ho11  1  0.662065  0.989724  0.749843  1
  Ho  Ho12  1  0.679662  0.825043  0.375729  1
  Ho  Ho13  1  0.179312  0.679455  0.376010  1
  Ho  Ho14  1  0.679595  0.824954  0.124482  1
  Ho  Ho15  1  0.830177  0.315402  0.625733  1
  Ho  Ho16  1  0.311977  0.173577  0.872906  1
  Ho  Ho17  1  0.829527  0.315537  0.874103  1
  Ho  Ho18  1  0.179378  0.679228  0.124094  1
  Er  Er19  1  0.311801  0.173570  0.627196  1
  Si  Si20  1  0.973453  0.888641  0.250043  1
  Si  Si21  1  0.474408  0.612768  0.250096  1
  Si  Si22  1  0.524922  0.390352  0.749694  1
  Si  Si23  1  0.274004  0.870954  0.749745  1
  Si  Si24  1  0.725541  0.123654  0.250094  1
  Si  Si25  1  0.227528  0.378360  0.250075  1
  Si  Si26  1  0.766064  0.617147  0.749875  1
  Si  Si27  1  0.151008  0.471285  0.538409  1
  Si  Si28  1  0.852640  0.533455  0.462056  1
  Si  Si29  1  0.351391  0.968390  0.461739  1
  Si  Si30  1  0.852391  0.533460  0.037972  1
  Si  Si31  1  0.643790  0.031772  0.539023  1
  Si  Si32  1  0.150153  0.471602  0.961496  1
  Si  Si33  1  0.644245  0.031429  0.961172  1
  Si  Si34  1  0.351714  0.968002  0.038566  1
  Ir  Ir35  1  0.022410  0.103164  0.749815  1
