# generated using pymatgen
data_Pr2Y3HoCoI10
_symmetry_space_group_name_H-M   'P 1'
_cell_length_a   7.80162230
_cell_length_b   9.81266242
_cell_length_c   9.81436901
_cell_angle_alpha   106.82001957
_cell_angle_beta   96.02554270
_cell_angle_gamma   105.20443915
_symmetry_Int_Tables_number   1
_chemical_formula_structural   Pr2Y3HoCoI10
_chemical_formula_sum   'Pr2 Y3 Ho1 Co1 I10'
_cell_volume   680.58471332
_cell_formula_units_Z   1
loop_
 _symmetry_equiv_pos_site_id
 _symmetry_equiv_pos_as_xyz
  1  'x, y, z'
loop_
 _atom_site_type_symbol
 _atom_site_label
 _atom_site_symmetry_multiplicity
 _atom_site_fract_x
 _atom_site_fract_y
 _atom_site_fract_z
 _atom_site_occupancy
  Pr  Pr0  1  0.885611  0.957240  0.231572  1
  Pr  Pr1  1  0.114278  0.042229  0.768216  1
  Y  Y2  1  0.970010  0.281754  0.084367  1
  Y  Y3  1  0.657886  0.877656  0.839077  1
  Y  Y4  1  0.342214  0.121947  0.160894  1
  Ho  Ho5  1  0.029539  0.720026  0.915901  1
  Co  Co6  1  0.999950  0.999361  0.999793  1
  I  I7  1  0.654118  0.553566  0.731959  1
  I  I8  1  0.347448  0.446563  0.268649  1
  I  I9  1  0.734291  0.911777  0.543977  1
  I  I10  1  0.265596  0.088321  0.456073  1
  I  I11  1  0.082641  0.378173  0.823972  1
  I  I12  1  0.917606  0.622222  0.175332  1
  I  I13  1  0.446980  0.816288  0.089390  1
  I  I14  1  0.552380  0.183410  0.910161  1
  I  I15  1  0.228181  0.739155  0.660346  1
  I  I16  1  0.771270  0.260311  0.340319  1
