# generated using pymatgen
data_CeY4Al2Os3
_symmetry_space_group_name_H-M   'P 1'
_cell_length_a   8.49038307
_cell_length_b   8.41899325
_cell_length_c   8.39204775
_cell_angle_alpha   110.00379869
_cell_angle_beta   109.27350356
_cell_angle_gamma   110.14196014
_symmetry_Int_Tables_number   1
_chemical_formula_structural   CeY4Al2Os3
_chemical_formula_sum   'Ce2 Y8 Al4 Os6'
_cell_volume   455.93484923
_cell_formula_units_Z   2
loop_
 _symmetry_equiv_pos_site_id
 _symmetry_equiv_pos_as_xyz
  1  'x, y, z'
loop_
 _atom_site_type_symbol
 _atom_site_label
 _atom_site_symmetry_multiplicity
 _atom_site_fract_x
 _atom_site_fract_y
 _atom_site_fract_z
 _atom_site_occupancy
  Ce  Ce0  1  0.939097  0.251175  0.191510  1
  Ce  Ce1  1  0.192626  0.937421  0.250519  1
  Y  Y2  1  0.782713  0.786007  0.779248  1
  Y  Y3  1  0.320587  0.570804  0.754068  1
  Y  Y4  1  0.750997  0.320212  0.572190  1
  Y  Y5  1  0.570276  0.747923  0.316744  1
  Y  Y6  1  0.719347  0.503761  0.998994  1
  Y  Y7  1  0.000695  0.719051  0.507227  1
  Y  Y8  1  0.501961  0.993268  0.715629  1
  Y  Y9  1  0.252168  0.184009  0.928225  1
  Al  Al10  1  0.414250  0.410279  0.409956  1
  Al  Al11  1  0.090124  0.493086  0.997822  1
  Al  Al12  1  0.997095  0.088848  0.499174  1
  Al  Al13  1  0.501341  0.009451  0.093222  1
  Os  Os14  1  0.873562  0.121460  0.741906  1
  Os  Os15  1  0.749530  0.897145  0.123090  1
  Os  Os16  1  0.129390  0.757522  0.902381  1
  Os  Os17  1  0.232922  0.598037  0.364453  1
  Os  Os18  1  0.358785  0.229532  0.601057  1
  Os  Os19  1  0.622534  0.381008  0.252581  1
