# generated using pymatgen
data_TbPr2Lu(ZnSn)4
_symmetry_space_group_name_H-M   'P 1'
_cell_length_a   4.55194900
_cell_length_b   4.55195021
_cell_length_c   16.13792000
_cell_angle_alpha   90.00000000
_cell_angle_beta   90.00000000
_cell_angle_gamma   120.00001302
_symmetry_Int_Tables_number   1
_chemical_formula_structural   TbPr2Lu(ZnSn)4
_chemical_formula_sum   'Tb1 Pr2 Lu1 Zn4 Sn4'
_cell_volume   289.58297361
_cell_formula_units_Z   1
loop_
 _symmetry_equiv_pos_site_id
 _symmetry_equiv_pos_as_xyz
  1  'x, y, z'
loop_
 _atom_site_type_symbol
 _atom_site_label
 _atom_site_symmetry_multiplicity
 _atom_site_fract_x
 _atom_site_fract_y
 _atom_site_fract_z
 _atom_site_occupancy
  Tb  Tb0  1  0.000000  0.000000  0.250000  1
  Pr  Pr1  1  0.000000  0.000000  0.501372  1
  Pr  Pr2  1  0.000000  0.000000  0.998628  1
  Lu  Lu3  1  0.000000  0.000000  0.750000  1
  Zn  Zn4  1  0.333333  0.666667  0.337638  1
  Zn  Zn5  1  0.666667  0.333333  0.664829  1
  Zn  Zn6  1  0.666667  0.333333  0.835171  1
  Zn  Zn7  1  0.333333  0.666667  0.162362  1
  Sn  Sn8  1  0.333333  0.666667  0.880023  1
  Sn  Sn9  1  0.666667  0.333333  0.118807  1
  Sn  Sn10  1  0.666667  0.333333  0.381193  1
  Sn  Sn11  1  0.333333  0.666667  0.619977  1
