# generated using pymatgen
data_Er12Th4Cd4RuRh3
_symmetry_space_group_name_H-M   'P 1'
_cell_length_a   9.70683827
_cell_length_b   9.70683870
_cell_length_c   9.70683800
_cell_angle_alpha   59.74349293
_cell_angle_beta   59.74349146
_cell_angle_gamma   59.74349952
_symmetry_Int_Tables_number   1
_chemical_formula_structural   Er12Th4Cd4RuRh3
_chemical_formula_sum   'Er12 Th4 Cd4 Ru1 Rh3'
_cell_volume   642.95600871
_cell_formula_units_Z   1
loop_
 _symmetry_equiv_pos_site_id
 _symmetry_equiv_pos_as_xyz
  1  'x, y, z'
loop_
 _atom_site_type_symbol
 _atom_site_label
 _atom_site_symmetry_multiplicity
 _atom_site_fract_x
 _atom_site_fract_y
 _atom_site_fract_z
 _atom_site_occupancy
  Er  Er0  1  0.063078  0.437861  0.437871  1
  Er  Er1  1  0.436371  0.062577  0.062638  1
  Er  Er2  1  0.437855  0.063056  0.437865  1
  Er  Er3  1  0.062610  0.436376  0.062602  1
  Er  Er4  1  0.437870  0.437863  0.063065  1
  Er  Er5  1  0.062643  0.062573  0.436367  1
  Er  Er6  1  0.184657  0.815895  0.815852  1
  Er  Er7  1  0.814537  0.184564  0.184562  1
  Er  Er8  1  0.815898  0.184632  0.815904  1
  Er  Er9  1  0.184588  0.814542  0.184578  1
  Er  Er10  1  0.815867  0.815901  0.184642  1
  Er  Er11  1  0.184565  0.184562  0.814525  1
  Th  Th12  1  0.599777  0.599812  0.599799  1
  Th  Th13  1  0.598718  0.598760  0.201687  1
  Th  Th14  1  0.598728  0.201693  0.598736  1
  Th  Th15  1  0.201704  0.598757  0.598726  1
  Cd  Cd16  1  0.832466  0.832465  0.832465  1
  Cd  Cd17  1  0.831947  0.831946  0.500904  1
  Cd  Cd18  1  0.831952  0.500898  0.831936  1
  Cd  Cd19  1  0.500892  0.831964  0.831945  1
  Ru  Ru20  1  0.394815  0.394818  0.394833  1
  Rh  Rh21  1  0.393870  0.393893  0.820741  1
  Rh  Rh22  1  0.393866  0.820727  0.393884  1
  Rh  Rh23  1  0.820723  0.393863  0.393870  1
