# generated using pymatgen
data_Tb3YbY2(Si3Ru)8
_symmetry_space_group_name_H-M   'P 1'
_cell_length_a   10.14006133
_cell_length_b   10.14006196
_cell_length_c   8.15104600
_cell_angle_alpha   89.91051579
_cell_angle_beta   90.08948244
_cell_angle_gamma   132.60755746
_symmetry_Int_Tables_number   1
_chemical_formula_structural   Tb3YbY2(Si3Ru)8
_chemical_formula_sum   'Tb3 Yb1 Y2 Si24 Ru8'
_cell_volume   616.84538426
_cell_formula_units_Z   1
loop_
 _symmetry_equiv_pos_site_id
 _symmetry_equiv_pos_as_xyz
  1  'x, y, z'
loop_
 _atom_site_type_symbol
 _atom_site_label
 _atom_site_symmetry_multiplicity
 _atom_site_fract_x
 _atom_site_fract_y
 _atom_site_fract_z
 _atom_site_occupancy
  Tb  Tb0  1  0.997785  0.497785  0.250000  1
  Tb  Tb1  1  0.497018  0.997018  0.250000  1
  Tb  Tb2  1  0.002938  0.502938  0.750000  1
  Yb  Yb3  1  0.502463  0.002463  0.750000  1
  Y  Y4  1  0.500200  0.500276  0.500396  1
  Y  Y5  1  0.000276  0.000200  0.999604  1
  Si  Si6  1  0.793729  0.203994  0.500566  1
  Si  Si7  1  0.295742  0.706203  0.998709  1
  Si  Si8  1  0.206203  0.795742  0.501291  1
  Si  Si9  1  0.703994  0.293729  0.999434  1
  Si  Si10  1  0.332872  0.333937  0.833185  1
  Si  Si11  1  0.666860  0.667879  0.166729  1
  Si  Si12  1  0.167879  0.166860  0.333271  1
  Si  Si13  1  0.833937  0.832872  0.666815  1
  Si  Si14  1  0.121747  0.887376  0.728133  1
  Si  Si15  1  0.111202  0.877420  0.272006  1
  Si  Si16  1  0.611504  0.377825  0.228580  1
  Si  Si17  1  0.623149  0.389032  0.772081  1
  Si  Si18  1  0.877825  0.111504  0.271420  1
  Si  Si19  1  0.889032  0.123149  0.727919  1
  Si  Si20  1  0.387376  0.621747  0.771867  1
  Si  Si21  1  0.377420  0.611202  0.227994  1
  Si  Si22  1  0.344812  0.111292  0.504355  1
  Si  Si23  1  0.888309  0.654937  0.494197  1
  Si  Si24  1  0.388597  0.154788  0.005823  1
  Si  Si25  1  0.844873  0.611779  0.994352  1
  Si  Si26  1  0.654788  0.888597  0.494177  1
  Si  Si27  1  0.111779  0.344873  0.505648  1
  Si  Si28  1  0.611292  0.844812  0.995645  1
  Si  Si29  1  0.154937  0.388309  0.005803  1
  Ru  Ru30  1  0.669868  0.330423  0.500171  1
  Ru  Ru31  1  0.168684  0.829716  0.000873  1
  Ru  Ru32  1  0.329716  0.668684  0.499127  1
  Ru  Ru33  1  0.830423  0.169868  0.999829  1
  Ru  Ru34  1  0.126773  0.126757  0.626962  1
  Ru  Ru35  1  0.873372  0.873865  0.373123  1
  Ru  Ru36  1  0.373865  0.373372  0.126877  1
  Ru  Ru37  1  0.626757  0.626773  0.873038  1
