# generated using pymatgen
data_HoLu2(MgAu)3
_symmetry_space_group_name_H-M   'P 1'
_cell_length_a   7.68525824
_cell_length_b   7.68525802
_cell_length_c   3.92739900
_cell_angle_alpha   90.00000000
_cell_angle_beta   90.00000000
_cell_angle_gamma   120.46691181
_symmetry_Int_Tables_number   1
_chemical_formula_structural   HoLu2(MgAu)3
_chemical_formula_sum   'Ho1 Lu2 Mg3 Au3'
_cell_volume   199.93552574
_cell_formula_units_Z   1
loop_
 _symmetry_equiv_pos_site_id
 _symmetry_equiv_pos_as_xyz
  1  'x, y, z'
loop_
 _atom_site_type_symbol
 _atom_site_label
 _atom_site_symmetry_multiplicity
 _atom_site_fract_x
 _atom_site_fract_y
 _atom_site_fract_z
 _atom_site_occupancy
  Ho  Ho0  1  0.408758  0.408758  0.000000  1
  Lu  Lu1  1  0.591372  0.999701  0.000000  1
  Lu  Lu2  1  0.999701  0.591372  0.000000  1
  Mg  Mg3  1  0.252789  0.998016  0.500000  1
  Mg  Mg4  1  0.998016  0.252789  0.500000  1
  Mg  Mg5  1  0.747698  0.747698  0.500000  1
  Au  Au6  1  0.332721  0.669806  0.500000  1
  Au  Au7  1  0.669806  0.332721  0.500000  1
  Au  Au8  1  0.999139  0.999139  0.000000  1
