# generated using pymatgen
data_Ac6PdAu7
_symmetry_space_group_name_H-M   'P 1'
_cell_length_a   8.67926350
_cell_length_b   8.67926346
_cell_length_c   8.67926223
_cell_angle_alpha   113.96646640
_cell_angle_beta   113.96646770
_cell_angle_gamma   113.96645202
_symmetry_Int_Tables_number   1
_chemical_formula_structural   Ac6PdAu7
_chemical_formula_sum   'Ac6 Pd1 Au7'
_cell_volume   398.20654326
_cell_formula_units_Z   1
loop_
 _symmetry_equiv_pos_site_id
 _symmetry_equiv_pos_as_xyz
  1  'x, y, z'
loop_
 _atom_site_type_symbol
 _atom_site_label
 _atom_site_symmetry_multiplicity
 _atom_site_fract_x
 _atom_site_fract_y
 _atom_site_fract_z
 _atom_site_occupancy
  Ac  Ac0  1  0.393716  0.023561  0.271351  1
  Ac  Ac1  1  0.023561  0.271351  0.393716  1
  Ac  Ac2  1  0.271351  0.393716  0.023561  1
  Ac  Ac3  1  0.606284  0.976439  0.728649  1
  Ac  Ac4  1  0.976439  0.728649  0.606284  1
  Ac  Ac5  1  0.728649  0.606284  0.976439  1
  Pd  Pd6  1  0.000000  0.000000  0.000000  1
  Au  Au7  1  0.500000  0.500000  0.500000  1
  Au  Au8  1  0.232093  0.070637  0.567246  1
  Au  Au9  1  0.070637  0.567246  0.232093  1
  Au  Au10  1  0.567246  0.232093  0.070637  1
  Au  Au11  1  0.767907  0.929363  0.432754  1
  Au  Au12  1  0.929363  0.432754  0.767907  1
  Au  Au13  1  0.432754  0.767907  0.929363  1
