# generated using pymatgen
data_CaEr(NiIr)2
_symmetry_space_group_name_H-M   'P 1'
_cell_length_a   5.19702658
_cell_length_b   5.19702659
_cell_length_c   5.09228600
_cell_angle_alpha   60.66447749
_cell_angle_beta   60.66447741
_cell_angle_gamma   61.68591620
_symmetry_Int_Tables_number   1
_chemical_formula_structural   CaEr(NiIr)2
_chemical_formula_sum   'Ca1 Er1 Ni2 Ir2'
_cell_volume   99.43487642
_cell_formula_units_Z   1
loop_
 _symmetry_equiv_pos_site_id
 _symmetry_equiv_pos_as_xyz
  1  'x, y, z'
loop_
 _atom_site_type_symbol
 _atom_site_label
 _atom_site_symmetry_multiplicity
 _atom_site_fract_x
 _atom_site_fract_y
 _atom_site_fract_z
 _atom_site_occupancy
  Ca  Ca0  1  0.001872  0.001872  0.998128  1
  Er  Er1  1  0.750565  0.750565  0.749435  1
  Ni  Ni2  1  0.374459  0.374459  0.375300  1
  Ni  Ni3  1  0.374459  0.374459  0.875782  1
  Ir  Ir4  1  0.874503  0.374142  0.375677  1
  Ir  Ir5  1  0.374142  0.874503  0.375677  1
