# generated using pymatgen
data_Li3Zn2
_symmetry_space_group_name_H-M   'P 1'
_cell_length_a   5.26757600
_cell_length_b   4.37889156
_cell_length_c   5.21009969
_cell_angle_alpha   115.08263948
_cell_angle_beta   130.13296511
_cell_angle_gamma   89.98955170
_symmetry_Int_Tables_number   1
_chemical_formula_structural   Li3Zn2
_chemical_formula_sum   'Li3 Zn2'
_cell_volume   76.47303016
_cell_formula_units_Z   1
loop_
 _symmetry_equiv_pos_site_id
 _symmetry_equiv_pos_as_xyz
  1  'x, y, z'
loop_
 _atom_site_type_symbol
 _atom_site_label
 _atom_site_symmetry_multiplicity
 _atom_site_fract_x
 _atom_site_fract_y
 _atom_site_fract_z
 _atom_site_occupancy
  Li  Li0  1  0.587150  0.298370  0.632195  1
  Li  Li1  1  0.186341  0.707627  0.437209  1
  Li  Li2  1  0.991541  0.898399  0.827463  1
  Zn  Zn3  1  0.784139  0.112917  0.246520  1
  Zn  Zn4  1  0.396612  0.498240  0.023584  1
