# generated using pymatgen
data_Nd3Y5CdHgPt2
_symmetry_space_group_name_H-M   'P 1'
_cell_length_a   9.81019158
_cell_length_b   9.81019195
_cell_length_c   9.77263700
_cell_angle_alpha   60.12654370
_cell_angle_beta   60.12654246
_cell_angle_gamma   60.29625272
_symmetry_Int_Tables_number   1
_chemical_formula_structural   Nd3Y5CdHgPt2
_chemical_formula_sum   'Nd6 Y10 Cd2 Hg2 Pt4'
_cell_volume   667.80004958
_cell_formula_units_Z   2
loop_
 _symmetry_equiv_pos_site_id
 _symmetry_equiv_pos_as_xyz
  1  'x, y, z'
loop_
 _atom_site_type_symbol
 _atom_site_label
 _atom_site_symmetry_multiplicity
 _atom_site_fract_x
 _atom_site_fract_y
 _atom_site_fract_z
 _atom_site_occupancy
  Nd  Nd0  1  0.938336  0.561182  0.562688  1
  Nd  Nd1  1  0.561182  0.938336  0.937794  1
  Nd  Nd2  1  0.561182  0.938336  0.562688  1
  Nd  Nd3  1  0.938336  0.561182  0.937794  1
  Nd  Nd4  1  0.561352  0.561352  0.938648  1
  Nd  Nd5  1  0.937562  0.937562  0.562438  1
  Y  Y6  1  0.351270  0.351270  0.350240  1
  Y  Y7  1  0.351270  0.351270  0.947221  1
  Y  Y8  1  0.353325  0.942293  0.352191  1
  Y  Y9  1  0.942293  0.353325  0.352191  1
  Y  Y10  1  0.811188  0.188395  0.189733  1
  Y  Y11  1  0.188395  0.811188  0.810685  1
  Y  Y12  1  0.188395  0.811188  0.189733  1
  Y  Y13  1  0.811188  0.188395  0.810685  1
  Y  Y14  1  0.188235  0.188235  0.811765  1
  Y  Y15  1  0.809866  0.809866  0.190134  1
  Cd  Cd16  1  0.579211  0.261830  0.579480  1
  Cd  Cd17  1  0.261830  0.579211  0.579480  1
  Hg  Hg18  1  0.583051  0.583051  0.584723  1
  Hg  Hg19  1  0.583051  0.583051  0.249176  1
  Pt  Pt20  1  0.142766  0.142766  0.143866  1
  Pt  Pt21  1  0.142766  0.142766  0.570603  1
  Pt  Pt22  1  0.142139  0.571817  0.143022  1
  Pt  Pt23  1  0.571817  0.142139  0.143022  1
