# generated using pymatgen
data_Ca7YbSb5I
_symmetry_space_group_name_H-M   'P 1'
_cell_length_a   8.27125955
_cell_length_b   8.26838299
_cell_length_c   8.26418535
_cell_angle_alpha   109.38582337
_cell_angle_beta   109.45670215
_cell_angle_gamma   109.58851049
_symmetry_Int_Tables_number   1
_chemical_formula_structural   Ca7YbSb5I
_chemical_formula_sum   'Ca7 Yb1 Sb5 I1'
_cell_volume   434.98690778
_cell_formula_units_Z   1
loop_
 _symmetry_equiv_pos_site_id
 _symmetry_equiv_pos_as_xyz
  1  'x, y, z'
loop_
 _atom_site_type_symbol
 _atom_site_label
 _atom_site_symmetry_multiplicity
 _atom_site_fract_x
 _atom_site_fract_y
 _atom_site_fract_z
 _atom_site_occupancy
  Ca  Ca0  1  0.486673  0.996572  0.335679  1
  Ca  Ca1  1  0.634740  0.624484  0.641595  1
  Ca  Ca2  1  0.006986  0.365152  0.489503  1
  Ca  Ca3  1  0.375400  0.517005  0.010337  1
  Ca  Ca4  1  0.003530  0.839263  0.490433  1
  Ca  Ca5  1  0.848966  0.513085  0.009701  1
  Ca  Ca6  1  0.482870  0.993170  0.858419  1
  Yb  Yb7  1  0.160546  0.151302  0.163998  1
  Sb  Sb8  1  0.374783  0.242158  0.630937  1
  Sb  Sb9  1  0.110861  0.743870  0.868766  1
  Sb  Sb10  1  0.757965  0.889341  0.132808  1
  Sb  Sb11  1  0.256427  0.624704  0.367087  1
  Sb  Sb12  1  0.624754  0.374851  0.249967  1
  I  I13  1  0.875500  0.125044  0.750772  1
