# generated using pymatgen
data_DyY2Cd3Ga2Ag
_symmetry_space_group_name_H-M   'P 1'
_cell_length_a   7.39097239
_cell_length_b   7.39515690
_cell_length_c   4.34414000
_cell_angle_alpha   90.00000000
_cell_angle_beta   90.00000000
_cell_angle_gamma   120.01872512
_symmetry_Int_Tables_number   1
_chemical_formula_structural   DyY2Cd3Ga2Ag
_chemical_formula_sum   'Dy1 Y2 Cd3 Ga2 Ag1'
_cell_volume   205.58974174
_cell_formula_units_Z   1
loop_
 _symmetry_equiv_pos_site_id
 _symmetry_equiv_pos_as_xyz
  1  'x, y, z'
loop_
 _atom_site_type_symbol
 _atom_site_label
 _atom_site_symmetry_multiplicity
 _atom_site_fract_x
 _atom_site_fract_y
 _atom_site_fract_z
 _atom_site_occupancy
  Dy  Dy0  1  0.000000  0.579495  0.500000  1
  Y  Y1  1  0.420565  0.420576  0.500000  1
  Y  Y2  1  0.579435  0.000011  0.500000  1
  Cd  Cd3  1  0.748041  0.747942  0.000000  1
  Cd  Cd4  1  0.251959  0.999901  0.000000  1
  Cd  Cd5  1  0.000000  0.252241  0.000000  1
  Ga  Ga6  1  0.667087  0.333678  0.000000  1
  Ga  Ga7  1  0.332913  0.666592  0.000000  1
  Ag  Ag8  1  0.000000  0.999563  0.500000  1
