# generated using pymatgen
data_Tb16Cd4Ru3Rh
_symmetry_space_group_name_H-M   'P 1'
_cell_length_a   9.64242983
_cell_length_b   9.68533521
_cell_length_c   9.68533600
_cell_angle_alpha   59.99999730
_cell_angle_beta   59.85269475
_cell_angle_gamma   59.85269548
_symmetry_Int_Tables_number   1
_chemical_formula_structural   Tb16Cd4Ru3Rh
_chemical_formula_sum   'Tb16 Cd4 Ru3 Rh1'
_cell_volume   638.16101424
_cell_formula_units_Z   1
loop_
 _symmetry_equiv_pos_site_id
 _symmetry_equiv_pos_as_xyz
  1  'x, y, z'
loop_
 _atom_site_type_symbol
 _atom_site_label
 _atom_site_symmetry_multiplicity
 _atom_site_fract_x
 _atom_site_fract_y
 _atom_site_fract_z
 _atom_site_occupancy
  Tb  Tb0  1  0.287801  0.904066  0.904066  1
  Tb  Tb1  1  0.689032  0.312499  0.685969  1
  Tb  Tb2  1  0.313057  0.687837  0.311268  1
  Tb  Tb3  1  0.061270  0.439277  0.439277  1
  Tb  Tb4  1  0.689032  0.312499  0.312499  1
  Tb  Tb5  1  0.438202  0.060771  0.440256  1
  Tb  Tb6  1  0.438202  0.060771  0.060771  1
  Tb  Tb7  1  0.903832  0.901680  0.901680  1
  Tb  Tb8  1  0.061270  0.439277  0.060176  1
  Tb  Tb9  1  0.903832  0.292809  0.901680  1
  Tb  Tb10  1  0.313057  0.687837  0.687837  1
  Tb  Tb11  1  0.903832  0.901680  0.292809  1
  Tb  Tb12  1  0.438202  0.440256  0.060771  1
  Tb  Tb13  1  0.313057  0.311268  0.687837  1
  Tb  Tb14  1  0.689032  0.685969  0.312499  1
  Tb  Tb15  1  0.061270  0.060176  0.439277  1
  Cd  Cd16  1  0.991487  0.669504  0.669504  1
  Cd  Cd17  1  0.669871  0.990103  0.670013  1
  Cd  Cd18  1  0.669871  0.670013  0.990103  1
  Cd  Cd19  1  0.669871  0.670013  0.670013  1
  Ru  Ru20  1  0.107313  0.111187  0.670313  1
  Ru  Ru21  1  0.107313  0.670313  0.111187  1
  Ru  Ru22  1  0.107313  0.111187  0.111187  1
  Rh  Rh23  1  0.672980  0.109007  0.109007  1
