# generated using pymatgen
data_LiLu(TcSn4)2
_symmetry_space_group_name_H-M   'P 1'
_cell_length_a   7.54576285
_cell_length_b   7.54576266
_cell_length_c   7.54576287
_cell_angle_alpha   125.56423125
_cell_angle_beta   125.56423260
_cell_angle_gamma   80.60554281
_symmetry_Int_Tables_number   1
_chemical_formula_structural   LiLu(TcSn4)2
_chemical_formula_sum   'Li1 Lu1 Tc2 Sn8'
_cell_volume   274.17835839
_cell_formula_units_Z   1
loop_
 _symmetry_equiv_pos_site_id
 _symmetry_equiv_pos_as_xyz
  1  'x, y, z'
loop_
 _atom_site_type_symbol
 _atom_site_label
 _atom_site_symmetry_multiplicity
 _atom_site_fract_x
 _atom_site_fract_y
 _atom_site_fract_z
 _atom_site_occupancy
  Li  Li0  1  0.500000  0.500000  0.000000  1
  Lu  Lu1  1  0.000000  0.000000  0.000000  1
  Tc  Tc2  1  0.249400  0.249400  0.000000  1
  Tc  Tc3  1  0.750600  0.750600  0.000000  1
  Sn  Sn4  1  0.692937  0.509649  0.485605  1
  Sn  Sn5  1  0.509649  0.024044  0.816713  1
  Sn  Sn6  1  0.207331  0.692937  0.183287  1
  Sn  Sn7  1  0.792669  0.307063  0.816713  1
  Sn  Sn8  1  0.490351  0.975956  0.183287  1
  Sn  Sn9  1  0.307063  0.490351  0.514395  1
  Sn  Sn10  1  0.975956  0.792669  0.485605  1
  Sn  Sn11  1  0.024044  0.207331  0.514395  1
