# generated using pymatgen
data_Ti3Nb5Si2Sb4Pd
_symmetry_space_group_name_H-M   'P 1'
_cell_length_a   5.00174286
_cell_length_b   7.83473898
_cell_length_c   7.81851094
_cell_angle_alpha   95.99868013
_cell_angle_beta   108.70860564
_cell_angle_gamma   71.29809300
_symmetry_Int_Tables_number   1
_chemical_formula_structural   Ti3Nb5Si2Sb4Pd
_chemical_formula_sum   'Ti3 Nb5 Si2 Sb4 Pd1'
_cell_volume   274.87486353
_cell_formula_units_Z   1
loop_
 _symmetry_equiv_pos_site_id
 _symmetry_equiv_pos_as_xyz
  1  'x, y, z'
loop_
 _atom_site_type_symbol
 _atom_site_label
 _atom_site_symmetry_multiplicity
 _atom_site_fract_x
 _atom_site_fract_y
 _atom_site_fract_z
 _atom_site_occupancy
  Ti  Ti0  1  0.302562  0.283876  0.876988  1
  Ti  Ti1  1  0.790159  0.122445  0.714493  1
  Ti  Ti2  1  0.198103  0.877040  0.284864  1
  Nb  Nb3  1  0.414065  0.876269  0.716615  1
  Nb  Nb4  1  0.573161  0.125243  0.284653  1
  Nb  Nb5  1  0.926897  0.284084  0.125024  1
  Nb  Nb6  1  0.088123  0.715059  0.876628  1
  Nb  Nb7  1  0.710782  0.714149  0.122799  1
  Si  Si8  1  0.248212  0.001880  0.999050  1
  Si  Si9  1  0.749607  0.002280  0.999036  1
  Sb  Sb10  1  0.374230  0.502336  0.196695  1
  Sb  Sb11  1  0.685318  0.494332  0.800781  1
  Sb  Sb12  1  0.817351  0.804016  0.498974  1
  Sb  Sb13  1  0.123641  0.196699  0.503670  1
  Pd  Pd14  1  0.247789  0.500292  0.499729  1
