# generated using pymatgen
data_Sm8Ta12Si15P
_symmetry_space_group_name_H-M   'P 1'
_cell_length_a   6.92695673
_cell_length_b   7.13005673
_cell_length_c   13.44828344
_cell_angle_alpha   89.98075565
_cell_angle_beta   89.90900411
_cell_angle_gamma   90.09845056
_symmetry_Int_Tables_number   1
_chemical_formula_structural   Sm8Ta12Si15P
_chemical_formula_sum   'Sm8 Ta12 Si15 P1'
_cell_volume   664.20340980
_cell_formula_units_Z   1
loop_
 _symmetry_equiv_pos_site_id
 _symmetry_equiv_pos_as_xyz
  1  'x, y, z'
loop_
 _atom_site_type_symbol
 _atom_site_label
 _atom_site_symmetry_multiplicity
 _atom_site_fract_x
 _atom_site_fract_y
 _atom_site_fract_z
 _atom_site_occupancy
  Sm  Sm0  1  0.005508  0.169593  0.095844  1
  Sm  Sm1  1  0.994801  0.830134  0.903961  1
  Sm  Sm2  1  0.495207  0.669580  0.904048  1
  Sm  Sm3  1  0.996723  0.826742  0.595258  1
  Sm  Sm4  1  0.505003  0.330153  0.095855  1
  Sm  Sm5  1  0.005266  0.173348  0.405674  1
  Sm  Sm6  1  0.503314  0.329791  0.404318  1
  Sm  Sm7  1  0.493891  0.669098  0.595564  1
  Ta  Ta8  1  0.160504  0.488209  0.749228  1
  Ta  Ta9  1  0.839803  0.511218  0.250513  1
  Ta  Ta10  1  0.339978  0.988063  0.250697  1
  Ta  Ta11  1  0.660409  0.011874  0.749144  1
  Ta  Ta12  1  0.334899  0.176231  0.624909  1
  Ta  Ta13  1  0.662369  0.826616  0.374361  1
  Ta  Ta14  1  0.163663  0.670835  0.376098  1
  Ta  Ta15  1  0.664795  0.825588  0.125936  1
  Ta  Ta16  1  0.839637  0.327931  0.623880  1
  Ta  Ta17  1  0.335321  0.175142  0.873785  1
  Ta  Ta18  1  0.836274  0.325609  0.873594  1
  Ta  Ta19  1  0.163430  0.674495  0.126299  1
  Si  Si20  1  0.038656  0.125134  0.749443  1
  Si  Si21  1  0.961509  0.873952  0.250985  1
  Si  Si22  1  0.460157  0.625745  0.250200  1
  Si  Si23  1  0.540581  0.373216  0.749456  1
  Si  Si24  1  0.295739  0.879251  0.750007  1
  Si  Si25  1  0.705940  0.122106  0.250068  1
  Si  Si26  1  0.205212  0.377878  0.249892  1
  Si  Si27  1  0.794627  0.622089  0.749806  1
  Si  Si28  1  0.832642  0.541218  0.456084  1
  Si  Si29  1  0.339029  0.961403  0.457467  1
  Si  Si30  1  0.839614  0.538169  0.042426  1
  Si  Si31  1  0.661234  0.038700  0.542737  1
  Si  Si32  1  0.160069  0.461814  0.957465  1
  Si  Si33  1  0.660140  0.038563  0.957743  1
  Si  Si34  1  0.340012  0.961532  0.042427  1
  P  P35  1  0.164041  0.458979  0.544827  1
