# generated using pymatgen
data_Dy2Ho3P12Ir11Ru8
_symmetry_space_group_name_H-M   'P 1'
_cell_length_a   12.62599300
_cell_length_b   12.59519173
_cell_length_c   3.97207500
_cell_angle_alpha   90.00000000
_cell_angle_beta   90.00000000
_cell_angle_gamma   120.04810618
_symmetry_Int_Tables_number   1
_chemical_formula_structural   Dy2Ho3P12Ir11Ru8
_chemical_formula_sum   'Dy2 Ho3 P12 Ir11 Ru8'
_cell_volume   546.77376819
_cell_formula_units_Z   1
loop_
 _symmetry_equiv_pos_site_id
 _symmetry_equiv_pos_as_xyz
  1  'x, y, z'
loop_
 _atom_site_type_symbol
 _atom_site_label
 _atom_site_symmetry_multiplicity
 _atom_site_fract_x
 _atom_site_fract_y
 _atom_site_fract_z
 _atom_site_occupancy
  Dy  Dy0  1  0.183108  0.184701  0.500000  1
  Dy  Dy1  1  0.999350  0.815083  0.500000  1
  Ho  Ho2  1  0.666969  0.331383  0.000000  1
  Ho  Ho3  1  0.334724  0.669070  0.000000  1
  Ho  Ho4  1  0.813828  0.001009  0.500000  1
  P  P5  1  0.634372  0.999057  0.000000  1
  P  P6  1  0.363277  0.363580  0.000000  1
  P  P7  1  0.000269  0.636032  0.000000  1
  P  P8  1  0.688782  0.517680  0.500000  1
  P  P9  1  0.829806  0.307522  0.500000  1
  P  P10  1  0.317264  0.834005  0.500000  1
  P  P11  1  0.519276  0.691247  0.500000  1
  P  P12  1  0.178970  0.000089  0.000000  1
  P  P13  1  0.819062  0.819327  0.000000  1
  P  P14  1  0.996490  0.180955  0.000000  1
  P  P15  1  0.480201  0.167496  0.500000  1
  P  P16  1  0.170490  0.482423  0.500000  1
  Ir  Ir17  1  0.624626  0.804082  0.000000  1
  Ir  Ir18  1  0.182980  0.376875  0.000000  1
  Ir  Ir19  1  0.374446  0.181417  0.000000  1
  Ir  Ir20  1  0.192020  0.818718  0.000000  1
  Ir  Ir21  1  0.805937  0.623135  0.000000  1
  Ir  Ir22  1  0.869919  0.506694  0.500000  1
  Ir  Ir23  1  0.492290  0.360220  0.500000  1
  Ir  Ir24  1  0.637076  0.129357  0.500000  1
  Ir  Ir25  1  0.132834  0.640927  0.500000  1
  Ir  Ir26  1  0.362541  0.492479  0.500000  1
  Ir  Ir27  1  0.998743  0.000403  0.000000  1
  Ru  Ru28  1  0.511630  0.871492  0.500000  1
  Ru  Ru29  1  0.712209  0.710653  0.500000  1
  Ru  Ru30  1  0.002225  0.289338  0.500000  1
  Ru  Ru31  1  0.450528  0.998823  0.000000  1
  Ru  Ru32  1  0.546757  0.544442  0.000000  1
  Ru  Ru33  1  0.002312  0.455005  0.000000  1
  Ru  Ru34  1  0.818242  0.195593  0.000000  1
  Ru  Ru35  1  0.286444  0.999683  0.500000  1
