# generated using pymatgen
data_Dy6AlFeTc
_symmetry_space_group_name_H-M   'P 1'
_cell_length_a   8.39428319
_cell_length_b   8.39428375
_cell_length_c   8.39428294
_cell_angle_alpha   112.18949798
_cell_angle_beta   111.86398628
_cell_angle_gamma   104.47303967
_symmetry_Int_Tables_number   1
_chemical_formula_structural   Dy6AlFeTc
_chemical_formula_sum   'Dy12 Al2 Fe2 Tc2'
_cell_volume   452.76023675
_cell_formula_units_Z   2
loop_
 _symmetry_equiv_pos_site_id
 _symmetry_equiv_pos_as_xyz
  1  'x, y, z'
loop_
 _atom_site_type_symbol
 _atom_site_label
 _atom_site_symmetry_multiplicity
 _atom_site_fract_x
 _atom_site_fract_y
 _atom_site_fract_z
 _atom_site_occupancy
  Dy  Dy0  1  0.438504  0.245485  0.193021  1
  Dy  Dy1  1  0.561496  0.754515  0.806979  1
  Dy  Dy2  1  0.052463  0.245485  0.806979  1
  Dy  Dy3  1  0.947537  0.754515  0.193021  1
  Dy  Dy4  1  0.183787  0.280302  0.464090  1
  Dy  Dy5  1  0.816213  0.719698  0.535910  1
  Dy  Dy6  1  0.183787  0.719698  0.903485  1
  Dy  Dy7  1  0.816213  0.280302  0.096515  1
  Dy  Dy8  1  0.326939  0.643418  0.316479  1
  Dy  Dy9  1  0.673061  0.356582  0.683521  1
  Dy  Dy10  1  0.326939  0.010459  0.683521  1
  Dy  Dy11  1  0.673061  0.989541  0.316479  1
  Al  Al12  1  0.500000  0.500000  0.000000  1
  Al  Al13  1  0.000000  0.000000  0.000000  1
  Fe  Fe14  1  0.105632  0.605632  0.500000  1
  Fe  Fe15  1  0.894368  0.394368  0.500000  1
  Tc  Tc16  1  0.316294  0.000000  0.316294  1
  Tc  Tc17  1  0.683706  0.000000  0.683706  1
