# generated using pymatgen
data_TbCe2Ho(Al3Ir)6
_symmetry_space_group_name_H-M   'P 1'
_cell_length_a   7.60669180
_cell_length_b   7.60440477
_cell_length_c   9.47975700
_cell_angle_alpha   89.99939192
_cell_angle_beta   90.00027048
_cell_angle_gamma   119.55689582
_symmetry_Int_Tables_number   1
_chemical_formula_structural   TbCe2Ho(Al3Ir)6
_chemical_formula_sum   'Tb1 Ce2 Ho1 Al18 Ir6'
_cell_volume   476.99161779
_cell_formula_units_Z   1
loop_
 _symmetry_equiv_pos_site_id
 _symmetry_equiv_pos_as_xyz
  1  'x, y, z'
loop_
 _atom_site_type_symbol
 _atom_site_label
 _atom_site_symmetry_multiplicity
 _atom_site_fract_x
 _atom_site_fract_y
 _atom_site_fract_z
 _atom_site_occupancy
  Tb  Tb0  1  0.328448  0.004129  0.750001  1
  Ce  Ce1  1  0.995591  0.670401  0.249999  1
  Ce  Ce2  1  0.004126  0.329720  0.749994  1
  Ho  Ho3  1  0.672139  0.995796  0.250002  1
  Al  Al4  1  0.128920  0.128176  0.249997  1
  Al  Al5  1  0.870612  0.871705  0.750001  1
  Al  Al6  1  0.001093  0.333572  0.076538  1
  Al  Al7  1  0.998492  0.666387  0.924041  1
  Al  Al8  1  0.998501  0.666402  0.575956  1
  Al  Al9  1  0.337081  0.001904  0.424854  1
  Al  Al10  1  0.001100  0.333576  0.423454  1
  Al  Al11  1  0.663211  0.997777  0.574200  1
  Al  Al12  1  0.663216  0.997782  0.925801  1
  Al  Al13  1  0.337077  0.001900  0.075144  1
  Al  Al14  1  0.334658  0.333277  0.551407  1
  Al  Al15  1  0.665337  0.666852  0.448239  1
  Al  Al16  1  0.665331  0.666857  0.051783  1
  Al  Al17  1  0.334662  0.333290  0.948582  1
  Al  Al18  1  0.341779  0.549684  0.250002  1
  Al  Al19  1  0.658683  0.451096  0.750002  1
  Al  Al20  1  0.547745  0.339162  0.250003  1
  Al  Al21  1  0.452911  0.660768  0.750000  1
  Ir  Ir22  1  0.672441  0.328457  0.000050  1
  Ir  Ir23  1  0.327436  0.671205  0.000068  1
  Ir  Ir24  1  0.327442  0.671209  0.499932  1
  Ir  Ir25  1  0.672456  0.328465  0.499955  1
  Ir  Ir26  1  0.999758  0.000225  0.000106  1
  Ir  Ir27  1  0.999752  0.000227  0.499889  1
