# generated using pymatgen
data_Pr6Dy10MgHg3Rh4
_symmetry_space_group_name_H-M   'P 1'
_cell_length_a   9.75407956
_cell_length_b   9.77227042
_cell_length_c   9.77226108
_cell_angle_alpha   59.61694081
_cell_angle_beta   59.76041912
_cell_angle_gamma   59.76060547
_symmetry_Int_Tables_number   1
_chemical_formula_structural   Pr6Dy10MgHg3Rh4
_chemical_formula_sum   'Pr6 Dy10 Mg1 Hg3 Rh4'
_cell_volume   654.35931470
_cell_formula_units_Z   1
loop_
 _symmetry_equiv_pos_site_id
 _symmetry_equiv_pos_as_xyz
  1  'x, y, z'
loop_
 _atom_site_type_symbol
 _atom_site_label
 _atom_site_symmetry_multiplicity
 _atom_site_fract_x
 _atom_site_fract_y
 _atom_site_fract_z
 _atom_site_occupancy
  Pr  Pr0  1  0.939733  0.560828  0.560826  1
  Pr  Pr1  1  0.558411  0.940206  0.940204  1
  Pr  Pr2  1  0.559229  0.939440  0.560958  1
  Pr  Pr3  1  0.941022  0.559789  0.938551  1
  Pr  Pr4  1  0.559239  0.560956  0.939434  1
  Pr  Pr5  1  0.941025  0.938557  0.559797  1
  Dy  Dy6  1  0.347907  0.347109  0.347107  1
  Dy  Dy7  1  0.348755  0.348361  0.957561  1
  Dy  Dy8  1  0.348752  0.957580  0.348355  1
  Dy  Dy9  1  0.948896  0.351121  0.351136  1
  Dy  Dy10  1  0.810602  0.188058  0.188062  1
  Dy  Dy11  1  0.182126  0.814759  0.814778  1
  Dy  Dy12  1  0.184098  0.814087  0.185760  1
  Dy  Dy13  1  0.810576  0.187263  0.812177  1
  Dy  Dy14  1  0.184106  0.185757  0.814087  1
  Dy  Dy15  1  0.810580  0.812167  0.187271  1
  Mg  Mg16  1  0.287112  0.570399  0.570378  1
  Hg  Hg17  1  0.580078  0.584050  0.584063  1
  Hg  Hg18  1  0.580603  0.584278  0.251185  1
  Hg  Hg19  1  0.580589  0.251195  0.584284  1
  Rh  Rh20  1  0.140598  0.142964  0.142936  1
  Rh  Rh21  1  0.141152  0.143991  0.574148  1
  Rh  Rh22  1  0.141149  0.574132  0.143989  1
  Rh  Rh23  1  0.573660  0.142954  0.142950  1
