# generated using pymatgen
data_CdAg10(BiO4)3
_symmetry_space_group_name_H-M   'P 1'
_cell_length_a   8.88919705
_cell_length_b   8.88919753
_cell_length_c   6.08293408
_cell_angle_alpha   70.04168058
_cell_angle_beta   70.04167493
_cell_angle_gamma   72.93924364
_symmetry_Int_Tables_number   1
_chemical_formula_structural   CdAg10(BiO4)3
_chemical_formula_sum   'Cd1 Ag10 Bi3 O12'
_cell_volume   416.06099761
_cell_formula_units_Z   1
loop_
 _symmetry_equiv_pos_site_id
 _symmetry_equiv_pos_as_xyz
  1  'x, y, z'
loop_
 _atom_site_type_symbol
 _atom_site_label
 _atom_site_symmetry_multiplicity
 _atom_site_fract_x
 _atom_site_fract_y
 _atom_site_fract_z
 _atom_site_occupancy
  Cd  Cd0  1  0.418481  0.581519  0.000000  1
  Ag  Ag1  1  0.254889  0.248840  0.999814  1
  Ag  Ag2  1  0.746313  0.749073  0.496875  1
  Ag  Ag3  1  0.250927  0.253687  0.503125  1
  Ag  Ag4  1  0.751160  0.745111  0.000186  1
  Ag  Ag5  1  0.498349  0.002521  0.750919  1
  Ag  Ag6  1  0.997479  0.501651  0.249081  1
  Ag  Ag7  1  0.117736  0.614981  0.630401  1
  Ag  Ag8  1  0.615747  0.119299  0.136308  1
  Ag  Ag9  1  0.385019  0.882264  0.369599  1
  Ag  Ag10  1  0.880701  0.384253  0.863692  1
  Bi  Bi11  1  0.914635  0.085365  0.500000  1
  Bi  Bi12  1  0.575631  0.424369  0.500000  1
  Bi  Bi13  1  0.090939  0.909061  0.000000  1
  O  O14  1  0.662796  0.528048  0.705906  1
  O  O15  1  0.165371  0.029711  0.207476  1
  O  O16  1  0.534738  0.659286  0.227036  1
  O  O17  1  0.039530  0.154638  0.729481  1
  O  O18  1  0.342906  0.852343  0.776591  1
  O  O19  1  0.835814  0.355136  0.276584  1
  O  O20  1  0.340714  0.465262  0.772964  1
  O  O21  1  0.845362  0.960470  0.270519  1
  O  O22  1  0.471952  0.337204  0.294094  1
  O  O23  1  0.970289  0.834629  0.792524  1
  O  O24  1  0.644864  0.164186  0.723416  1
  O  O25  1  0.147657  0.657094  0.223409  1
