# generated using pymatgen
data_TmCo2GeC
_symmetry_space_group_name_H-M   'P 1'
_cell_length_a   5.62552724
_cell_length_b   5.62552649
_cell_length_c   6.81258300
_cell_angle_alpha   90.00000000
_cell_angle_beta   90.00000000
_cell_angle_gamma   141.42022621
_symmetry_Int_Tables_number   1
_chemical_formula_structural   TmCo2GeC
_chemical_formula_sum   'Tm2 Co4 Ge2 C2'
_cell_volume   134.44568727
_cell_formula_units_Z   2
loop_
 _symmetry_equiv_pos_site_id
 _symmetry_equiv_pos_as_xyz
  1  'x, y, z'
loop_
 _atom_site_type_symbol
 _atom_site_label
 _atom_site_symmetry_multiplicity
 _atom_site_fract_x
 _atom_site_fract_y
 _atom_site_fract_z
 _atom_site_occupancy
  Tm  Tm0  1  0.548535  0.451465  0.250000  1
  Tm  Tm1  1  0.451465  0.548535  0.750000  1
  Co  Co2  1  0.839355  0.160645  0.055370  1
  Co  Co3  1  0.160645  0.839355  0.944630  1
  Co  Co4  1  0.160645  0.839355  0.555370  1
  Co  Co5  1  0.839355  0.160645  0.444630  1
  Ge  Ge6  1  0.270160  0.729840  0.250000  1
  Ge  Ge7  1  0.729840  0.270160  0.750000  1
  C  C8  1  0.000000  0.000000  0.000000  1
  C  C9  1  0.000000  0.000000  0.500000  1
