# generated using pymatgen
data_Cs8Pr(UTe4)3
_symmetry_space_group_name_H-M   'P 1'
_cell_length_a   15.37544122
_cell_length_b   7.69219258
_cell_length_c   10.32659533
_cell_angle_alpha   71.46392768
_cell_angle_beta   89.98390620
_cell_angle_gamma   89.98548315
_symmetry_Int_Tables_number   1
_chemical_formula_structural   Cs8Pr(UTe4)3
_chemical_formula_sum   'Cs8 Pr1 U3 Te12'
_cell_volume   1157.97683752
_cell_formula_units_Z   1
loop_
 _symmetry_equiv_pos_site_id
 _symmetry_equiv_pos_as_xyz
  1  'x, y, z'
loop_
 _atom_site_type_symbol
 _atom_site_label
 _atom_site_symmetry_multiplicity
 _atom_site_fract_x
 _atom_site_fract_y
 _atom_site_fract_z
 _atom_site_occupancy
  Cs  Cs0  1  0.951901  0.673943  0.656935  1
  Cs  Cs1  1  0.458106  0.827696  0.341203  1
  Cs  Cs2  1  0.043466  0.327994  0.341193  1
  Cs  Cs3  1  0.547409  0.173722  0.658876  1
  Cs  Cs4  1  0.868896  0.082111  0.900421  1
  Cs  Cs5  1  0.370696  0.415370  0.101721  1
  Cs  Cs6  1  0.128918  0.916062  0.102178  1
  Cs  Cs7  1  0.631110  0.583037  0.899912  1
  Pr  Pr8  1  0.750428  0.655730  0.296505  1
  U  U9  1  0.250235  0.843781  0.703211  1
  U  U10  1  0.249717  0.343675  0.703248  1
  U  U11  1  0.749634  0.156424  0.296332  1
  Te  Te12  1  0.909733  0.928423  0.282389  1
  Te  Te13  1  0.405845  0.587246  0.717846  1
  Te  Te14  1  0.094196  0.087070  0.718199  1
  Te  Te15  1  0.590013  0.396540  0.282235  1
  Te  Te16  1  0.818629  0.292966  0.520621  1
  Te  Te17  1  0.316389  0.187760  0.483611  1
  Te  Te18  1  0.183485  0.687757  0.483538  1
  Te  Te19  1  0.681684  0.827447  0.520971  1
  Te  Te20  1  0.842320  0.479326  0.086246  1
  Te  Te21  1  0.339679  0.005815  0.908151  1
  Te  Te22  1  0.160151  0.505985  0.907845  1
  Te  Te23  1  0.657360  0.014121  0.086614  1
