# generated using pymatgen
data_Hf2Mn5NiP4
_symmetry_space_group_name_H-M   'P 1'
_cell_length_a   3.59308105
_cell_length_b   10.54254205
_cell_length_c   12.22499608
_cell_angle_alpha   90.00106122
_cell_angle_beta   89.98644946
_cell_angle_gamma   90.01196146
_symmetry_Int_Tables_number   1
_chemical_formula_structural   Hf2Mn5NiP4
_chemical_formula_sum   'Hf6 Mn15 Ni3 P12'
_cell_volume   463.08537184
_cell_formula_units_Z   3
loop_
 _symmetry_equiv_pos_site_id
 _symmetry_equiv_pos_as_xyz
  1  'x, y, z'
loop_
 _atom_site_type_symbol
 _atom_site_label
 _atom_site_symmetry_multiplicity
 _atom_site_fract_x
 _atom_site_fract_y
 _atom_site_fract_z
 _atom_site_occupancy
  Hf  Hf0  1  0.751658  0.000046  0.470922  1
  Hf  Hf1  1  0.251771  0.499999  0.530420  1
  Hf  Hf2  1  0.251758  0.678810  0.792860  1
  Hf  Hf3  1  0.251747  0.321267  0.792872  1
  Hf  Hf4  1  0.751734  0.824957  0.204794  1
  Hf  Hf5  1  0.751671  0.175039  0.204852  1
  Mn  Mn6  1  0.751746  0.999969  0.008539  1
  Mn  Mn7  1  0.251851  0.202579  0.566502  1
  Mn  Mn8  1  0.251840  0.797391  0.566367  1
  Mn  Mn9  1  0.751798  0.297990  0.432659  1
  Mn  Mn10  1  0.751903  0.701983  0.432493  1
  Mn  Mn11  1  0.251954  0.619790  0.299008  1
  Mn  Mn12  1  0.251963  0.380131  0.299156  1
  Mn  Mn13  1  0.751839  0.876969  0.699706  1
  Mn  Mn14  1  0.751805  0.123119  0.699691  1
  Mn  Mn15  1  0.251826  0.169993  0.004298  1
  Mn  Mn16  1  0.251827  0.830141  0.004276  1
  Mn  Mn17  1  0.752094  0.332024  0.996644  1
  Mn  Mn18  1  0.752124  0.667874  0.996566  1
  Mn  Mn19  1  0.251772  0.000046  0.841977  1
  Mn  Mn20  1  0.752229  0.500011  0.166120  1
  Ni  Ni21  1  0.251981  0.499742  0.989555  1
  Ni  Ni22  1  0.251082  0.999879  0.296164  1
  Ni  Ni23  1  0.751369  0.500198  0.704609  1
  P  P24  1  0.251771  0.178699  0.379616  1
  P  P25  1  0.251820  0.821401  0.379477  1
  P  P26  1  0.751806  0.321643  0.619303  1
  P  P27  1  0.751841  0.678441  0.619229  1
  P  P28  1  0.251691  0.999999  0.121502  1
  P  P29  1  0.752098  0.499968  0.878026  1
  P  P30  1  0.251971  0.656673  0.118451  1
  P  P31  1  0.251913  0.343257  0.118527  1
  P  P32  1  0.751777  0.842537  0.881524  1
  P  P33  1  0.751819  0.157521  0.881484  1
  P  P34  1  0.251786  0.000018  0.640426  1
  P  P35  1  0.751973  0.499894  0.361387  1
