# generated using pymatgen
data_CeU9S20
_symmetry_space_group_name_H-M   'P 1'
_cell_length_a   10.16394019
_cell_length_b   10.15982028
_cell_length_c   6.28316471
_cell_angle_alpha   89.89027088
_cell_angle_beta   89.92492974
_cell_angle_gamma   89.93202853
_symmetry_Int_Tables_number   1
_chemical_formula_structural   CeU9S20
_chemical_formula_sum   'Ce1 U9 S20'
_cell_volume   648.82129735
_cell_formula_units_Z   1
loop_
 _symmetry_equiv_pos_site_id
 _symmetry_equiv_pos_as_xyz
  1  'x, y, z'
loop_
 _atom_site_type_symbol
 _atom_site_label
 _atom_site_symmetry_multiplicity
 _atom_site_fract_x
 _atom_site_fract_y
 _atom_site_fract_z
 _atom_site_occupancy
  Ce  Ce0  1  0.840157  0.151121  0.247780  1
  U  U1  1  0.652140  0.658045  0.251453  1
  U  U2  1  0.348660  0.340248  0.249222  1
  U  U3  1  0.159575  0.847668  0.249433  1
  U  U4  1  0.498071  0.999484  0.857488  1
  U  U5  1  0.341103  0.652093  0.750793  1
  U  U6  1  0.152458  0.159862  0.750179  1
  U  U7  1  0.848210  0.839826  0.751201  1
  U  U8  1  0.658862  0.348515  0.749576  1
  U  U9  1  0.000617  0.500259  0.142319  1
  S  S10  1  0.708297  0.088447  0.632140  1
  S  S11  1  0.589509  0.789550  0.619369  1
  S  S12  1  0.410097  0.207961  0.618248  1
  S  S13  1  0.292422  0.909829  0.618114  1
  S  S14  1  0.705302  0.907059  0.104844  1
  S  S15  1  0.583013  0.209439  0.106194  1
  S  S16  1  0.410349  0.791413  0.108853  1
  S  S17  1  0.290091  0.088716  0.108944  1
  S  S18  1  0.500405  0.501292  0.000102  1
  S  S19  1  0.002745  0.997812  0.997100  1
  S  S20  1  0.210119  0.411457  0.892443  1
  S  S21  1  0.088826  0.707447  0.891338  1
  S  S22  1  0.913533  0.295134  0.883693  1
  S  S23  1  0.791467  0.588892  0.892866  1
  S  S24  1  0.498714  0.499026  0.499754  1
  S  S25  1  0.002829  0.997284  0.502809  1
  S  S26  1  0.208864  0.590570  0.381055  1
  S  S27  1  0.092409  0.293755  0.383283  1
  S  S28  1  0.910995  0.710768  0.378385  1
  S  S29  1  0.790158  0.417021  0.381020  1
