# generated using pymatgen
data_Pr3DyPb4F28
_symmetry_space_group_name_H-M   'P 1'
_cell_length_a   5.87925973
_cell_length_b   9.34005252
_cell_length_c   12.54444900
_cell_angle_alpha   62.11272281
_cell_angle_beta   90.04394204
_cell_angle_gamma   89.96659485
_symmetry_Int_Tables_number   1
_chemical_formula_structural   Pr3DyPb4F28
_chemical_formula_sum   'Pr3 Dy1 Pb4 F28'
_cell_volume   608.85143744
_cell_formula_units_Z   1
loop_
 _symmetry_equiv_pos_site_id
 _symmetry_equiv_pos_as_xyz
  1  'x, y, z'
loop_
 _atom_site_type_symbol
 _atom_site_label
 _atom_site_symmetry_multiplicity
 _atom_site_fract_x
 _atom_site_fract_y
 _atom_site_fract_z
 _atom_site_occupancy
  Pr  Pr0  1  0.741461  0.811096  0.266359  1
  Pr  Pr1  1  0.241081  0.185538  0.233402  1
  Pr  Pr2  1  0.258072  0.182627  0.733531  1
  Dy  Dy3  1  0.758994  0.812651  0.766377  1
  Pb  Pb4  1  0.745902  0.267972  0.458500  1
  Pb  Pb5  1  0.244833  0.727285  0.038633  1
  Pb  Pb6  1  0.256998  0.727883  0.549067  1
  Pb  Pb7  1  0.755857  0.278347  0.953678  1
  F  F8  1  0.468445  0.708553  0.915591  1
  F  F9  1  0.960541  0.293780  0.581378  1
  F  F10  1  0.540126  0.295930  0.079388  1
  F  F11  1  0.038602  0.708823  0.423833  1
  F  F12  1  0.448153  0.285554  0.544597  1
  F  F13  1  0.947791  0.716116  0.947481  1
  F  F14  1  0.549578  0.713758  0.457536  1
  F  F15  1  0.053303  0.290471  0.041870  1
  F  F16  1  0.764793  0.530773  0.853703  1
  F  F17  1  0.267467  0.476832  0.646605  1
  F  F18  1  0.229548  0.477030  0.140999  1
  F  F19  1  0.732754  0.519966  0.358534  1
  F  F20  1  0.762181  0.024976  0.053242  1
  F  F21  1  0.261945  0.980058  0.448687  1
  F  F22  1  0.239124  0.980318  0.945265  1
  F  F23  1  0.740351  0.015103  0.558854  1
  F  F24  1  0.980538  0.731490  0.654108  1
  F  F25  1  0.477842  0.271201  0.852212  1
  F  F26  1  0.027435  0.271094  0.355765  1
  F  F27  1  0.522977  0.727573  0.143330  1
  F  F28  1  0.039395  0.742354  0.170500  1
  F  F29  1  0.544593  0.254253  0.325528  1
  F  F30  1  0.958319  0.259967  0.822955  1
  F  F31  1  0.469231  0.747563  0.677629  1
  F  F32  1  0.413748  0.964846  0.234101  1
  F  F33  1  0.913024  0.033031  0.265825  1
  F  F34  1  0.581328  0.019781  0.764126  1
  F  F35  1  0.063665  0.965405  0.736808  1
