# generated using pymatgen
data_Mg4SiP5Ir7
_symmetry_space_group_name_H-M   'P 1'
_cell_length_a   6.88450617
_cell_length_b   6.88450614
_cell_length_c   6.88450584
_cell_angle_alpha   109.78386365
_cell_angle_beta   108.84791730
_cell_angle_gamma   109.78385321
_symmetry_Int_Tables_number   1
_chemical_formula_structural   Mg4SiP5Ir7
_chemical_formula_sum   'Mg4 Si1 P5 Ir7'
_cell_volume   251.16377241
_cell_formula_units_Z   1
loop_
 _symmetry_equiv_pos_site_id
 _symmetry_equiv_pos_as_xyz
  1  'x, y, z'
loop_
 _atom_site_type_symbol
 _atom_site_label
 _atom_site_symmetry_multiplicity
 _atom_site_fract_x
 _atom_site_fract_y
 _atom_site_fract_z
 _atom_site_occupancy
  Mg  Mg0  1  0.500936  0.500399  0.500936  1
  Mg  Mg1  1  0.000538  0.000000  0.500936  1
  Mg  Mg2  1  0.500936  0.000000  0.000538  1
  Mg  Mg3  1  0.000538  0.499602  0.000538  1
  Si  Si4  1  0.312876  0.000000  0.312876  1
  P  P5  1  0.676143  0.000001  0.676143  1
  P  P6  1  0.000832  0.682774  0.683606  1
  P  P7  1  0.000831  0.317226  0.318057  1
  P  P8  1  0.683606  0.682774  0.000832  1
  P  P9  1  0.318057  0.317226  0.000831  1
  Ir  Ir10  1  0.999350  0.000000  0.999350  1
  Ir  Ir11  1  0.248995  0.748293  0.500701  1
  Ir  Ir12  1  0.251276  0.500000  0.751275  1
  Ir  Ir13  1  0.500701  0.748293  0.248995  1
  Ir  Ir14  1  0.500702  0.251706  0.752408  1
  Ir  Ir15  1  0.752408  0.251706  0.500702  1
  Ir  Ir16  1  0.751275  0.500000  0.251276  1
