# generated using pymatgen
data_Pr2ErTm5(WO6)4
_symmetry_space_group_name_H-M   'P 1'
_cell_length_a   5.41863700
_cell_length_b   7.73073150
_cell_length_c   11.48544244
_cell_angle_alpha   75.46994628
_cell_angle_beta   90.00000000
_cell_angle_gamma   90.00000000
_symmetry_Int_Tables_number   1
_chemical_formula_structural   Pr2ErTm5(WO6)4
_chemical_formula_sum   'Pr2 Er1 Tm5 W4 O24'
_cell_volume   465.73726794
_cell_formula_units_Z   1
loop_
 _symmetry_equiv_pos_site_id
 _symmetry_equiv_pos_as_xyz
  1  'x, y, z'
loop_
 _atom_site_type_symbol
 _atom_site_label
 _atom_site_symmetry_multiplicity
 _atom_site_fract_x
 _atom_site_fract_y
 _atom_site_fract_z
 _atom_site_occupancy
  Pr  Pr0  1  0.686259  0.500000  0.750000  1
  Pr  Pr1  1  0.313574  0.500000  0.250000  1
  Er  Er2  1  0.742571  0.000000  0.750000  1
  Tm  Tm3  1  0.257635  0.000000  0.250000  1
  Tm  Tm4  1  0.186525  0.798783  0.577007  1
  Tm  Tm5  1  0.813605  0.798871  0.077234  1
  Tm  Tm6  1  0.186525  0.201217  0.922993  1
  Tm  Tm7  1  0.813605  0.201129  0.422766  1
  W  W8  1  0.253378  0.728576  0.884571  1
  W  W9  1  0.746567  0.728923  0.384400  1
  W  W10  1  0.253378  0.271424  0.615429  1
  W  W11  1  0.746567  0.271077  0.115600  1
  O  O12  1  0.040729  0.942885  0.896553  1
  O  O13  1  0.535664  0.845783  0.931214  1
  O  O14  1  0.960321  0.943057  0.395981  1
  O  O15  1  0.455465  0.797026  0.725906  1
  O  O16  1  0.464077  0.846256  0.430779  1
  O  O17  1  0.987103  0.722403  0.768055  1
  O  O18  1  0.543624  0.797818  0.225909  1
  O  O19  1  0.858993  0.642856  0.545842  1
  O  O20  1  0.346094  0.492157  0.888376  1
  O  O21  1  0.013021  0.722833  0.267975  1
  O  O22  1  0.346094  0.507843  0.611624  1
  O  O23  1  0.858993  0.357144  0.954158  1
  O  O24  1  0.140764  0.642543  0.045967  1
  O  O25  1  0.654051  0.492424  0.388214  1
  O  O26  1  0.987103  0.277597  0.731945  1
  O  O27  1  0.654051  0.507576  0.111786  1
  O  O28  1  0.140764  0.357457  0.454033  1
  O  O29  1  0.455465  0.202974  0.774094  1
  O  O30  1  0.013021  0.277167  0.232025  1
  O  O31  1  0.535664  0.154217  0.568786  1
  O  O32  1  0.543624  0.202182  0.274091  1
  O  O33  1  0.040729  0.057115  0.603447  1
  O  O34  1  0.464077  0.153744  0.069221  1
  O  O35  1  0.960321  0.056943  0.104019  1
