# generated using pymatgen
data_Li2GaFeCl8
_symmetry_space_group_name_H-M   'P 1'
_cell_length_a   7.27323800
_cell_length_b   6.88536601
_cell_length_c   13.74764700
_cell_angle_alpha   89.43225592
_cell_angle_beta   89.69656067
_cell_angle_gamma   90.71120934
_symmetry_Int_Tables_number   1
_chemical_formula_structural   Li2GaFeCl8
_chemical_formula_sum   'Li4 Ga2 Fe2 Cl16'
_cell_volume   688.37017178
_cell_formula_units_Z   2
loop_
 _symmetry_equiv_pos_site_id
 _symmetry_equiv_pos_as_xyz
  1  'x, y, z'
loop_
 _atom_site_type_symbol
 _atom_site_label
 _atom_site_symmetry_multiplicity
 _atom_site_fract_x
 _atom_site_fract_y
 _atom_site_fract_z
 _atom_site_occupancy
  Li  Li0  1  0.436937  0.833646  0.860181  1
  Li  Li1  1  0.563063  0.166354  0.139819  1
  Li  Li2  1  0.935964  0.168595  0.636922  1
  Li  Li3  1  0.064036  0.831405  0.363078  1
  Ga  Ga4  1  0.178370  0.703889  0.605747  1
  Ga  Ga5  1  0.821630  0.296111  0.394253  1
  Fe  Fe6  1  0.677878  0.297055  0.895249  1
  Fe  Fe7  1  0.322122  0.702945  0.104751  1
  Cl  Cl8  1  0.167372  0.418949  0.678491  1
  Cl  Cl9  1  0.832628  0.581051  0.321509  1
  Cl  Cl10  1  0.666908  0.584373  0.823723  1
  Cl  Cl11  1  0.333092  0.415627  0.176277  1
  Cl  Cl12  1  0.336199  0.912245  0.694856  1
  Cl  Cl13  1  0.663801  0.087755  0.305144  1
  Cl  Cl14  1  0.830420  0.091181  0.803689  1
  Cl  Cl15  1  0.169580  0.908819  0.196311  1
  Cl  Cl16  1  0.200967  0.680994  0.957582  1
  Cl  Cl17  1  0.799033  0.319006  0.042418  1
  Cl  Cl18  1  0.698641  0.313657  0.540815  1
  Cl  Cl19  1  0.301359  0.686343  0.459185  1
  Cl  Cl20  1  0.901063  0.828122  0.586023  1
  Cl  Cl21  1  0.098937  0.171878  0.413977  1
  Cl  Cl22  1  0.398179  0.171769  0.916633  1
  Cl  Cl23  1  0.601821  0.828231  0.083367  1
