# generated using pymatgen
data_Ca4SiPd12
_symmetry_space_group_name_H-M   'P 1'
_cell_length_a   7.31746451
_cell_length_b   7.31746321
_cell_length_c   7.31746400
_cell_angle_alpha   109.47121727
_cell_angle_beta   109.47121368
_cell_angle_gamma   109.47122335
_symmetry_Int_Tables_number   1
_chemical_formula_structural   Ca4SiPd12
_chemical_formula_sum   'Ca4 Si1 Pd12'
_cell_volume   301.61984838
_cell_formula_units_Z   1
loop_
 _symmetry_equiv_pos_site_id
 _symmetry_equiv_pos_as_xyz
  1  'x, y, z'
loop_
 _atom_site_type_symbol
 _atom_site_label
 _atom_site_symmetry_multiplicity
 _atom_site_fract_x
 _atom_site_fract_y
 _atom_site_fract_z
 _atom_site_occupancy
  Ca  Ca0  1  0.000000  0.000000  0.500000  1
  Ca  Ca1  1  0.000000  0.500000  0.000000  1
  Ca  Ca2  1  0.500000  0.000000  0.000000  1
  Ca  Ca3  1  0.500000  0.500000  0.500000  1
  Si  Si4  1  0.000000  0.000000  0.000000  1
  Pd  Pd5  1  0.750000  0.250000  0.500000  1
  Pd  Pd6  1  0.750000  0.500000  0.250000  1
  Pd  Pd7  1  0.500000  0.250000  0.750000  1
  Pd  Pd8  1  0.250000  0.500000  0.750000  1
  Pd  Pd9  1  0.250000  0.750000  0.500000  1
  Pd  Pd10  1  0.500000  0.750000  0.250000  1
  Pd  Pd11  1  0.721857  0.721857  0.000000  1
  Pd  Pd12  1  0.278143  0.000000  0.278143  1
  Pd  Pd13  1  0.000000  0.278143  0.278143  1
  Pd  Pd14  1  0.278143  0.278143  0.000000  1
  Pd  Pd15  1  0.721857  0.000000  0.721857  1
  Pd  Pd16  1  0.000000  0.721857  0.721857  1
