# generated using pymatgen
data_LuOsI18
_symmetry_space_group_name_H-M   'P 1'
_cell_length_a   10.12795089
_cell_length_b   10.15341609
_cell_length_c   10.15789387
_cell_angle_alpha   89.05185161
_cell_angle_beta   89.07800915
_cell_angle_gamma   88.95366439
_symmetry_Int_Tables_number   1
_chemical_formula_structural   LuOsI18
_chemical_formula_sum   'Lu1 Os1 I18'
_cell_volume   1044.12231849
_cell_formula_units_Z   1
loop_
 _symmetry_equiv_pos_site_id
 _symmetry_equiv_pos_as_xyz
  1  'x, y, z'
loop_
 _atom_site_type_symbol
 _atom_site_label
 _atom_site_symmetry_multiplicity
 _atom_site_fract_x
 _atom_site_fract_y
 _atom_site_fract_z
 _atom_site_occupancy
  Lu  Lu0  1  0.000000  0.000000  0.000000  1
  Os  Os1  1  0.500000  0.500000  0.500000  1
  I  I2  1  0.765990  0.481078  0.502261  1
  I  I3  1  0.500846  0.765234  0.481069  1
  I  I4  1  0.481035  0.501712  0.765011  1
  I  I5  1  0.234010  0.518922  0.497739  1
  I  I6  1  0.499154  0.234766  0.518931  1
  I  I7  1  0.518965  0.498288  0.234989  1
  I  I8  1  0.882186  0.379276  0.746892  1
  I  I9  1  0.745549  0.881245  0.379043  1
  I  I10  1  0.379394  0.745967  0.882033  1
  I  I11  1  0.117814  0.620724  0.253108  1
  I  I12  1  0.254451  0.118755  0.620957  1
  I  I13  1  0.620606  0.254033  0.117967  1
  I  I14  1  0.015110  0.970887  0.707685  1
  I  I15  1  0.707223  0.015340  0.969269  1
  I  I16  1  0.969823  0.707566  0.014054  1
  I  I17  1  0.984890  0.029113  0.292315  1
  I  I18  1  0.292777  0.984660  0.030731  1
  I  I19  1  0.030177  0.292434  0.985946  1
