# generated using pymatgen
data_SmDy(Ni5Sn)2
_symmetry_space_group_name_H-M   'P 1'
_cell_length_a   8.06302200
_cell_length_b   4.89694600
_cell_length_c   10.26198900
_cell_angle_alpha   90.00000000
_cell_angle_beta   90.00000000
_cell_angle_gamma   90.00000000
_symmetry_Int_Tables_number   1
_chemical_formula_structural   SmDy(Ni5Sn)2
_chemical_formula_sum   'Sm2 Dy2 Ni20 Sn4'
_cell_volume   405.18625501
_cell_formula_units_Z   2
loop_
 _symmetry_equiv_pos_site_id
 _symmetry_equiv_pos_as_xyz
  1  'x, y, z'
loop_
 _atom_site_type_symbol
 _atom_site_label
 _atom_site_symmetry_multiplicity
 _atom_site_fract_x
 _atom_site_fract_y
 _atom_site_fract_z
 _atom_site_occupancy
  Sm  Sm0  1  0.749025  0.249999  0.558719  1
  Sm  Sm1  1  0.249025  0.249999  0.941281  1
  Dy  Dy2  1  0.751507  0.750001  0.059643  1
  Dy  Dy3  1  0.251506  0.750001  0.440356  1
  Ni  Ni4  1  0.911924  0.249999  0.018359  1
  Ni  Ni5  1  0.552789  0.249999  0.100957  1
  Ni  Ni6  1  0.065807  0.501188  0.190800  1
  Ni  Ni7  1  0.065807  0.998811  0.190800  1
  Ni  Ni8  1  0.812565  0.249999  0.244369  1
  Ni  Ni9  1  0.312565  0.249999  0.255631  1
  Ni  Ni10  1  0.565807  0.501188  0.309200  1
  Ni  Ni11  1  0.565807  0.998811  0.309200  1
  Ni  Ni12  1  0.052789  0.249999  0.399044  1
  Ni  Ni13  1  0.411924  0.249999  0.481641  1
  Ni  Ni14  1  0.582550  0.750001  0.516893  1
  Ni  Ni15  1  0.952198  0.750001  0.599807  1
  Ni  Ni16  1  0.433545  0.000454  0.690469  1
  Ni  Ni17  1  0.433545  0.499547  0.690469  1
  Ni  Ni18  1  0.687220  0.750001  0.744415  1
  Ni  Ni19  1  0.187220  0.750001  0.755585  1
  Ni  Ni20  1  0.933545  0.000454  0.809531  1
  Ni  Ni21  1  0.933545  0.499547  0.809531  1
  Ni  Ni22  1  0.452198  0.750001  0.900192  1
  Ni  Ni23  1  0.082550  0.750001  0.983107  1
  Sn  Sn24  1  0.359577  0.750001  0.140705  1
  Sn  Sn25  1  0.859577  0.750001  0.359295  1
  Sn  Sn26  1  0.141943  0.249999  0.639294  1
  Sn  Sn27  1  0.641943  0.249999  0.860706  1
