# generated using pymatgen
data_Sc8B24IrOs3
_symmetry_space_group_name_H-M   'P 1'
_cell_length_a   3.49398400
_cell_length_b   8.88432852
_cell_length_c   11.19815366
_cell_angle_alpha   90.03931098
_cell_angle_beta   90.00000000
_cell_angle_gamma   90.00000000
_symmetry_Int_Tables_number   1
_chemical_formula_structural   Sc8B24IrOs3
_chemical_formula_sum   'Sc8 B24 Ir1 Os3'
_cell_volume   347.60966376
_cell_formula_units_Z   1
loop_
 _symmetry_equiv_pos_site_id
 _symmetry_equiv_pos_as_xyz
  1  'x, y, z'
loop_
 _atom_site_type_symbol
 _atom_site_label
 _atom_site_symmetry_multiplicity
 _atom_site_fract_x
 _atom_site_fract_y
 _atom_site_fract_z
 _atom_site_occupancy
  Sc  Sc0  1  0.500000  0.314118  0.414613  1
  Sc  Sc1  1  0.500000  0.683032  0.590256  1
  Sc  Sc2  1  0.500000  0.182264  0.913170  1
  Sc  Sc3  1  0.500000  0.820783  0.082928  1
  Sc  Sc4  1  0.500000  0.442764  0.124801  1
  Sc  Sc5  1  0.500000  0.555382  0.874231  1
  Sc  Sc6  1  0.500000  0.055653  0.625907  1
  Sc  Sc7  1  0.500000  0.946050  0.374323  1
  B  B8  1  0.000000  0.101914  0.471875  1
  B  B9  1  0.000000  0.897311  0.528037  1
  B  B10  1  0.000000  0.397567  0.971930  1
  B  B11  1  0.000000  0.602698  0.028273  1
  B  B12  1  0.000000  0.130121  0.317758  1
  B  B13  1  0.000000  0.869724  0.682547  1
  B  B14  1  0.000000  0.369772  0.817501  1
  B  B15  1  0.000000  0.630702  0.181079  1
  B  B16  1  0.000000  0.053499  0.064671  1
  B  B17  1  0.000000  0.946744  0.935040  1
  B  B18  1  0.000000  0.446298  0.564559  1
  B  B19  1  0.000000  0.553487  0.435755  1
  B  B20  1  0.000000  0.479610  0.286766  1
  B  B21  1  0.000000  0.520213  0.713108  1
  B  B22  1  0.000000  0.020459  0.787023  1
  B  B23  1  0.000000  0.979672  0.213013  1
  B  B24  1  0.000000  0.252234  0.078338  1
  B  B25  1  0.000000  0.747816  0.921598  1
  B  B26  1  0.000000  0.247395  0.578500  1
  B  B27  1  0.000000  0.752865  0.422651  1
  B  B28  1  0.000000  0.294256  0.235810  1
  B  B29  1  0.000000  0.705642  0.764672  1
  B  B30  1  0.000000  0.205772  0.735230  1
  B  B31  1  0.000000  0.794259  0.263937  1
  Ir  Ir32  1  0.500000  0.638749  0.320996  1
  Os  Os33  1  0.500000  0.138661  0.179431  1
  Os  Os34  1  0.500000  0.861047  0.820560  1
  Os  Os35  1  0.500000  0.361467  0.679114  1
