# generated using pymatgen
data_Ho3Nb(P3Rh4)2
_symmetry_space_group_name_H-M   'P 1'
_cell_length_a   3.94604000
_cell_length_b   11.15969700
_cell_length_c   12.83372400
_cell_angle_alpha   90.00000000
_cell_angle_beta   90.00000000
_cell_angle_gamma   90.00000000
_symmetry_Int_Tables_number   1
_chemical_formula_structural   Ho3Nb(P3Rh4)2
_chemical_formula_sum   'Ho6 Nb2 P12 Rh16'
_cell_volume   565.15370826
_cell_formula_units_Z   2
loop_
 _symmetry_equiv_pos_site_id
 _symmetry_equiv_pos_as_xyz
  1  'x, y, z'
loop_
 _atom_site_type_symbol
 _atom_site_label
 _atom_site_symmetry_multiplicity
 _atom_site_fract_x
 _atom_site_fract_y
 _atom_site_fract_z
 _atom_site_occupancy
  Ho  Ho0  1  0.000000  0.500000  0.522431  1
  Ho  Ho1  1  0.500000  0.000000  0.477569  1
  Ho  Ho2  1  0.500000  0.818718  0.202308  1
  Ho  Ho3  1  0.500000  0.181282  0.202308  1
  Ho  Ho4  1  0.000000  0.681282  0.797692  1
  Ho  Ho5  1  0.000000  0.318718  0.797692  1
  Nb  Nb6  1  0.500000  0.500000  0.158452  1
  Nb  Nb7  1  0.000000  0.000000  0.841548  1
  P  P8  1  0.500000  0.314271  0.616911  1
  P  P9  1  0.500000  0.685729  0.616911  1
  P  P10  1  0.000000  0.185729  0.383089  1
  P  P11  1  0.000000  0.814271  0.383089  1
  P  P12  1  0.500000  0.500000  0.875968  1
  P  P13  1  0.000000  0.000000  0.124032  1
  P  P14  1  0.500000  0.844942  0.887487  1
  P  P15  1  0.500000  0.155058  0.887487  1
  P  P16  1  0.000000  0.655058  0.112513  1
  P  P17  1  0.000000  0.344942  0.112513  1
  P  P18  1  0.500000  0.500000  0.351930  1
  P  P19  1  0.000000  0.000000  0.648070  1
  Rh  Rh20  1  0.000000  0.500000  0.986580  1
  Rh  Rh21  1  0.500000  0.000000  0.013420  1
  Rh  Rh22  1  0.500000  0.293766  0.432068  1
  Rh  Rh23  1  0.500000  0.706234  0.432068  1
  Rh  Rh24  1  0.000000  0.206234  0.567932  1
  Rh  Rh25  1  0.000000  0.793766  0.567932  1
  Rh  Rh26  1  0.500000  0.873739  0.706429  1
  Rh  Rh27  1  0.500000  0.126261  0.706429  1
  Rh  Rh28  1  0.000000  0.626261  0.293571  1
  Rh  Rh29  1  0.000000  0.373739  0.293571  1
  Rh  Rh30  1  0.500000  0.331651  0.985203  1
  Rh  Rh31  1  0.500000  0.668349  0.985203  1
  Rh  Rh32  1  0.000000  0.168349  0.014797  1
  Rh  Rh33  1  0.000000  0.831651  0.014797  1
  Rh  Rh34  1  0.500000  0.500000  0.698278  1
  Rh  Rh35  1  0.000000  0.000000  0.301722  1
