# generated using pymatgen
data_Dy7Lu5Ga2(NiRu)2
_symmetry_space_group_name_H-M   'P 1'
_cell_length_a   8.26038920
_cell_length_b   8.26038922
_cell_length_c   8.27470271
_cell_angle_alpha   113.18780534
_cell_angle_beta   110.49417202
_cell_angle_gamma   104.76485531
_symmetry_Int_Tables_number   1
_chemical_formula_structural   Dy7Lu5Ga2(NiRu)2
_chemical_formula_sum   'Dy7 Lu5 Ga2 Ni2 Ru2'
_cell_volume   432.64861095
_cell_formula_units_Z   1
loop_
 _symmetry_equiv_pos_site_id
 _symmetry_equiv_pos_as_xyz
  1  'x, y, z'
loop_
 _atom_site_type_symbol
 _atom_site_label
 _atom_site_symmetry_multiplicity
 _atom_site_fract_x
 _atom_site_fract_y
 _atom_site_fract_z
 _atom_site_occupancy
  Dy  Dy0  1  0.436969  0.243117  0.192743  1
  Dy  Dy1  1  0.564600  0.757969  0.807722  1
  Dy  Dy2  1  0.049753  0.243122  0.807722  1
  Dy  Dy3  1  0.949626  0.755774  0.192743  1
  Dy  Dy4  1  0.178920  0.280426  0.459346  1
  Dy  Dy5  1  0.820219  0.719680  0.539899  1
  Dy  Dy6  1  0.179555  0.719545  0.899100  1
  Lu  Lu7  1  0.820509  0.279836  0.100345  1
  Lu  Lu8  1  0.330880  0.644513  0.313677  1
  Lu  Lu9  1  0.669280  0.354709  0.687257  1
  Lu  Lu10  1  0.332548  0.017978  0.687257  1
  Lu  Lu11  1  0.669164  0.982796  0.313677  1
  Ga  Ga12  1  0.499982  0.500130  0.000111  1
  Ga  Ga13  1  0.999182  0.001416  0.000598  1
  Ni  Ni14  1  0.120193  0.619786  0.498148  1
  Ni  Ni15  1  0.878362  0.377955  0.498148  1
  Ru  Ru16  1  0.330088  0.000037  0.330125  1
  Ru  Ru17  1  0.670172  0.001211  0.671383  1
