# generated using pymatgen
data_Cs2CrCuS4
_symmetry_space_group_name_H-M   'P 1'
_cell_length_a   14.10839635
_cell_length_b   12.53551285
_cell_length_c   7.55635147
_cell_angle_alpha   85.40078961
_cell_angle_beta   62.33203868
_cell_angle_gamma   32.26716696
_symmetry_Int_Tables_number   1
_chemical_formula_structural   Cs2CrCuS4
_chemical_formula_sum   'Cs4 Cr2 Cu2 S8'
_cell_volume   474.24673877
_cell_formula_units_Z   2
loop_
 _symmetry_equiv_pos_site_id
 _symmetry_equiv_pos_as_xyz
  1  'x, y, z'
loop_
 _atom_site_type_symbol
 _atom_site_label
 _atom_site_symmetry_multiplicity
 _atom_site_fract_x
 _atom_site_fract_y
 _atom_site_fract_z
 _atom_site_occupancy
  Cs  Cs0  1  0.678399  0.678399  0.321601  1
  Cs  Cs1  1  0.321601  0.321601  0.678399  1
  Cs  Cs2  1  0.928399  0.928399  0.571601  1
  Cs  Cs3  1  0.571601  0.571601  0.928399  1
  Cr  Cr4  1  0.750000  0.750000  0.750000  1
  Cr  Cr5  1  0.500000  0.500000  0.500000  1
  Cu  Cu6  1  0.000000  0.000000  0.000000  1
  Cu  Cu7  1  0.250000  0.250000  0.250000  1
  S  S8  1  0.382730  0.016756  0.941278  1
  S  S9  1  0.659237  0.941278  0.016756  1
  S  S10  1  0.941278  0.659237  0.382730  1
  S  S11  1  0.016756  0.382730  0.659237  1
  S  S12  1  0.233244  0.867270  0.590763  1
  S  S13  1  0.590763  0.308722  0.233244  1
  S  S14  1  0.308722  0.590763  0.867270  1
  S  S15  1  0.867270  0.233244  0.308722  1
