# generated using pymatgen
data_Ho12Er8Ir11Ru
_symmetry_space_group_name_H-M   'P 1'
_cell_length_a   10.79701100
_cell_length_b   10.79557100
_cell_length_c   6.36254200
_cell_angle_alpha   90.00000000
_cell_angle_beta   90.00000000
_cell_angle_gamma   89.99901290
_symmetry_Int_Tables_number   1
_chemical_formula_structural   Ho12Er8Ir11Ru
_chemical_formula_sum   'Ho12 Er8 Ir11 Ru1'
_cell_volume   741.61725182
_cell_formula_units_Z   1
loop_
 _symmetry_equiv_pos_site_id
 _symmetry_equiv_pos_as_xyz
  1  'x, y, z'
loop_
 _atom_site_type_symbol
 _atom_site_label
 _atom_site_symmetry_multiplicity
 _atom_site_fract_x
 _atom_site_fract_y
 _atom_site_fract_z
 _atom_site_occupancy
  Ho  Ho0  1  0.292159  0.086983  0.376126  1
  Ho  Ho1  1  0.292489  0.912941  0.879127  1
  Ho  Ho2  1  0.707511  0.087059  0.879127  1
  Ho  Ho3  1  0.707841  0.913017  0.376126  1
  Ho  Ho4  1  0.587030  0.792524  0.879203  1
  Ho  Ho5  1  0.586937  0.207812  0.376203  1
  Ho  Ho6  1  0.413063  0.792188  0.376203  1
  Ho  Ho7  1  0.412970  0.207476  0.879203  1
  Ho  Ho8  1  0.209151  0.411956  0.622476  1
  Ho  Ho9  1  0.209130  0.587893  0.122112  1
  Ho  Ho10  1  0.790870  0.412107  0.122112  1
  Ho  Ho11  1  0.790849  0.588044  0.622476  1
  Er  Er12  1  0.912189  0.709093  0.121952  1
  Er  Er13  1  0.912034  0.290871  0.622340  1
  Er  Er14  1  0.087966  0.709129  0.622340  1
  Er  Er15  1  0.087811  0.290907  0.121952  1
  Er  Er16  1  0.000000  0.000000  0.499402  1
  Er  Er17  1  0.000000  0.000000  0.999377  1
  Er  Er18  1  0.500000  0.500000  0.999386  1
  Er  Er19  1  0.500000  0.500000  0.499402  1
  Ir  Ir20  1  0.847416  0.153688  0.250233  1
  Ir  Ir21  1  0.847436  0.846689  0.749968  1
  Ir  Ir22  1  0.152564  0.153311  0.749968  1
  Ir  Ir23  1  0.152584  0.846312  0.250233  1
  Ir  Ir24  1  0.653333  0.347208  0.749646  1
  Ir  Ir25  1  0.653711  0.652811  0.249915  1
  Ir  Ir26  1  0.346289  0.347189  0.249915  1
  Ir  Ir27  1  0.346667  0.652792  0.749646  1
  Ir  Ir28  1  0.500000  0.000000  0.622986  1
  Ir  Ir29  1  0.000000  0.500000  0.878522  1
  Ir  Ir30  1  0.000000  0.500000  0.378600  1
  Ru  Ru31  1  0.500000  0.000000  0.123717  1
