# generated using pymatgen
data_Bi6Sb2IrO18
_symmetry_space_group_name_H-M   'P 1'
_cell_length_a   9.31946000
_cell_length_b   9.31945991
_cell_length_c   5.34449100
_cell_angle_alpha   90.00000000
_cell_angle_beta   90.00000000
_cell_angle_gamma   120.00000034
_symmetry_Int_Tables_number   1
_chemical_formula_structural   Bi6Sb2IrO18
_chemical_formula_sum   'Bi6 Sb2 Ir1 O18'
_cell_volume   401.99298377
_cell_formula_units_Z   1
loop_
 _symmetry_equiv_pos_site_id
 _symmetry_equiv_pos_as_xyz
  1  'x, y, z'
loop_
 _atom_site_type_symbol
 _atom_site_label
 _atom_site_symmetry_multiplicity
 _atom_site_fract_x
 _atom_site_fract_y
 _atom_site_fract_z
 _atom_site_occupancy
  Bi  Bi0  1  0.000000  0.377927  0.500000  1
  Bi  Bi1  1  0.285491  0.285491  0.000000  1
  Bi  Bi2  1  0.000000  0.714509  0.000000  1
  Bi  Bi3  1  0.622073  0.622073  0.500000  1
  Bi  Bi4  1  0.377927  0.000000  0.500000  1
  Bi  Bi5  1  0.714509  0.000000  0.000000  1
  Sb  Sb6  1  0.333333  0.666667  0.003289  1
  Sb  Sb7  1  0.666667  0.333333  0.996711  1
  Ir  Ir8  1  0.000000  0.000000  0.500000  1
  O  O9  1  0.077626  0.196213  0.707773  1
  O  O10  1  0.226255  0.460814  0.218444  1
  O  O11  1  0.129924  0.596592  0.787835  1
  O  O12  1  0.403408  0.533332  0.787835  1
  O  O13  1  0.234560  0.773745  0.218444  1
  O  O14  1  0.118586  0.922374  0.707773  1
  O  O15  1  0.539186  0.765440  0.218444  1
  O  O16  1  0.196213  0.077626  0.292227  1
  O  O17  1  0.466668  0.870076  0.787835  1
  O  O18  1  0.803787  0.881414  0.707773  1
  O  O19  1  0.460814  0.226255  0.781556  1
  O  O20  1  0.596592  0.129924  0.212165  1
  O  O21  1  0.533332  0.403408  0.212165  1
  O  O22  1  0.773745  0.234560  0.781556  1
  O  O23  1  0.922374  0.118586  0.292227  1
  O  O24  1  0.765440  0.539186  0.781556  1
  O  O25  1  0.870076  0.466668  0.212165  1
  O  O26  1  0.881414  0.803787  0.292227  1
