# generated using pymatgen
data_Cs4PaMoCl12
_symmetry_space_group_name_H-M   'P 1'
_cell_length_a   7.47543400
_cell_length_b   7.47543400
_cell_length_c   11.04727400
_cell_angle_alpha   90.00000000
_cell_angle_beta   90.00000000
_cell_angle_gamma   90.00000000
_symmetry_Int_Tables_number   1
_chemical_formula_structural   Cs4PaMoCl12
_chemical_formula_sum   'Cs4 Pa1 Mo1 Cl12'
_cell_volume   617.34501940
_cell_formula_units_Z   1
loop_
 _symmetry_equiv_pos_site_id
 _symmetry_equiv_pos_as_xyz
  1  'x, y, z'
loop_
 _atom_site_type_symbol
 _atom_site_label
 _atom_site_symmetry_multiplicity
 _atom_site_fract_x
 _atom_site_fract_y
 _atom_site_fract_z
 _atom_site_occupancy
  Cs  Cs0  1  0.500000  0.000000  0.780068  1
  Cs  Cs1  1  0.000000  0.500000  0.219932  1
  Cs  Cs2  1  0.500000  0.000000  0.219932  1
  Cs  Cs3  1  0.000000  0.500000  0.780068  1
  Pa  Pa4  1  0.500000  0.500000  0.500000  1
  Mo  Mo5  1  0.000000  0.000000  0.000000  1
  Cl  Cl6  1  0.000000  0.000000  0.778830  1
  Cl  Cl7  1  0.500000  0.500000  0.263785  1
  Cl  Cl8  1  0.743913  0.743913  0.500000  1
  Cl  Cl9  1  0.231231  0.231231  0.000000  1
  Cl  Cl10  1  0.743913  0.256087  0.500000  1
  Cl  Cl11  1  0.231231  0.768769  0.000000  1
  Cl  Cl12  1  0.000000  0.000000  0.221170  1
  Cl  Cl13  1  0.500000  0.500000  0.736215  1
  Cl  Cl14  1  0.256087  0.256087  0.500000  1
  Cl  Cl15  1  0.768769  0.768769  0.000000  1
  Cl  Cl16  1  0.256087  0.743913  0.500000  1
  Cl  Cl17  1  0.768769  0.231231  0.000000  1
