# generated using pymatgen
data_Zr8Ga15Os7
_symmetry_space_group_name_H-M   'P 1'
_cell_length_a   8.92934104
_cell_length_b   8.92934123
_cell_length_c   8.92934000
_cell_angle_alpha   120.10002596
_cell_angle_beta   119.99572854
_cell_angle_gamma   89.91712014
_symmetry_Int_Tables_number   1
_chemical_formula_structural   Zr8Ga15Os7
_chemical_formula_sum   'Zr8 Ga15 Os7'
_cell_volume   503.06933237
_cell_formula_units_Z   1
loop_
 _symmetry_equiv_pos_site_id
 _symmetry_equiv_pos_as_xyz
  1  'x, y, z'
loop_
 _atom_site_type_symbol
 _atom_site_label
 _atom_site_symmetry_multiplicity
 _atom_site_fract_x
 _atom_site_fract_y
 _atom_site_fract_z
 _atom_site_occupancy
  Zr  Zr0  1  0.802598  0.283339  0.068526  1
  Zr  Zr1  1  0.214779  0.283292  0.480721  1
  Zr  Zr2  1  0.202389  0.702380  0.500042  1
  Zr  Zr3  1  0.214795  0.734045  0.931450  1
  Zr  Zr4  1  0.802600  0.734060  0.519280  1
  Zr  Zr5  1  0.768895  0.268907  0.499947  1
  Zr  Zr6  1  0.378005  0.122521  0.744524  1
  Zr  Zr7  1  0.377995  0.633496  0.255474  1
  Ga  Ga8  1  0.986844  0.486824  0.499986  1
  Ga  Ga9  1  0.160921  0.342821  0.181926  1
  Ga  Ga10  1  0.160898  0.978999  0.818095  1
  Ga  Ga11  1  0.152690  0.349633  0.803069  1
  Ga  Ga12  1  0.546554  0.349650  0.196921  1
  Ga  Ga13  1  0.843379  0.653402  0.810047  1
  Ga  Ga14  1  0.843354  0.033338  0.189947  1
  Ga  Ga15  1  0.841362  0.655937  0.185427  1
  Ga  Ga16  1  0.470512  0.655928  0.814578  1
  Ga  Ga17  1  0.374397  0.125245  0.249132  1
  Ga  Ga18  1  0.876119  0.125274  0.750849  1
  Ga  Ga19  1  0.617373  0.864013  0.246632  1
  Ga  Ga20  1  0.617388  0.370745  0.753374  1
  Ga  Ga21  1  0.613669  0.875844  0.737837  1
  Ga  Ga22  1  0.138007  0.875833  0.262167  1
  Os  Os23  1  0.992996  0.998326  0.499298  1
  Os  Os24  1  0.499000  0.998327  0.005311  1
  Os  Os25  1  0.498640  0.498649  0.000007  1
  Os  Os26  1  0.499031  0.493670  0.500706  1
  Os  Os27  1  0.993030  0.493707  0.994713  1
  Os  Os28  1  0.999283  0.999312  0.999990  1
  Os  Os29  1  0.512492  0.012483  0.500025  1
