# generated using pymatgen
data_Er5Bi3C
_symmetry_space_group_name_H-M   'P 1'
_cell_length_a   9.09791200
_cell_length_b   9.09791208
_cell_length_c   6.43966800
_cell_angle_alpha   90.00000000
_cell_angle_beta   90.00000000
_cell_angle_gamma   119.99999973
_symmetry_Int_Tables_number   1
_chemical_formula_structural   Er5Bi3C
_chemical_formula_sum   'Er10 Bi6 C2'
_cell_volume   461.61251823
_cell_formula_units_Z   2
loop_
 _symmetry_equiv_pos_site_id
 _symmetry_equiv_pos_as_xyz
  1  'x, y, z'
loop_
 _atom_site_type_symbol
 _atom_site_label
 _atom_site_symmetry_multiplicity
 _atom_site_fract_x
 _atom_site_fract_y
 _atom_site_fract_z
 _atom_site_occupancy
  Er  Er0  1  0.666667  0.333333  0.000000  1
  Er  Er1  1  0.333333  0.666667  0.000000  1
  Er  Er2  1  0.333333  0.666667  0.500000  1
  Er  Er3  1  0.666667  0.333333  0.500000  1
  Er  Er4  1  0.793434  0.793434  0.750000  1
  Er  Er5  1  0.206566  0.000000  0.750000  1
  Er  Er6  1  0.000000  0.206566  0.750000  1
  Er  Er7  1  0.206566  0.206566  0.250000  1
  Er  Er8  1  0.793434  0.000000  0.250000  1
  Er  Er9  1  0.000000  0.793434  0.250000  1
  Bi  Bi10  1  0.401833  0.401833  0.750000  1
  Bi  Bi11  1  0.598167  0.000000  0.750000  1
  Bi  Bi12  1  0.000000  0.598167  0.750000  1
  Bi  Bi13  1  0.598167  0.598167  0.250000  1
  Bi  Bi14  1  0.401833  0.000000  0.250000  1
  Bi  Bi15  1  0.000000  0.401833  0.250000  1
  C  C16  1  0.000000  0.000000  0.000000  1
  C  C17  1  0.000000  0.000000  0.500000  1
