# generated using pymatgen
data_Hg3O2
_symmetry_space_group_name_H-M   'P 1'
_cell_length_a   3.82693951
_cell_length_b   6.36773002
_cell_length_c   6.06215849
_cell_angle_alpha   95.16242959
_cell_angle_beta   107.74745692
_cell_angle_gamma   101.39660751
_symmetry_Int_Tables_number   1
_chemical_formula_structural   Hg3O2
_chemical_formula_sum   'Hg3 O2'
_cell_volume   136.12677036
_cell_formula_units_Z   1
loop_
 _symmetry_equiv_pos_site_id
 _symmetry_equiv_pos_as_xyz
  1  'x, y, z'
loop_
 _atom_site_type_symbol
 _atom_site_label
 _atom_site_symmetry_multiplicity
 _atom_site_fract_x
 _atom_site_fract_y
 _atom_site_fract_z
 _atom_site_occupancy
  Hg  Hg0  1  0.734265  0.994045  0.853555  1
  Hg  Hg1  1  0.538383  0.060786  0.417201  1
  Hg  Hg2  1  0.637803  0.527064  0.135445  1
  O  O3  1  0.417042  0.206110  0.094012  1
  O  O4  1  0.858935  0.848268  0.177707  1
