# generated using pymatgen
data_La4Ga5Ir8Rh
_symmetry_space_group_name_H-M   'P 1'
_cell_length_a   12.40413774
_cell_length_b   12.40294355
_cell_length_c   12.40413715
_cell_angle_alpha   26.44374485
_cell_angle_beta   26.48870598
_cell_angle_gamma   26.44373863
_symmetry_Int_Tables_number   1
_chemical_formula_structural   La4Ga5Ir8Rh
_chemical_formula_sum   'La4 Ga5 Ir8 Rh1'
_cell_volume   333.91047936
_cell_formula_units_Z   1
loop_
 _symmetry_equiv_pos_site_id
 _symmetry_equiv_pos_as_xyz
  1  'x, y, z'
loop_
 _atom_site_type_symbol
 _atom_site_label
 _atom_site_symmetry_multiplicity
 _atom_site_fract_x
 _atom_site_fract_y
 _atom_site_fract_z
 _atom_site_occupancy
  La  La0  1  0.950312  0.950216  0.950312  1
  La  La1  1  0.049688  0.049784  0.049688  1
  La  La2  1  0.853415  0.853200  0.853415  1
  La  La3  1  0.146585  0.146800  0.146585  1
  Ga  Ga4  1  0.500000  0.500000  0.500000  1
  Ga  Ga5  1  0.721195  0.720986  0.721195  1
  Ga  Ga6  1  0.278805  0.279014  0.278805  1
  Ga  Ga7  1  0.611953  0.611838  0.611953  1
  Ga  Ga8  1  0.388047  0.388162  0.388047  1
  Ir  Ir9  1  0.500000  0.500000  0.000000  1
  Ir  Ir10  1  0.000000  0.500000  0.500000  1
  Ir  Ir11  1  0.388950  0.894449  0.388950  1
  Ir  Ir12  1  0.389030  0.388775  0.894175  1
  Ir  Ir13  1  0.894175  0.388775  0.389030  1
  Ir  Ir14  1  0.611050  0.105551  0.611050  1
  Ir  Ir15  1  0.610970  0.611225  0.105825  1
  Ir  Ir16  1  0.105825  0.611225  0.610970  1
  Rh  Rh17  1  0.500000  0.000000  0.500000  1
