# generated using pymatgen
data_Hf4ZrSb9
_symmetry_space_group_name_H-M   'P 1'
_cell_length_a   8.88653500
_cell_length_b   8.88653500
_cell_length_c   8.69509200
_cell_angle_alpha   90.00000000
_cell_angle_beta   90.00000000
_cell_angle_gamma   90.00000000
_symmetry_Int_Tables_number   1
_chemical_formula_structural   Hf4ZrSb9
_chemical_formula_sum   'Hf8 Zr2 Sb18'
_cell_volume   686.65580023
_cell_formula_units_Z   2
loop_
 _symmetry_equiv_pos_site_id
 _symmetry_equiv_pos_as_xyz
  1  'x, y, z'
loop_
 _atom_site_type_symbol
 _atom_site_label
 _atom_site_symmetry_multiplicity
 _atom_site_fract_x
 _atom_site_fract_y
 _atom_site_fract_z
 _atom_site_occupancy
  Hf  Hf0  1  0.105468  0.792442  0.266141  1
  Hf  Hf1  1  0.394532  0.707558  0.733859  1
  Hf  Hf2  1  0.292442  0.394532  0.266141  1
  Hf  Hf3  1  0.894532  0.207558  0.266141  1
  Hf  Hf4  1  0.605468  0.292442  0.733859  1
  Hf  Hf5  1  0.207558  0.105468  0.733859  1
  Hf  Hf6  1  0.707558  0.605468  0.266141  1
  Hf  Hf7  1  0.792442  0.894532  0.733859  1
  Zr  Zr8  1  0.500000  0.000000  0.254013  1
  Zr  Zr9  1  0.000000  0.500000  0.745987  1
  Sb  Sb10  1  0.418434  0.231055  0.000590  1
  Sb  Sb11  1  0.768945  0.418434  0.999410  1
  Sb  Sb12  1  0.195842  0.097014  0.378072  1
  Sb  Sb13  1  0.097014  0.804158  0.621928  1
  Sb  Sb14  1  0.304158  0.402986  0.621928  1
  Sb  Sb15  1  0.402986  0.695842  0.378072  1
  Sb  Sb16  1  0.581566  0.768945  0.000590  1
  Sb  Sb17  1  0.000000  0.500000  0.386011  1
  Sb  Sb18  1  0.695842  0.597014  0.621928  1
  Sb  Sb19  1  0.918434  0.731055  0.999410  1
  Sb  Sb20  1  0.231055  0.581566  0.999410  1
  Sb  Sb21  1  0.081566  0.268945  0.999410  1
  Sb  Sb22  1  0.597014  0.304158  0.378072  1
  Sb  Sb23  1  0.500000  0.000000  0.613989  1
  Sb  Sb24  1  0.731055  0.081566  0.000590  1
  Sb  Sb25  1  0.902986  0.195842  0.621928  1
  Sb  Sb26  1  0.268945  0.918434  0.000590  1
  Sb  Sb27  1  0.804158  0.902986  0.378072  1
