# generated using pymatgen
data_Tm12Mn(Si4Ru)3
_symmetry_space_group_name_H-M   'P 1'
_cell_length_a   4.14340400
_cell_length_b   10.65505155
_cell_length_c   12.24320248
_cell_angle_alpha   89.96931899
_cell_angle_beta   90.00000000
_cell_angle_gamma   90.00000000
_symmetry_Int_Tables_number   1
_chemical_formula_structural   Tm12Mn(Si4Ru)3
_chemical_formula_sum   'Tm12 Mn1 Si12 Ru3'
_cell_volume   540.51506906
_cell_formula_units_Z   1
loop_
 _symmetry_equiv_pos_site_id
 _symmetry_equiv_pos_as_xyz
  1  'x, y, z'
loop_
 _atom_site_type_symbol
 _atom_site_label
 _atom_site_symmetry_multiplicity
 _atom_site_fract_x
 _atom_site_fract_y
 _atom_site_fract_z
 _atom_site_occupancy
  Tm  Tm0  1  0.250000  0.880259  0.020544  1
  Tm  Tm1  1  0.250000  0.620770  0.521150  1
  Tm  Tm2  1  0.750000  0.120787  0.980347  1
  Tm  Tm3  1  0.750000  0.379264  0.477502  1
  Tm  Tm4  1  0.250000  0.921337  0.604580  1
  Tm  Tm5  1  0.250000  0.578626  0.104686  1
  Tm  Tm6  1  0.750000  0.077584  0.394298  1
  Tm  Tm7  1  0.750000  0.422029  0.896224  1
  Tm  Tm8  1  0.250000  0.662681  0.800670  1
  Tm  Tm9  1  0.250000  0.836939  0.299887  1
  Tm  Tm10  1  0.750000  0.337424  0.200383  1
  Tm  Tm11  1  0.750000  0.161564  0.700672  1
  Mn  Mn12  1  0.250000  0.388081  0.681061  1
  Si  Si13  1  0.250000  0.012407  0.821905  1
  Si  Si14  1  0.250000  0.488141  0.322322  1
  Si  Si15  1  0.750000  0.986120  0.178165  1
  Si  Si16  1  0.750000  0.515614  0.676377  1
  Si  Si17  1  0.250000  0.250220  0.843250  1
  Si  Si18  1  0.250000  0.249618  0.341743  1
  Si  Si19  1  0.750000  0.750157  0.157641  1
  Si  Si20  1  0.750000  0.751158  0.658612  1
  Si  Si21  1  0.250000  0.195954  0.541468  1
  Si  Si22  1  0.250000  0.301179  0.043350  1
  Si  Si23  1  0.750000  0.800303  0.457130  1
  Si  Si24  1  0.750000  0.701449  0.957438  1
  Ru  Ru25  1  0.250000  0.110192  0.179975  1
  Ru  Ru26  1  0.750000  0.609978  0.318601  1
  Ru  Ru27  1  0.750000  0.890165  0.820017  1
