# generated using pymatgen
data_Lu3TaB4(Ru5W)2
_symmetry_space_group_name_H-M   'P 1'
_cell_length_a   9.52054773
_cell_length_b   9.52054757
_cell_length_c   3.08228900
_cell_angle_alpha   90.00000000
_cell_angle_beta   90.00000000
_cell_angle_gamma   90.09708449
_symmetry_Int_Tables_number   1
_chemical_formula_structural   Lu3TaB4(Ru5W)2
_chemical_formula_sum   'Lu3 Ta1 B4 Ru10 W2'
_cell_volume   279.38082453
_cell_formula_units_Z   1
loop_
 _symmetry_equiv_pos_site_id
 _symmetry_equiv_pos_as_xyz
  1  'x, y, z'
loop_
 _atom_site_type_symbol
 _atom_site_label
 _atom_site_symmetry_multiplicity
 _atom_site_fract_x
 _atom_site_fract_y
 _atom_site_fract_z
 _atom_site_occupancy
  Lu  Lu0  1  0.824689  0.675034  0.000000  1
  Lu  Lu1  1  0.175034  0.324689  0.000000  1
  Lu  Lu2  1  0.324908  0.824908  0.000000  1
  Ta  Ta3  1  0.676137  0.176137  0.000000  1
  B  B4  1  0.622801  0.880663  0.000000  1
  B  B5  1  0.380663  0.122801  0.000000  1
  B  B6  1  0.118026  0.618026  0.000000  1
  B  B7  1  0.877414  0.377414  0.000000  1
  Ru  Ru8  1  0.570873  0.718791  0.500000  1
  Ru  Ru9  1  0.439268  0.282976  0.500000  1
  Ru  Ru10  1  0.068251  0.783046  0.500000  1
  Ru  Ru11  1  0.919102  0.211870  0.500000  1
  Ru  Ru12  1  0.283046  0.568251  0.500000  1
  Ru  Ru13  1  0.711870  0.419102  0.500000  1
  Ru  Ru14  1  0.218791  0.070873  0.500000  1
  Ru  Ru15  1  0.782976  0.939268  0.500000  1
  Ru  Ru16  1  0.508292  0.008292  0.500000  1
  Ru  Ru17  1  0.996510  0.496510  0.500000  1
  W  W18  1  0.497502  0.503847  0.000000  1
  W  W19  1  0.003847  0.997502  0.000000  1
