# generated using pymatgen
data_Y5Er3(TcB6)4
_symmetry_space_group_name_H-M   'P 1'
_cell_length_a   3.67786700
_cell_length_b   9.15657101
_cell_length_c   11.54547801
_cell_angle_alpha   90.00401350
_cell_angle_beta   90.00000000
_cell_angle_gamma   90.00000000
_symmetry_Int_Tables_number   1
_chemical_formula_structural   Y5Er3(TcB6)4
_chemical_formula_sum   'Y5 Er3 Tc4 B24'
_cell_volume   388.81302484
_cell_formula_units_Z   1
loop_
 _symmetry_equiv_pos_site_id
 _symmetry_equiv_pos_as_xyz
  1  'x, y, z'
loop_
 _atom_site_type_symbol
 _atom_site_label
 _atom_site_symmetry_multiplicity
 _atom_site_fract_x
 _atom_site_fract_y
 _atom_site_fract_z
 _atom_site_occupancy
  Y  Y0  1  0.000000  0.323764  0.414355  1
  Y  Y1  1  0.000000  0.676117  0.586003  1
  Y  Y2  1  0.000000  0.823470  0.085430  1
  Y  Y3  1  0.000000  0.176563  0.914183  1
  Y  Y4  1  0.000000  0.942970  0.369703  1
  Er  Er5  1  0.000000  0.057555  0.631564  1
  Er  Er6  1  0.000000  0.442660  0.130604  1
  Er  Er7  1  0.000000  0.557268  0.868933  1
  Tc  Tc8  1  0.000000  0.637940  0.319641  1
  Tc  Tc9  1  0.000000  0.361111  0.680526  1
  Tc  Tc10  1  0.000000  0.139503  0.179396  1
  Tc  Tc11  1  0.000000  0.860956  0.819978  1
  B  B12  1  0.500000  0.553059  0.432661  1
  B  B13  1  0.500000  0.446254  0.567554  1
  B  B14  1  0.500000  0.053796  0.067022  1
  B  B15  1  0.500000  0.946367  0.932511  1
  B  B16  1  0.500000  0.748501  0.418280  1
  B  B17  1  0.500000  0.250586  0.582021  1
  B  B18  1  0.500000  0.249865  0.081593  1
  B  B19  1  0.500000  0.750296  0.918186  1
  B  B20  1  0.500000  0.791400  0.264827  1
  B  B21  1  0.500000  0.207994  0.734893  1
  B  B22  1  0.500000  0.292577  0.234543  1
  B  B23  1  0.500000  0.707821  0.765304  1
  B  B24  1  0.500000  0.629878  0.185036  1
  B  B25  1  0.500000  0.369806  0.814718  1
  B  B26  1  0.500000  0.131180  0.314264  1
  B  B27  1  0.500000  0.869707  0.685568  1
  B  B28  1  0.500000  0.982555  0.211411  1
  B  B29  1  0.500000  0.017814  0.788036  1
  B  B30  1  0.500000  0.481852  0.287758  1
  B  B31  1  0.500000  0.517832  0.712097  1
  B  B32  1  0.500000  0.598632  0.027341  1
  B  B33  1  0.500000  0.401384  0.972347  1
  B  B34  1  0.500000  0.100247  0.473093  1
  B  B35  1  0.500000  0.900721  0.528620  1
