# generated using pymatgen
data_Sc2Fe(SeO3)4
_symmetry_space_group_name_H-M   'P 1'
_cell_length_a   8.45469500
_cell_length_b   8.40414220
_cell_length_c   8.58269852
_cell_angle_alpha   87.29480092
_cell_angle_beta   90.00000000
_cell_angle_gamma   90.00000000
_symmetry_Int_Tables_number   1
_chemical_formula_structural   Sc2Fe(SeO3)4
_chemical_formula_sum   'Sc4 Fe2 Se8 O24'
_cell_volume   609.15939361
_cell_formula_units_Z   2
loop_
 _symmetry_equiv_pos_site_id
 _symmetry_equiv_pos_as_xyz
  1  'x, y, z'
loop_
 _atom_site_type_symbol
 _atom_site_label
 _atom_site_symmetry_multiplicity
 _atom_site_fract_x
 _atom_site_fract_y
 _atom_site_fract_z
 _atom_site_occupancy
  Sc  Sc0  1  0.763402  0.749946  0.000993  1
  Sc  Sc1  1  0.738184  0.244227  0.508492  1
  Sc  Sc2  1  0.236598  0.249946  0.000993  1
  Sc  Sc3  1  0.261816  0.744227  0.508492  1
  Fe  Fe4  1  0.596085  0.344969  0.161285  1
  Fe  Fe5  1  0.403915  0.844969  0.161285  1
  Se  Se6  1  0.099697  0.553664  0.195318  1
  Se  Se7  1  0.900303  0.053664  0.195318  1
  Se  Se8  1  0.570352  0.450706  0.825195  1
  Se  Se9  1  0.327195  0.162045  0.409039  1
  Se  Se10  1  0.057565  0.419727  0.678056  1
  Se  Se11  1  0.429648  0.950706  0.825195  1
  Se  Se12  1  0.672805  0.662045  0.409039  1
  Se  Se13  1  0.942435  0.919727  0.678056  1
  O  O14  1  0.962412  0.687676  0.121932  1
  O  O15  1  0.312093  0.004886  0.985727  1
  O  O16  1  0.161110  0.266799  0.776215  1
  O  O17  1  0.667705  0.460801  0.363303  1
  O  O18  1  0.759168  0.186446  0.265467  1
  O  O19  1  0.192184  0.493070  0.030684  1
  O  O20  1  0.210990  0.512502  0.576552  1
  O  O21  1  0.622087  0.751871  0.225888  1
  O  O22  1  0.705707  0.352645  0.720559  1
  O  O23  1  0.332295  0.960801  0.363303  1
  O  O24  1  0.971312  0.316756  0.530632  1
  O  O25  1  0.480883  0.297336  0.937888  1
  O  O26  1  0.838890  0.766799  0.776215  1
  O  O27  1  0.505416  0.684628  0.512677  1
  O  O28  1  0.294293  0.852645  0.720559  1
  O  O29  1  0.240832  0.686446  0.265467  1
  O  O30  1  0.377913  0.251871  0.225888  1
  O  O31  1  0.037588  0.187676  0.121932  1
  O  O32  1  0.028688  0.816756  0.530632  1
  O  O33  1  0.519117  0.797336  0.937888  1
  O  O34  1  0.687907  0.504885  0.985727  1
  O  O35  1  0.789010  0.012502  0.576552  1
  O  O36  1  0.494584  0.184628  0.512677  1
  O  O37  1  0.807816  0.993070  0.030684  1
