# generated using pymatgen
data_Y3LuSc3AlPt4
_symmetry_space_group_name_H-M   'P 1'
_cell_length_a   4.51531800
_cell_length_b   7.04848034
_cell_length_c   8.28861182
_cell_angle_alpha   86.64567868
_cell_angle_beta   90.00000000
_cell_angle_gamma   90.00000000
_symmetry_Int_Tables_number   1
_chemical_formula_structural   Y3LuSc3AlPt4
_chemical_formula_sum   'Y3 Lu1 Sc3 Al1 Pt4'
_cell_volume   263.34250384
_cell_formula_units_Z   1
loop_
 _symmetry_equiv_pos_site_id
 _symmetry_equiv_pos_as_xyz
  1  'x, y, z'
loop_
 _atom_site_type_symbol
 _atom_site_label
 _atom_site_symmetry_multiplicity
 _atom_site_fract_x
 _atom_site_fract_y
 _atom_site_fract_z
 _atom_site_occupancy
  Y  Y0  1  0.250000  0.041598  0.671813  1
  Y  Y1  1  0.250000  0.519540  0.814478  1
  Y  Y2  1  0.750000  0.990197  0.339356  1
  Lu  Lu3  1  0.750000  0.466081  0.182283  1
  Sc  Sc4  1  0.250000  0.132371  0.071620  1
  Sc  Sc5  1  0.250000  0.641150  0.433475  1
  Sc  Sc6  1  0.750000  0.859696  0.931573  1
  Al  Al7  1  0.750000  0.363227  0.566093  1
  Pt  Pt8  1  0.250000  0.270522  0.380233  1
  Pt  Pt9  1  0.250000  0.742732  0.102627  1
  Pt  Pt10  1  0.750000  0.730624  0.615815  1
  Pt  Pt11  1  0.750000  0.242266  0.890633  1
