# generated using pymatgen
data_Li2La6Cd21P
_symmetry_space_group_name_H-M   'P 1'
_cell_length_a   10.06418310
_cell_length_b   10.06418320
_cell_length_c   10.12261639
_cell_angle_alpha   60.19145660
_cell_angle_beta   60.19145709
_cell_angle_gamma   59.99963687
_symmetry_Int_Tables_number   1
_chemical_formula_structural   Li2La6Cd21P
_chemical_formula_sum   'Li2 La6 Cd21 P1'
_cell_volume   727.08367543
_cell_formula_units_Z   1
loop_
 _symmetry_equiv_pos_site_id
 _symmetry_equiv_pos_as_xyz
  1  'x, y, z'
loop_
 _atom_site_type_symbol
 _atom_site_label
 _atom_site_symmetry_multiplicity
 _atom_site_fract_x
 _atom_site_fract_y
 _atom_site_fract_z
 _atom_site_occupancy
  Li  Li0  1  0.821724  0.821724  0.534825  1
  Li  Li1  1  0.499680  0.499680  0.500956  1
  La  La2  1  0.794110  0.794110  0.203441  1
  La  La3  1  0.208344  0.794107  0.203455  1
  La  La4  1  0.794107  0.208344  0.203455  1
  La  La5  1  0.205681  0.205681  0.794477  1
  La  La6  1  0.794148  0.205664  0.794519  1
  La  La7  1  0.205664  0.794148  0.794519  1
  Cd  Cd8  1  0.829237  0.513177  0.828347  1
  Cd  Cd9  1  0.513177  0.829237  0.828347  1
  Cd  Cd10  1  0.829239  0.829239  0.828337  1
  Cd  Cd11  1  0.170583  0.170583  0.488234  1
  Cd  Cd12  1  0.169835  0.489487  0.170850  1
  Cd  Cd13  1  0.489487  0.169835  0.170850  1
  Cd  Cd14  1  0.169829  0.169829  0.170832  1
  Cd  Cd15  1  0.615093  0.615093  0.154719  1
  Cd  Cd16  1  0.618754  0.149351  0.613140  1
  Cd  Cd17  1  0.149351  0.618754  0.613140  1
  Cd  Cd18  1  0.618751  0.618751  0.613140  1
  Cd  Cd19  1  0.385505  0.385505  0.843481  1
  Cd  Cd20  1  0.384278  0.844631  0.386811  1
  Cd  Cd21  1  0.844631  0.384278  0.386811  1
  Cd  Cd22  1  0.384295  0.384295  0.386789  1
  Cd  Cd23  1  0.996220  0.996220  0.496665  1
  Cd  Cd24  1  0.510883  0.996224  0.496672  1
  Cd  Cd25  1  0.996224  0.510883  0.496672  1
  Cd  Cd26  1  0.500250  0.500250  0.998001  1
  Cd  Cd27  1  0.001507  0.500244  0.997996  1
  Cd  Cd28  1  0.500244  0.001507  0.997996  1
  P  P29  1  0.999171  0.999171  0.002524  1
