# generated using pymatgen
data_Tb3Ga3CoNi11
_symmetry_space_group_name_H-M   'P 1'
_cell_length_a   8.53270726
_cell_length_b   8.53270857
_cell_length_c   4.02282300
_cell_angle_alpha   90.00000000
_cell_angle_beta   90.00000000
_cell_angle_gamma   119.85423191
_symmetry_Int_Tables_number   1
_chemical_formula_structural   Tb3Ga3CoNi11
_chemical_formula_sum   'Tb3 Ga3 Co1 Ni11'
_cell_volume   254.02201613
_cell_formula_units_Z   1
loop_
 _symmetry_equiv_pos_site_id
 _symmetry_equiv_pos_as_xyz
  1  'x, y, z'
loop_
 _atom_site_type_symbol
 _atom_site_label
 _atom_site_symmetry_multiplicity
 _atom_site_fract_x
 _atom_site_fract_y
 _atom_site_fract_z
 _atom_site_occupancy
  Tb  Tb0  1  0.333326  0.664014  0.000000  1
  Tb  Tb1  1  0.664014  0.333326  0.000000  1
  Tb  Tb2  1  0.002666  0.002666  0.000000  1
  Ga  Ga3  1  0.499189  0.998376  0.500000  1
  Ga  Ga4  1  0.998376  0.499189  0.500000  1
  Ga  Ga5  1  0.500107  0.500107  0.500000  1
  Co  Co6  1  0.328074  0.328074  0.000000  1
  Ni  Ni7  1  0.328890  0.998166  0.000000  1
  Ni  Ni8  1  0.671606  0.999498  0.000000  1
  Ni  Ni9  1  0.998166  0.328890  0.000000  1
  Ni  Ni10  1  0.999498  0.671606  0.000000  1
  Ni  Ni11  1  0.673259  0.673259  0.000000  1
  Ni  Ni12  1  0.167897  0.335672  0.500000  1
  Ni  Ni13  1  0.833510  0.666387  0.500000  1
  Ni  Ni14  1  0.666387  0.833510  0.500000  1
  Ni  Ni15  1  0.335672  0.167897  0.500000  1
  Ni  Ni16  1  0.168045  0.831318  0.500000  1
  Ni  Ni17  1  0.831318  0.168045  0.500000  1
