# generated using pymatgen
data_TbDy4Zr3(P3Ir4)4
_symmetry_space_group_name_H-M   'P 1'
_cell_length_a   12.89447600
_cell_length_b   12.89447755
_cell_length_c   3.98975000
_cell_angle_alpha   90.00000000
_cell_angle_beta   90.00000000
_cell_angle_gamma   120.00000115
_symmetry_Int_Tables_number   1
_chemical_formula_structural   TbDy4Zr3(P3Ir4)4
_chemical_formula_sum   'Tb1 Dy4 Zr3 P12 Ir16'
_cell_volume   574.49170016
_cell_formula_units_Z   1
loop_
 _symmetry_equiv_pos_site_id
 _symmetry_equiv_pos_as_xyz
  1  'x, y, z'
loop_
 _atom_site_type_symbol
 _atom_site_label
 _atom_site_symmetry_multiplicity
 _atom_site_fract_x
 _atom_site_fract_y
 _atom_site_fract_z
 _atom_site_occupancy
  Tb  Tb0  1  0.333333  0.666667  0.500000  1
  Dy  Dy1  1  0.666667  0.333333  0.500000  1
  Dy  Dy2  1  0.000008  0.814980  0.000000  1
  Dy  Dy3  1  0.185020  0.185028  0.000000  1
  Dy  Dy4  1  0.814972  0.999992  0.000000  1
  Zr  Zr5  1  0.999967  0.449183  0.500000  1
  Zr  Zr6  1  0.550817  0.550784  0.500000  1
  Zr  Zr7  1  0.449216  0.000033  0.500000  1
  P  P8  1  0.000027  0.649286  0.500000  1
  P  P9  1  0.350714  0.350741  0.500000  1
  P  P10  1  0.649259  0.999973  0.500000  1
  P  P11  1  0.517344  0.686541  0.000000  1
  P  P12  1  0.313459  0.830804  0.000000  1
  P  P13  1  0.169196  0.482656  0.000000  1
  P  P14  1  0.482825  0.169355  0.000000  1
  P  P15  1  0.686530  0.517175  0.000000  1
  P  P16  1  0.830645  0.313470  0.000000  1
  P  P17  1  0.999989  0.176073  0.500000  1
  P  P18  1  0.823927  0.823916  0.500000  1
  P  P19  1  0.176084  0.000011  0.500000  1
  Ir  Ir20  1  0.507909  0.864194  0.000000  1
  Ir  Ir21  1  0.135806  0.643716  0.000000  1
  Ir  Ir22  1  0.356284  0.492091  0.000000  1
  Ir  Ir23  1  0.492391  0.356244  0.000000  1
  Ir  Ir24  1  0.863854  0.507609  0.000000  1
  Ir  Ir25  1  0.643756  0.136146  0.000000  1
  Ir  Ir26  1  0.999982  0.278693  0.000000  1
  Ir  Ir27  1  0.721307  0.721289  0.000000  1
  Ir  Ir28  1  0.278711  0.000018  0.000000  1
  Ir  Ir29  1  0.629068  0.807151  0.500000  1
  Ir  Ir30  1  0.192849  0.821917  0.500000  1
  Ir  Ir31  1  0.178083  0.370932  0.500000  1
  Ir  Ir32  1  0.371001  0.178137  0.500000  1
  Ir  Ir33  1  0.807136  0.628999  0.500000  1
  Ir  Ir34  1  0.821863  0.192864  0.500000  1
  Ir  Ir35  1  0.000000  0.000000  0.500000  1
