# generated using pymatgen
data_Dy2Er2CCl6
_symmetry_space_group_name_H-M   'P 1'
_cell_length_a   3.74471100
_cell_length_b   12.45893200
_cell_length_c   12.90683400
_cell_angle_alpha   90.00000000
_cell_angle_beta   90.00000000
_cell_angle_gamma   90.00000000
_symmetry_Int_Tables_number   1
_chemical_formula_structural   Dy2Er2CCl6
_chemical_formula_sum   'Dy4 Er4 C2 Cl12'
_cell_volume   602.16962719
_cell_formula_units_Z   2
loop_
 _symmetry_equiv_pos_site_id
 _symmetry_equiv_pos_as_xyz
  1  'x, y, z'
loop_
 _atom_site_type_symbol
 _atom_site_label
 _atom_site_symmetry_multiplicity
 _atom_site_fract_x
 _atom_site_fract_y
 _atom_site_fract_z
 _atom_site_occupancy
  Dy  Dy0  1  0.500000  0.124488  0.853594  1
  Dy  Dy1  1  0.500000  0.875512  0.146406  1
  Dy  Dy2  1  0.500000  0.624488  0.646406  1
  Dy  Dy3  1  0.500000  0.375512  0.353594  1
  Er  Er4  1  0.000000  0.102211  0.081060  1
  Er  Er5  1  0.000000  0.897789  0.918940  1
  Er  Er6  1  0.000000  0.602211  0.418940  1
  Er  Er7  1  0.000000  0.397789  0.581060  1
  C  C8  1  0.500000  0.000000  0.000000  1
  C  C9  1  0.500000  0.500000  0.500000  1
  Cl  Cl10  1  0.500000  0.269470  0.681261  1
  Cl  Cl11  1  0.500000  0.730530  0.318739  1
  Cl  Cl12  1  0.500000  0.769470  0.818739  1
  Cl  Cl13  1  0.500000  0.230530  0.181261  1
  Cl  Cl14  1  0.000000  0.259117  0.932747  1
  Cl  Cl15  1  0.000000  0.740883  0.067253  1
  Cl  Cl16  1  0.000000  0.481954  0.241431  1
  Cl  Cl17  1  0.000000  0.518046  0.758569  1
  Cl  Cl18  1  0.000000  0.981954  0.258569  1
  Cl  Cl19  1  0.000000  0.018046  0.741431  1
  Cl  Cl20  1  0.000000  0.240883  0.432747  1
  Cl  Cl21  1  0.000000  0.759117  0.567253  1
