# generated using pymatgen
data_Sm5Y2PI12
_symmetry_space_group_name_H-M   'P 1'
_cell_length_a   9.80602162
_cell_length_b   9.81137736
_cell_length_c   9.81037298
_cell_angle_alpha   107.77874015
_cell_angle_beta   107.85033836
_cell_angle_gamma   107.92086802
_symmetry_Int_Tables_number   1
_chemical_formula_structural   Sm5Y2PI12
_chemical_formula_sum   'Sm5 Y2 P1 I12'
_cell_volume   767.10067668
_cell_formula_units_Z   1
loop_
 _symmetry_equiv_pos_site_id
 _symmetry_equiv_pos_as_xyz
  1  'x, y, z'
loop_
 _atom_site_type_symbol
 _atom_site_label
 _atom_site_symmetry_multiplicity
 _atom_site_fract_x
 _atom_site_fract_y
 _atom_site_fract_z
 _atom_site_occupancy
  Sm  Sm0  1  0.695938  0.969420  0.899486  1
  Sm  Sm1  1  0.969758  0.900189  0.697710  1
  Sm  Sm2  1  0.099953  0.303866  0.028870  1
  Sm  Sm3  1  0.304095  0.029799  0.099972  1
  Sm  Sm4  1  0.899338  0.695819  0.969302  1
  Y  Y5  1  0.501916  0.501893  0.501813  1
  Y  Y6  1  0.029360  0.098777  0.300683  1
  P  P7  1  0.000698  0.001175  0.002738  1
  I  I8  1  0.075401  0.227744  0.682828  1
  I  I9  1  0.384113  0.158033  0.467261  1
  I  I10  1  0.610358  0.841881  0.531051  1
  I  I11  1  0.229201  0.685595  0.076114  1
  I  I12  1  0.770797  0.314513  0.924359  1
  I  I13  1  0.690637  0.076695  0.231290  1
  I  I14  1  0.530946  0.610426  0.842001  1
  I  I15  1  0.841876  0.531150  0.610442  1
  I  I16  1  0.926316  0.776945  0.315659  1
  I  I17  1  0.314380  0.924143  0.770911  1
  I  I18  1  0.468577  0.389234  0.158811  1
  I  I19  1  0.156343  0.462704  0.388698  1
