# generated using pymatgen
data_Ho4TmB(WC3)2
_symmetry_space_group_name_H-M   'P 1'
_cell_length_a   8.37561258
_cell_length_b   8.37561220
_cell_length_c   3.40570800
_cell_angle_alpha   90.00000000
_cell_angle_beta   90.00000000
_cell_angle_gamma   122.43851028
_symmetry_Int_Tables_number   1
_chemical_formula_structural   Ho4TmB(WC3)2
_chemical_formula_sum   'Ho4 Tm1 B1 W2 C6'
_cell_volume   201.63518582
_cell_formula_units_Z   1
loop_
 _symmetry_equiv_pos_site_id
 _symmetry_equiv_pos_as_xyz
  1  'x, y, z'
loop_
 _atom_site_type_symbol
 _atom_site_label
 _atom_site_symmetry_multiplicity
 _atom_site_fract_x
 _atom_site_fract_y
 _atom_site_fract_z
 _atom_site_occupancy
  Ho  Ho0  1  0.077053  0.326601  0.500000  1
  Ho  Ho1  1  0.922947  0.673399  0.500000  1
  Ho  Ho2  1  0.673399  0.922947  0.500000  1
  Ho  Ho3  1  0.326601  0.077053  0.500000  1
  Tm  Tm4  1  0.500000  0.500000  0.000000  1
  B  B5  1  0.000000  0.000000  0.000000  1
  W  W6  1  0.712251  0.287749  0.000000  1
  W  W7  1  0.287749  0.712251  0.000000  1
  C  C8  1  0.626181  0.373819  0.500000  1
  C  C9  1  0.373819  0.626181  0.500000  1
  C  C10  1  0.183165  0.183165  0.000000  1
  C  C11  1  0.816835  0.816835  0.000000  1
  C  C12  1  0.000000  0.500000  0.000000  1
  C  C13  1  0.500000  0.000000  0.000000  1
