# generated using pymatgen
data_Er3Lu7CoAu3
_symmetry_space_group_name_H-M   'P 1'
_cell_length_a   9.18718700
_cell_length_b   9.18718646
_cell_length_c   9.30941400
_cell_angle_alpha   90.00000000
_cell_angle_beta   90.00000000
_cell_angle_gamma   119.99999833
_symmetry_Int_Tables_number   1
_chemical_formula_structural   Er3Lu7CoAu3
_chemical_formula_sum   'Er6 Lu14 Co2 Au6'
_cell_volume   680.48423854
_cell_formula_units_Z   2
loop_
 _symmetry_equiv_pos_site_id
 _symmetry_equiv_pos_as_xyz
  1  'x, y, z'
loop_
 _atom_site_type_symbol
 _atom_site_label
 _atom_site_symmetry_multiplicity
 _atom_site_fract_x
 _atom_site_fract_y
 _atom_site_fract_z
 _atom_site_occupancy
  Er  Er0  1  0.542031  0.457969  0.250000  1
  Er  Er1  1  0.542031  0.084062  0.250000  1
  Er  Er2  1  0.915938  0.457969  0.250000  1
  Er  Er3  1  0.457969  0.542031  0.750000  1
  Er  Er4  1  0.457969  0.915938  0.750000  1
  Er  Er5  1  0.084062  0.542031  0.750000  1
  Lu  Lu6  1  0.000000  0.000000  0.500000  1
  Lu  Lu7  1  0.000000  0.000000  0.000000  1
  Lu  Lu8  1  0.209154  0.790846  0.437111  1
  Lu  Lu9  1  0.209154  0.418309  0.437111  1
  Lu  Lu10  1  0.581691  0.790846  0.437111  1
  Lu  Lu11  1  0.790846  0.209154  0.562889  1
  Lu  Lu12  1  0.790846  0.581691  0.562889  1
  Lu  Lu13  1  0.418309  0.209154  0.562889  1
  Lu  Lu14  1  0.790846  0.209154  0.937111  1
  Lu  Lu15  1  0.790846  0.581691  0.937111  1
  Lu  Lu16  1  0.418309  0.209154  0.937111  1
  Lu  Lu17  1  0.209154  0.790846  0.062889  1
  Lu  Lu18  1  0.209154  0.418309  0.062889  1
  Lu  Lu19  1  0.581691  0.790846  0.062889  1
  Co  Co20  1  0.333333  0.666667  0.250000  1
  Co  Co21  1  0.666667  0.333333  0.750000  1
  Au  Au22  1  0.882391  0.117609  0.250000  1
  Au  Au23  1  0.882391  0.764783  0.250000  1
  Au  Au24  1  0.235217  0.117609  0.250000  1
  Au  Au25  1  0.117609  0.882391  0.750000  1
  Au  Au26  1  0.117609  0.235217  0.750000  1
  Au  Au27  1  0.764783  0.882391  0.750000  1
