# generated using pymatgen
data_YLu3ReOsC4
_symmetry_space_group_name_H-M   'P 1'
_cell_length_a   5.02063400
_cell_length_b   6.47670801
_cell_length_c   9.66073254
_cell_angle_alpha   89.32948049
_cell_angle_beta   90.00000000
_cell_angle_gamma   90.00000000
_symmetry_Int_Tables_number   1
_chemical_formula_structural   YLu3ReOsC4
_chemical_formula_sum   'Y2 Lu6 Re2 Os2 C8'
_cell_volume   314.11827179
_cell_formula_units_Z   2
loop_
 _symmetry_equiv_pos_site_id
 _symmetry_equiv_pos_as_xyz
  1  'x, y, z'
loop_
 _atom_site_type_symbol
 _atom_site_label
 _atom_site_symmetry_multiplicity
 _atom_site_fract_x
 _atom_site_fract_y
 _atom_site_fract_z
 _atom_site_occupancy
  Y  Y0  1  0.750000  0.967298  0.712634  1
  Y  Y1  1  0.250000  0.032702  0.287366  1
  Lu  Lu2  1  0.250000  0.673187  0.556346  1
  Lu  Lu3  1  0.750000  0.326813  0.443654  1
  Lu  Lu4  1  0.750000  0.824621  0.057321  1
  Lu  Lu5  1  0.250000  0.175379  0.942679  1
  Lu  Lu6  1  0.250000  0.533890  0.217007  1
  Lu  Lu7  1  0.750000  0.466110  0.782993  1
  Re  Re8  1  0.250000  0.716309  0.868964  1
  Re  Re9  1  0.750000  0.283691  0.131036  1
  Os  Os10  1  0.750000  0.779222  0.368228  1
  Os  Os11  1  0.250000  0.220778  0.631772  1
  C  C12  1  0.250000  0.450910  0.760704  1
  C  C13  1  0.750000  0.549090  0.239296  1
  C  C14  1  0.750000  0.048660  0.258416  1
  C  C15  1  0.250000  0.951340  0.741584  1
  C  C16  1  0.250000  0.825151  0.055220  1
  C  C17  1  0.750000  0.174849  0.944780  1
  C  C18  1  0.750000  0.665243  0.554435  1
  C  C19  1  0.250000  0.334757  0.445565  1
