# generated using pymatgen
data_Er6InSi2
_symmetry_space_group_name_H-M   'P 1'
_cell_length_a   8.44106315
_cell_length_b   8.44106331
_cell_length_c   8.44106302
_cell_angle_alpha   112.73217704
_cell_angle_beta   110.87411642
_cell_angle_gamma   104.90753913
_symmetry_Int_Tables_number   1
_chemical_formula_structural   Er6InSi2
_chemical_formula_sum   'Er12 In2 Si4'
_cell_volume   460.67580591
_cell_formula_units_Z   2
loop_
 _symmetry_equiv_pos_site_id
 _symmetry_equiv_pos_as_xyz
  1  'x, y, z'
loop_
 _atom_site_type_symbol
 _atom_site_label
 _atom_site_symmetry_multiplicity
 _atom_site_fract_x
 _atom_site_fract_y
 _atom_site_fract_z
 _atom_site_occupancy
  Er  Er0  1  0.187665  0.280291  0.467956  1
  Er  Er1  1  0.812335  0.719709  0.532044  1
  Er  Er2  1  0.187665  0.719709  0.907373  1
  Er  Er3  1  0.812335  0.280291  0.092627  1
  Er  Er4  1  0.319513  0.615223  0.295710  1
  Er  Er5  1  0.680487  0.384777  0.704290  1
  Er  Er6  1  0.319513  0.023803  0.704290  1
  Er  Er7  1  0.680487  0.976197  0.295710  1
  Er  Er8  1  0.441627  0.236311  0.205317  1
  Er  Er9  1  0.558373  0.763689  0.794683  1
  Er  Er10  1  0.030994  0.236311  0.794683  1
  Er  Er11  1  0.969006  0.763689  0.205317  1
  In  In12  1  0.500000  0.500000  0.000000  1
  In  In13  1  0.000000  0.000000  0.000000  1
  Si  Si14  1  0.116273  0.616273  0.500000  1
  Si  Si15  1  0.883727  0.383727  0.500000  1
  Si  Si16  1  0.369693  0.000000  0.369693  1
  Si  Si17  1  0.630307  0.000000  0.630307  1
