# generated using pymatgen
data_Ac3FeO6
_symmetry_space_group_name_H-M   'P 1'
_cell_length_a   7.85449794
_cell_length_b   7.85449799
_cell_length_c   5.90157900
_cell_angle_alpha   90.00000000
_cell_angle_beta   90.00000000
_cell_angle_gamma   102.96041877
_symmetry_Int_Tables_number   1
_chemical_formula_structural   Ac3FeO6
_chemical_formula_sum   'Ac6 Fe2 O12'
_cell_volume   354.81190001
_cell_formula_units_Z   2
loop_
 _symmetry_equiv_pos_site_id
 _symmetry_equiv_pos_as_xyz
  1  'x, y, z'
loop_
 _atom_site_type_symbol
 _atom_site_label
 _atom_site_symmetry_multiplicity
 _atom_site_fract_x
 _atom_site_fract_y
 _atom_site_fract_z
 _atom_site_occupancy
  Ac  Ac0  1  0.414229  0.198142  0.535995  1
  Ac  Ac1  1  0.801858  0.585771  0.535995  1
  Ac  Ac2  1  0.585771  0.801858  0.035995  1
  Ac  Ac3  1  0.198142  0.414229  0.035995  1
  Ac  Ac4  1  0.105739  0.894261  0.071021  1
  Ac  Ac5  1  0.894261  0.105739  0.571021  1
  Fe  Fe6  1  0.307933  0.692067  0.497990  1
  Fe  Fe7  1  0.692067  0.307933  0.997990  1
  O  O8  1  0.170066  0.148210  0.801017  1
  O  O9  1  0.851790  0.829934  0.801017  1
  O  O10  1  0.829934  0.851790  0.301017  1
  O  O11  1  0.148210  0.170066  0.301017  1
  O  O12  1  0.610224  0.091365  0.836987  1
  O  O13  1  0.908635  0.389776  0.836987  1
  O  O14  1  0.389776  0.908635  0.336987  1
  O  O15  1  0.091365  0.610224  0.336987  1
  O  O16  1  0.548012  0.451988  0.872708  1
  O  O17  1  0.451988  0.548012  0.372708  1
  O  O18  1  0.286698  0.713302  0.820403  1
  O  O19  1  0.713302  0.286698  0.320403  1
