# generated using pymatgen
data_Hf15Sc3Ta2(Re3P)2
_symmetry_space_group_name_H-M   'P 1'
_cell_length_a   8.66695800
_cell_length_b   8.66695817
_cell_length_c   8.56420400
_cell_angle_alpha   90.00000000
_cell_angle_beta   90.00000000
_cell_angle_gamma   119.99999934
_symmetry_Int_Tables_number   1
_chemical_formula_structural   Hf15Sc3Ta2(Re3P)2
_chemical_formula_sum   'Hf15 Sc3 Ta2 Re6 P2'
_cell_volume   557.12292660
_cell_formula_units_Z   1
loop_
 _symmetry_equiv_pos_site_id
 _symmetry_equiv_pos_as_xyz
  1  'x, y, z'
loop_
 _atom_site_type_symbol
 _atom_site_label
 _atom_site_symmetry_multiplicity
 _atom_site_fract_x
 _atom_site_fract_y
 _atom_site_fract_z
 _atom_site_occupancy
  Hf  Hf0  1  0.197121  0.802879  0.451074  1
  Hf  Hf1  1  0.197121  0.394242  0.451074  1
  Hf  Hf2  1  0.605758  0.802879  0.451074  1
  Hf  Hf3  1  0.802544  0.197456  0.548497  1
  Hf  Hf4  1  0.802544  0.605088  0.548497  1
  Hf  Hf5  1  0.394912  0.197456  0.548497  1
  Hf  Hf6  1  0.802544  0.197456  0.951503  1
  Hf  Hf7  1  0.802544  0.605088  0.951503  1
  Hf  Hf8  1  0.394912  0.197456  0.951503  1
  Hf  Hf9  1  0.197121  0.802879  0.048926  1
  Hf  Hf10  1  0.197121  0.394242  0.048926  1
  Hf  Hf11  1  0.605758  0.802879  0.048926  1
  Hf  Hf12  1  0.459516  0.540484  0.750000  1
  Hf  Hf13  1  0.459516  0.919032  0.750000  1
  Hf  Hf14  1  0.080968  0.540484  0.750000  1
  Sc  Sc15  1  0.541250  0.458750  0.250000  1
  Sc  Sc16  1  0.541250  0.082500  0.250000  1
  Sc  Sc17  1  0.917500  0.458750  0.250000  1
  Ta  Ta18  1  0.000000  0.000000  0.497147  1
  Ta  Ta19  1  0.000000  0.000000  0.002853  1
  Re  Re20  1  0.887613  0.112387  0.250000  1
  Re  Re21  1  0.887613  0.775226  0.250000  1
  Re  Re22  1  0.224774  0.112387  0.250000  1
  Re  Re23  1  0.112091  0.887909  0.750000  1
  Re  Re24  1  0.112091  0.224181  0.750000  1
  Re  Re25  1  0.775819  0.887909  0.750000  1
  P  P26  1  0.333333  0.666667  0.250000  1
  P  P27  1  0.666667  0.333333  0.750000  1
