# generated using pymatgen
data_Lu2Zn14Co3
_symmetry_space_group_name_H-M   'P 1'
_cell_length_a   6.64670614
_cell_length_b   6.64683058
_cell_length_c   6.64676923
_cell_angle_alpha   82.30375429
_cell_angle_beta   97.69025446
_cell_angle_gamma   97.69296271
_symmetry_Int_Tables_number   1
_chemical_formula_structural   Lu2Zn14Co3
_chemical_formula_sum   'Lu2 Zn14 Co3'
_cell_volume   286.37177908
_cell_formula_units_Z   1
loop_
 _symmetry_equiv_pos_site_id
 _symmetry_equiv_pos_as_xyz
  1  'x, y, z'
loop_
 _atom_site_type_symbol
 _atom_site_label
 _atom_site_symmetry_multiplicity
 _atom_site_fract_x
 _atom_site_fract_y
 _atom_site_fract_z
 _atom_site_occupancy
  Lu  Lu0  1  0.670308  0.329664  0.329684  1
  Lu  Lu1  1  0.329691  0.670335  0.670316  1
  Zn  Zn2  1  0.295219  0.295248  0.000001  1
  Zn  Zn3  1  0.704781  0.704752  0.999999  1
  Zn  Zn4  1  0.894533  0.105479  0.105456  1
  Zn  Zn5  1  0.349270  0.650704  0.149089  1
  Zn  Zn6  1  0.000000  0.704754  0.295213  1
  Zn  Zn7  1  0.295237  0.000001  0.295233  1
  Zn  Zn8  1  0.650707  0.850897  0.349290  1
  Zn  Zn9  1  0.149098  0.349297  0.349271  1
  Zn  Zn10  1  0.850902  0.650703  0.650729  1
  Zn  Zn11  1  0.349293  0.149102  0.650709  1
  Zn  Zn12  1  0.000000  0.295246  0.704785  1
  Zn  Zn13  1  0.704763  0.999999  0.704767  1
  Zn  Zn14  1  0.650731  0.349296  0.850911  1
  Zn  Zn15  1  0.105465  0.894521  0.894544  1
  Co  Co16  1  0.500000  0.000000  0.000000  1
  Co  Co17  1  0.000000  0.499999  0.000000  1
  Co  Co18  1  0.000000  0.000000  0.500000  1
