# generated using pymatgen
data_Ba2EuEr(Ge4N7)2
_symmetry_space_group_name_H-M   'P 1'
_cell_length_a   6.35688700
_cell_length_b   6.35688620
_cell_length_c   10.43229500
_cell_angle_alpha   90.00000000
_cell_angle_beta   90.00000000
_cell_angle_gamma   119.99999894
_symmetry_Int_Tables_number   1
_chemical_formula_structural   Ba2EuEr(Ge4N7)2
_chemical_formula_sum   'Ba2 Eu1 Er1 Ge8 N14'
_cell_volume   365.08956847
_cell_formula_units_Z   1
loop_
 _symmetry_equiv_pos_site_id
 _symmetry_equiv_pos_as_xyz
  1  'x, y, z'
loop_
 _atom_site_type_symbol
 _atom_site_label
 _atom_site_symmetry_multiplicity
 _atom_site_fract_x
 _atom_site_fract_y
 _atom_site_fract_z
 _atom_site_occupancy
  Ba  Ba0  1  0.333333  0.666667  0.362887  1
  Ba  Ba1  1  0.666667  0.333333  0.865499  1
  Eu  Eu2  1  0.333333  0.666667  0.735312  1
  Er  Er3  1  0.666667  0.333333  0.236569  1
  Ge  Ge4  1  0.826263  0.652525  0.543821  1
  Ge  Ge5  1  0.173454  0.826546  0.049168  1
  Ge  Ge6  1  0.653090  0.826546  0.049168  1
  Ge  Ge7  1  0.347475  0.173737  0.543821  1
  Ge  Ge8  1  0.826263  0.173737  0.543821  1
  Ge  Ge9  1  0.173454  0.346910  0.049168  1
  Ge  Ge10  1  0.000000  0.000000  0.813898  1
  Ge  Ge11  1  0.000000  0.000000  0.311765  1
  N  N12  1  0.000000  0.000000  0.620022  1
  N  N13  1  0.000000  0.000000  0.122171  1
  N  N14  1  0.157557  0.315114  0.872626  1
  N  N15  1  0.841123  0.158877  0.366864  1
  N  N16  1  0.317754  0.158877  0.366864  1
  N  N17  1  0.684886  0.842443  0.872626  1
  N  N18  1  0.157557  0.842443  0.872626  1
  N  N19  1  0.841123  0.682246  0.366864  1
  N  N20  1  0.984369  0.492185  0.601071  1
  N  N21  1  0.494227  0.988454  0.106344  1
  N  N22  1  0.494227  0.505773  0.106344  1
  N  N23  1  0.507815  0.492185  0.601071  1
  N  N24  1  0.011546  0.505773  0.106344  1
  N  N25  1  0.507815  0.015631  0.601071  1
