# generated using pymatgen
data_Tm2Ti4Sn5
_symmetry_space_group_name_H-M   'P 1'
_cell_length_a   10.72407385
_cell_length_b   10.72407386
_cell_length_c   10.72407316
_cell_angle_alpha   148.79120789
_cell_angle_beta   131.61913676
_cell_angle_gamma   58.70391549
_symmetry_Int_Tables_number   1
_chemical_formula_structural   Tm2Ti4Sn5
_chemical_formula_sum   'Tm4 Ti8 Sn10'
_cell_volume   473.97140176
_cell_formula_units_Z   2
loop_
 _symmetry_equiv_pos_site_id
 _symmetry_equiv_pos_as_xyz
  1  'x, y, z'
loop_
 _atom_site_type_symbol
 _atom_site_label
 _atom_site_symmetry_multiplicity
 _atom_site_fract_x
 _atom_site_fract_y
 _atom_site_fract_z
 _atom_site_occupancy
  Tm  Tm0  1  0.256274  0.143482  0.112794  1
  Tm  Tm1  1  0.743726  0.856518  0.887206  1
  Tm  Tm2  1  0.030687  0.643482  0.387206  1
  Tm  Tm3  1  0.969313  0.356518  0.612794  1
  Ti  Ti4  1  0.310751  0.560751  0.250000  1
  Ti  Ti5  1  0.689249  0.439249  0.750000  1
  Ti  Ti6  1  0.689249  0.939249  0.250000  1
  Ti  Ti7  1  0.310751  0.060751  0.750000  1
  Ti  Ti8  1  0.675969  0.436281  0.239686  1
  Ti  Ti9  1  0.324031  0.563719  0.760314  1
  Ti  Ti10  1  0.196595  0.936281  0.260314  1
  Ti  Ti11  1  0.803405  0.063719  0.739686  1
  Sn  Sn12  1  0.585811  0.289439  0.296373  1
  Sn  Sn13  1  0.414189  0.710561  0.703627  1
  Sn  Sn14  1  0.993066  0.789439  0.203627  1
  Sn  Sn15  1  0.006934  0.210561  0.796373  1
  Sn  Sn16  1  0.000000  0.250000  0.250000  1
  Sn  Sn17  1  0.000000  0.750000  0.750000  1
  Sn  Sn18  1  0.472293  0.067110  0.405181  1
  Sn  Sn19  1  0.527707  0.932890  0.594819  1
  Sn  Sn20  1  0.661929  0.567110  0.094819  1
  Sn  Sn21  1  0.338071  0.432890  0.905181  1
