# generated using pymatgen
data_CuRu5O12
_symmetry_space_group_name_H-M   'P 1'
_cell_length_a   4.53982923
_cell_length_b   4.53982862
_cell_length_c   9.34083100
_cell_angle_alpha   90.00000000
_cell_angle_beta   90.00000000
_cell_angle_gamma   90.24140308
_symmetry_Int_Tables_number   1
_chemical_formula_structural   CuRu5O12
_chemical_formula_sum   'Cu1 Ru5 O12'
_cell_volume   192.51325429
_cell_formula_units_Z   1
loop_
 _symmetry_equiv_pos_site_id
 _symmetry_equiv_pos_as_xyz
  1  'x, y, z'
loop_
 _atom_site_type_symbol
 _atom_site_label
 _atom_site_symmetry_multiplicity
 _atom_site_fract_x
 _atom_site_fract_y
 _atom_site_fract_z
 _atom_site_occupancy
  Cu  Cu0  1  0.000000  0.000000  0.000000  1
  Ru  Ru1  1  0.000000  0.000000  0.330837  1
  Ru  Ru2  1  0.000000  0.000000  0.669163  1
  Ru  Ru3  1  0.500000  0.500000  0.164512  1
  Ru  Ru4  1  0.500000  0.500000  0.500000  1
  Ru  Ru5  1  0.500000  0.500000  0.835488  1
  O  O6  1  0.193460  0.193460  0.500000  1
  O  O7  1  0.206527  0.206527  0.178613  1
  O  O8  1  0.206527  0.206527  0.821387  1
  O  O9  1  0.695680  0.304320  0.335645  1
  O  O10  1  0.695680  0.304320  0.664355  1
  O  O11  1  0.695816  0.304184  0.000000  1
  O  O12  1  0.304184  0.695816  0.000000  1
  O  O13  1  0.304320  0.695680  0.335645  1
  O  O14  1  0.304320  0.695680  0.664355  1
  O  O15  1  0.793473  0.793473  0.178613  1
  O  O16  1  0.793473  0.793473  0.821387  1
  O  O17  1  0.806540  0.806540  0.500000  1
