# generated using pymatgen
data_Ca4SnSb3Pt4
_symmetry_space_group_name_H-M   'P 1'
_cell_length_a   4.63553100
_cell_length_b   7.39289363
_cell_length_c   8.01454199
_cell_angle_alpha   90.48792699
_cell_angle_beta   90.00000000
_cell_angle_gamma   90.00000000
_symmetry_Int_Tables_number   1
_chemical_formula_structural   Ca4SnSb3Pt4
_chemical_formula_sum   'Ca4 Sn1 Sb3 Pt4'
_cell_volume   274.64829549
_cell_formula_units_Z   1
loop_
 _symmetry_equiv_pos_site_id
 _symmetry_equiv_pos_as_xyz
  1  'x, y, z'
loop_
 _atom_site_type_symbol
 _atom_site_label
 _atom_site_symmetry_multiplicity
 _atom_site_fract_x
 _atom_site_fract_y
 _atom_site_fract_z
 _atom_site_occupancy
  Ca  Ca0  1  0.250000  0.990711  0.306359  1
  Ca  Ca1  1  0.250000  0.487421  0.196546  1
  Ca  Ca2  1  0.750000  0.010296  0.693932  1
  Ca  Ca3  1  0.750000  0.512095  0.802898  1
  Sn  Sn4  1  0.750000  0.182486  0.084732  1
  Sb  Sb5  1  0.250000  0.317616  0.587914  1
  Sb  Sb6  1  0.250000  0.819856  0.915228  1
  Sb  Sb7  1  0.750000  0.682040  0.411981  1
  Pt  Pt8  1  0.250000  0.201170  0.909839  1
  Pt  Pt9  1  0.250000  0.702128  0.590424  1
  Pt  Pt10  1  0.750000  0.796273  0.091838  1
  Pt  Pt11  1  0.750000  0.297910  0.408309  1
