# generated using pymatgen
data_YSc(SnRh)2
_symmetry_space_group_name_H-M   'P 1'
_cell_length_a   7.59048500
_cell_length_b   7.59048439
_cell_length_c   7.31856400
_cell_angle_alpha   90.00000000
_cell_angle_beta   90.00000000
_cell_angle_gamma   119.99998958
_symmetry_Int_Tables_number   1
_chemical_formula_structural   YSc(SnRh)2
_chemical_formula_sum   'Y3 Sc3 Sn6 Rh6'
_cell_volume   365.17040253
_cell_formula_units_Z   3
loop_
 _symmetry_equiv_pos_site_id
 _symmetry_equiv_pos_as_xyz
  1  'x, y, z'
loop_
 _atom_site_type_symbol
 _atom_site_label
 _atom_site_symmetry_multiplicity
 _atom_site_fract_x
 _atom_site_fract_y
 _atom_site_fract_z
 _atom_site_occupancy
  Y  Y0  1  0.403274  0.000352  0.250000  1
  Y  Y1  1  0.597078  0.596726  0.250000  1
  Y  Y2  1  0.999648  0.402922  0.250000  1
  Sc  Sc3  1  0.394980  0.997626  0.750000  1
  Sc  Sc4  1  0.602646  0.605020  0.750000  1
  Sc  Sc5  1  0.002374  0.397354  0.750000  1
  Sn  Sn6  1  0.729666  0.000928  0.989302  1
  Sn  Sn7  1  0.271262  0.270334  0.510698  1
  Sn  Sn8  1  0.999072  0.728738  0.510698  1
  Sn  Sn9  1  0.999072  0.728738  0.989302  1
  Sn  Sn10  1  0.271262  0.270334  0.989302  1
  Sn  Sn11  1  0.729666  0.000928  0.510698  1
  Rh  Rh12  1  0.333333  0.666667  0.974386  1
  Rh  Rh13  1  0.333333  0.666667  0.525614  1
  Rh  Rh14  1  0.666667  0.333333  0.969812  1
  Rh  Rh15  1  0.666667  0.333333  0.530188  1
  Rh  Rh16  1  0.000000  0.000000  0.250000  1
  Rh  Rh17  1  0.000000  0.000000  0.750000  1
