# generated using pymatgen
data_Ho16InAg2HgRh4
_symmetry_space_group_name_H-M   'P 1'
_cell_length_a   9.55315867
_cell_length_b   9.53759886
_cell_length_c   9.55315822
_cell_angle_alpha   59.88071588
_cell_angle_beta   59.95162125
_cell_angle_gamma   59.88071495
_symmetry_Int_Tables_number   1
_chemical_formula_structural   Ho16InAg2HgRh4
_chemical_formula_sum   'Ho16 In1 Ag2 Hg1 Rh4'
_cell_volume   614.14959180
_cell_formula_units_Z   1
loop_
 _symmetry_equiv_pos_site_id
 _symmetry_equiv_pos_as_xyz
  1  'x, y, z'
loop_
 _atom_site_type_symbol
 _atom_site_label
 _atom_site_symmetry_multiplicity
 _atom_site_fract_x
 _atom_site_fract_y
 _atom_site_fract_z
 _atom_site_occupancy
  Ho  Ho0  1  0.189794  0.183055  0.813665  1
  Ho  Ho1  1  0.602698  0.600787  0.196927  1
  Ho  Ho2  1  0.438189  0.060986  0.438189  1
  Ho  Ho3  1  0.440100  0.438858  0.059357  1
  Ho  Ho4  1  0.814964  0.184089  0.814964  1
  Ho  Ho5  1  0.187700  0.811843  0.187700  1
  Ho  Ho6  1  0.436904  0.061465  0.060357  1
  Ho  Ho7  1  0.189259  0.812797  0.814057  1
  Ho  Ho8  1  0.059180  0.440170  0.059180  1
  Ho  Ho9  1  0.814057  0.812797  0.189259  1
  Ho  Ho10  1  0.196927  0.600787  0.602698  1
  Ho  Ho11  1  0.059357  0.438858  0.440100  1
  Ho  Ho12  1  0.060357  0.061465  0.436904  1
  Ho  Ho13  1  0.813665  0.183055  0.189794  1
  Ho  Ho14  1  0.602621  0.196294  0.602621  1
  Ho  Ho15  1  0.599795  0.599085  0.599795  1
  In  In16  1  0.828456  0.509811  0.828456  1
  Ag  Ag17  1  0.832077  0.833599  0.500584  1
  Ag  Ag18  1  0.500584  0.833599  0.832077  1
  Hg  Hg19  1  0.833053  0.836769  0.833053  1
  Rh  Rh20  1  0.392737  0.821840  0.392737  1
  Rh  Rh21  1  0.392617  0.392468  0.392617  1
  Rh  Rh22  1  0.822648  0.392762  0.392264  1
  Rh  Rh23  1  0.392264  0.392762  0.822648  1
