# generated using pymatgen
data_TbSc3(MoN2)4
_symmetry_space_group_name_H-M   'P 1'
_cell_length_a   3.10417400
_cell_length_b   5.56573194
_cell_length_c   10.38409977
_cell_angle_alpha   90.34869617
_cell_angle_beta   90.00000000
_cell_angle_gamma   90.00000000
_symmetry_Int_Tables_number   1
_chemical_formula_structural   TbSc3(MoN2)4
_chemical_formula_sum   'Tb1 Sc3 Mo4 N8'
_cell_volume   179.40277300
_cell_formula_units_Z   1
loop_
 _symmetry_equiv_pos_site_id
 _symmetry_equiv_pos_as_xyz
  1  'x, y, z'
loop_
 _atom_site_type_symbol
 _atom_site_label
 _atom_site_symmetry_multiplicity
 _atom_site_fract_x
 _atom_site_fract_y
 _atom_site_fract_z
 _atom_site_occupancy
  Tb  Tb0  1  0.750000  0.417974  0.353579  1
  Sc  Sc1  1  0.250000  0.078297  0.854183  1
  Sc  Sc2  1  0.250000  0.576145  0.650111  1
  Sc  Sc3  1  0.750000  0.922081  0.144505  1
  Mo  Mo4  1  0.250000  0.430966  0.091047  1
  Mo  Mo5  1  0.250000  0.925442  0.405470  1
  Mo  Mo6  1  0.750000  0.572779  0.904489  1
  Mo  Mo7  1  0.750000  0.068453  0.597526  1
  N  N8  1  0.250000  0.153983  0.242413  1
  N  N9  1  0.250000  0.672277  0.246484  1
  N  N10  1  0.750000  0.840288  0.755827  1
  N  N11  1  0.750000  0.341897  0.746649  1
  N  N12  1  0.250000  0.773674  0.994852  1
  N  N13  1  0.250000  0.265683  0.510716  1
  N  N14  1  0.750000  0.228356  0.000350  1
  N  N15  1  0.750000  0.731705  0.501799  1
