# generated using pymatgen
data_Hf3Ni(BRu2)2
_symmetry_space_group_name_H-M   'P 1'
_cell_length_a   9.37331500
_cell_length_b   9.37331500
_cell_length_c   3.13688800
_cell_angle_alpha   90.00000000
_cell_angle_beta   90.00000000
_cell_angle_gamma   90.00000000
_symmetry_Int_Tables_number   1
_chemical_formula_structural   Hf3Ni(BRu2)2
_chemical_formula_sum   'Hf6 Ni2 B4 Ru8'
_cell_volume   275.60394973
_cell_formula_units_Z   2
loop_
 _symmetry_equiv_pos_site_id
 _symmetry_equiv_pos_as_xyz
  1  'x, y, z'
loop_
 _atom_site_type_symbol
 _atom_site_label
 _atom_site_symmetry_multiplicity
 _atom_site_fract_x
 _atom_site_fract_y
 _atom_site_fract_z
 _atom_site_occupancy
  Hf  Hf0  1  0.820416  0.679584  0.000000  1
  Hf  Hf1  1  0.179584  0.320416  0.000000  1
  Hf  Hf2  1  0.320416  0.820416  0.000000  1
  Hf  Hf3  1  0.679584  0.179584  0.000000  1
  Hf  Hf4  1  0.500000  0.500000  0.000000  1
  Hf  Hf5  1  0.000000  0.000000  0.000000  1
  Ni  Ni6  1  0.500000  0.000000  0.500000  1
  Ni  Ni7  1  0.000000  0.500000  0.500000  1
  B  B8  1  0.614922  0.885078  0.000000  1
  B  B9  1  0.385078  0.114922  0.000000  1
  B  B10  1  0.114922  0.614922  0.000000  1
  B  B11  1  0.885078  0.385078  0.000000  1
  Ru  Ru12  1  0.561292  0.729399  0.500000  1
  Ru  Ru13  1  0.438708  0.270601  0.500000  1
  Ru  Ru14  1  0.061292  0.770601  0.500000  1
  Ru  Ru15  1  0.938708  0.229399  0.500000  1
  Ru  Ru16  1  0.270601  0.561292  0.500000  1
  Ru  Ru17  1  0.729399  0.438708  0.500000  1
  Ru  Ru18  1  0.229399  0.061292  0.500000  1
  Ru  Ru19  1  0.770601  0.938708  0.500000  1
