# generated using pymatgen
data_CaY5Si4(GeRh6)2
_symmetry_space_group_name_H-M   'P 1'
_cell_length_a   5.60987000
_cell_length_b   5.60986869
_cell_length_c   15.15951500
_cell_angle_alpha   90.00000000
_cell_angle_beta   90.00000000
_cell_angle_gamma   119.99999591
_symmetry_Int_Tables_number   1
_chemical_formula_structural   CaY5Si4(GeRh6)2
_chemical_formula_sum   'Ca1 Y5 Si4 Ge2 Rh12'
_cell_volume   413.16302647
_cell_formula_units_Z   1
loop_
 _symmetry_equiv_pos_site_id
 _symmetry_equiv_pos_as_xyz
  1  'x, y, z'
loop_
 _atom_site_type_symbol
 _atom_site_label
 _atom_site_symmetry_multiplicity
 _atom_site_fract_x
 _atom_site_fract_y
 _atom_site_fract_z
 _atom_site_occupancy
  Ca  Ca0  1  0.666667  0.333333  0.750000  1
  Y  Y1  1  0.666667  0.333333  0.960195  1
  Y  Y2  1  0.666667  0.333333  0.539805  1
  Y  Y3  1  0.333333  0.666667  0.038143  1
  Y  Y4  1  0.333333  0.666667  0.461857  1
  Y  Y5  1  0.333333  0.666667  0.250000  1
  Si  Si6  1  0.666667  0.333333  0.250000  1
  Si  Si7  1  0.000000  0.000000  0.250000  1
  Si  Si8  1  0.000000  0.000000  0.750000  1
  Si  Si9  1  0.333333  0.666667  0.750000  1
  Ge  Ge10  1  0.000000  0.000000  0.499243  1
  Ge  Ge11  1  0.000000  0.000000  0.000757  1
  Rh  Rh12  1  0.167597  0.335195  0.867793  1
  Rh  Rh13  1  0.167597  0.335195  0.632207  1
  Rh  Rh14  1  0.664805  0.832403  0.867793  1
  Rh  Rh15  1  0.335049  0.167524  0.366505  1
  Rh  Rh16  1  0.832476  0.664951  0.366505  1
  Rh  Rh17  1  0.832476  0.167524  0.366505  1
  Rh  Rh18  1  0.832476  0.167524  0.133495  1
  Rh  Rh19  1  0.335049  0.167524  0.133495  1
  Rh  Rh20  1  0.664805  0.832403  0.632207  1
  Rh  Rh21  1  0.167597  0.832403  0.632207  1
  Rh  Rh22  1  0.832476  0.664951  0.133495  1
  Rh  Rh23  1  0.167597  0.832403  0.867793  1
