# generated using pymatgen
data_TaPd5Pt3
_symmetry_space_group_name_H-M   'P 1'
_cell_length_a   6.33365097
_cell_length_b   6.33364969
_cell_length_c   6.24550548
_cell_angle_alpha   95.67946942
_cell_angle_beta   95.67947198
_cell_angle_gamma   143.59366664
_symmetry_Int_Tables_number   1
_chemical_formula_structural   TaPd5Pt3
_chemical_formula_sum   'Ta1 Pd5 Pt3'
_cell_volume   141.03815518
_cell_formula_units_Z   1
loop_
 _symmetry_equiv_pos_site_id
 _symmetry_equiv_pos_as_xyz
  1  'x, y, z'
loop_
 _atom_site_type_symbol
 _atom_site_label
 _atom_site_symmetry_multiplicity
 _atom_site_fract_x
 _atom_site_fract_y
 _atom_site_fract_z
 _atom_site_occupancy
  Ta  Ta0  1  0.002069  0.002069  0.004139  1
  Pd  Pd1  1  0.330088  0.999932  0.330021  1
  Pd  Pd2  1  0.999932  0.330088  0.330021  1
  Pd  Pd3  1  0.671169  0.000173  0.671342  1
  Pd  Pd4  1  0.000173  0.671169  0.671342  1
  Pd  Pd5  1  0.335478  0.335478  0.670955  1
  Pt  Pt6  1  0.660925  0.337213  0.998139  1
  Pt  Pt7  1  0.337213  0.660925  0.998139  1
  Pt  Pt8  1  0.662950  0.662950  0.325903  1
