# generated using pymatgen
data_DyYVIr3
_symmetry_space_group_name_H-M   'P 1'
_cell_length_a   5.57332832
_cell_length_b   5.11189754
_cell_length_c   5.57332800
_cell_angle_alpha   56.96624774
_cell_angle_beta   60.00000189
_cell_angle_gamma   56.96623931
_symmetry_Int_Tables_number   1
_chemical_formula_structural   DyYVIr3
_chemical_formula_sum   'Dy1 Y1 V1 Ir3'
_cell_volume   106.85108848
_cell_formula_units_Z   1
loop_
 _symmetry_equiv_pos_site_id
 _symmetry_equiv_pos_as_xyz
  1  'x, y, z'
loop_
 _atom_site_type_symbol
 _atom_site_label
 _atom_site_symmetry_multiplicity
 _atom_site_fract_x
 _atom_site_fract_y
 _atom_site_fract_z
 _atom_site_occupancy
  Dy  Dy0  1  0.498242  0.505273  0.498242  1
  Y  Y1  1  0.751100  0.746701  0.751100  1
  V  V2  1  0.125231  0.624308  0.125231  1
  Ir  Ir3  1  0.625182  0.124572  0.125122  1
  Ir  Ir4  1  0.125122  0.124572  0.125122  1
  Ir  Ir5  1  0.125122  0.124572  0.625182  1
