# generated using pymatgen
data_Dy3Tm7Ru4
_symmetry_space_group_name_H-M   'P 1'
_cell_length_a   6.28437550
_cell_length_b   7.24888476
_cell_length_c   8.38084711
_cell_angle_alpha   96.86292477
_cell_angle_beta   112.14467289
_cell_angle_gamma   90.03590639
_symmetry_Int_Tables_number   1
_chemical_formula_structural   Dy3Tm7Ru4
_chemical_formula_sum   'Dy3 Tm7 Ru4'
_cell_volume   350.65757747
_cell_formula_units_Z   1
loop_
 _symmetry_equiv_pos_site_id
 _symmetry_equiv_pos_as_xyz
  1  'x, y, z'
loop_
 _atom_site_type_symbol
 _atom_site_label
 _atom_site_symmetry_multiplicity
 _atom_site_fract_x
 _atom_site_fract_y
 _atom_site_fract_z
 _atom_site_occupancy
  Dy  Dy0  1  0.789899  0.083805  0.811965  1
  Dy  Dy1  1  0.976991  0.416427  0.186967  1
  Dy  Dy2  1  0.210638  0.915901  0.187297  1
  Tm  Tm3  1  0.022152  0.584266  0.812979  1
  Tm  Tm4  1  0.205656  0.184158  0.566209  1
  Tm  Tm5  1  0.640216  0.316265  0.434858  1
  Tm  Tm6  1  0.794587  0.815569  0.434354  1
  Tm  Tm7  1  0.359913  0.684226  0.566284  1
  Tm  Tm8  1  0.419346  0.250119  0.999621  1
  Tm  Tm9  1  0.579680  0.749807  0.999622  1
  Ru  Ru10  1  0.601837  0.425029  0.778753  1
  Ru  Ru11  1  0.821344  0.076494  0.221143  1
  Ru  Ru12  1  0.399661  0.575569  0.220776  1
  Ru  Ru13  1  0.178081  0.922367  0.779172  1
