# generated using pymatgen
data_Dy2Er4Al24Os7Rh
_symmetry_space_group_name_H-M   'P 1'
_cell_length_a   8.79859013
_cell_length_b   8.79100722
_cell_length_c   9.53592903
_cell_angle_alpha   89.72700056
_cell_angle_beta   90.26552516
_cell_angle_gamma   119.72258910
_symmetry_Int_Tables_number   1
_chemical_formula_structural   Dy2Er4Al24Os7Rh
_chemical_formula_sum   'Dy2 Er4 Al24 Os7 Rh1'
_cell_volume   640.53990582
_cell_formula_units_Z   1
loop_
 _symmetry_equiv_pos_site_id
 _symmetry_equiv_pos_as_xyz
  1  'x, y, z'
loop_
 _atom_site_type_symbol
 _atom_site_label
 _atom_site_symmetry_multiplicity
 _atom_site_fract_x
 _atom_site_fract_y
 _atom_site_fract_z
 _atom_site_occupancy
  Dy  Dy0  1  0.190338  0.387026  0.251842  1
  Dy  Dy1  1  0.809662  0.612974  0.748158  1
  Er  Er2  1  0.612173  0.809512  0.252023  1
  Er  Er3  1  0.387827  0.190488  0.747977  1
  Er  Er4  1  0.195120  0.804934  0.251483  1
  Er  Er5  1  0.804880  0.195066  0.748517  1
  Al  Al6  1  0.333021  0.667272  0.018940  1
  Al  Al7  1  0.666979  0.332728  0.981060  1
  Al  Al8  1  0.666638  0.333153  0.516843  1
  Al  Al9  1  0.333362  0.666847  0.483157  1
  Al  Al10  1  0.164024  0.325363  0.577477  1
  Al  Al11  1  0.835976  0.674637  0.422523  1
  Al  Al12  1  0.674695  0.836304  0.577237  1
  Al  Al13  1  0.839229  0.675415  0.077715  1
  Al  Al14  1  0.325305  0.163696  0.422763  1
  Al  Al15  1  0.160771  0.324585  0.922285  1
  Al  Al16  1  0.163689  0.836770  0.575910  1
  Al  Al17  1  0.324579  0.160640  0.077500  1
  Al  Al18  1  0.836311  0.163230  0.424090  1
  Al  Al19  1  0.675421  0.839360  0.922500  1
  Al  Al20  1  0.836597  0.162989  0.075942  1
  Al  Al21  1  0.163403  0.837011  0.924058  1
  Al  Al22  1  0.560038  0.121879  0.249530  1
  Al  Al23  1  0.439962  0.878121  0.750470  1
  Al  Al24  1  0.877750  0.440011  0.249540  1
  Al  Al25  1  0.122250  0.559989  0.750460  1
  Al  Al26  1  0.560548  0.439873  0.249930  1
  Al  Al27  1  0.439452  0.560127  0.750070  1
  Al  Al28  1  0.999264  0.999967  0.250115  1
  Al  Al29  1  0.000736  0.000033  0.749885  1
  Os  Os30  1  0.500000  0.000000  0.000000  1
  Os  Os31  1  0.000000  0.500000  0.000000  1
  Os  Os32  1  0.500000  0.000000  0.500000  1
  Os  Os33  1  0.000000  0.500000  0.500000  1
  Os  Os34  1  0.500000  0.500000  0.500000  1
  Os  Os35  1  0.000000  0.000000  0.000000  1
  Os  Os36  1  0.000000  0.000000  0.500000  1
  Rh  Rh37  1  0.500000  0.500000  0.000000  1
