# generated using pymatgen
data_Ho16NiHg4Ir3
_symmetry_space_group_name_H-M   'P 1'
_cell_length_a   9.51782062
_cell_length_b   9.53635325
_cell_length_c   9.53635300
_cell_angle_alpha   60.00000435
_cell_angle_beta   59.93557218
_cell_angle_gamma   59.93557723
_symmetry_Int_Tables_number   1
_chemical_formula_structural   Ho16NiHg4Ir3
_chemical_formula_sum   'Ho16 Ni1 Hg4 Ir3'
_cell_volume   611.45370755
_cell_formula_units_Z   1
loop_
 _symmetry_equiv_pos_site_id
 _symmetry_equiv_pos_as_xyz
  1  'x, y, z'
loop_
 _atom_site_type_symbol
 _atom_site_label
 _atom_site_symmetry_multiplicity
 _atom_site_fract_x
 _atom_site_fract_y
 _atom_site_fract_z
 _atom_site_occupancy
  Ho  Ho0  1  0.437615  0.433224  0.064580  1
  Ho  Ho1  1  0.646290  0.652178  0.049357  1
  Ho  Ho2  1  0.191058  0.810647  0.187647  1
  Ho  Ho3  1  0.061771  0.437705  0.062819  1
  Ho  Ho4  1  0.191058  0.810647  0.810647  1
  Ho  Ho5  1  0.061771  0.437705  0.437705  1
  Ho  Ho6  1  0.811203  0.189161  0.189161  1
  Ho  Ho7  1  0.646290  0.652178  0.652178  1
  Ho  Ho8  1  0.811203  0.189161  0.810476  1
  Ho  Ho9  1  0.191058  0.187647  0.810647  1
  Ho  Ho10  1  0.053454  0.648849  0.648849  1
  Ho  Ho11  1  0.437615  0.064580  0.064580  1
  Ho  Ho12  1  0.061771  0.062819  0.437705  1
  Ho  Ho13  1  0.646290  0.049357  0.652178  1
  Ho  Ho14  1  0.811203  0.810476  0.189161  1
  Ho  Ho15  1  0.437615  0.064580  0.433224  1
  Ni  Ni16  1  0.424291  0.858569  0.858569  1
  Hg  Hg17  1  0.416787  0.414878  0.414878  1
  Hg  Hg18  1  0.416787  0.414878  0.753459  1
  Hg  Hg19  1  0.416787  0.753459  0.414878  1
  Hg  Hg20  1  0.752630  0.415791  0.415791  1
  Ir  Ir21  1  0.858483  0.857440  0.857440  1
  Ir  Ir22  1  0.858483  0.426634  0.857440  1
  Ir  Ir23  1  0.858483  0.857440  0.426634  1
