# generated using pymatgen
data_Sr21Cd(Ga4Sn3)2
_symmetry_space_group_name_H-M   'P 1'
_cell_length_a   12.15242495
_cell_length_b   12.15242521
_cell_length_c   12.15242400
_cell_angle_alpha   60.00000330
_cell_angle_beta   60.00000259
_cell_angle_gamma   60.00000243
_symmetry_Int_Tables_number   1
_chemical_formula_structural   Sr21Cd(Ga4Sn3)2
_chemical_formula_sum   'Sr21 Cd1 Ga8 Sn6'
_cell_volume   1269.03572415
_cell_formula_units_Z   1
loop_
 _symmetry_equiv_pos_site_id
 _symmetry_equiv_pos_as_xyz
  1  'x, y, z'
loop_
 _atom_site_type_symbol
 _atom_site_label
 _atom_site_symmetry_multiplicity
 _atom_site_fract_x
 _atom_site_fract_y
 _atom_site_fract_z
 _atom_site_occupancy
  Sr  Sr0  1  0.869307  0.869307  0.392079  1
  Sr  Sr1  1  0.607921  0.130693  0.130693  1
  Sr  Sr2  1  0.869307  0.392079  0.869307  1
  Sr  Sr3  1  0.130693  0.130693  0.130693  1
  Sr  Sr4  1  0.392079  0.869307  0.869307  1
  Sr  Sr5  1  0.869307  0.869307  0.869307  1
  Sr  Sr6  1  0.172785  0.827215  0.500000  1
  Sr  Sr7  1  0.827215  0.500000  0.500000  1
  Sr  Sr8  1  0.130693  0.130693  0.607921  1
  Sr  Sr9  1  0.827215  0.172785  0.500000  1
  Sr  Sr10  1  0.172785  0.500000  0.500000  1
  Sr  Sr11  1  0.130693  0.607921  0.130693  1
  Sr  Sr12  1  0.500000  0.500000  0.172785  1
  Sr  Sr13  1  0.500000  0.172785  0.827215  1
  Sr  Sr14  1  0.500000  0.827215  0.172785  1
  Sr  Sr15  1  0.500000  0.500000  0.827215  1
  Sr  Sr16  1  0.500000  0.172785  0.500000  1
  Sr  Sr17  1  0.172785  0.500000  0.827215  1
  Sr  Sr18  1  0.000000  0.000000  0.000000  1
  Sr  Sr19  1  0.500000  0.827215  0.500000  1
  Sr  Sr20  1  0.827215  0.500000  0.172785  1
  Cd  Cd21  1  0.500000  0.500000  0.500000  1
  Ga  Ga22  1  0.693368  0.919898  0.693368  1
  Ga  Ga23  1  0.693368  0.693368  0.919898  1
  Ga  Ga24  1  0.693368  0.693368  0.693368  1
  Ga  Ga25  1  0.306632  0.080102  0.306632  1
  Ga  Ga26  1  0.919898  0.693368  0.693368  1
  Ga  Ga27  1  0.306632  0.306632  0.080102  1
  Ga  Ga28  1  0.080102  0.306632  0.306632  1
  Ga  Ga29  1  0.306632  0.306632  0.306632  1
  Sn  Sn30  1  0.784614  0.215386  0.784614  1
  Sn  Sn31  1  0.784614  0.215386  0.215386  1
  Sn  Sn32  1  0.215386  0.784614  0.215386  1
  Sn  Sn33  1  0.215386  0.784614  0.784614  1
  Sn  Sn34  1  0.784614  0.784614  0.215386  1
  Sn  Sn35  1  0.215386  0.215386  0.784614  1
