# generated using pymatgen
data_Zr2Co5(SiRu)7
_symmetry_space_group_name_H-M   'P 1'
_cell_length_a   9.33316335
_cell_length_b   9.27552743
_cell_length_c   3.76027300
_cell_angle_alpha   90.00000000
_cell_angle_beta   90.00000000
_cell_angle_gamma   120.01864816
_symmetry_Int_Tables_number   1
_chemical_formula_structural   Zr2Co5(SiRu)7
_chemical_formula_sum   'Zr2 Co5 Si7 Ru7'
_cell_volume   281.86155884
_cell_formula_units_Z   1
loop_
 _symmetry_equiv_pos_site_id
 _symmetry_equiv_pos_as_xyz
  1  'x, y, z'
loop_
 _atom_site_type_symbol
 _atom_site_label
 _atom_site_symmetry_multiplicity
 _atom_site_fract_x
 _atom_site_fract_y
 _atom_site_fract_z
 _atom_site_occupancy
  Zr  Zr0  1  0.999330  0.000153  0.000000  1
  Zr  Zr1  1  0.334930  0.668971  0.500000  1
  Co  Co2  1  0.093850  0.701823  0.000000  1
  Co  Co3  1  0.389136  0.177114  0.000000  1
  Co  Co4  1  0.793782  0.612721  0.000000  1
  Co  Co5  1  0.816315  0.207707  0.000000  1
  Co  Co6  1  0.607332  0.907776  0.000000  1
  Si  Si7  1  0.665485  0.333150  0.000000  1
  Si  Si8  1  0.071214  0.449967  0.000000  1
  Si  Si9  1  0.270487  0.218939  0.500000  1
  Si  Si10  1  0.776321  0.047529  0.500000  1
  Si  Si11  1  0.951912  0.730298  0.500000  1
  Si  Si12  1  0.558036  0.635554  0.000000  1
  Si  Si13  1  0.371937  0.920225  0.000000  1
  Ru  Ru14  1  0.299892  0.398782  0.000000  1
  Ru  Ru15  1  0.879180  0.445790  0.500000  1
  Ru  Ru16  1  0.558832  0.430377  0.500000  1
  Ru  Ru17  1  0.225946  0.943500  0.500000  1
  Ru  Ru18  1  0.048307  0.276164  0.500000  1
  Ru  Ru19  1  0.721997  0.775291  0.500000  1
  Ru  Ru20  1  0.565778  0.118172  0.500000  1
