# generated using pymatgen
data_RbCo(PtSe3)2
_symmetry_space_group_name_H-M   'P 1'
_cell_length_a   8.88876573
_cell_length_b   8.88876470
_cell_length_c   8.88876500
_cell_angle_alpha   41.52928375
_cell_angle_beta   41.52929123
_cell_angle_gamma   41.52929301
_symmetry_Int_Tables_number   1
_chemical_formula_structural   RbCo(PtSe3)2
_chemical_formula_sum   'Rb1 Co1 Pt2 Se6'
_cell_volume   278.99086424
_cell_formula_units_Z   1
loop_
 _symmetry_equiv_pos_site_id
 _symmetry_equiv_pos_as_xyz
  1  'x, y, z'
loop_
 _atom_site_type_symbol
 _atom_site_label
 _atom_site_symmetry_multiplicity
 _atom_site_fract_x
 _atom_site_fract_y
 _atom_site_fract_z
 _atom_site_occupancy
  Rb  Rb0  1  0.998655  0.998655  0.998655  1
  Co  Co1  1  0.166044  0.166044  0.166044  1
  Pt  Pt2  1  0.500309  0.500309  0.500309  1
  Pt  Pt3  1  0.833933  0.833933  0.833933  1
  Se  Se4  1  0.535407  0.222489  0.903258  1
  Se  Se5  1  0.903258  0.535407  0.222489  1
  Se  Se6  1  0.222489  0.903258  0.535407  1
  Se  Se7  1  0.790985  0.112803  0.436118  1
  Se  Se8  1  0.112803  0.436118  0.790985  1
  Se  Se9  1  0.436118  0.790985  0.112803  1
