# generated using pymatgen
data_Er9LuSi5As
_symmetry_space_group_name_H-M   'P 1'
_cell_length_a   8.36699813
_cell_length_b   8.37154888
_cell_length_c   6.25558000
_cell_angle_alpha   89.96804486
_cell_angle_beta   90.01024435
_cell_angle_gamma   119.98471957
_symmetry_Int_Tables_number   1
_chemical_formula_structural   Er9LuSi5As
_chemical_formula_sum   'Er9 Lu1 Si5 As1'
_cell_volume   379.52508250
_cell_formula_units_Z   1
loop_
 _symmetry_equiv_pos_site_id
 _symmetry_equiv_pos_as_xyz
  1  'x, y, z'
loop_
 _atom_site_type_symbol
 _atom_site_label
 _atom_site_symmetry_multiplicity
 _atom_site_fract_x
 _atom_site_fract_y
 _atom_site_fract_z
 _atom_site_occupancy
  Er  Er0  1  0.996234  0.753829  0.749329  1
  Er  Er1  1  0.001301  0.244353  0.250539  1
  Er  Er2  1  0.756849  0.755741  0.250599  1
  Er  Er3  1  0.757170  0.999984  0.749556  1
  Er  Er4  1  0.242451  0.246263  0.749626  1
  Er  Er5  1  0.242856  0.999926  0.250457  1
  Er  Er6  1  0.668530  0.335191  0.001001  1
  Er  Er7  1  0.668256  0.334892  0.499257  1
  Er  Er8  1  0.333320  0.664877  0.001076  1
  Lu  Lu9  1  0.333333  0.664591  0.498171  1
  Si  Si10  1  0.394241  0.394283  0.251592  1
  Si  Si11  1  0.002065  0.606856  0.251813  1
  Si  Si12  1  0.001197  0.394636  0.748360  1
  Si  Si13  1  0.605668  0.606699  0.748431  1
  Si  Si14  1  0.606416  0.998877  0.251544  1
  As  As15  1  0.390114  0.999004  0.748648  1
