# generated using pymatgen
data_La4Ga2SiGe
_symmetry_space_group_name_H-M   'P 1'
_cell_length_a   4.14478800
_cell_length_b   4.53383300
_cell_length_c   11.54605400
_cell_angle_alpha   90.00000000
_cell_angle_beta   90.00000000
_cell_angle_gamma   90.00000000
_symmetry_Int_Tables_number   1
_chemical_formula_structural   La4Ga2SiGe
_chemical_formula_sum   'La4 Ga2 Si1 Ge1'
_cell_volume   216.97086752
_cell_formula_units_Z   1
loop_
 _symmetry_equiv_pos_site_id
 _symmetry_equiv_pos_as_xyz
  1  'x, y, z'
loop_
 _atom_site_type_symbol
 _atom_site_label
 _atom_site_symmetry_multiplicity
 _atom_site_fract_x
 _atom_site_fract_y
 _atom_site_fract_z
 _atom_site_occupancy
  La  La0  1  0.000000  0.000000  0.144213  1
  La  La1  1  0.000000  0.500000  0.640061  1
  La  La2  1  0.500000  0.500000  0.358711  1
  La  La3  1  0.500000  0.000000  0.858921  1
  Ga  Ga4  1  0.500000  0.500000  0.070884  1
  Ga  Ga5  1  0.500000  0.000000  0.567244  1
  Si  Si6  1  0.000000  0.000000  0.431568  1
  Ge  Ge7  1  0.000000  0.500000  0.928397  1
