# generated using pymatgen
data_TbY2GaCo2Ir
_symmetry_space_group_name_H-M   'P 1'
_cell_length_a   5.47913497
_cell_length_b   5.47913570
_cell_length_c   13.14880924
_cell_angle_alpha   90.06192005
_cell_angle_beta   89.93807869
_cell_angle_gamma   135.76039213
_symmetry_Int_Tables_number   1
_chemical_formula_structural   TbY2GaCo2Ir
_chemical_formula_sum   'Tb2 Y4 Ga2 Co4 Ir2'
_cell_volume   275.39391296
_cell_formula_units_Z   2
loop_
 _symmetry_equiv_pos_site_id
 _symmetry_equiv_pos_as_xyz
  1  'x, y, z'
loop_
 _atom_site_type_symbol
 _atom_site_label
 _atom_site_symmetry_multiplicity
 _atom_site_fract_x
 _atom_site_fract_y
 _atom_site_fract_z
 _atom_site_occupancy
  Tb  Tb0  1  0.793525  0.206475  0.103214  1
  Tb  Tb1  1  0.206475  0.793525  0.896786  1
  Y  Y2  1  0.793520  0.206480  0.396931  1
  Y  Y3  1  0.206480  0.793520  0.603069  1
  Y  Y4  1  0.507253  0.492747  0.250191  1
  Y  Y5  1  0.492747  0.507253  0.749809  1
  Ga  Ga6  1  0.500000  0.500000  0.500000  1
  Ga  Ga7  1  0.500000  0.500000  0.000000  1
  Co  Co8  1  0.079805  0.920195  0.412458  1
  Co  Co9  1  0.920195  0.079805  0.587542  1
  Co  Co10  1  0.079721  0.920279  0.087329  1
  Co  Co11  1  0.920279  0.079721  0.912671  1
  Ir  Ir12  1  0.212620  0.787380  0.249663  1
  Ir  Ir13  1  0.787380  0.212620  0.750337  1
