# generated using pymatgen
data_Hf4Co4SiP3
_symmetry_space_group_name_H-M   'P 1'
_cell_length_a   3.69548700
_cell_length_b   6.30945764
_cell_length_c   7.12001384
_cell_angle_alpha   90.08254482
_cell_angle_beta   90.00000000
_cell_angle_gamma   90.00000000
_symmetry_Int_Tables_number   1
_chemical_formula_structural   Hf4Co4SiP3
_chemical_formula_sum   'Hf4 Co4 Si1 P3'
_cell_volume   166.01376355
_cell_formula_units_Z   1
loop_
 _symmetry_equiv_pos_site_id
 _symmetry_equiv_pos_as_xyz
  1  'x, y, z'
loop_
 _atom_site_type_symbol
 _atom_site_label
 _atom_site_symmetry_multiplicity
 _atom_site_fract_x
 _atom_site_fract_y
 _atom_site_fract_z
 _atom_site_occupancy
  Hf  Hf0  1  0.250000  0.018471  0.815819  1
  Hf  Hf1  1  0.250000  0.517860  0.685485  1
  Hf  Hf2  1  0.750000  0.981692  0.180964  1
  Hf  Hf3  1  0.750000  0.476818  0.316617  1
  Co  Co4  1  0.250000  0.143974  0.438650  1
  Co  Co5  1  0.250000  0.639983  0.059052  1
  Co  Co6  1  0.750000  0.862063  0.565436  1
  Co  Co7  1  0.750000  0.358261  0.937463  1
  Si  Si8  1  0.250000  0.775103  0.386743  1
  P  P9  1  0.250000  0.273893  0.114095  1
  P  P10  1  0.750000  0.225042  0.614966  1
  P  P11  1  0.750000  0.726838  0.884710  1
