# generated using pymatgen
data_Na3Yb5(CrN3)4
_symmetry_space_group_name_H-M   'P 1'
_cell_length_a   5.87949062
_cell_length_b   5.87948967
_cell_length_c   11.55644433
_cell_angle_alpha   90.02417641
_cell_angle_beta   89.97582477
_cell_angle_gamma   124.44440431
_symmetry_Int_Tables_number   1
_chemical_formula_structural   Na3Yb5(CrN3)4
_chemical_formula_sum   'Na3 Yb5 Cr4 N12'
_cell_volume   329.44775754
_cell_formula_units_Z   1
loop_
 _symmetry_equiv_pos_site_id
 _symmetry_equiv_pos_as_xyz
  1  'x, y, z'
loop_
 _atom_site_type_symbol
 _atom_site_label
 _atom_site_symmetry_multiplicity
 _atom_site_fract_x
 _atom_site_fract_y
 _atom_site_fract_z
 _atom_site_occupancy
  Na  Na0  1  0.544685  0.455315  0.638458  1
  Na  Na1  1  0.452645  0.547355  0.355691  1
  Na  Na2  1  0.955164  0.044836  0.147967  1
  Yb  Yb3  1  0.050924  0.949076  0.857246  1
  Yb  Yb4  1  0.854441  0.145559  0.583053  1
  Yb  Yb5  1  0.140972  0.859028  0.414376  1
  Yb  Yb6  1  0.643414  0.356586  0.085475  1
  Yb  Yb7  1  0.359481  0.640519  0.916530  1
  Cr  Cr8  1  0.742033  0.257967  0.841084  1
  Cr  Cr9  1  0.259688  0.740312  0.157931  1
  Cr  Cr10  1  0.759714  0.240286  0.339111  1
  Cr  Cr11  1  0.238929  0.761071  0.660333  1
  N  N12  1  0.842895  0.157105  0.957733  1
  N  N13  1  0.167102  0.832898  0.034073  1
  N  N14  1  0.666795  0.333205  0.459214  1
  N  N15  1  0.329086  0.670914  0.539324  1
  N  N16  1  0.582336  0.417664  0.878416  1
  N  N17  1  0.416766  0.583234  0.123498  1
  N  N18  1  0.916472  0.083528  0.376846  1
  N  N19  1  0.078642  0.921358  0.632167  1
  N  N20  1  0.533579  0.964770  0.752411  1
  N  N21  1  0.965433  0.536424  0.248326  1
  N  N22  1  0.463576  0.034567  0.248326  1
  N  N23  1  0.035230  0.466421  0.752411  1
