# generated using pymatgen
data_La2CuNi4As3
_symmetry_space_group_name_H-M   'P 1'
_cell_length_a   4.18991900
_cell_length_b   4.18991900
_cell_length_c   9.62028300
_cell_angle_alpha   90.00000000
_cell_angle_beta   90.00000000
_cell_angle_gamma   90.00000000
_symmetry_Int_Tables_number   1
_chemical_formula_structural   La2CuNi4As3
_chemical_formula_sum   'La2 Cu1 Ni4 As3'
_cell_volume   168.88812038
_cell_formula_units_Z   1
loop_
 _symmetry_equiv_pos_site_id
 _symmetry_equiv_pos_as_xyz
  1  'x, y, z'
loop_
 _atom_site_type_symbol
 _atom_site_label
 _atom_site_symmetry_multiplicity
 _atom_site_fract_x
 _atom_site_fract_y
 _atom_site_fract_z
 _atom_site_occupancy
  La  La0  1  0.000000  0.500000  0.748855  1
  La  La1  1  0.500000  0.000000  0.251145  1
  Cu  Cu2  1  0.000000  0.000000  0.000000  1
  Ni  Ni3  1  0.000000  0.500000  0.121324  1
  Ni  Ni4  1  0.000000  0.000000  0.500000  1
  Ni  Ni5  1  0.500000  0.000000  0.878676  1
  Ni  Ni6  1  0.500000  0.500000  0.500000  1
  As  As7  1  0.000000  0.500000  0.369694  1
  As  As8  1  0.500000  0.000000  0.630306  1
  As  As9  1  0.500000  0.500000  0.000000  1
