# generated using pymatgen
data_Mg3URh4
_symmetry_space_group_name_H-M   'P 1'
_cell_length_a   7.83025053
_cell_length_b   7.83025143
_cell_length_c   7.83025100
_cell_angle_alpha   33.47506336
_cell_angle_beta   33.47506657
_cell_angle_gamma   33.47505847
_symmetry_Int_Tables_number   1
_chemical_formula_structural   Mg3URh4
_chemical_formula_sum   'Mg3 U1 Rh4'
_cell_volume   130.08249904
_cell_formula_units_Z   1
loop_
 _symmetry_equiv_pos_site_id
 _symmetry_equiv_pos_as_xyz
  1  'x, y, z'
loop_
 _atom_site_type_symbol
 _atom_site_label
 _atom_site_symmetry_multiplicity
 _atom_site_fract_x
 _atom_site_fract_y
 _atom_site_fract_z
 _atom_site_occupancy
  Mg  Mg0  1  0.242657  0.242657  0.242657  1
  Mg  Mg1  1  0.757343  0.757343  0.757343  1
  Mg  Mg2  1  0.500000  0.500000  0.500000  1
  U  U3  1  0.000000  0.000000  0.000000  1
  Rh  Rh4  1  0.881973  0.881973  0.881973  1
  Rh  Rh5  1  0.376650  0.376650  0.376650  1
  Rh  Rh6  1  0.118027  0.118027  0.118027  1
  Rh  Rh7  1  0.623350  0.623350  0.623350  1
