# generated using pymatgen
data_Ho2Zn2PdRh
_symmetry_space_group_name_H-M   'P 1'
_cell_length_a   4.02803200
_cell_length_b   6.99586100
_cell_length_c   8.19663000
_cell_angle_alpha   89.99897495
_cell_angle_beta   90.00000000
_cell_angle_gamma   90.00000000
_symmetry_Int_Tables_number   1
_chemical_formula_structural   Ho2Zn2PdRh
_chemical_formula_sum   'Ho4 Zn4 Pd2 Rh2'
_cell_volume   230.97736109
_cell_formula_units_Z   2
loop_
 _symmetry_equiv_pos_site_id
 _symmetry_equiv_pos_as_xyz
  1  'x, y, z'
loop_
 _atom_site_type_symbol
 _atom_site_label
 _atom_site_symmetry_multiplicity
 _atom_site_fract_x
 _atom_site_fract_y
 _atom_site_fract_z
 _atom_site_occupancy
  Ho  Ho0  1  0.250000  0.539185  0.179985  1
  Ho  Ho1  1  0.750000  0.460815  0.820015  1
  Ho  Ho2  1  0.250000  0.047320  0.309108  1
  Ho  Ho3  1  0.750000  0.952680  0.690892  1
  Zn  Zn4  1  0.250000  0.135205  0.937970  1
  Zn  Zn5  1  0.750000  0.864795  0.062030  1
  Zn  Zn6  1  0.250000  0.638446  0.566153  1
  Zn  Zn7  1  0.750000  0.361554  0.433847  1
  Pd  Pd8  1  0.750000  0.746934  0.377712  1
  Pd  Pd9  1  0.250000  0.253066  0.622288  1
  Rh  Rh10  1  0.750000  0.250054  0.122520  1
  Rh  Rh11  1  0.250000  0.749946  0.877480  1
