# generated using pymatgen
data_Ho3TmAl17GaIr6
_symmetry_space_group_name_H-M   'P 1'
_cell_length_a   7.53898439
_cell_length_b   7.54020505
_cell_length_c   9.47989600
_cell_angle_alpha   90.00000000
_cell_angle_beta   90.00000000
_cell_angle_gamma   119.41089211
_symmetry_Int_Tables_number   1
_chemical_formula_structural   Ho3TmAl17GaIr6
_chemical_formula_sum   'Ho3 Tm1 Al17 Ga1 Ir6'
_cell_volume   469.43751534
_cell_formula_units_Z   1
loop_
 _symmetry_equiv_pos_site_id
 _symmetry_equiv_pos_as_xyz
  1  'x, y, z'
loop_
 _atom_site_type_symbol
 _atom_site_label
 _atom_site_symmetry_multiplicity
 _atom_site_fract_x
 _atom_site_fract_y
 _atom_site_fract_z
 _atom_site_occupancy
  Ho  Ho0  1  0.993879  0.674937  0.250000  1
  Ho  Ho1  1  0.004865  0.327517  0.750000  1
  Ho  Ho2  1  0.674964  0.993838  0.250000  1
  Tm  Tm3  1  0.327321  0.004833  0.750000  1
  Al  Al4  1  0.869996  0.869747  0.750000  1
  Al  Al5  1  0.001321  0.335821  0.073615  1
  Al  Al6  1  0.998946  0.664589  0.925297  1
  Al  Al7  1  0.998946  0.664589  0.574703  1
  Al  Al8  1  0.335828  0.001316  0.426766  1
  Al  Al9  1  0.001321  0.335821  0.426385  1
  Al  Al10  1  0.663852  0.998604  0.574734  1
  Al  Al11  1  0.663852  0.998604  0.925266  1
  Al  Al12  1  0.335828  0.001316  0.073234  1
  Al  Al13  1  0.333241  0.332914  0.554691  1
  Al  Al14  1  0.665708  0.665688  0.448785  1
  Al  Al15  1  0.665708  0.665688  0.051215  1
  Al  Al16  1  0.333241  0.332914  0.945309  1
  Al  Al17  1  0.338774  0.550068  0.250000  1
  Al  Al18  1  0.660369  0.450456  0.750000  1
  Al  Al19  1  0.549995  0.338686  0.250000  1
  Al  Al20  1  0.450844  0.661078  0.750000  1
  Ga  Ga21  1  0.135277  0.135245  0.250000  1
  Ir  Ir22  1  0.671081  0.327250  0.999948  1
  Ir  Ir23  1  0.327388  0.671351  0.999956  1
  Ir  Ir24  1  0.327388  0.671351  0.500044  1
  Ir  Ir25  1  0.671081  0.327250  0.500052  1
  Ir  Ir26  1  0.999494  0.999266  0.997508  1
  Ir  Ir27  1  0.999494  0.999266  0.502492  1
