# generated using pymatgen
data_Sr4CdCo7(AsO4)8
_symmetry_space_group_name_H-M   'P 1'
_cell_length_a   9.91455020
_cell_length_b   8.75758790
_cell_length_c   9.57097811
_cell_angle_alpha   87.90048010
_cell_angle_beta   90.46851451
_cell_angle_gamma   89.75372708
_symmetry_Int_Tables_number   1
_chemical_formula_structural   Sr4CdCo7(AsO4)8
_chemical_formula_sum   'Sr4 Cd1 Co7 As8 O32'
_cell_volume   830.43011037
_cell_formula_units_Z   1
loop_
 _symmetry_equiv_pos_site_id
 _symmetry_equiv_pos_as_xyz
  1  'x, y, z'
loop_
 _atom_site_type_symbol
 _atom_site_label
 _atom_site_symmetry_multiplicity
 _atom_site_fract_x
 _atom_site_fract_y
 _atom_site_fract_z
 _atom_site_occupancy
  Sr  Sr0  1  0.918604  0.255646  0.614843  1
  Sr  Sr1  1  0.414168  0.752751  0.892142  1
  Sr  Sr2  1  0.083813  0.746058  0.381488  1
  Sr  Sr3  1  0.584555  0.246975  0.114252  1
  Cd  Cd4  1  0.569895  0.081454  0.704620  1
  Co  Co5  1  0.685330  0.572662  0.454646  1
  Co  Co6  1  0.183641  0.427094  0.050220  1
  Co  Co7  1  0.317104  0.423049  0.552722  1
  Co  Co8  1  0.818973  0.578153  0.952943  1
  Co  Co9  1  0.933033  0.074245  0.219075  1
  Co  Co10  1  0.424510  0.927016  0.277095  1
  Co  Co11  1  0.066665  0.926470  0.777075  1
  As  As12  1  0.414615  0.554914  0.253195  1
  As  As13  1  0.914483  0.440859  0.250679  1
  As  As14  1  0.584914  0.451907  0.754936  1
  As  As15  1  0.086209  0.559439  0.750776  1
  As  As16  1  0.204165  0.049556  0.061120  1
  As  As17  1  0.712062  0.947244  0.424969  1
  As  As18  1  0.795264  0.952902  0.940073  1
  As  As19  1  0.286877  0.040304  0.564997  1
  O  O20  1  0.422210  0.735046  0.173089  1
  O  O21  1  0.929018  0.260917  0.329944  1
  O  O22  1  0.571160  0.278076  0.844181  1
  O  O23  1  0.073936  0.737790  0.667590  1
  O  O24  1  0.640975  0.784275  0.494944  1
  O  O25  1  0.132556  0.219402  0.005669  1
  O  O26  1  0.370311  0.208733  0.526270  1
  O  O27  1  0.872297  0.785771  0.996076  1
  O  O28  1  0.699182  0.430679  0.621739  1
  O  O29  1  0.203620  0.567116  0.884051  1
  O  O30  1  0.296669  0.560142  0.384414  1
  O  O31  1  0.795605  0.436515  0.118535  1
  O  O32  1  0.726461  0.084747  0.548151  1
  O  O33  1  0.202105  0.919865  0.930094  1
  O  O34  1  0.288464  0.920224  0.426469  1
  O  O35  1  0.797519  0.086602  0.068263  1
  O  O36  1  0.874535  0.559145  0.385195  1
  O  O37  1  0.373768  0.433282  0.121470  1
  O  O38  1  0.128006  0.434843  0.621623  1
  O  O39  1  0.630531  0.582137  0.877298  1
  O  O40  1  0.891679  0.028979  0.803267  1
  O  O41  1  0.380150  0.951464  0.697587  1
  O  O42  1  0.106822  0.971782  0.195106  1
  O  O43  1  0.602130  0.022727  0.297924  1
  O  O44  1  0.936573  0.484771  0.811326  1
  O  O45  1  0.435090  0.524602  0.689257  1
  O  O46  1  0.062730  0.519031  0.189212  1
  O  O47  1  0.564753  0.479720  0.315517  1
  O  O48  1  0.628885  0.931482  0.892139  1
  O  O49  1  0.121252  0.066183  0.613868  1
  O  O50  1  0.370104  0.067600  0.115922  1
  O  O51  1  0.872020  0.917655  0.361944  1
