# generated using pymatgen
data_Tb3Dy17Co3Bi8Os
_symmetry_space_group_name_H-M   'P 1'
_cell_length_a   8.00843616
_cell_length_b   8.91692600
_cell_length_c   12.44231236
_cell_angle_alpha   90.00000000
_cell_angle_beta   90.23029394
_cell_angle_gamma   90.00000000
_symmetry_Int_Tables_number   1
_chemical_formula_structural   Tb3Dy17Co3Bi8Os
_chemical_formula_sum   'Tb3 Dy17 Co3 Bi8 Os1'
_cell_volume   888.50621994
_cell_formula_units_Z   1
loop_
 _symmetry_equiv_pos_site_id
 _symmetry_equiv_pos_as_xyz
  1  'x, y, z'
loop_
 _atom_site_type_symbol
 _atom_site_label
 _atom_site_symmetry_multiplicity
 _atom_site_fract_x
 _atom_site_fract_y
 _atom_site_fract_z
 _atom_site_occupancy
  Tb  Tb0  1  0.153119  0.250000  0.198641  1
  Tb  Tb1  1  0.347101  0.250000  0.699209  1
  Tb  Tb2  1  0.619714  0.250000  0.310384  1
  Dy  Dy3  1  0.846325  0.750000  0.800505  1
  Dy  Dy4  1  0.655023  0.750000  0.294719  1
  Dy  Dy5  1  0.377678  0.750000  0.693968  1
  Dy  Dy6  1  0.880256  0.250000  0.811469  1
  Dy  Dy7  1  0.119009  0.750000  0.186726  1
  Dy  Dy8  1  0.945368  0.750000  0.504156  1
  Dy  Dy9  1  0.050504  0.250000  0.496524  1
  Dy  Dy10  1  0.451970  0.250000  0.997194  1
  Dy  Dy11  1  0.547992  0.750000  0.002479  1
  Dy  Dy12  1  0.676554  0.041056  0.564843  1
  Dy  Dy13  1  0.324282  0.964402  0.436531  1
  Dy  Dy14  1  0.175394  0.965646  0.936667  1
  Dy  Dy15  1  0.324282  0.535598  0.436531  1
  Dy  Dy16  1  0.823766  0.035473  0.062879  1
  Dy  Dy17  1  0.676554  0.458944  0.564843  1
  Dy  Dy18  1  0.823766  0.464527  0.062879  1
  Dy  Dy19  1  0.175394  0.534354  0.936667  1
  Co  Co20  1  0.433603  0.250000  0.490889  1
  Co  Co21  1  0.060296  0.250000  0.991902  1
  Co  Co22  1  0.938202  0.750000  0.007284  1
  Bi  Bi23  1  0.571082  0.492053  0.827546  1
  Bi  Bi24  1  0.428929  0.507857  0.173005  1
  Bi  Bi25  1  0.070169  0.507709  0.674386  1
  Bi  Bi26  1  0.428929  0.992143  0.173005  1
  Bi  Bi27  1  0.931527  0.492904  0.326039  1
  Bi  Bi28  1  0.571082  0.007947  0.827546  1
  Bi  Bi29  1  0.931527  0.007096  0.326039  1
  Bi  Bi30  1  0.070169  0.992291  0.674386  1
  Os  Os31  1  0.570435  0.750000  0.510158  1
