# generated using pymatgen
data_La13Pr3(HgRu)4
_symmetry_space_group_name_H-M   'P 1'
_cell_length_a   10.05367337
_cell_length_b   10.06678678
_cell_length_c   10.03837917
_cell_angle_alpha   60.00698528
_cell_angle_beta   59.91018908
_cell_angle_gamma   59.85631139
_symmetry_Int_Tables_number   1
_chemical_formula_structural   La13Pr3(HgRu)4
_chemical_formula_sum   'La13 Pr3 Hg4 Ru4'
_cell_volume   717.16360655
_cell_formula_units_Z   1
loop_
 _symmetry_equiv_pos_site_id
 _symmetry_equiv_pos_as_xyz
  1  'x, y, z'
loop_
 _atom_site_type_symbol
 _atom_site_label
 _atom_site_symmetry_multiplicity
 _atom_site_fract_x
 _atom_site_fract_y
 _atom_site_fract_z
 _atom_site_occupancy
  La  La0  1  0.346514  0.348165  0.345848  1
  La  La1  1  0.345797  0.348113  0.958717  1
  La  La2  1  0.345848  0.959471  0.346514  1
  La  La3  1  0.958717  0.347371  0.345797  1
  La  La4  1  0.810495  0.190086  0.189922  1
  La  La5  1  0.189922  0.809497  0.810495  1
  La  La6  1  0.190085  0.809915  0.190085  1
  La  La7  1  0.810377  0.189623  0.810377  1
  La  La8  1  0.189659  0.189441  0.810857  1
  La  La9  1  0.810857  0.810043  0.189659  1
  La  La10  1  0.939771  0.560084  0.561447  1
  La  La11  1  0.561447  0.938698  0.939771  1
  La  La12  1  0.560808  0.939192  0.560808  1
  Pr  Pr13  1  0.938864  0.561136  0.938864  1
  Pr  Pr14  1  0.561776  0.560706  0.939462  1
  Pr  Pr15  1  0.939462  0.938057  0.561776  1
  Hg  Hg16  1  0.582577  0.582449  0.583338  1
  Hg  Hg17  1  0.583245  0.582385  0.250961  1
  Hg  Hg18  1  0.583338  0.251634  0.582577  1
  Hg  Hg19  1  0.250961  0.583407  0.583245  1
  Ru  Ru20  1  0.136920  0.136894  0.136146  1
  Ru  Ru21  1  0.136798  0.137308  0.589613  1
  Ru  Ru22  1  0.136146  0.590040  0.136920  1
  Ru  Ru23  1  0.589613  0.136280  0.136798  1
