# generated using pymatgen
data_Ac3MgCd2Sn2Pt
_symmetry_space_group_name_H-M   'P 1'
_cell_length_a   7.74180100
_cell_length_b   7.83015858
_cell_length_c   4.94859300
_cell_angle_alpha   90.00000000
_cell_angle_beta   90.00000000
_cell_angle_gamma   119.62741212
_symmetry_Int_Tables_number   1
_chemical_formula_structural   Ac3MgCd2Sn2Pt
_chemical_formula_sum   'Ac3 Mg1 Cd2 Sn2 Pt1'
_cell_volume   260.76136770
_cell_formula_units_Z   1
loop_
 _symmetry_equiv_pos_site_id
 _symmetry_equiv_pos_as_xyz
  1  'x, y, z'
loop_
 _atom_site_type_symbol
 _atom_site_label
 _atom_site_symmetry_multiplicity
 _atom_site_fract_x
 _atom_site_fract_y
 _atom_site_fract_z
 _atom_site_occupancy
  Ac  Ac0  1  0.606046  0.603460  0.000000  1
  Ac  Ac1  1  0.388327  0.000000  0.000000  1
  Ac  Ac2  1  0.002586  0.396540  0.000000  1
  Mg  Mg3  1  0.783995  0.000000  0.500000  1
  Cd  Cd4  1  0.998248  0.768357  0.500000  1
  Cd  Cd5  1  0.229891  0.231643  0.500000  1
  Sn  Sn6  1  0.338755  0.672363  0.500000  1
  Sn  Sn7  1  0.666393  0.327637  0.500000  1
  Pt  Pt8  1  0.985759  0.000000  0.000000  1
