# generated using pymatgen
data_LiPr2Ge2(PPd5)4
_symmetry_space_group_name_H-M   'P 1'
_cell_length_a   8.67298806
_cell_length_b   8.79457954
_cell_length_c   8.79458018
_cell_angle_alpha   59.08737638
_cell_angle_beta   60.45631293
_cell_angle_gamma   60.45631030
_symmetry_Int_Tables_number   1
_chemical_formula_structural   LiPr2Ge2(PPd5)4
_chemical_formula_sum   'Li1 Pr2 Ge2 P4 Pd20'
_cell_volume   474.15478106
_cell_formula_units_Z   1
loop_
 _symmetry_equiv_pos_site_id
 _symmetry_equiv_pos_as_xyz
  1  'x, y, z'
loop_
 _atom_site_type_symbol
 _atom_site_label
 _atom_site_symmetry_multiplicity
 _atom_site_fract_x
 _atom_site_fract_y
 _atom_site_fract_z
 _atom_site_occupancy
  Li  Li0  1  0.000000  0.000000  0.000000  1
  Pr  Pr1  1  0.250000  0.250000  0.250000  1
  Pr  Pr2  1  0.750000  0.750000  0.750000  1
  Ge  Ge3  1  0.739270  0.260730  0.260730  1
  Ge  Ge4  1  0.260730  0.739270  0.739270  1
  P  P5  1  0.262450  0.737550  0.262450  1
  P  P6  1  0.737550  0.262450  0.737550  1
  P  P7  1  0.262450  0.262450  0.737550  1
  P  P8  1  0.737550  0.737550  0.262450  1
  Pd  Pd9  1  0.379499  0.389119  0.389119  1
  Pd  Pd10  1  0.620501  0.610881  0.610881  1
  Pd  Pd11  1  0.389119  0.379499  0.842263  1
  Pd  Pd12  1  0.389119  0.842263  0.379499  1
  Pd  Pd13  1  0.610881  0.620501  0.157737  1
  Pd  Pd14  1  0.610881  0.157737  0.620501  1
  Pd  Pd15  1  0.842263  0.389119  0.389119  1
  Pd  Pd16  1  0.157737  0.610881  0.610881  1
  Pd  Pd17  1  0.342793  0.000000  0.000000  1
  Pd  Pd18  1  0.657207  0.000000  0.000000  1
  Pd  Pd19  1  0.000000  0.342793  0.657207  1
  Pd  Pd20  1  0.000000  0.657207  0.342793  1
  Pd  Pd21  1  0.010317  0.346860  0.989683  1
  Pd  Pd22  1  0.653140  0.989683  0.346860  1
  Pd  Pd23  1  0.989683  0.653140  0.010317  1
  Pd  Pd24  1  0.346860  0.010317  0.653140  1
  Pd  Pd25  1  0.010317  0.989683  0.346860  1
  Pd  Pd26  1  0.989683  0.010317  0.653140  1
  Pd  Pd27  1  0.653140  0.346860  0.989683  1
  Pd  Pd28  1  0.346860  0.653140  0.010317  1
