# generated using pymatgen
data_Er6Al24Os7Pt
_symmetry_space_group_name_H-M   'P 1'
_cell_length_a   8.82542230
_cell_length_b   8.82542142
_cell_length_c   9.52603872
_cell_angle_alpha   89.53722250
_cell_angle_beta   90.46277880
_cell_angle_gamma   119.86333317
_symmetry_Int_Tables_number   1
_chemical_formula_structural   Er6Al24Os7Pt
_chemical_formula_sum   'Er6 Al24 Os7 Pt1'
_cell_volume   643.41539532
_cell_formula_units_Z   1
loop_
 _symmetry_equiv_pos_site_id
 _symmetry_equiv_pos_as_xyz
  1  'x, y, z'
loop_
 _atom_site_type_symbol
 _atom_site_label
 _atom_site_symmetry_multiplicity
 _atom_site_fract_x
 _atom_site_fract_y
 _atom_site_fract_z
 _atom_site_occupancy
  Er  Er0  1  0.191137  0.387856  0.251265  1
  Er  Er1  1  0.808863  0.612144  0.748735  1
  Er  Er2  1  0.612144  0.808863  0.251265  1
  Er  Er3  1  0.387856  0.191137  0.748735  1
  Er  Er4  1  0.195357  0.804643  0.251057  1
  Er  Er5  1  0.804643  0.195357  0.748943  1
  Al  Al6  1  0.331594  0.668406  0.020116  1
  Al  Al7  1  0.668406  0.331594  0.979884  1
  Al  Al8  1  0.666594  0.333406  0.517655  1
  Al  Al9  1  0.333406  0.666594  0.482345  1
  Al  Al10  1  0.163627  0.325484  0.577457  1
  Al  Al11  1  0.836373  0.674516  0.422543  1
  Al  Al12  1  0.674516  0.836373  0.577457  1
  Al  Al13  1  0.842014  0.675589  0.077834  1
  Al  Al14  1  0.325484  0.163627  0.422543  1
  Al  Al15  1  0.157986  0.324411  0.922166  1
  Al  Al16  1  0.163382  0.836618  0.575759  1
  Al  Al17  1  0.324411  0.157986  0.077834  1
  Al  Al18  1  0.836618  0.163382  0.424241  1
  Al  Al19  1  0.675589  0.842014  0.922166  1
  Al  Al20  1  0.836980  0.163020  0.075928  1
  Al  Al21  1  0.163020  0.836980  0.924072  1
  Al  Al22  1  0.560082  0.121396  0.249097  1
  Al  Al23  1  0.439918  0.878604  0.750903  1
  Al  Al24  1  0.878604  0.439918  0.249097  1
  Al  Al25  1  0.121396  0.560082  0.750903  1
  Al  Al26  1  0.561577  0.438423  0.251879  1
  Al  Al27  1  0.438423  0.561577  0.748121  1
  Al  Al28  1  0.999624  0.000376  0.250109  1
  Al  Al29  1  0.000376  0.999624  0.749891  1
  Os  Os30  1  0.500000  0.000000  0.000000  1
  Os  Os31  1  0.000000  0.500000  0.000000  1
  Os  Os32  1  0.500000  0.000000  0.500000  1
  Os  Os33  1  0.000000  0.500000  0.500000  1
  Os  Os34  1  0.500000  0.500000  0.500000  1
  Os  Os35  1  0.000000  0.000000  0.000000  1
  Os  Os36  1  0.000000  0.000000  0.500000  1
  Pt  Pt37  1  0.500000  0.500000  0.000000  1
