# generated using pymatgen
data_EuCo2BC
_symmetry_space_group_name_H-M   'P 1'
_cell_length_a   5.72669651
_cell_length_b   5.72669634
_cell_length_c   5.72669622
_cell_angle_alpha   144.71539875
_cell_angle_beta   144.71539877
_cell_angle_gamma   50.75885510
_symmetry_Int_Tables_number   1
_chemical_formula_structural   EuCo2BC
_chemical_formula_sum   'Eu1 Co2 B1 C1'
_cell_volume   62.34354254
_cell_formula_units_Z   1
loop_
 _symmetry_equiv_pos_site_id
 _symmetry_equiv_pos_as_xyz
  1  'x, y, z'
loop_
 _atom_site_type_symbol
 _atom_site_label
 _atom_site_symmetry_multiplicity
 _atom_site_fract_x
 _atom_site_fract_y
 _atom_site_fract_z
 _atom_site_occupancy
  Eu  Eu0  1  0.998148  0.998148  0.000000  1
  Co  Co1  1  0.753669  0.253669  0.500000  1
  Co  Co2  1  0.253669  0.753669  0.500000  1
  B  B3  1  0.659909  0.659909  0.000000  1
  C  C4  1  0.334606  0.334606  0.000000  1
