# generated using pymatgen
data_Li2Tb3HfIr3
_symmetry_space_group_name_H-M   'P 1'
_cell_length_a   7.29930349
_cell_length_b   7.26839692
_cell_length_c   4.01216000
_cell_angle_alpha   90.00000000
_cell_angle_beta   90.00000000
_cell_angle_gamma   119.86003780
_symmetry_Int_Tables_number   1
_chemical_formula_structural   Li2Tb3HfIr3
_chemical_formula_sum   'Li2 Tb3 Hf1 Ir3'
_cell_volume   184.60340787
_cell_formula_units_Z   1
loop_
 _symmetry_equiv_pos_site_id
 _symmetry_equiv_pos_as_xyz
  1  'x, y, z'
loop_
 _atom_site_type_symbol
 _atom_site_label
 _atom_site_symmetry_multiplicity
 _atom_site_fract_x
 _atom_site_fract_y
 _atom_site_fract_z
 _atom_site_occupancy
  Li  Li0  1  0.753601  0.757859  0.500000  1
  Li  Li1  1  0.246399  0.004258  0.500000  1
  Tb  Tb2  1  0.427240  0.415820  0.000000  1
  Tb  Tb3  1  0.572760  0.988580  0.000000  1
  Tb  Tb4  1  0.000000  0.609121  0.000000  1
  Hf  Hf5  1  0.000000  0.243061  0.500000  1
  Ir  Ir6  1  0.000000  0.017321  0.000000  1
  Ir  Ir7  1  0.316852  0.640416  0.500000  1
  Ir  Ir8  1  0.683148  0.323562  0.500000  1
