# generated using pymatgen
data_TaHgO3F
_symmetry_space_group_name_H-M   'P 1'
_cell_length_a   3.88911831
_cell_length_b   7.36414253
_cell_length_c   6.86284639
_cell_angle_alpha   69.46976495
_cell_angle_beta   89.94654762
_cell_angle_gamma   89.90286855
_symmetry_Int_Tables_number   1
_chemical_formula_structural   TaHgO3F
_chemical_formula_sum   'Ta2 Hg2 O6 F2'
_cell_volume   184.06823039
_cell_formula_units_Z   2
loop_
 _symmetry_equiv_pos_site_id
 _symmetry_equiv_pos_as_xyz
  1  'x, y, z'
loop_
 _atom_site_type_symbol
 _atom_site_label
 _atom_site_symmetry_multiplicity
 _atom_site_fract_x
 _atom_site_fract_y
 _atom_site_fract_z
 _atom_site_occupancy
  Ta  Ta0  1  0.250692  0.847091  0.190793  1
  Ta  Ta1  1  0.749308  0.152910  0.809207  1
  Hg  Hg2  1  0.749063  0.338799  0.231454  1
  Hg  Hg3  1  0.250939  0.661202  0.768545  1
  O  O4  1  0.250921  0.644877  0.074906  1
  O  O5  1  0.750181  0.914045  0.124006  1
  O  O6  1  0.749230  0.315289  0.536591  1
  O  O7  1  0.250772  0.684711  0.463408  1
  O  O8  1  0.249818  0.085955  0.875994  1
  O  O9  1  0.749079  0.355124  0.925093  1
  F  F10  1  0.249366  0.081166  0.283669  1
  F  F11  1  0.750633  0.918832  0.716333  1
