# generated using pymatgen
data_Ca4CrSiN6
_symmetry_space_group_name_H-M   'P 1'
_cell_length_a   5.90482328
_cell_length_b   5.90482326
_cell_length_c   11.57407889
_cell_angle_alpha   89.80661426
_cell_angle_beta   90.19338524
_cell_angle_gamma   125.40674219
_symmetry_Int_Tables_number   1
_chemical_formula_structural   Ca4CrSiN6
_chemical_formula_sum   'Ca8 Cr2 Si2 N12'
_cell_volume   328.91713097
_cell_formula_units_Z   2
loop_
 _symmetry_equiv_pos_site_id
 _symmetry_equiv_pos_as_xyz
  1  'x, y, z'
loop_
 _atom_site_type_symbol
 _atom_site_label
 _atom_site_symmetry_multiplicity
 _atom_site_fract_x
 _atom_site_fract_y
 _atom_site_fract_z
 _atom_site_occupancy
  Ca  Ca0  1  0.552288  0.447712  0.651290  1
  Ca  Ca1  1  0.447712  0.552288  0.348710  1
  Ca  Ca2  1  0.950463  0.049537  0.135777  1
  Ca  Ca3  1  0.049537  0.950463  0.864223  1
  Ca  Ca4  1  0.859932  0.140068  0.578343  1
  Ca  Ca5  1  0.140068  0.859932  0.421657  1
  Ca  Ca6  1  0.637361  0.362639  0.073850  1
  Ca  Ca7  1  0.362639  0.637361  0.926150  1
  Cr  Cr8  1  0.753391  0.246609  0.336578  1
  Cr  Cr9  1  0.246609  0.753391  0.663422  1
  Si  Si10  1  0.742321  0.257679  0.842861  1
  Si  Si11  1  0.257679  0.742321  0.157139  1
  N  N12  1  0.844253  0.155747  0.957665  1
  N  N13  1  0.155747  0.844253  0.042335  1
  N  N14  1  0.659841  0.340159  0.460290  1
  N  N15  1  0.340159  0.659841  0.539710  1
  N  N16  1  0.579703  0.420297  0.860377  1
  N  N17  1  0.420297  0.579703  0.139623  1
  N  N18  1  0.915556  0.084444  0.367854  1
  N  N19  1  0.084444  0.915556  0.632146  1
  N  N20  1  0.541813  0.971128  0.747424  1
  N  N21  1  0.971128  0.541813  0.252576  1
  N  N22  1  0.458187  0.028872  0.252576  1
  N  N23  1  0.028872  0.458187  0.747424  1
