# generated using pymatgen
data_Ho3ErLu4In3Co
_symmetry_space_group_name_H-M   'P 1'
_cell_length_a   10.18795000
_cell_length_b   10.18794992
_cell_length_c   6.99751000
_cell_angle_alpha   90.00000000
_cell_angle_beta   90.00000000
_cell_angle_gamma   119.99999376
_symmetry_Int_Tables_number   1
_chemical_formula_structural   Ho3ErLu4In3Co
_chemical_formula_sum   'Ho6 Er2 Lu8 In6 Co2'
_cell_volume   628.99586909
_cell_formula_units_Z   2
loop_
 _symmetry_equiv_pos_site_id
 _symmetry_equiv_pos_as_xyz
  1  'x, y, z'
loop_
 _atom_site_type_symbol
 _atom_site_label
 _atom_site_symmetry_multiplicity
 _atom_site_fract_x
 _atom_site_fract_y
 _atom_site_fract_z
 _atom_site_occupancy
  Ho  Ho0  1  0.535034  0.070069  0.791295  1
  Ho  Ho1  1  0.929931  0.464966  0.791295  1
  Ho  Ho2  1  0.535034  0.464966  0.791295  1
  Ho  Ho3  1  0.464966  0.929931  0.291295  1
  Ho  Ho4  1  0.070069  0.535034  0.291295  1
  Ho  Ho5  1  0.464966  0.535034  0.291295  1
  Er  Er6  1  0.000000  0.000000  0.778662  1
  Er  Er7  1  0.000000  0.000000  0.278662  1
  Lu  Lu8  1  0.820867  0.641735  0.496127  1
  Lu  Lu9  1  0.358265  0.179133  0.496127  1
  Lu  Lu10  1  0.820867  0.179133  0.496127  1
  Lu  Lu11  1  0.179133  0.358265  0.996127  1
  Lu  Lu12  1  0.641735  0.820867  0.996127  1
  Lu  Lu13  1  0.179133  0.820867  0.996127  1
  Lu  Lu14  1  0.666667  0.333333  0.186055  1
  Lu  Lu15  1  0.333333  0.666667  0.686055  1
  In  In16  1  0.836509  0.673017  0.042229  1
  In  In17  1  0.326983  0.163491  0.042229  1
  In  In18  1  0.836509  0.163491  0.042229  1
  In  In19  1  0.163491  0.326983  0.542229  1
  In  In20  1  0.673017  0.836509  0.542229  1
  In  In21  1  0.163491  0.836509  0.542229  1
  Co  Co22  1  0.666667  0.333333  0.564282  1
  Co  Co23  1  0.333333  0.666667  0.064282  1
