# generated using pymatgen
data_EuAl2GaPd
_symmetry_space_group_name_H-M   'P 1'
_cell_length_a   6.20482213
_cell_length_b   6.20482203
_cell_length_c   5.85116100
_cell_angle_alpha   90.00000000
_cell_angle_beta   90.00000000
_cell_angle_gamma   117.87083300
_symmetry_Int_Tables_number   1
_chemical_formula_structural   EuAl2GaPd
_chemical_formula_sum   'Eu2 Al4 Ga2 Pd2'
_cell_volume   199.13830502
_cell_formula_units_Z   2
loop_
 _symmetry_equiv_pos_site_id
 _symmetry_equiv_pos_as_xyz
  1  'x, y, z'
loop_
 _atom_site_type_symbol
 _atom_site_label
 _atom_site_symmetry_multiplicity
 _atom_site_fract_x
 _atom_site_fract_y
 _atom_site_fract_z
 _atom_site_occupancy
  Eu  Eu0  1  0.233333  0.766667  0.750000  1
  Eu  Eu1  1  0.766667  0.233333  0.250000  1
  Al  Al2  1  0.718821  0.718821  0.000000  1
  Al  Al3  1  0.718821  0.718821  0.500000  1
  Al  Al4  1  0.281179  0.281179  0.000000  1
  Al  Al5  1  0.281179  0.281179  0.500000  1
  Ga  Ga6  1  0.664756  0.335244  0.750000  1
  Ga  Ga7  1  0.335244  0.664756  0.250000  1
  Pd  Pd8  1  0.903442  0.096558  0.750000  1
  Pd  Pd9  1  0.096558  0.903442  0.250000  1
