# generated using pymatgen
data_Th4Al4CoRu3
_symmetry_space_group_name_H-M   'P 1'
_cell_length_a   4.20755700
_cell_length_b   6.95764364
_cell_length_c   8.25757398
_cell_angle_alpha   89.60459343
_cell_angle_beta   90.00000000
_cell_angle_gamma   90.00000000
_symmetry_Int_Tables_number   1
_chemical_formula_structural   Th4Al4CoRu3
_chemical_formula_sum   'Th4 Al4 Co1 Ru3'
_cell_volume   241.73209770
_cell_formula_units_Z   1
loop_
 _symmetry_equiv_pos_site_id
 _symmetry_equiv_pos_as_xyz
  1  'x, y, z'
loop_
 _atom_site_type_symbol
 _atom_site_label
 _atom_site_symmetry_multiplicity
 _atom_site_fract_x
 _atom_site_fract_y
 _atom_site_fract_z
 _atom_site_occupancy
  Th  Th0  1  0.250000  0.041190  0.315020  1
  Th  Th1  1  0.250000  0.533784  0.179597  1
  Th  Th2  1  0.750000  0.960881  0.681260  1
  Th  Th3  1  0.750000  0.457953  0.820343  1
  Al  Al4  1  0.250000  0.131107  0.947117  1
  Al  Al5  1  0.250000  0.627697  0.556330  1
  Al  Al6  1  0.750000  0.876352  0.058089  1
  Al  Al7  1  0.750000  0.371434  0.440656  1
  Co  Co8  1  0.750000  0.244193  0.122622  1
  Ru  Ru9  1  0.250000  0.253078  0.623253  1
  Ru  Ru10  1  0.250000  0.754734  0.879598  1
  Ru  Ru11  1  0.750000  0.747600  0.376113  1
