# generated using pymatgen
data_Tb5FeSb2
_symmetry_space_group_name_H-M   'P 1'
_cell_length_a   7.90642400
_cell_length_b   8.79680900
_cell_length_c   12.23473900
_cell_angle_alpha   90.00000000
_cell_angle_beta   90.00000000
_cell_angle_gamma   90.00000000
_symmetry_Int_Tables_number   1
_chemical_formula_structural   Tb5FeSb2
_chemical_formula_sum   'Tb20 Fe4 Sb8'
_cell_volume   850.94202465
_cell_formula_units_Z   4
loop_
 _symmetry_equiv_pos_site_id
 _symmetry_equiv_pos_as_xyz
  1  'x, y, z'
loop_
 _atom_site_type_symbol
 _atom_site_label
 _atom_site_symmetry_multiplicity
 _atom_site_fract_x
 _atom_site_fract_y
 _atom_site_fract_z
 _atom_site_occupancy
  Tb  Tb0  1  0.154567  0.750000  0.203723  1
  Tb  Tb1  1  0.654567  0.250000  0.296277  1
  Tb  Tb2  1  0.845433  0.250000  0.796277  1
  Tb  Tb3  1  0.345433  0.750000  0.703723  1
  Tb  Tb4  1  0.450882  0.750000  0.996309  1
  Tb  Tb5  1  0.950882  0.250000  0.503691  1
  Tb  Tb6  1  0.549118  0.250000  0.003691  1
  Tb  Tb7  1  0.049118  0.750000  0.496309  1
  Tb  Tb8  1  0.622697  0.750000  0.306396  1
  Tb  Tb9  1  0.122697  0.250000  0.193604  1
  Tb  Tb10  1  0.377303  0.250000  0.693604  1
  Tb  Tb11  1  0.877303  0.750000  0.806396  1
  Tb  Tb12  1  0.823009  0.965402  0.063534  1
  Tb  Tb13  1  0.323009  0.034598  0.436466  1
  Tb  Tb14  1  0.176991  0.465402  0.936466  1
  Tb  Tb15  1  0.676991  0.534598  0.563534  1
  Tb  Tb16  1  0.176991  0.034598  0.936466  1
  Tb  Tb17  1  0.676991  0.965402  0.563534  1
  Tb  Tb18  1  0.823009  0.534598  0.063534  1
  Tb  Tb19  1  0.323009  0.465402  0.436466  1
  Fe  Fe20  1  0.426699  0.750000  0.488021  1
  Fe  Fe21  1  0.926699  0.250000  0.011979  1
  Fe  Fe22  1  0.573301  0.250000  0.511979  1
  Fe  Fe23  1  0.073301  0.750000  0.988021  1
  Sb  Sb24  1  0.927903  0.992798  0.327584  1
  Sb  Sb25  1  0.427903  0.007202  0.172416  1
  Sb  Sb26  1  0.072097  0.492798  0.672416  1
  Sb  Sb27  1  0.572097  0.507202  0.827584  1
  Sb  Sb28  1  0.072097  0.007202  0.672416  1
  Sb  Sb29  1  0.572097  0.992798  0.827584  1
  Sb  Sb30  1  0.927903  0.507202  0.327584  1
  Sb  Sb31  1  0.427903  0.492798  0.172416  1
