# generated using pymatgen
data_Er5Hf3(P3Rh4)4
_symmetry_space_group_name_H-M   'P 1'
_cell_length_a   12.98450100
_cell_length_b   12.98450149
_cell_length_c   3.90324500
_cell_angle_alpha   90.00000000
_cell_angle_beta   90.00000000
_cell_angle_gamma   120.00000130
_symmetry_Int_Tables_number   1
_chemical_formula_structural   Er5Hf3(P3Rh4)4
_chemical_formula_sum   'Er5 Hf3 P12 Rh16'
_cell_volume   569.91092566
_cell_formula_units_Z   1
loop_
 _symmetry_equiv_pos_site_id
 _symmetry_equiv_pos_as_xyz
  1  'x, y, z'
loop_
 _atom_site_type_symbol
 _atom_site_label
 _atom_site_symmetry_multiplicity
 _atom_site_fract_x
 _atom_site_fract_y
 _atom_site_fract_z
 _atom_site_occupancy
  Er  Er0  1  0.186505  0.186505  0.500000  1
  Er  Er1  1  0.813495  0.000000  0.500000  1
  Er  Er2  1  0.000000  0.813495  0.500000  1
  Er  Er3  1  0.333333  0.666667  0.000000  1
  Er  Er4  1  0.666667  0.333333  0.000000  1
  Hf  Hf5  1  0.553681  0.553681  0.000000  1
  Hf  Hf6  1  0.446319  0.000000  0.000000  1
  Hf  Hf7  1  0.000000  0.446319  0.000000  1
  P  P8  1  0.825070  0.825070  0.000000  1
  P  P9  1  0.174930  0.000000  0.000000  1
  P  P10  1  0.000000  0.174930  0.000000  1
  P  P11  1  0.169011  0.483103  0.500000  1
  P  P12  1  0.516897  0.685909  0.500000  1
  P  P13  1  0.314091  0.830989  0.500000  1
  P  P14  1  0.685909  0.516897  0.500000  1
  P  P15  1  0.830989  0.314091  0.500000  1
  P  P16  1  0.483103  0.169011  0.500000  1
  P  P17  1  0.351941  0.351941  0.000000  1
  P  P18  1  0.648059  0.000000  0.000000  1
  P  P19  1  0.000000  0.648059  0.000000  1
  Rh  Rh20  1  0.721128  0.721128  0.500000  1
  Rh  Rh21  1  0.278872  0.000000  0.500000  1
  Rh  Rh22  1  0.000000  0.278872  0.500000  1
  Rh  Rh23  1  0.177216  0.372799  0.000000  1
  Rh  Rh24  1  0.627201  0.804417  0.000000  1
  Rh  Rh25  1  0.195583  0.822784  0.000000  1
  Rh  Rh26  1  0.804417  0.627201  0.000000  1
  Rh  Rh27  1  0.822784  0.195583  0.000000  1
  Rh  Rh28  1  0.372799  0.177216  0.000000  1
  Rh  Rh29  1  0.356738  0.489144  0.500000  1
  Rh  Rh30  1  0.510856  0.867595  0.500000  1
  Rh  Rh31  1  0.132405  0.643262  0.500000  1
  Rh  Rh32  1  0.867595  0.510856  0.500000  1
  Rh  Rh33  1  0.643262  0.132405  0.500000  1
  Rh  Rh34  1  0.489144  0.356738  0.500000  1
  Rh  Rh35  1  0.000000  0.000000  0.000000  1
