# generated using pymatgen
data_Ca8Be3Si12Au
_symmetry_space_group_name_H-M   'P 1'
_cell_length_a   8.07999300
_cell_length_b   8.07999344
_cell_length_c   8.68918500
_cell_angle_alpha   90.00000000
_cell_angle_beta   90.00000000
_cell_angle_gamma   119.99999409
_symmetry_Int_Tables_number   1
_chemical_formula_structural   Ca8Be3Si12Au
_chemical_formula_sum   'Ca8 Be3 Si12 Au1'
_cell_volume   491.28295227
_cell_formula_units_Z   1
loop_
 _symmetry_equiv_pos_site_id
 _symmetry_equiv_pos_as_xyz
  1  'x, y, z'
loop_
 _atom_site_type_symbol
 _atom_site_label
 _atom_site_symmetry_multiplicity
 _atom_site_fract_x
 _atom_site_fract_y
 _atom_site_fract_z
 _atom_site_occupancy
  Ca  Ca0  1  0.499445  0.500555  0.750443  1
  Ca  Ca1  1  0.499555  0.500445  0.249557  1
  Ca  Ca2  1  0.001109  0.500555  0.750443  1
  Ca  Ca3  1  0.000890  0.500445  0.249557  1
  Ca  Ca4  1  0.499445  0.998891  0.750443  1
  Ca  Ca5  1  0.499555  0.999110  0.249557  1
  Ca  Ca6  1  0.000000  0.000000  0.752325  1
  Ca  Ca7  1  0.000000  0.000000  0.247735  1
  Be  Be8  1  0.666667  0.333333  0.999477  1
  Be  Be9  1  0.333333  0.666667  0.000542  1
  Be  Be10  1  0.333333  0.666667  0.499658  1
  Si  Si11  1  0.827372  0.172628  0.000072  1
  Si  Si12  1  0.172580  0.827420  0.000018  1
  Si  Si13  1  0.345254  0.172628  0.000072  1
  Si  Si14  1  0.171018  0.828982  0.499904  1
  Si  Si15  1  0.654840  0.827420  0.000018  1
  Si  Si16  1  0.836866  0.163134  0.500094  1
  Si  Si17  1  0.827372  0.654746  0.000072  1
  Si  Si18  1  0.657964  0.828982  0.499904  1
  Si  Si19  1  0.172580  0.345160  0.000018  1
  Si  Si20  1  0.326269  0.163134  0.500094  1
  Si  Si21  1  0.171018  0.342036  0.499904  1
  Si  Si22  1  0.836866  0.673731  0.500094  1
  Au  Au23  1  0.666667  0.333333  0.499999  1
