# generated using pymatgen
data_Ho6FeCo10P12Ir7
_symmetry_space_group_name_H-M   'P 1'
_cell_length_a   3.77906600
_cell_length_b   10.79529118
_cell_length_c   12.48290284
_cell_angle_alpha   89.81716570
_cell_angle_beta   90.00000000
_cell_angle_gamma   90.00000000
_symmetry_Int_Tables_number   1
_chemical_formula_structural   Ho6FeCo10P12Ir7
_chemical_formula_sum   'Ho6 Fe1 Co10 P12 Ir7'
_cell_volume   509.25138263
_cell_formula_units_Z   1
loop_
 _symmetry_equiv_pos_site_id
 _symmetry_equiv_pos_as_xyz
  1  'x, y, z'
loop_
 _atom_site_type_symbol
 _atom_site_label
 _atom_site_symmetry_multiplicity
 _atom_site_fract_x
 _atom_site_fract_y
 _atom_site_fract_z
 _atom_site_occupancy
  Ho  Ho0  1  0.000000  0.501049  0.522714  1
  Ho  Ho1  1  0.500000  0.994703  0.481432  1
  Ho  Ho2  1  0.500000  0.815054  0.200419  1
  Ho  Ho3  1  0.500000  0.184387  0.197924  1
  Ho  Ho4  1  0.000000  0.685738  0.798575  1
  Ho  Ho5  1  0.000000  0.317897  0.802626  1
  Fe  Fe6  1  0.000000  0.501167  0.992605  1
  Co  Co7  1  0.500000  0.999989  0.008354  1
  Co  Co8  1  0.000000  0.796505  0.571214  1
  Co  Co9  1  0.500000  0.880415  0.712775  1
  Co  Co10  1  0.500000  0.121263  0.717140  1
  Co  Co11  1  0.000000  0.619866  0.284846  1
  Co  Co12  1  0.000000  0.378715  0.283972  1
  Co  Co13  1  0.500000  0.332670  0.994772  1
  Co  Co14  1  0.500000  0.669907  0.995034  1
  Co  Co15  1  0.000000  0.167151  0.004622  1
  Co  Co16  1  0.000000  0.833513  0.004518  1
  P  P17  1  0.500000  0.309400  0.625371  1
  P  P18  1  0.500000  0.697873  0.621803  1
  P  P19  1  0.000000  0.188681  0.376168  1
  P  P20  1  0.000000  0.811172  0.382515  1
  P  P21  1  0.500000  0.502193  0.894111  1
  P  P22  1  0.000000  0.999615  0.106446  1
  P  P23  1  0.500000  0.844593  0.894852  1
  P  P24  1  0.500000  0.156948  0.895928  1
  P  P25  1  0.000000  0.657389  0.103019  1
  P  P26  1  0.000000  0.343605  0.102198  1
  P  P27  1  0.500000  0.499977  0.344790  1
  P  P28  1  0.000000  0.990564  0.652319  1
  Ir  Ir29  1  0.500000  0.298102  0.426563  1
  Ir  Ir30  1  0.500000  0.700708  0.428534  1
  Ir  Ir31  1  0.000000  0.198038  0.575107  1
  Ir  Ir32  1  0.500000  0.499337  0.158846  1
  Ir  Ir33  1  0.000000  0.000761  0.839017  1
  Ir  Ir34  1  0.500000  0.501945  0.706868  1
  Ir  Ir35  1  0.000000  0.999105  0.292003  1
