# generated using pymatgen
data_Tb6LuCoBr12
_symmetry_space_group_name_H-M   'P 1'
_cell_length_a   9.25770992
_cell_length_b   9.25771020
_cell_length_c   9.25771027
_cell_angle_alpha   106.96419636
_cell_angle_beta   106.96419897
_cell_angle_gamma   106.96420698
_symmetry_Int_Tables_number   1
_chemical_formula_structural   Tb6LuCoBr12
_chemical_formula_sum   'Tb6 Lu1 Co1 Br12'
_cell_volume   661.42355128
_cell_formula_units_Z   1
loop_
 _symmetry_equiv_pos_site_id
 _symmetry_equiv_pos_as_xyz
  1  'x, y, z'
loop_
 _atom_site_type_symbol
 _atom_site_label
 _atom_site_symmetry_multiplicity
 _atom_site_fract_x
 _atom_site_fract_y
 _atom_site_fract_z
 _atom_site_occupancy
  Tb  Tb0  1  0.301566  0.097184  0.021935  1
  Tb  Tb1  1  0.097184  0.021935  0.301566  1
  Tb  Tb2  1  0.021935  0.301566  0.097184  1
  Tb  Tb3  1  0.698434  0.902816  0.978065  1
  Tb  Tb4  1  0.902816  0.978065  0.698434  1
  Tb  Tb5  1  0.978065  0.698434  0.902816  1
  Lu  Lu6  1  0.500000  0.500000  0.500000  1
  Co  Co7  1  0.000000  0.000000  0.000000  1
  Br  Br8  1  0.221663  0.070207  0.678311  1
  Br  Br9  1  0.070207  0.678311  0.221663  1
  Br  Br10  1  0.678311  0.221663  0.070207  1
  Br  Br11  1  0.778337  0.929793  0.321689  1
  Br  Br12  1  0.929793  0.321689  0.778337  1
  Br  Br13  1  0.321689  0.778337  0.929793  1
  Br  Br14  1  0.389947  0.463337  0.174683  1
  Br  Br15  1  0.463337  0.174683  0.389947  1
  Br  Br16  1  0.174683  0.389947  0.463337  1
  Br  Br17  1  0.610053  0.536663  0.825317  1
  Br  Br18  1  0.536663  0.825317  0.610053  1
  Br  Br19  1  0.825317  0.610053  0.536663  1
