# generated using pymatgen
data_Yb10Sb7Au
_symmetry_space_group_name_H-M   'P 1'
_cell_length_a   8.01511445
_cell_length_b   8.38041531
_cell_length_c   15.99501800
_cell_angle_alpha   90.00000000
_cell_angle_beta   90.00000000
_cell_angle_gamma   86.54578163
_symmetry_Int_Tables_number   1
_chemical_formula_structural   Yb10Sb7Au
_chemical_formula_sum   'Yb20 Sb14 Au2'
_cell_volume   1072.43328631
_cell_formula_units_Z   2
loop_
 _symmetry_equiv_pos_site_id
 _symmetry_equiv_pos_as_xyz
  1  'x, y, z'
loop_
 _atom_site_type_symbol
 _atom_site_label
 _atom_site_symmetry_multiplicity
 _atom_site_fract_x
 _atom_site_fract_y
 _atom_site_fract_z
 _atom_site_occupancy
  Yb  Yb0  1  0.029481  0.207854  0.417788  1
  Yb  Yb1  1  0.874836  0.649059  0.380369  1
  Yb  Yb2  1  0.537444  0.320287  0.101503  1
  Yb  Yb3  1  0.125164  0.350941  0.619631  1
  Yb  Yb4  1  0.373731  0.849138  0.386696  1
  Yb  Yb5  1  0.125164  0.350941  0.880369  1
  Yb  Yb6  1  0.373731  0.849138  0.113304  1
  Yb  Yb7  1  0.210308  0.502954  0.250000  1
  Yb  Yb8  1  0.537444  0.320287  0.398497  1
  Yb  Yb9  1  0.789692  0.497046  0.750000  1
  Yb  Yb10  1  0.970519  0.792146  0.917788  1
  Yb  Yb11  1  0.970519  0.792146  0.582212  1
  Yb  Yb12  1  0.462556  0.679713  0.601503  1
  Yb  Yb13  1  0.626269  0.150862  0.613304  1
  Yb  Yb14  1  0.282384  0.011037  0.750000  1
  Yb  Yb15  1  0.626269  0.150862  0.886696  1
  Yb  Yb16  1  0.717616  0.988963  0.250000  1
  Yb  Yb17  1  0.874836  0.649059  0.119631  1
  Yb  Yb18  1  0.462556  0.679713  0.898497  1
  Yb  Yb19  1  0.029481  0.207854  0.082212  1
  Sb  Sb20  1  0.840683  0.355597  0.250000  1
  Sb  Sb21  1  0.421009  0.385847  0.750000  1
  Sb  Sb22  1  0.690862  0.869214  0.750000  1
  Sb  Sb23  1  0.774010  0.459339  0.543949  1
  Sb  Sb24  1  0.731761  0.974097  0.054126  1
  Sb  Sb25  1  0.774010  0.459339  0.956051  1
  Sb  Sb26  1  0.225990  0.540661  0.456051  1
  Sb  Sb27  1  0.225990  0.540661  0.043949  1
  Sb  Sb28  1  0.159317  0.644403  0.750000  1
  Sb  Sb29  1  0.309138  0.130786  0.250000  1
  Sb  Sb30  1  0.578991  0.614153  0.250000  1
  Sb  Sb31  1  0.268239  0.025903  0.945874  1
  Sb  Sb32  1  0.731761  0.974097  0.445874  1
  Sb  Sb33  1  0.268239  0.025903  0.554126  1
  Au  Au34  1  0.076927  0.847708  0.250000  1
  Au  Au35  1  0.923073  0.152292  0.750000  1
