# generated using pymatgen
data_Tb2Ga9Ir2Pd
_symmetry_space_group_name_H-M   'P 1'
_cell_length_a   7.62892664
_cell_length_b   7.62892643
_cell_length_c   9.51034200
_cell_angle_alpha   90.00000000
_cell_angle_beta   90.00000000
_cell_angle_gamma   119.75937460
_symmetry_Int_Tables_number   1
_chemical_formula_structural   Tb2Ga9Ir2Pd
_chemical_formula_sum   'Tb4 Ga18 Ir4 Pd2'
_cell_volume   480.50904585
_cell_formula_units_Z   2
loop_
 _symmetry_equiv_pos_site_id
 _symmetry_equiv_pos_as_xyz
  1  'x, y, z'
loop_
 _atom_site_type_symbol
 _atom_site_label
 _atom_site_symmetry_multiplicity
 _atom_site_fract_x
 _atom_site_fract_y
 _atom_site_fract_z
 _atom_site_occupancy
  Tb  Tb0  1  0.996764  0.669455  0.250000  1
  Tb  Tb1  1  0.003236  0.330545  0.750000  1
  Tb  Tb2  1  0.669455  0.996764  0.250000  1
  Tb  Tb3  1  0.330545  0.003236  0.750000  1
  Ga  Ga4  1  0.128806  0.128806  0.250000  1
  Ga  Ga5  1  0.871194  0.871194  0.750000  1
  Ga  Ga6  1  0.999302  0.337175  0.080754  1
  Ga  Ga7  1  0.000698  0.662825  0.919246  1
  Ga  Ga8  1  0.000698  0.662825  0.580754  1
  Ga  Ga9  1  0.337175  0.999302  0.419246  1
  Ga  Ga10  1  0.999302  0.337175  0.419246  1
  Ga  Ga11  1  0.662825  0.000698  0.580754  1
  Ga  Ga12  1  0.662825  0.000698  0.919246  1
  Ga  Ga13  1  0.337175  0.999302  0.080754  1
  Ga  Ga14  1  0.335299  0.335299  0.566715  1
  Ga  Ga15  1  0.664701  0.664701  0.433285  1
  Ga  Ga16  1  0.664701  0.664701  0.066715  1
  Ga  Ga17  1  0.335299  0.335299  0.933285  1
  Ga  Ga18  1  0.337501  0.545949  0.250000  1
  Ga  Ga19  1  0.662499  0.454051  0.750000  1
  Ga  Ga20  1  0.545949  0.337501  0.250000  1
  Ga  Ga21  1  0.454051  0.662499  0.750000  1
  Ir  Ir22  1  0.671390  0.328610  0.000000  1
  Ir  Ir23  1  0.328610  0.671390  0.000000  1
  Ir  Ir24  1  0.328610  0.671390  0.500000  1
  Ir  Ir25  1  0.671390  0.328610  0.500000  1
  Pd  Pd26  1  0.000000  0.000000  0.000000  1
  Pd  Pd27  1  0.000000  0.000000  0.500000  1
