# generated using pymatgen
data_Pr3Lu(Sn5Rh3)2
_symmetry_space_group_name_H-M   'P 1'
_cell_length_a   13.59651638
_cell_length_b   13.59651637
_cell_length_c   7.25030122
_cell_angle_alpha   90.22260284
_cell_angle_beta   89.77739803
_cell_angle_gamma   160.84194045
_symmetry_Int_Tables_number   1
_chemical_formula_structural   Pr3Lu(Sn5Rh3)2
_chemical_formula_sum   'Pr3 Lu1 Sn10 Rh6'
_cell_volume   439.85936054
_cell_formula_units_Z   1
loop_
 _symmetry_equiv_pos_site_id
 _symmetry_equiv_pos_as_xyz
  1  'x, y, z'
loop_
 _atom_site_type_symbol
 _atom_site_label
 _atom_site_symmetry_multiplicity
 _atom_site_fract_x
 _atom_site_fract_y
 _atom_site_fract_z
 _atom_site_occupancy
  Pr  Pr0  1  0.172181  0.827819  0.254197  1
  Pr  Pr1  1  0.523258  0.476742  0.739260  1
  Pr  Pr2  1  0.827988  0.172012  0.753735  1
  Lu  Lu3  1  0.475046  0.524954  0.238878  1
  Sn  Sn4  1  0.704559  0.295441  0.549423  1
  Sn  Sn5  1  0.595181  0.404819  0.112590  1
  Sn  Sn6  1  0.046708  0.953292  0.398309  1
  Sn  Sn7  1  0.951894  0.048106  0.903931  1
  Sn  Sn8  1  0.709961  0.290039  0.975474  1
  Sn  Sn9  1  0.290248  0.709752  0.475082  1
  Sn  Sn10  1  0.296162  0.703838  0.049294  1
  Sn  Sn11  1  0.879635  0.120365  0.233830  1
  Sn  Sn12  1  0.121142  0.878858  0.733207  1
  Sn  Sn13  1  0.404031  0.595969  0.609916  1
  Rh  Rh14  1  0.396722  0.603278  0.989786  1
  Rh  Rh15  1  0.777493  0.222507  0.264493  1
  Rh  Rh16  1  0.222866  0.777134  0.764643  1
  Rh  Rh17  1  0.050373  0.949627  0.021826  1
  Rh  Rh18  1  0.605243  0.394757  0.484343  1
  Rh  Rh19  1  0.949310  0.050690  0.511582  1
