# generated using pymatgen
data_HoEr5BiO12
_symmetry_space_group_name_H-M   'P 1'
_cell_length_a   6.51239112
_cell_length_b   6.51373710
_cell_length_c   6.51555367
_cell_angle_alpha   99.12250761
_cell_angle_beta   99.07614238
_cell_angle_gamma   99.13111403
_symmetry_Int_Tables_number   1
_chemical_formula_structural   HoEr5BiO12
_chemical_formula_sum   'Ho1 Er5 Bi1 O12'
_cell_volume   264.65061214
_cell_formula_units_Z   1
loop_
 _symmetry_equiv_pos_site_id
 _symmetry_equiv_pos_as_xyz
  1  'x, y, z'
loop_
 _atom_site_type_symbol
 _atom_site_label
 _atom_site_symmetry_multiplicity
 _atom_site_fract_x
 _atom_site_fract_y
 _atom_site_fract_z
 _atom_site_occupancy
  Ho  Ho0  1  0.858657  0.691486  0.390832  1
  Er  Er1  1  0.141208  0.308434  0.609426  1
  Er  Er2  1  0.391026  0.859066  0.692007  1
  Er  Er3  1  0.691203  0.390634  0.858861  1
  Er  Er4  1  0.308627  0.608846  0.140721  1
  Er  Er5  1  0.608905  0.141563  0.308565  1
  Bi  Bi6  1  0.000228  0.000371  0.000218  1
  O  O7  1  0.072066  0.317921  0.948555  1
  O  O8  1  0.052575  0.928790  0.682848  1
  O  O9  1  0.415409  0.567479  0.821330  1
  O  O10  1  0.179521  0.584172  0.432871  1
  O  O11  1  0.682300  0.051527  0.927838  1
  O  O12  1  0.432628  0.178590  0.584583  1
  O  O13  1  0.566139  0.822087  0.415393  1
  O  O14  1  0.317781  0.948245  0.072195  1
  O  O15  1  0.821579  0.414270  0.567723  1
  O  O16  1  0.583707  0.431888  0.177855  1
  O  O17  1  0.948321  0.072524  0.317670  1
  O  O18  1  0.928117  0.682108  0.050509  1
