# generated using pymatgen
data_Th2SnPdPt
_symmetry_space_group_name_H-M   'P 1'
_cell_length_a   7.90968400
_cell_length_b   7.91196900
_cell_length_c   3.87698200
_cell_angle_alpha   90.00000000
_cell_angle_beta   90.00000000
_cell_angle_gamma   90.00000000
_symmetry_Int_Tables_number   1
_chemical_formula_structural   Th2SnPdPt
_chemical_formula_sum   'Th4 Sn2 Pd2 Pt2'
_cell_volume   242.62608749
_cell_formula_units_Z   2
loop_
 _symmetry_equiv_pos_site_id
 _symmetry_equiv_pos_as_xyz
  1  'x, y, z'
loop_
 _atom_site_type_symbol
 _atom_site_label
 _atom_site_symmetry_multiplicity
 _atom_site_fract_x
 _atom_site_fract_y
 _atom_site_fract_z
 _atom_site_occupancy
  Th  Th0  1  0.674879  0.179762  0.500000  1
  Th  Th1  1  0.174879  0.320238  0.500000  1
  Th  Th2  1  0.323854  0.828976  0.500000  1
  Th  Th3  1  0.823854  0.671024  0.500000  1
  Sn  Sn4  1  0.495310  0.505159  0.000000  1
  Sn  Sn5  1  0.995310  0.994841  0.000000  1
  Pd  Pd6  1  0.630274  0.869870  0.000000  1
  Pd  Pd7  1  0.130274  0.630130  0.000000  1
  Pt  Pt8  1  0.875683  0.375723  0.000000  1
  Pt  Pt9  1  0.375683  0.124277  0.000000  1
