# generated using pymatgen
data_Tm2B4Ir3Rh2
_symmetry_space_group_name_H-M   'P 1'
_cell_length_a   7.49405837
_cell_length_b   6.32430614
_cell_length_c   5.57229532
_cell_angle_alpha   77.80677479
_cell_angle_beta   55.57545869
_cell_angle_gamma   46.61776948
_symmetry_Int_Tables_number   1
_chemical_formula_structural   Tm2B4Ir3Rh2
_chemical_formula_sum   'Tm2 B4 Ir3 Rh2'
_cell_volume   151.26298393
_cell_formula_units_Z   1
loop_
 _symmetry_equiv_pos_site_id
 _symmetry_equiv_pos_as_xyz
  1  'x, y, z'
loop_
 _atom_site_type_symbol
 _atom_site_label
 _atom_site_symmetry_multiplicity
 _atom_site_fract_x
 _atom_site_fract_y
 _atom_site_fract_z
 _atom_site_occupancy
  Tm  Tm0  1  0.641292  0.641293  0.358708  1
  Tm  Tm1  1  0.358708  0.358708  0.641292  1
  B  B2  1  0.286698  0.983985  0.016016  1
  B  B3  1  0.016015  0.713303  0.286698  1
  B  B4  1  0.983984  0.286698  0.713302  1
  B  B5  1  0.713302  0.016016  0.983985  1
  Ir  Ir6  1  0.000000  0.000000  0.000000  1
  Ir  Ir7  1  0.250001  0.249999  0.249999  1
  Ir  Ir8  1  0.750001  0.750000  0.749999  1
  Rh  Rh9  1  0.500001  0.499999  0.000000  1
  Rh  Rh10  1  0.000000  0.000000  0.499999  1
