# generated using pymatgen
data_Li3Sm3PtAu2
_symmetry_space_group_name_H-M   'P 1'
_cell_length_a   7.63476200
_cell_length_b   7.63476040
_cell_length_c   3.89773800
_cell_angle_alpha   90.00000000
_cell_angle_beta   90.00000000
_cell_angle_gamma   120.00000692
_symmetry_Int_Tables_number   1
_chemical_formula_structural   Li3Sm3PtAu2
_chemical_formula_sum   'Li3 Sm3 Pt1 Au2'
_cell_volume   196.75879775
_cell_formula_units_Z   1
loop_
 _symmetry_equiv_pos_site_id
 _symmetry_equiv_pos_as_xyz
  1  'x, y, z'
loop_
 _atom_site_type_symbol
 _atom_site_label
 _atom_site_symmetry_multiplicity
 _atom_site_fract_x
 _atom_site_fract_y
 _atom_site_fract_z
 _atom_site_occupancy
  Li  Li0  1  0.239448  0.998931  0.500000  1
  Li  Li1  1  0.001069  0.240518  0.500000  1
  Li  Li2  1  0.759482  0.760552  0.500000  1
  Sm  Sm3  1  0.599745  0.013435  0.000000  1
  Sm  Sm4  1  0.986565  0.586310  0.000000  1
  Sm  Sm5  1  0.413690  0.400255  0.000000  1
  Pt  Pt6  1  0.666667  0.333333  0.500000  1
  Au  Au7  1  0.333333  0.666667  0.500000  1
  Au  Au8  1  0.000000  0.000000  0.000000  1
