# generated using pymatgen
data_Rb4Zr6BBr18
_symmetry_space_group_name_H-M   'P 1'
_cell_length_a   10.57599904
_cell_length_b   10.85132047
_cell_length_c   10.95190963
_cell_angle_alpha   118.72744807
_cell_angle_beta   100.19403568
_cell_angle_gamma   104.12796075
_symmetry_Int_Tables_number   1
_chemical_formula_structural   Rb4Zr6BBr18
_chemical_formula_sum   'Rb4 Zr6 B1 Br18'
_cell_volume   1002.79255519
_cell_formula_units_Z   1
loop_
 _symmetry_equiv_pos_site_id
 _symmetry_equiv_pos_as_xyz
  1  'x, y, z'
loop_
 _atom_site_type_symbol
 _atom_site_label
 _atom_site_symmetry_multiplicity
 _atom_site_fract_x
 _atom_site_fract_y
 _atom_site_fract_z
 _atom_site_occupancy
  Rb  Rb0  1  0.188738  0.725526  0.564053  1
  Rb  Rb1  1  0.845492  0.962671  0.772046  1
  Rb  Rb2  1  0.154508  0.037329  0.227954  1
  Rb  Rb3  1  0.811262  0.274474  0.435947  1
  Zr  Zr4  1  0.353797  0.447006  0.774413  1
  Zr  Zr5  1  0.363835  0.624519  0.130928  1
  Zr  Zr6  1  0.641566  0.734124  0.042447  1
  Zr  Zr7  1  0.646203  0.552994  0.225587  1
  Zr  Zr8  1  0.358434  0.265876  0.957553  1
  Zr  Zr9  1  0.636165  0.375481  0.869072  1
  B  B10  1  0.500000  0.500000  0.000000  1
  Br  Br11  1  0.818832  0.425414  0.109278  1
  Br  Br12  1  0.515411  0.702913  0.403924  1
  Br  Br13  1  0.182230  0.984406  0.901165  1
  Br  Br14  1  0.181168  0.574586  0.890722  1
  Br  Br15  1  0.825464  0.827976  0.305947  1
  Br  Br16  1  0.503656  0.296449  0.208116  1
  Br  Br17  1  0.793414  0.230315  0.717502  1
  Br  Br18  1  0.174536  0.172024  0.694053  1
  Br  Br19  1  0.508276  0.905159  0.195111  1
  Br  Br20  1  0.815272  0.627045  0.906024  1
  Br  Br21  1  0.206586  0.769685  0.282498  1
  Br  Br22  1  0.170854  0.380148  0.505139  1
  Br  Br23  1  0.496344  0.703551  0.791884  1
  Br  Br24  1  0.817770  0.015594  0.098835  1
  Br  Br25  1  0.484589  0.297087  0.596076  1
  Br  Br26  1  0.184728  0.372955  0.093976  1
  Br  Br27  1  0.829146  0.619852  0.494861  1
  Br  Br28  1  0.491724  0.094841  0.804889  1
