# generated using pymatgen
data_SrLa(SiPt2)2
_symmetry_space_group_name_H-M   'P 1'
_cell_length_a   4.24010091
_cell_length_b   4.26620300
_cell_length_c   9.23161185
_cell_angle_alpha   90.00000000
_cell_angle_beta   103.27651193
_cell_angle_gamma   90.00000000
_symmetry_Int_Tables_number   1
_chemical_formula_structural   SrLa(SiPt2)2
_chemical_formula_sum   'Sr1 La1 Si2 Pt4'
_cell_volume   162.52866400
_cell_formula_units_Z   1
loop_
 _symmetry_equiv_pos_site_id
 _symmetry_equiv_pos_as_xyz
  1  'x, y, z'
loop_
 _atom_site_type_symbol
 _atom_site_label
 _atom_site_symmetry_multiplicity
 _atom_site_fract_x
 _atom_site_fract_y
 _atom_site_fract_z
 _atom_site_occupancy
  Sr  Sr0  1  0.600347  0.250000  0.200693  1
  La  La1  1  0.400672  0.750000  0.801345  1
  Si  Si2  1  0.819508  0.250000  0.639016  1
  Si  Si3  1  0.179663  0.750000  0.359326  1
  Pt  Pt4  1  0.951122  0.250000  0.902243  1
  Pt  Pt5  1  0.046954  0.750000  0.093907  1
  Pt  Pt6  1  0.252663  0.250000  0.505325  1
  Pt  Pt7  1  0.749071  0.750000  0.498142  1
