# generated using pymatgen
data_Dy4TaMnOs6
_symmetry_space_group_name_H-M   'P 1'
_cell_length_a   5.28977719
_cell_length_b   5.28977905
_cell_length_c   8.90004200
_cell_angle_alpha   90.00000000
_cell_angle_beta   90.00000000
_cell_angle_gamma   117.67705589
_symmetry_Int_Tables_number   1
_chemical_formula_structural   Dy4TaMnOs6
_chemical_formula_sum   'Dy4 Ta1 Mn1 Os6'
_cell_volume   220.54368247
_cell_formula_units_Z   1
loop_
 _symmetry_equiv_pos_site_id
 _symmetry_equiv_pos_as_xyz
  1  'x, y, z'
loop_
 _atom_site_type_symbol
 _atom_site_label
 _atom_site_symmetry_multiplicity
 _atom_site_fract_x
 _atom_site_fract_y
 _atom_site_fract_z
 _atom_site_occupancy
  Dy  Dy0  1  0.329133  0.670867  0.441200  1
  Dy  Dy1  1  0.666949  0.333051  0.568128  1
  Dy  Dy2  1  0.666949  0.333051  0.931872  1
  Dy  Dy3  1  0.329133  0.670867  0.058800  1
  Ta  Ta4  1  0.839670  0.160330  0.250000  1
  Mn  Mn5  1  0.167117  0.832883  0.750000  1
  Os  Os6  1  0.998388  0.001612  0.507988  1
  Os  Os7  1  0.998388  0.001612  0.992012  1
  Os  Os8  1  0.824211  0.652451  0.250000  1
  Os  Os9  1  0.347549  0.175789  0.250000  1
  Os  Os10  1  0.177785  0.345271  0.750000  1
  Os  Os11  1  0.654729  0.822215  0.750000  1
