# generated using pymatgen
data_CaEr2(AlNi2)3
_symmetry_space_group_name_H-M   'P 1'
_cell_length_a   5.23802800
_cell_length_b   5.23802809
_cell_length_c   15.67853500
_cell_angle_alpha   90.00000000
_cell_angle_beta   90.00000000
_cell_angle_gamma   119.99998677
_symmetry_Int_Tables_number   1
_chemical_formula_structural   CaEr2(AlNi2)3
_chemical_formula_sum   'Ca2 Er4 Al6 Ni12'
_cell_volume   372.53905492
_cell_formula_units_Z   2
loop_
 _symmetry_equiv_pos_site_id
 _symmetry_equiv_pos_as_xyz
  1  'x, y, z'
loop_
 _atom_site_type_symbol
 _atom_site_label
 _atom_site_symmetry_multiplicity
 _atom_site_fract_x
 _atom_site_fract_y
 _atom_site_fract_z
 _atom_site_occupancy
  Ca  Ca0  1  0.333333  0.666667  0.750000  1
  Ca  Ca1  1  0.666667  0.333333  0.250000  1
  Er  Er2  1  0.333333  0.666667  0.544313  1
  Er  Er3  1  0.666667  0.333333  0.455687  1
  Er  Er4  1  0.666667  0.333333  0.044313  1
  Er  Er5  1  0.333333  0.666667  0.955687  1
  Al  Al6  1  0.000000  0.000000  0.250000  1
  Al  Al7  1  0.000000  0.000000  0.750000  1
  Al  Al8  1  0.333333  0.666667  0.250000  1
  Al  Al9  1  0.666667  0.333333  0.750000  1
  Al  Al10  1  0.000000  0.000000  0.000000  1
  Al  Al11  1  0.000000  0.000000  0.500000  1
  Ni  Ni12  1  0.168816  0.337631  0.124477  1
  Ni  Ni13  1  0.831184  0.662369  0.875523  1
  Ni  Ni14  1  0.662369  0.831184  0.124477  1
  Ni  Ni15  1  0.831184  0.662369  0.624477  1
  Ni  Ni16  1  0.337631  0.168816  0.875523  1
  Ni  Ni17  1  0.168816  0.337631  0.375523  1
  Ni  Ni18  1  0.168816  0.831184  0.124477  1
  Ni  Ni19  1  0.337631  0.168816  0.624477  1
  Ni  Ni20  1  0.831184  0.168816  0.875523  1
  Ni  Ni21  1  0.662369  0.831184  0.375523  1
  Ni  Ni22  1  0.831184  0.168816  0.624477  1
  Ni  Ni23  1  0.168816  0.831184  0.375523  1
