# generated using pymatgen
data_Yb3SmGa2(Si4Pt3)2
_symmetry_space_group_name_H-M   'P 1'
_cell_length_a   8.33154173
_cell_length_b   8.32488881
_cell_length_c   8.28957386
_cell_angle_alpha   138.08777623
_cell_angle_beta   104.83309957
_cell_angle_gamma   90.26432294
_symmetry_Int_Tables_number   1
_chemical_formula_structural   Yb3SmGa2(Si4Pt3)2
_chemical_formula_sum   'Yb3 Sm1 Ga2 Si8 Pt6'
_cell_volume   353.91223584
_cell_formula_units_Z   1
loop_
 _symmetry_equiv_pos_site_id
 _symmetry_equiv_pos_as_xyz
  1  'x, y, z'
loop_
 _atom_site_type_symbol
 _atom_site_label
 _atom_site_symmetry_multiplicity
 _atom_site_fract_x
 _atom_site_fract_y
 _atom_site_fract_z
 _atom_site_occupancy
  Yb  Yb0  1  0.633851  0.368682  0.266857  1
  Yb  Yb1  1  0.365089  0.630566  0.733054  1
  Yb  Yb2  1  0.104190  0.868521  0.232769  1
  Sm  Sm3  1  0.898845  0.133282  0.769052  1
  Ga  Ga4  1  0.271750  0.521502  0.252859  1
  Ga  Ga5  1  0.728033  0.478546  0.747849  1
  Si  Si6  1  0.727559  0.980384  0.250131  1
  Si  Si7  1  0.270345  0.019476  0.751260  1
  Si  Si8  1  0.458233  0.108368  0.347512  1
  Si  Si9  1  0.541442  0.890882  0.651711  1
  Si  Si10  1  0.758213  0.608529  0.149937  1
  Si  Si11  1  0.240457  0.390304  0.848506  1
  Si  Si12  1  0.008072  0.257034  0.251258  1
  Si  Si13  1  0.995423  0.745232  0.749497  1
  Pt  Pt14  1  0.249113  0.121425  0.107159  1
  Pt  Pt15  1  0.751229  0.878844  0.894786  1
  Pt  Pt16  1  0.013954  0.642573  0.391228  1
  Pt  Pt17  1  0.984851  0.357176  0.605011  1
  Pt  Pt18  1  0.493798  0.242735  0.749005  1
  Pt  Pt19  1  0.505553  0.755940  0.250560  1
