# generated using pymatgen
data_CeEr7(CdCo)2
_symmetry_space_group_name_H-M   'P 1'
_cell_length_a   9.29984265
_cell_length_b   9.52967201
_cell_length_c   9.52967110
_cell_angle_alpha   58.41073316
_cell_angle_beta   60.79463873
_cell_angle_gamma   60.79463266
_symmetry_Int_Tables_number   1
_chemical_formula_structural   CeEr7(CdCo)2
_chemical_formula_sum   'Ce2 Er14 Cd4 Co4'
_cell_volume   596.51700431
_cell_formula_units_Z   2
loop_
 _symmetry_equiv_pos_site_id
 _symmetry_equiv_pos_as_xyz
  1  'x, y, z'
loop_
 _atom_site_type_symbol
 _atom_site_label
 _atom_site_symmetry_multiplicity
 _atom_site_fract_x
 _atom_site_fract_y
 _atom_site_fract_z
 _atom_site_occupancy
  Ce  Ce0  1  0.816519  0.183481  0.183481  1
  Ce  Ce1  1  0.183481  0.816519  0.816519  1
  Er  Er2  1  0.190384  0.809616  0.190384  1
  Er  Er3  1  0.809616  0.190384  0.809616  1
  Er  Er4  1  0.190384  0.190384  0.809616  1
  Er  Er5  1  0.809616  0.809616  0.190384  1
  Er  Er6  1  0.925089  0.574911  0.574911  1
  Er  Er7  1  0.574911  0.925089  0.925089  1
  Er  Er8  1  0.558698  0.941302  0.558698  1
  Er  Er9  1  0.941302  0.558698  0.941302  1
  Er  Er10  1  0.558698  0.558698  0.941302  1
  Er  Er11  1  0.941302  0.941302  0.558698  1
  Er  Er12  1  0.333657  0.349658  0.349658  1
  Er  Er13  1  0.349658  0.333657  0.967028  1
  Er  Er14  1  0.349658  0.967028  0.333657  1
  Er  Er15  1  0.967028  0.349658  0.349658  1
  Cd  Cd16  1  0.582966  0.579384  0.579384  1
  Cd  Cd17  1  0.579384  0.582966  0.258265  1
  Cd  Cd18  1  0.579384  0.258265  0.582966  1
  Cd  Cd19  1  0.258265  0.579384  0.579384  1
  Co  Co20  1  0.095297  0.154988  0.154988  1
  Co  Co21  1  0.154988  0.095297  0.594727  1
  Co  Co22  1  0.154988  0.594727  0.095297  1
  Co  Co23  1  0.594727  0.154988  0.154988  1
