# generated using pymatgen
data_Dy3ErGa20OsRu5
_symmetry_space_group_name_H-M   'P 1'
_cell_length_a   8.90263244
_cell_length_b   8.90291244
_cell_length_c   6.42845400
_cell_angle_alpha   90.00000000
_cell_angle_beta   90.00000000
_cell_angle_gamma   90.06507804
_symmetry_Int_Tables_number   1
_chemical_formula_structural   Dy3ErGa20OsRu5
_chemical_formula_sum   'Dy3 Er1 Ga20 Os1 Ru5'
_cell_volume   509.51480202
_cell_formula_units_Z   1
loop_
 _symmetry_equiv_pos_site_id
 _symmetry_equiv_pos_as_xyz
  1  'x, y, z'
loop_
 _atom_site_type_symbol
 _atom_site_label
 _atom_site_symmetry_multiplicity
 _atom_site_fract_x
 _atom_site_fract_y
 _atom_site_fract_z
 _atom_site_occupancy
  Dy  Dy0  1  0.682496  0.183828  0.000000  1
  Dy  Dy1  1  0.317535  0.816158  0.000000  1
  Dy  Dy2  1  0.816138  0.682526  0.000000  1
  Er  Er3  1  0.183859  0.317412  0.000000  1
  Ga  Ga4  1  0.939187  0.206519  0.293471  1
  Ga  Ga5  1  0.706642  0.438853  0.294729  1
  Ga  Ga6  1  0.500011  0.999990  0.287978  1
  Ga  Ga7  1  0.561221  0.706631  0.705268  1
  Ga  Ga8  1  0.293254  0.560915  0.705685  1
  Ga  Ga9  1  0.793616  0.938879  0.293902  1
  Ga  Ga10  1  0.939187  0.206519  0.706529  1
  Ga  Ga11  1  0.293254  0.560915  0.294315  1
  Ga  Ga12  1  0.061063  0.793596  0.293895  1
  Ga  Ga13  1  0.706642  0.438853  0.705271  1
  Ga  Ga14  1  0.438368  0.293318  0.705893  1
  Ga  Ga15  1  0.061063  0.793596  0.706105  1
  Ga  Ga16  1  0.206462  0.061548  0.706743  1
  Ga  Ga17  1  0.793616  0.938879  0.706098  1
  Ga  Ga18  1  0.206462  0.061548  0.293257  1
  Ga  Ga19  1  0.000287  0.499726  0.712799  1
  Ga  Ga20  1  0.000287  0.499726  0.287201  1
  Ga  Ga21  1  0.561221  0.706631  0.294732  1
  Ga  Ga22  1  0.438368  0.293318  0.294107  1
  Ga  Ga23  1  0.500011  0.999990  0.712022  1
  Os  Os24  1  0.499351  0.499642  0.000000  1
  Ru  Ru25  1  0.678174  0.178299  0.500000  1
  Ru  Ru26  1  0.821859  0.678002  0.500000  1
  Ru  Ru27  1  0.178253  0.321919  0.500000  1
  Ru  Ru28  1  0.000284  0.000541  0.000000  1
  Ru  Ru29  1  0.321827  0.821725  0.500000  1
