# generated using pymatgen
data_La2Nd(GaIr)2
_symmetry_space_group_name_H-M   'P 1'
_cell_length_a   5.80324900
_cell_length_b   8.26688800
_cell_length_c   13.76423800
_cell_angle_alpha   90.00000000
_cell_angle_beta   90.00000000
_cell_angle_gamma   90.00000000
_symmetry_Int_Tables_number   1
_chemical_formula_structural   La2Nd(GaIr)2
_chemical_formula_sum   'La8 Nd4 Ga8 Ir8'
_cell_volume   660.33669623
_cell_formula_units_Z   4
loop_
 _symmetry_equiv_pos_site_id
 _symmetry_equiv_pos_as_xyz
  1  'x, y, z'
loop_
 _atom_site_type_symbol
 _atom_site_label
 _atom_site_symmetry_multiplicity
 _atom_site_fract_x
 _atom_site_fract_y
 _atom_site_fract_z
 _atom_site_occupancy
  La  La0  1  0.153279  0.400311  0.097061  1
  La  La1  1  0.846721  0.599689  0.902939  1
  La  La2  1  0.846721  0.599689  0.597061  1
  La  La3  1  0.846721  0.900311  0.402939  1
  La  La4  1  0.153279  0.400311  0.402939  1
  La  La5  1  0.153279  0.099689  0.597061  1
  La  La6  1  0.153279  0.099689  0.902939  1
  La  La7  1  0.846721  0.900311  0.097061  1
  Nd  Nd8  1  0.635512  0.257585  0.250000  1
  Nd  Nd9  1  0.364488  0.742415  0.750000  1
  Nd  Nd10  1  0.364488  0.757585  0.250000  1
  Nd  Nd11  1  0.635512  0.242415  0.750000  1
  Ga  Ga12  1  0.141006  0.106869  0.250000  1
  Ga  Ga13  1  0.858994  0.893131  0.750000  1
  Ga  Ga14  1  0.858994  0.606869  0.250000  1
  Ga  Ga15  1  0.141006  0.393131  0.750000  1
  Ga  Ga16  1  0.626288  0.250000  0.000000  1
  Ga  Ga17  1  0.373712  0.750000  0.000000  1
  Ga  Ga18  1  0.373712  0.750000  0.500000  1
  Ga  Ga19  1  0.626288  0.250000  0.500000  1
  Ir  Ir20  1  0.357938  0.030310  0.092255  1
  Ir  Ir21  1  0.642062  0.969690  0.907745  1
  Ir  Ir22  1  0.642062  0.969690  0.592255  1
  Ir  Ir23  1  0.642062  0.530310  0.407745  1
  Ir  Ir24  1  0.357938  0.030310  0.407745  1
  Ir  Ir25  1  0.357938  0.469690  0.592255  1
  Ir  Ir26  1  0.357938  0.469690  0.907745  1
  Ir  Ir27  1  0.642062  0.530310  0.092255  1
