# generated using pymatgen
data_TbYGa9NiRh2
_symmetry_space_group_name_H-M   'P 1'
_cell_length_a   7.54782814
_cell_length_b   7.54745007
_cell_length_c   9.47833100
_cell_angle_alpha   90.00000000
_cell_angle_beta   90.00000000
_cell_angle_gamma   120.04506579
_symmetry_Int_Tables_number   1
_chemical_formula_structural   TbYGa9NiRh2
_chemical_formula_sum   'Tb2 Y2 Ga18 Ni2 Rh4'
_cell_volume   467.39854566
_cell_formula_units_Z   2
loop_
 _symmetry_equiv_pos_site_id
 _symmetry_equiv_pos_as_xyz
  1  'x, y, z'
loop_
 _atom_site_type_symbol
 _atom_site_label
 _atom_site_symmetry_multiplicity
 _atom_site_fract_x
 _atom_site_fract_y
 _atom_site_fract_z
 _atom_site_occupancy
  Tb  Tb0  1  0.664209  0.996064  0.250000  1
  Tb  Tb1  1  0.335791  0.003936  0.750000  1
  Y  Y2  1  0.996042  0.664215  0.250000  1
  Y  Y3  1  0.003958  0.335785  0.750000  1
  Ga  Ga4  1  0.116117  0.116226  0.250000  1
  Ga  Ga5  1  0.883883  0.883774  0.750000  1
  Ga  Ga6  1  0.999648  0.329187  0.077402  1
  Ga  Ga7  1  0.000352  0.670813  0.922598  1
  Ga  Ga8  1  0.000352  0.670813  0.577402  1
  Ga  Ga9  1  0.328935  0.999566  0.422537  1
  Ga  Ga10  1  0.999648  0.329187  0.422598  1
  Ga  Ga11  1  0.671065  0.000434  0.577463  1
  Ga  Ga12  1  0.671065  0.000434  0.922537  1
  Ga  Ga13  1  0.328935  0.999566  0.077463  1
  Ga  Ga14  1  0.328511  0.328610  0.563281  1
  Ga  Ga15  1  0.671489  0.671390  0.436719  1
  Ga  Ga16  1  0.671489  0.671390  0.063281  1
  Ga  Ga17  1  0.328511  0.328610  0.936719  1
  Ga  Ga18  1  0.337114  0.542955  0.250000  1
  Ga  Ga19  1  0.662886  0.457045  0.750000  1
  Ga  Ga20  1  0.542907  0.336858  0.250000  1
  Ga  Ga21  1  0.457093  0.663142  0.750000  1
  Ni  Ni22  1  0.000000  0.000000  0.000000  1
  Ni  Ni23  1  0.000000  0.000000  0.500000  1
  Rh  Rh24  1  0.671237  0.328697  0.000015  1
  Rh  Rh25  1  0.328763  0.671303  0.999985  1
  Rh  Rh26  1  0.328763  0.671303  0.500015  1
  Rh  Rh27  1  0.671237  0.328697  0.499985  1
