# generated using pymatgen
data_Pr2GaTc16C3
_symmetry_space_group_name_H-M   'P 1'
_cell_length_a   7.04659211
_cell_length_b   6.98958654
_cell_length_c   6.98958614
_cell_angle_alpha   82.91141977
_cell_angle_beta   82.74627142
_cell_angle_gamma   82.74627514
_symmetry_Int_Tables_number   1
_chemical_formula_structural   Pr2GaTc16C3
_chemical_formula_sum   'Pr2 Ga1 Tc16 C3'
_cell_volume   336.74216534
_cell_formula_units_Z   1
loop_
 _symmetry_equiv_pos_site_id
 _symmetry_equiv_pos_as_xyz
  1  'x, y, z'
loop_
 _atom_site_type_symbol
 _atom_site_label
 _atom_site_symmetry_multiplicity
 _atom_site_fract_x
 _atom_site_fract_y
 _atom_site_fract_z
 _atom_site_occupancy
  Pr  Pr0  1  0.652536  0.651060  0.651060  1
  Pr  Pr1  1  0.347464  0.348940  0.348940  1
  Ga  Ga2  1  0.500000  0.000000  0.000000  1
  Tc  Tc3  1  0.000000  0.000000  0.500000  1
  Tc  Tc4  1  0.000000  0.500000  0.000000  1
  Tc  Tc5  1  0.722158  0.275313  0.002723  1
  Tc  Tc6  1  0.000000  0.723952  0.276048  1
  Tc  Tc7  1  0.277842  0.997277  0.724687  1
  Tc  Tc8  1  0.000000  0.276048  0.723952  1
  Tc  Tc9  1  0.722158  0.002723  0.275313  1
  Tc  Tc10  1  0.277842  0.724687  0.997277  1
  Tc  Tc11  1  0.347194  0.349715  0.859451  1
  Tc  Tc12  1  0.861462  0.351629  0.351629  1
  Tc  Tc13  1  0.347194  0.859451  0.349715  1
  Tc  Tc14  1  0.652806  0.650285  0.140549  1
  Tc  Tc15  1  0.138538  0.648371  0.648371  1
  Tc  Tc16  1  0.652806  0.140549  0.650285  1
  Tc  Tc17  1  0.908477  0.900855  0.900855  1
  Tc  Tc18  1  0.091523  0.099145  0.099145  1
  C  C19  1  0.500000  0.500000  0.000000  1
  C  C20  1  0.000000  0.500000  0.500000  1
  C  C21  1  0.500000  0.000000  0.500000  1
