# generated using pymatgen
data_BeV2Fe4Si
_symmetry_space_group_name_H-M   'P 1'
_cell_length_a   6.80247336
_cell_length_b   6.80247309
_cell_length_c   6.80247304
_cell_angle_alpha   33.52839781
_cell_angle_beta   33.52840496
_cell_angle_gamma   33.52839456
_symmetry_Int_Tables_number   1
_chemical_formula_structural   BeV2Fe4Si
_chemical_formula_sum   'Be1 V2 Fe4 Si1'
_cell_volume   85.53658289
_cell_formula_units_Z   1
loop_
 _symmetry_equiv_pos_site_id
 _symmetry_equiv_pos_as_xyz
  1  'x, y, z'
loop_
 _atom_site_type_symbol
 _atom_site_label
 _atom_site_symmetry_multiplicity
 _atom_site_fract_x
 _atom_site_fract_y
 _atom_site_fract_z
 _atom_site_occupancy
  Be  Be0  1  0.000000  0.000000  0.000000  1
  V  V1  1  0.252976  0.252976  0.252976  1
  V  V2  1  0.747024  0.747024  0.747024  1
  Fe  Fe3  1  0.875084  0.875084  0.875084  1
  Fe  Fe4  1  0.374716  0.374716  0.374716  1
  Fe  Fe5  1  0.124916  0.124916  0.124916  1
  Fe  Fe6  1  0.625284  0.625284  0.625284  1
  Si  Si7  1  0.500000  0.500000  0.500000  1
