# generated using pymatgen
data_Ce8Tc13B12
_symmetry_space_group_name_H-M   'P 1'
_cell_length_a   7.78935040
_cell_length_b   7.78935075
_cell_length_c   7.78935088
_cell_angle_alpha   86.89815371
_cell_angle_beta   86.89815826
_cell_angle_gamma   86.89815694
_symmetry_Int_Tables_number   1
_chemical_formula_structural   Ce8Tc13B12
_chemical_formula_sum   'Ce8 Tc13 B12'
_cell_volume   470.60586069
_cell_formula_units_Z   1
loop_
 _symmetry_equiv_pos_site_id
 _symmetry_equiv_pos_as_xyz
  1  'x, y, z'
loop_
 _atom_site_type_symbol
 _atom_site_label
 _atom_site_symmetry_multiplicity
 _atom_site_fract_x
 _atom_site_fract_y
 _atom_site_fract_z
 _atom_site_occupancy
  Ce  Ce0  1  0.650025  0.650025  0.650025  1
  Ce  Ce1  1  0.349975  0.349975  0.349975  1
  Ce  Ce2  1  0.177632  0.177632  0.678467  1
  Ce  Ce3  1  0.678467  0.177632  0.177632  1
  Ce  Ce4  1  0.177632  0.678467  0.177632  1
  Ce  Ce5  1  0.822368  0.822368  0.321533  1
  Ce  Ce6  1  0.321533  0.822368  0.822368  1
  Ce  Ce7  1  0.822368  0.321533  0.822368  1
  Tc  Tc8  1  0.000000  0.000000  0.000000  1
  Tc  Tc9  1  0.594713  0.067860  0.594713  1
  Tc  Tc10  1  0.594713  0.594713  0.067860  1
  Tc  Tc11  1  0.067860  0.594713  0.594713  1
  Tc  Tc12  1  0.405287  0.932140  0.405287  1
  Tc  Tc13  1  0.405287  0.405287  0.932140  1
  Tc  Tc14  1  0.932140  0.405287  0.405287  1
  Tc  Tc15  1  0.926882  0.926882  0.670234  1
  Tc  Tc16  1  0.670234  0.926882  0.926882  1
  Tc  Tc17  1  0.926882  0.670234  0.926882  1
  Tc  Tc18  1  0.073118  0.073118  0.329766  1
  Tc  Tc19  1  0.329766  0.073118  0.073118  1
  Tc  Tc20  1  0.073118  0.329766  0.073118  1
  B  B21  1  0.154825  0.845175  0.500000  1
  B  B22  1  0.500000  0.154825  0.845175  1
  B  B23  1  0.845175  0.500000  0.154825  1
  B  B24  1  0.500000  0.845175  0.154825  1
  B  B25  1  0.154825  0.500000  0.845175  1
  B  B26  1  0.845175  0.154825  0.500000  1
  B  B27  1  0.670973  0.500000  0.329027  1
  B  B28  1  0.329027  0.670973  0.500000  1
  B  B29  1  0.500000  0.329027  0.670973  1
  B  B30  1  0.329027  0.500000  0.670973  1
  B  B31  1  0.670973  0.329027  0.500000  1
  B  B32  1  0.500000  0.670973  0.329027  1
