# generated using pymatgen
data_TmLu3Nb2(B2Ru5)2
_symmetry_space_group_name_H-M   'P 1'
_cell_length_a   9.62634239
_cell_length_b   9.62633639
_cell_length_c   3.11220200
_cell_angle_alpha   90.00000000
_cell_angle_beta   90.00000000
_cell_angle_gamma   90.03248591
_symmetry_Int_Tables_number   1
_chemical_formula_structural   TmLu3Nb2(B2Ru5)2
_chemical_formula_sum   'Tm1 Lu3 Nb2 B4 Ru10'
_cell_volume   288.39654015
_cell_formula_units_Z   1
loop_
 _symmetry_equiv_pos_site_id
 _symmetry_equiv_pos_as_xyz
  1  'x, y, z'
loop_
 _atom_site_type_symbol
 _atom_site_label
 _atom_site_symmetry_multiplicity
 _atom_site_fract_x
 _atom_site_fract_y
 _atom_site_fract_z
 _atom_site_occupancy
  Tm  Tm0  1  0.825256  0.674742  0.000000  1
  Lu  Lu1  1  0.174790  0.325229  0.000000  1
  Lu  Lu2  1  0.325221  0.825178  0.000000  1
  Lu  Lu3  1  0.674809  0.174799  0.000000  1
  Nb  Nb4  1  0.499870  0.499947  0.000000  1
  Nb  Nb5  1  0.000046  0.000122  0.000000  1
  B  B6  1  0.620130  0.879870  0.000000  1
  B  B7  1  0.379740  0.120252  0.000000  1
  B  B8  1  0.120345  0.620266  0.000000  1
  B  B9  1  0.879736  0.379653  0.000000  1
  Ru  Ru10  1  0.570820  0.718303  0.500000  1
  Ru  Ru11  1  0.428656  0.281804  0.500000  1
  Ru  Ru12  1  0.071746  0.782009  0.500000  1
  Ru  Ru13  1  0.928669  0.218099  0.500000  1
  Ru  Ru14  1  0.281897  0.571342  0.500000  1
  Ru  Ru15  1  0.717987  0.428241  0.500000  1
  Ru  Ru16  1  0.218186  0.071353  0.500000  1
  Ru  Ru17  1  0.781707  0.929183  0.500000  1
  Ru  Ru18  1  0.499942  0.000063  0.500000  1
  Ru  Ru19  1  0.000447  0.499544  0.500000  1
