# generated using pymatgen
data_La6Ir11Rh7
_symmetry_space_group_name_H-M   'P 1'
_cell_length_a   5.38932100
_cell_length_b   5.39588717
_cell_length_c   17.83148069
_cell_angle_alpha   90.02761832
_cell_angle_beta   90.00000000
_cell_angle_gamma   119.95973558
_symmetry_Int_Tables_number   1
_chemical_formula_structural   La6Ir11Rh7
_chemical_formula_sum   'La6 Ir11 Rh7'
_cell_volume   449.25296029
_cell_formula_units_Z   1
loop_
 _symmetry_equiv_pos_site_id
 _symmetry_equiv_pos_as_xyz
  1  'x, y, z'
loop_
 _atom_site_type_symbol
 _atom_site_label
 _atom_site_symmetry_multiplicity
 _atom_site_fract_x
 _atom_site_fract_y
 _atom_site_fract_z
 _atom_site_occupancy
  La  La0  1  0.333370  0.666742  0.541710  1
  La  La1  1  0.666645  0.333289  0.041616  1
  La  La2  1  0.666450  0.332899  0.458043  1
  La  La3  1  0.333388  0.666776  0.958327  1
  La  La4  1  0.333355  0.666711  0.749985  1
  La  La5  1  0.666692  0.333383  0.249897  1
  Ir  Ir6  1  0.166841  0.333682  0.128370  1
  Ir  Ir7  1  0.833070  0.666140  0.628075  1
  Ir  Ir8  1  0.666148  0.833159  0.128208  1
  Ir  Ir9  1  0.167011  0.833159  0.128208  1
  Ir  Ir10  1  0.833107  0.167077  0.628156  1
  Ir  Ir11  1  0.333970  0.167077  0.628156  1
  Ir  Ir12  1  0.833049  0.666098  0.871816  1
  Ir  Ir13  1  0.833021  0.166943  0.871828  1
  Ir  Ir14  1  0.333922  0.166943  0.871828  1
  Ir  Ir15  1  0.666792  0.834115  0.371898  1
  Ir  Ir16  1  0.167323  0.834115  0.371898  1
  Rh  Rh17  1  0.167084  0.334168  0.372222  1
  Rh  Rh18  1  0.999526  0.999051  0.249908  1
  Rh  Rh19  1  0.999951  0.999901  0.750003  1
  Rh  Rh20  1  0.333392  0.666784  0.249979  1
  Rh  Rh21  1  0.666711  0.333421  0.749955  1
  Rh  Rh22  1  0.000045  0.000090  0.999922  1
  Rh  Rh23  1  0.999139  0.998278  0.499993  1
