# generated using pymatgen
data_Li3Nb(SnRh3)2
_symmetry_space_group_name_H-M   'P 1'
_cell_length_a   4.38152000
_cell_length_b   6.19348400
_cell_length_c   13.17182500
_cell_angle_alpha   90.00000000
_cell_angle_beta   90.00007838
_cell_angle_gamma   90.00000000
_symmetry_Int_Tables_number   1
_chemical_formula_structural   Li3Nb(SnRh3)2
_chemical_formula_sum   'Li6 Nb2 Sn4 Rh12'
_cell_volume   357.44215558
_cell_formula_units_Z   2
loop_
 _symmetry_equiv_pos_site_id
 _symmetry_equiv_pos_as_xyz
  1  'x, y, z'
loop_
 _atom_site_type_symbol
 _atom_site_label
 _atom_site_symmetry_multiplicity
 _atom_site_fract_x
 _atom_site_fract_y
 _atom_site_fract_z
 _atom_site_occupancy
  Li  Li0  1  0.000015  0.499999  0.000383  1
  Li  Li1  1  0.499890  0.000000  0.166727  1
  Li  Li2  1  0.999890  0.499999  0.333271  1
  Li  Li3  1  0.500015  0.000000  0.499617  1
  Li  Li4  1  0.000105  0.499999  0.667592  1
  Li  Li5  1  0.500105  0.000000  0.832409  1
  Nb  Nb6  1  0.000094  0.000000  0.666053  1
  Nb  Nb7  1  0.500095  0.499999  0.833946  1
  Sn  Sn8  1  0.000006  0.000000  0.001314  1
  Sn  Sn9  1  0.499894  0.499999  0.166633  1
  Sn  Sn10  1  0.999893  0.000000  0.333368  1
  Sn  Sn11  1  0.500009  0.499999  0.498687  1
  Rh  Rh12  1  0.500024  0.255742  0.993577  1
  Rh  Rh13  1  0.500024  0.744258  0.993577  1
  Rh  Rh14  1  0.999898  0.249866  0.165633  1
  Rh  Rh15  1  0.999898  0.750134  0.165633  1
  Rh  Rh16  1  0.499900  0.250131  0.334365  1
  Rh  Rh17  1  0.499900  0.749869  0.334365  1
  Rh  Rh18  1  0.000020  0.244271  0.506423  1
  Rh  Rh19  1  0.000020  0.755729  0.506423  1
  Rh  Rh20  1  0.500077  0.249799  0.668825  1
  Rh  Rh21  1  0.500077  0.750201  0.668825  1
  Rh  Rh22  1  0.000078  0.250208  0.831175  1
  Rh  Rh23  1  0.000078  0.749792  0.831175  1
