# generated using pymatgen
data_CeTh2In3Ni2Pt
_symmetry_space_group_name_H-M   'P 1'
_cell_length_a   7.48169001
_cell_length_b   7.51676109
_cell_length_c   4.10344400
_cell_angle_alpha   90.00000000
_cell_angle_beta   90.00000000
_cell_angle_gamma   119.85269049
_symmetry_Int_Tables_number   1
_chemical_formula_structural   CeTh2In3Ni2Pt
_chemical_formula_sum   'Ce1 Th2 In3 Ni2 Pt1'
_cell_volume   200.14850460
_cell_formula_units_Z   1
loop_
 _symmetry_equiv_pos_site_id
 _symmetry_equiv_pos_as_xyz
  1  'x, y, z'
loop_
 _atom_site_type_symbol
 _atom_site_label
 _atom_site_symmetry_multiplicity
 _atom_site_fract_x
 _atom_site_fract_y
 _atom_site_fract_z
 _atom_site_occupancy
  Ce  Ce0  1  0.416711  0.003751  0.500000  1
  Th  Th1  1  0.996262  0.413176  0.500000  1
  Th  Th2  1  0.587179  0.582324  0.500000  1
  In  In3  1  0.755611  0.005088  0.000000  1
  In  In4  1  0.999317  0.759404  0.000000  1
  In  In5  1  0.245817  0.235264  0.000000  1
  Ni  Ni6  1  0.670580  0.338082  0.000000  1
  Ni  Ni7  1  0.996156  0.000233  0.500000  1
  Pt  Pt8  1  0.332366  0.662679  0.000000  1
