# generated using pymatgen
data_Tb4Ga18PdRu5
_symmetry_space_group_name_H-M   'P 1'
_cell_length_a   7.52989936
_cell_length_b   7.52989933
_cell_length_c   9.68029874
_cell_angle_alpha   90.09304875
_cell_angle_beta   90.09305220
_cell_angle_gamma   119.58204104
_symmetry_Int_Tables_number   1
_chemical_formula_structural   Tb4Ga18PdRu5
_chemical_formula_sum   'Tb4 Ga18 Pd1 Ru5'
_cell_volume   477.31952088
_cell_formula_units_Z   1
loop_
 _symmetry_equiv_pos_site_id
 _symmetry_equiv_pos_as_xyz
  1  'x, y, z'
loop_
 _atom_site_type_symbol
 _atom_site_label
 _atom_site_symmetry_multiplicity
 _atom_site_fract_x
 _atom_site_fract_y
 _atom_site_fract_z
 _atom_site_occupancy
  Tb  Tb0  1  0.997715  0.670367  0.251233  1
  Tb  Tb1  1  0.002285  0.329633  0.748767  1
  Tb  Tb2  1  0.670367  0.997715  0.251233  1
  Tb  Tb3  1  0.329633  0.002285  0.748767  1
  Ga  Ga4  1  0.130980  0.130980  0.253224  1
  Ga  Ga5  1  0.869020  0.869020  0.746776  1
  Ga  Ga6  1  0.004597  0.339569  0.078899  1
  Ga  Ga7  1  0.995403  0.660431  0.921101  1
  Ga  Ga8  1  0.995618  0.664356  0.575671  1
  Ga  Ga9  1  0.335644  0.004382  0.424329  1
  Ga  Ga10  1  0.004382  0.335644  0.424329  1
  Ga  Ga11  1  0.664356  0.995618  0.575671  1
  Ga  Ga12  1  0.660431  0.995403  0.921101  1
  Ga  Ga13  1  0.339569  0.004597  0.078899  1
  Ga  Ga14  1  0.336489  0.336489  0.559624  1
  Ga  Ga15  1  0.663511  0.663511  0.440376  1
  Ga  Ga16  1  0.657639  0.657639  0.063438  1
  Ga  Ga17  1  0.342361  0.342361  0.936562  1
  Ga  Ga18  1  0.336599  0.549201  0.250185  1
  Ga  Ga19  1  0.663401  0.450799  0.749815  1
  Ga  Ga20  1  0.549201  0.336599  0.250185  1
  Ga  Ga21  1  0.450799  0.663401  0.749815  1
  Pd  Pd22  1  0.000000  0.000000  0.000000  1
  Ru  Ru23  1  0.674280  0.325720  0.000000  1
  Ru  Ru24  1  0.325720  0.674280  0.000000  1
  Ru  Ru25  1  0.326349  0.673651  0.500000  1
  Ru  Ru26  1  0.673651  0.326349  0.500000  1
  Ru  Ru27  1  0.000000  0.000000  0.500000  1
