# generated using pymatgen
data_RbV9S16
_symmetry_space_group_name_H-M   'P 1'
_cell_length_a   6.37362300
_cell_length_b   6.37362374
_cell_length_c   13.27761700
_cell_angle_alpha   90.00000000
_cell_angle_beta   90.00000000
_cell_angle_gamma   120.00000134
_symmetry_Int_Tables_number   1
_chemical_formula_structural   RbV9S16
_chemical_formula_sum   'Rb1 V9 S16'
_cell_volume   467.11472311
_cell_formula_units_Z   1
loop_
 _symmetry_equiv_pos_site_id
 _symmetry_equiv_pos_as_xyz
  1  'x, y, z'
loop_
 _atom_site_type_symbol
 _atom_site_label
 _atom_site_symmetry_multiplicity
 _atom_site_fract_x
 _atom_site_fract_y
 _atom_site_fract_z
 _atom_site_occupancy
  Rb  Rb0  1  0.000000  0.000000  0.000000  1
  V  V1  1  0.000000  0.000000  0.282236  1
  V  V2  1  0.000000  0.000000  0.717764  1
  V  V3  1  0.507558  0.015116  0.286175  1
  V  V4  1  0.492442  0.984884  0.713825  1
  V  V5  1  0.984884  0.492442  0.286175  1
  V  V6  1  0.015116  0.507558  0.713825  1
  V  V7  1  0.507558  0.492442  0.286175  1
  V  V8  1  0.492442  0.507558  0.713825  1
  V  V9  1  0.000000  0.000000  0.500000  1
  S  S10  1  0.333333  0.666667  0.600377  1
  S  S11  1  0.666667  0.333333  0.399623  1
  S  S12  1  0.666667  0.333333  0.170710  1
  S  S13  1  0.333333  0.666667  0.829290  1
  S  S14  1  0.171397  0.342794  0.176889  1
  S  S15  1  0.828603  0.657206  0.823111  1
  S  S16  1  0.657206  0.828603  0.176889  1
  S  S17  1  0.833091  0.666183  0.607447  1
  S  S18  1  0.342794  0.171397  0.823111  1
  S  S19  1  0.166909  0.333817  0.392553  1
  S  S20  1  0.171397  0.828603  0.176889  1
  S  S21  1  0.333817  0.166909  0.607447  1
  S  S22  1  0.828603  0.171397  0.823111  1
  S  S23  1  0.666183  0.833091  0.392553  1
  S  S24  1  0.833091  0.166909  0.607447  1
  S  S25  1  0.166909  0.833091  0.392553  1
