# generated using pymatgen
data_Lu3Mn5(P3Rh2)2
_symmetry_space_group_name_H-M   'P 1'
_cell_length_a   3.81932100
_cell_length_b   10.66847700
_cell_length_c   12.64357900
_cell_angle_alpha   90.00000000
_cell_angle_beta   90.00000000
_cell_angle_gamma   90.00000000
_symmetry_Int_Tables_number   1
_chemical_formula_structural   Lu3Mn5(P3Rh2)2
_chemical_formula_sum   'Lu6 Mn10 P12 Rh8'
_cell_volume   515.17954655
_cell_formula_units_Z   2
loop_
 _symmetry_equiv_pos_site_id
 _symmetry_equiv_pos_as_xyz
  1  'x, y, z'
loop_
 _atom_site_type_symbol
 _atom_site_label
 _atom_site_symmetry_multiplicity
 _atom_site_fract_x
 _atom_site_fract_y
 _atom_site_fract_z
 _atom_site_occupancy
  Lu  Lu0  1  0.000000  0.500000  0.524749  1
  Lu  Lu1  1  0.500000  0.000000  0.475251  1
  Lu  Lu2  1  0.500000  0.817361  0.201942  1
  Lu  Lu3  1  0.500000  0.182639  0.201942  1
  Lu  Lu4  1  0.000000  0.682639  0.798058  1
  Lu  Lu5  1  0.000000  0.317361  0.798058  1
  Mn  Mn6  1  0.000000  0.500000  0.990929  1
  Mn  Mn7  1  0.500000  0.000000  0.009071  1
  Mn  Mn8  1  0.500000  0.882050  0.709811  1
  Mn  Mn9  1  0.500000  0.117950  0.709811  1
  Mn  Mn10  1  0.000000  0.617950  0.290189  1
  Mn  Mn11  1  0.000000  0.382050  0.290189  1
  Mn  Mn12  1  0.500000  0.328087  0.996244  1
  Mn  Mn13  1  0.500000  0.671913  0.996244  1
  Mn  Mn14  1  0.000000  0.171913  0.003756  1
  Mn  Mn15  1  0.000000  0.828087  0.003756  1
  P  P16  1  0.500000  0.303656  0.624664  1
  P  P17  1  0.500000  0.696344  0.624664  1
  P  P18  1  0.000000  0.196344  0.375336  1
  P  P19  1  0.000000  0.803656  0.375336  1
  P  P20  1  0.500000  0.500000  0.885836  1
  P  P21  1  0.000000  0.000000  0.114164  1
  P  P22  1  0.500000  0.845377  0.885983  1
  P  P23  1  0.500000  0.154623  0.885983  1
  P  P24  1  0.000000  0.654623  0.114017  1
  P  P25  1  0.000000  0.345377  0.114017  1
  P  P26  1  0.500000  0.500000  0.341145  1
  P  P27  1  0.000000  0.000000  0.658855  1
  Rh  Rh28  1  0.500000  0.301667  0.431445  1
  Rh  Rh29  1  0.500000  0.698333  0.431445  1
  Rh  Rh30  1  0.000000  0.198333  0.568555  1
  Rh  Rh31  1  0.000000  0.801667  0.568555  1
  Rh  Rh32  1  0.500000  0.500000  0.155681  1
  Rh  Rh33  1  0.000000  0.000000  0.844319  1
  Rh  Rh34  1  0.500000  0.500000  0.699444  1
  Rh  Rh35  1  0.000000  0.000000  0.300556  1
