# generated using pymatgen
data_Y7Ho9(AgRh)4
_symmetry_space_group_name_H-M   'P 1'
_cell_length_a   9.52392075
_cell_length_b   9.52313121
_cell_length_c   9.48218030
_cell_angle_alpha   60.14720861
_cell_angle_beta   60.13934184
_cell_angle_gamma   60.40142658
_symmetry_Int_Tables_number   1
_chemical_formula_structural   Y7Ho9(AgRh)4
_chemical_formula_sum   'Y7 Ho9 Ag4 Rh4'
_cell_volume   611.26825972
_cell_formula_units_Z   1
loop_
 _symmetry_equiv_pos_site_id
 _symmetry_equiv_pos_as_xyz
  1  'x, y, z'
loop_
 _atom_site_type_symbol
 _atom_site_label
 _atom_site_symmetry_multiplicity
 _atom_site_fract_x
 _atom_site_fract_y
 _atom_site_fract_z
 _atom_site_occupancy
  Y  Y0  1  0.062121  0.062114  0.437881  1
  Y  Y1  1  0.186606  0.812922  0.814005  1
  Y  Y2  1  0.812919  0.186615  0.186452  1
  Y  Y3  1  0.813094  0.186448  0.814186  1
  Y  Y4  1  0.186443  0.813083  0.186280  1
  Y  Y5  1  0.812942  0.812939  0.187056  1
  Y  Y6  1  0.186323  0.186317  0.813684  1
  Ho  Ho7  1  0.603332  0.603220  0.602860  1
  Ho  Ho8  1  0.603226  0.603315  0.190607  1
  Ho  Ho9  1  0.603120  0.191626  0.602691  1
  Ho  Ho10  1  0.191612  0.603105  0.602569  1
  Ho  Ho11  1  0.061875  0.436897  0.438183  1
  Ho  Ho12  1  0.436899  0.061871  0.063054  1
  Ho  Ho13  1  0.436771  0.062006  0.438007  1
  Ho  Ho14  1  0.062029  0.436759  0.063215  1
  Ho  Ho15  1  0.436526  0.436523  0.063471  1
  Ag  Ag16  1  0.831898  0.831903  0.830807  1
  Ag  Ag17  1  0.831897  0.831908  0.505389  1
  Ag  Ag18  1  0.832212  0.506360  0.830741  1
  Ag  Ag19  1  0.506359  0.832209  0.830695  1
  Rh  Rh20  1  0.393701  0.393679  0.392393  1
  Rh  Rh21  1  0.393681  0.393703  0.820210  1
  Rh  Rh22  1  0.397554  0.816886  0.392780  1
  Rh  Rh23  1  0.816862  0.397593  0.392784  1
