# generated using pymatgen
data_U6Ti2P13Rh18
_symmetry_space_group_name_H-M   'P 1'
_cell_length_a   13.58798536
_cell_length_b   13.59997426
_cell_length_c   3.81116800
_cell_angle_alpha   90.00000000
_cell_angle_beta   90.00000000
_cell_angle_gamma   120.05201130
_symmetry_Int_Tables_number   1
_chemical_formula_structural   U6Ti2P13Rh18
_chemical_formula_sum   'U6 Ti2 P13 Rh18'
_cell_volume   609.61273234
_cell_formula_units_Z   1
loop_
 _symmetry_equiv_pos_site_id
 _symmetry_equiv_pos_as_xyz
  1  'x, y, z'
loop_
 _atom_site_type_symbol
 _atom_site_label
 _atom_site_symmetry_multiplicity
 _atom_site_fract_x
 _atom_site_fract_y
 _atom_site_fract_z
 _atom_site_occupancy
  U  U0  1  0.193204  0.470527  0.000000  1
  U  U1  1  0.526399  0.719187  0.000000  1
  U  U2  1  0.278015  0.803352  0.000000  1
  U  U3  1  0.720941  0.192740  0.500000  1
  U  U4  1  0.808552  0.529950  0.500000  1
  U  U5  1  0.472236  0.283738  0.500000  1
  Ti  Ti6  1  0.435310  0.020525  0.500000  1
  Ti  Ti7  1  0.980910  0.412421  0.500000  1
  P  P8  1  0.388385  0.525513  0.500000  1
  P  P9  1  0.471654  0.861632  0.500000  1
  P  P10  1  0.140473  0.610539  0.500000  1
  P  P11  1  0.769312  0.051537  0.000000  1
  P  P12  1  0.945999  0.714765  0.000000  1
  P  P13  1  0.284744  0.228010  0.000000  1
  P  P14  1  0.055791  0.279636  0.500000  1
  P  P15  1  0.715386  0.770198  0.500000  1
  P  P16  1  0.225820  0.943454  0.500000  1
  P  P17  1  0.536098  0.147111  0.000000  1
  P  P18  1  0.855677  0.390330  0.000000  1
  P  P19  1  0.610012  0.476612  0.000000  1
  P  P20  1  0.999091  0.998438  0.000000  1
  Rh  Rh21  1  0.582826  0.564380  0.500000  1
  Rh  Rh22  1  0.665316  0.341104  0.000000  1
  Rh  Rh23  1  0.417701  0.439658  0.000000  1
  Rh  Rh24  1  0.564883  0.982994  0.000000  1
  Rh  Rh25  1  0.018979  0.579842  0.000000  1
  Rh  Rh26  1  0.912433  0.248970  0.000000  1
  Rh  Rh27  1  0.750837  0.671354  0.000000  1
  Rh  Rh28  1  0.336876  0.082687  0.000000  1
  Rh  Rh29  1  0.336994  0.665901  0.500000  1
  Rh  Rh30  1  0.903559  0.090624  0.500000  1
  Rh  Rh31  1  0.908850  0.815483  0.500000  1
  Rh  Rh32  1  0.187850  0.095464  0.500000  1
  Rh  Rh33  1  0.094700  0.189623  0.000000  1
  Rh  Rh34  1  0.808758  0.901471  0.000000  1
  Rh  Rh35  1  0.096416  0.904713  0.000000  1
  Rh  Rh36  1  0.253542  0.328374  0.500000  1
  Rh  Rh37  1  0.670088  0.919612  0.500000  1
  Rh  Rh38  1  0.075386  0.747531  0.500000  1
