# generated using pymatgen
data_Er4AlCu
_symmetry_space_group_name_H-M   'P 1'
_cell_length_a   9.44305644
_cell_length_b   9.46013639
_cell_length_c   9.46422512
_cell_angle_alpha   59.78518030
_cell_angle_beta   59.78966574
_cell_angle_gamma   59.64895749
_symmetry_Int_Tables_number   1
_chemical_formula_structural   Er4AlCu
_chemical_formula_sum   'Er16 Al4 Cu4'
_cell_volume   594.31827733
_cell_formula_units_Z   4
loop_
 _symmetry_equiv_pos_site_id
 _symmetry_equiv_pos_as_xyz
  1  'x, y, z'
loop_
 _atom_site_type_symbol
 _atom_site_label
 _atom_site_symmetry_multiplicity
 _atom_site_fract_x
 _atom_site_fract_y
 _atom_site_fract_z
 _atom_site_occupancy
  Er  Er0  1  0.190160  0.190609  0.807490  1
  Er  Er1  1  0.434499  0.066319  0.066134  1
  Er  Er2  1  0.435111  0.066026  0.435159  1
  Er  Er3  1  0.066323  0.434498  0.066233  1
  Er  Er4  1  0.647120  0.065812  0.646072  1
  Er  Er5  1  0.190976  0.808841  0.808630  1
  Er  Er6  1  0.066216  0.066155  0.434546  1
  Er  Er7  1  0.807335  0.190753  0.190411  1
  Er  Er8  1  0.808627  0.808586  0.190839  1
  Er  Er9  1  0.646287  0.646198  0.067190  1
  Er  Er10  1  0.644085  0.644788  0.643418  1
  Er  Er11  1  0.065773  0.435333  0.435226  1
  Er  Er12  1  0.065685  0.646537  0.646849  1
  Er  Er13  1  0.808538  0.190836  0.808578  1
  Er  Er14  1  0.435449  0.435389  0.065643  1
  Er  Er15  1  0.191380  0.807274  0.189937  1
  Al  Al16  1  0.420196  0.734057  0.420629  1
  Al  Al17  1  0.420268  0.420380  0.734178  1
  Al  Al18  1  0.734011  0.420356  0.420560  1
  Al  Al19  1  0.419960  0.419981  0.420308  1
  Cu  Cu20  1  0.852077  0.438409  0.854699  1
  Cu  Cu21  1  0.856107  0.853927  0.435401  1
  Cu  Cu22  1  0.438846  0.853784  0.854433  1
  Cu  Cu23  1  0.854967  0.855152  0.857439  1
