# generated using pymatgen
data_NdY2Tm(Si3Rh)2
_symmetry_space_group_name_H-M   'P 1'
_cell_length_a   8.20109751
_cell_length_b   8.19248774
_cell_length_c   8.01091600
_cell_angle_alpha   90.00000000
_cell_angle_beta   90.00000000
_cell_angle_gamma   119.96527081
_symmetry_Int_Tables_number   1
_chemical_formula_structural   NdY2Tm(Si3Rh)2
_chemical_formula_sum   'Nd2 Y4 Tm2 Si12 Rh4'
_cell_volume   466.28609193
_cell_formula_units_Z   2
loop_
 _symmetry_equiv_pos_site_id
 _symmetry_equiv_pos_as_xyz
  1  'x, y, z'
loop_
 _atom_site_type_symbol
 _atom_site_label
 _atom_site_symmetry_multiplicity
 _atom_site_fract_x
 _atom_site_fract_y
 _atom_site_fract_z
 _atom_site_occupancy
  Nd  Nd0  1  0.000194  0.000097  0.250000  1
  Nd  Nd1  1  0.999978  0.999989  0.750000  1
  Y  Y2  1  0.981825  0.490912  0.250000  1
  Y  Y3  1  0.491610  0.508438  0.750000  1
  Y  Y4  1  0.491610  0.983173  0.750000  1
  Y  Y5  1  0.016832  0.508417  0.750000  1
  Tm  Tm6  1  0.507946  0.491652  0.250000  1
  Tm  Tm7  1  0.507946  0.016293  0.250000  1
  Si  Si8  1  0.168807  0.831663  0.500215  1
  Si  Si9  1  0.168807  0.337144  0.500215  1
  Si  Si10  1  0.663360  0.831680  0.499743  1
  Si  Si11  1  0.831332  0.167892  0.497532  1
  Si  Si12  1  0.831332  0.663440  0.497532  1
  Si  Si13  1  0.336644  0.168322  0.496219  1
  Si  Si14  1  0.831332  0.167892  0.002468  1
  Si  Si15  1  0.831332  0.663440  0.002468  1
  Si  Si16  1  0.336644  0.168322  0.003781  1
  Si  Si17  1  0.168807  0.831663  0.999785  1
  Si  Si18  1  0.168807  0.337144  0.999785  1
  Si  Si19  1  0.663360  0.831680  0.000257  1
  Rh  Rh20  1  0.334975  0.667488  0.461669  1
  Rh  Rh21  1  0.665773  0.332886  0.529960  1
  Rh  Rh22  1  0.665773  0.332886  0.970040  1
  Rh  Rh23  1  0.334975  0.667488  0.038331  1
