# generated using pymatgen
data_Nd3Eu4Dy(SiN3)4
_symmetry_space_group_name_H-M   'P 1'
_cell_length_a   5.99244620
_cell_length_b   5.99244490
_cell_length_c   11.66958133
_cell_angle_alpha   90.35530378
_cell_angle_beta   89.64469778
_cell_angle_gamma   126.02637606
_symmetry_Int_Tables_number   1
_chemical_formula_structural   Nd3Eu4Dy(SiN3)4
_chemical_formula_sum   'Nd3 Eu4 Dy1 Si4 N12'
_cell_volume   338.89508520
_cell_formula_units_Z   1
loop_
 _symmetry_equiv_pos_site_id
 _symmetry_equiv_pos_as_xyz
  1  'x, y, z'
loop_
 _atom_site_type_symbol
 _atom_site_label
 _atom_site_symmetry_multiplicity
 _atom_site_fract_x
 _atom_site_fract_y
 _atom_site_fract_z
 _atom_site_occupancy
  Nd  Nd0  1  0.948806  0.051194  0.142778  1
  Nd  Nd1  1  0.445892  0.554108  0.357150  1
  Nd  Nd2  1  0.549015  0.450985  0.646495  1
  Eu  Eu3  1  0.639786  0.360214  0.072778  1
  Eu  Eu4  1  0.365106  0.634894  0.924513  1
  Eu  Eu5  1  0.859714  0.140286  0.573790  1
  Eu  Eu6  1  0.136408  0.863592  0.427445  1
  Dy  Dy7  1  0.057758  0.942242  0.860758  1
  Si  Si8  1  0.753364  0.246636  0.833403  1
  Si  Si9  1  0.250393  0.749607  0.164367  1
  Si  Si10  1  0.748410  0.251590  0.333517  1
  Si  Si11  1  0.246567  0.753433  0.666847  1
  N  N12  1  0.589403  0.410597  0.859647  1
  N  N13  1  0.413918  0.586082  0.141327  1
  N  N14  1  0.911641  0.088359  0.357119  1
  N  N15  1  0.082723  0.917277  0.649367  1
  N  N16  1  0.539397  0.957574  0.749727  1
  N  N17  1  0.957691  0.543325  0.248961  1
  N  N18  1  0.456675  0.042309  0.248961  1
  N  N19  1  0.042426  0.460603  0.749727  1
  N  N20  1  0.857458  0.142542  0.950586  1
  N  N21  1  0.153690  0.846310  0.041080  1
  N  N22  1  0.649616  0.350384  0.455506  1
  N  N23  1  0.344143  0.655857  0.544151  1
