# generated using pymatgen
data_Ho3Sc2In4HgPt
_symmetry_space_group_name_H-M   'P 1'
_cell_length_a   3.62338200
_cell_length_b   8.04629636
_cell_length_c   18.00584360
_cell_angle_alpha   90.19430028
_cell_angle_beta   90.00000000
_cell_angle_gamma   90.00000000
_symmetry_Int_Tables_number   1
_chemical_formula_structural   Ho3Sc2In4HgPt
_chemical_formula_sum   'Ho6 Sc4 In8 Hg2 Pt2'
_cell_volume   524.95384757
_cell_formula_units_Z   2
loop_
 _symmetry_equiv_pos_site_id
 _symmetry_equiv_pos_as_xyz
  1  'x, y, z'
loop_
 _atom_site_type_symbol
 _atom_site_label
 _atom_site_symmetry_multiplicity
 _atom_site_fract_x
 _atom_site_fract_y
 _atom_site_fract_z
 _atom_site_occupancy
  Ho  Ho0  1  0.000000  0.250793  0.205289  1
  Ho  Ho1  1  0.000000  0.749207  0.794711  1
  Ho  Ho2  1  0.000000  0.291000  0.717746  1
  Ho  Ho3  1  0.000000  0.709000  0.282254  1
  Ho  Ho4  1  0.000000  0.000000  0.000000  1
  Ho  Ho5  1  0.000000  0.500000  0.500000  1
  Sc  Sc6  1  0.000000  0.121162  0.424268  1
  Sc  Sc7  1  0.000000  0.878838  0.575732  1
  Sc  Sc8  1  0.000000  0.383628  0.914165  1
  Sc  Sc9  1  0.000000  0.616372  0.085835  1
  In  In10  1  0.500000  0.402539  0.351082  1
  In  In11  1  0.500000  0.597461  0.648918  1
  In  In12  1  0.500000  0.095018  0.853183  1
  In  In13  1  0.500000  0.904982  0.146817  1
  In  In14  1  0.500000  0.310910  0.054609  1
  In  In15  1  0.500000  0.689090  0.945391  1
  In  In16  1  0.500000  0.200847  0.562201  1
  In  In17  1  0.500000  0.799153  0.437799  1
  Hg  Hg18  1  0.500000  0.026952  0.304274  1
  Hg  Hg19  1  0.500000  0.973048  0.695726  1
  Pt  Pt20  1  0.500000  0.475041  0.808401  1
  Pt  Pt21  1  0.500000  0.524959  0.191599  1
