# generated using pymatgen
data_Hf18Mo6IrW2Se
_symmetry_space_group_name_H-M   'P 1'
_cell_length_a   8.73388300
_cell_length_b   8.73390632
_cell_length_c   8.62145500
_cell_angle_alpha   90.00000000
_cell_angle_beta   90.00000000
_cell_angle_gamma   119.99951118
_symmetry_Int_Tables_number   1
_chemical_formula_structural   Hf18Mo6IrW2Se
_chemical_formula_sum   'Hf18 Mo6 Ir1 W2 Se1'
_cell_volume   569.54656313
_cell_formula_units_Z   1
loop_
 _symmetry_equiv_pos_site_id
 _symmetry_equiv_pos_as_xyz
  1  'x, y, z'
loop_
 _atom_site_type_symbol
 _atom_site_label
 _atom_site_symmetry_multiplicity
 _atom_site_fract_x
 _atom_site_fract_y
 _atom_site_fract_z
 _atom_site_occupancy
  Hf  Hf0  1  0.542238  0.084474  0.250000  1
  Hf  Hf1  1  0.455858  0.911718  0.750000  1
  Hf  Hf2  1  0.915525  0.457763  0.250000  1
  Hf  Hf3  1  0.088283  0.544143  0.750000  1
  Hf  Hf4  1  0.542237  0.457762  0.250000  1
  Hf  Hf5  1  0.455859  0.544142  0.750000  1
  Hf  Hf6  1  0.198378  0.396757  0.052319  1
  Hf  Hf7  1  0.805953  0.611907  0.953902  1
  Hf  Hf8  1  0.603244  0.801622  0.052319  1
  Hf  Hf9  1  0.805953  0.611907  0.546098  1
  Hf  Hf10  1  0.388094  0.194047  0.953902  1
  Hf  Hf11  1  0.198378  0.396757  0.447681  1
  Hf  Hf12  1  0.198378  0.801622  0.052319  1
  Hf  Hf13  1  0.388094  0.194047  0.546098  1
  Hf  Hf14  1  0.805953  0.194047  0.953903  1
  Hf  Hf15  1  0.603244  0.801622  0.447681  1
  Hf  Hf16  1  0.805953  0.194047  0.546097  1
  Hf  Hf17  1  0.198378  0.801622  0.447681  1
  Mo  Mo18  1  0.888167  0.776335  0.250000  1
  Mo  Mo19  1  0.110593  0.221186  0.750000  1
  Mo  Mo20  1  0.223664  0.111833  0.250000  1
  Mo  Mo21  1  0.778813  0.889406  0.750000  1
  Mo  Mo22  1  0.888167  0.111833  0.250000  1
  Mo  Mo23  1  0.110593  0.889406  0.750000  1
  Ir  Ir24  1  0.333333  0.666665  0.250000  1
  W  W25  1  0.000000  0.000000  0.002155  1
  W  W26  1  0.000000  0.000000  0.497845  1
  Se  Se27  1  0.666667  0.333334  0.750000  1
