# generated using pymatgen
data_VBiF7
_symmetry_space_group_name_H-M   'P 1'
_cell_length_a   5.60436200
_cell_length_b   9.12010667
_cell_length_c   12.06024012
_cell_angle_alpha   62.78330994
_cell_angle_beta   90.00000000
_cell_angle_gamma   90.00000000
_symmetry_Int_Tables_number   1
_chemical_formula_structural   VBiF7
_chemical_formula_sum   'V4 Bi4 F28'
_cell_volume   548.17866997
_cell_formula_units_Z   4
loop_
 _symmetry_equiv_pos_site_id
 _symmetry_equiv_pos_as_xyz
  1  'x, y, z'
loop_
 _atom_site_type_symbol
 _atom_site_label
 _atom_site_symmetry_multiplicity
 _atom_site_fract_x
 _atom_site_fract_y
 _atom_site_fract_z
 _atom_site_occupancy
  V  V0  1  0.754086  0.272655  0.956144  1
  V  V1  1  0.254086  0.727345  0.543856  1
  V  V2  1  0.245914  0.727345  0.043856  1
  V  V3  1  0.745914  0.272655  0.456144  1
  Bi  Bi4  1  0.758332  0.808053  0.770189  1
  Bi  Bi5  1  0.258332  0.191947  0.729811  1
  Bi  Bi6  1  0.241668  0.191947  0.229811  1
  Bi  Bi7  1  0.741668  0.808053  0.270189  1
  F  F8  1  0.443655  0.708044  0.922637  1
  F  F9  1  0.943655  0.291956  0.577363  1
  F  F10  1  0.556345  0.291956  0.077363  1
  F  F11  1  0.056345  0.708044  0.422637  1
  F  F12  1  0.461542  0.283050  0.543681  1
  F  F13  1  0.961542  0.716950  0.956319  1
  F  F14  1  0.538458  0.716950  0.456319  1
  F  F15  1  0.038458  0.283050  0.043681  1
  F  F16  1  0.767260  0.497874  0.866649  1
  F  F17  1  0.267260  0.502126  0.633351  1
  F  F18  1  0.232740  0.502126  0.133351  1
  F  F19  1  0.732740  0.497874  0.366649  1
  F  F20  1  0.758735  0.047671  0.045573  1
  F  F21  1  0.258735  0.952329  0.454427  1
  F  F22  1  0.241265  0.952329  0.954427  1
  F  F23  1  0.741265  0.047671  0.545573  1
  F  F24  1  0.980856  0.731850  0.634215  1
  F  F25  1  0.480856  0.268150  0.865785  1
  F  F26  1  0.019144  0.268150  0.365785  1
  F  F27  1  0.519144  0.731850  0.134215  1
  F  F28  1  0.051471  0.745842  0.166997  1
  F  F29  1  0.551471  0.254158  0.333003  1
  F  F30  1  0.948529  0.254158  0.833003  1
  F  F31  1  0.448529  0.745842  0.666997  1
  F  F32  1  0.409123  0.971545  0.228112  1
  F  F33  1  0.909123  0.028455  0.271888  1
  F  F34  1  0.590877  0.028455  0.771888  1
  F  F35  1  0.090877  0.971545  0.728112  1
