# generated using pymatgen
data_Al4Ga12Si2B6O37
_symmetry_space_group_name_H-M   'P 1'
_cell_length_a   8.19375096
_cell_length_b   8.19374980
_cell_length_c   15.61477695
_cell_angle_alpha   92.42767098
_cell_angle_beta   92.42767006
_cell_angle_gamma   41.12991890
_symmetry_Int_Tables_number   1
_chemical_formula_structural   Al4Ga12Si2B6O37
_chemical_formula_sum   'Al4 Ga12 Si2 B6 O37'
_cell_volume   688.85769160
_cell_formula_units_Z   1
loop_
 _symmetry_equiv_pos_site_id
 _symmetry_equiv_pos_as_xyz
  1  'x, y, z'
loop_
 _atom_site_type_symbol
 _atom_site_label
 _atom_site_symmetry_multiplicity
 _atom_site_fract_x
 _atom_site_fract_y
 _atom_site_fract_z
 _atom_site_occupancy
  Al  Al0  1  0.500000  0.000000  0.000000  1
  Al  Al1  1  0.000000  0.500000  0.000000  1
  Al  Al2  1  0.500001  0.000000  0.500000  1
  Al  Al3  1  0.000000  0.500001  0.500000  1
  Ga  Ga4  1  0.323248  0.323248  0.157332  1
  Ga  Ga5  1  0.130263  0.130263  0.155638  1
  Ga  Ga6  1  0.743381  0.247599  0.260459  1
  Ga  Ga7  1  0.247599  0.743381  0.260459  1
  Ga  Ga8  1  0.189668  0.189668  0.343721  1
  Ga  Ga9  1  0.425977  0.425977  0.433474  1
  Ga  Ga10  1  0.574024  0.574024  0.566526  1
  Ga  Ga11  1  0.810332  0.810332  0.656279  1
  Ga  Ga12  1  0.752401  0.256620  0.739540  1
  Ga  Ga13  1  0.256620  0.752401  0.739540  1
  Ga  Ga14  1  0.869737  0.869737  0.844363  1
  Ga  Ga15  1  0.676752  0.676752  0.842669  1
  Si  Si16  1  0.575754  0.575754  0.077137  1
  Si  Si17  1  0.424245  0.424245  0.922863  1
  B  B18  1  0.862989  0.862989  0.134686  1
  B  B19  1  0.621683  0.621683  0.383194  1
  B  B20  1  0.893877  0.893877  0.400972  1
  B  B21  1  0.106123  0.106123  0.599028  1
  B  B22  1  0.378316  0.378316  0.616806  1
  B  B23  1  0.137011  0.137011  0.865314  1
  O  O24  1  0.500000  0.500000  0.000000  1
  O  O25  1  0.675158  0.675158  0.039857  1
  O  O26  1  0.206997  0.206997  0.061652  1
  O  O27  1  0.625178  0.037436  0.098010  1
  O  O28  1  0.037436  0.625178  0.098010  1
  O  O29  1  0.796150  0.330708  0.136226  1
  O  O30  1  0.330708  0.796150  0.136226  1
  O  O31  1  0.919968  0.919968  0.204271  1
  O  O32  1  0.424283  0.424283  0.222356  1
  O  O33  1  0.232097  0.232097  0.231324  1
  O  O34  1  0.075033  0.075033  0.276976  1
  O  O35  1  0.574742  0.574742  0.299359  1
  O  O36  1  0.720621  0.136876  0.370131  1
  O  O37  1  0.136876  0.720621  0.370131  1
  O  O38  1  0.888824  0.469615  0.397111  1
  O  O39  1  0.469615  0.888824  0.397111  1
  O  O40  1  0.298071  0.298071  0.440477  1
  O  O41  1  0.555207  0.555207  0.447808  1
  O  O42  1  0.830124  0.830124  0.459797  1
  O  O43  1  0.169876  0.169876  0.540203  1
  O  O44  1  0.444793  0.444793  0.552192  1
  O  O45  1  0.701929  0.701929  0.559523  1
  O  O46  1  0.530385  0.111176  0.602889  1
  O  O47  1  0.111176  0.530385  0.602889  1
  O  O48  1  0.863123  0.279379  0.629869  1
  O  O49  1  0.279379  0.863123  0.629869  1
  O  O50  1  0.425257  0.425257  0.700641  1
  O  O51  1  0.924967  0.924967  0.723024  1
  O  O52  1  0.767903  0.767903  0.768676  1
  O  O53  1  0.575718  0.575718  0.777645  1
  O  O54  1  0.080033  0.080033  0.795730  1
  O  O55  1  0.669293  0.203850  0.863774  1
  O  O56  1  0.203850  0.669293  0.863774  1
  O  O57  1  0.962563  0.374821  0.901991  1
  O  O58  1  0.374821  0.962563  0.901991  1
  O  O59  1  0.793003  0.793003  0.938348  1
  O  O60  1  0.324842  0.324842  0.960143  1
