# generated using pymatgen
data_Tm5Mn3(Co4As3)4
_symmetry_space_group_name_H-M   'P 1'
_cell_length_a   12.48765600
_cell_length_b   12.48765621
_cell_length_c   3.78471900
_cell_angle_alpha   90.00000000
_cell_angle_beta   90.00000000
_cell_angle_gamma   120.00000473
_symmetry_Int_Tables_number   1
_chemical_formula_structural   Tm5Mn3(Co4As3)4
_chemical_formula_sum   'Tm5 Mn3 Co16 As12'
_cell_volume   511.12380964
_cell_formula_units_Z   1
loop_
 _symmetry_equiv_pos_site_id
 _symmetry_equiv_pos_as_xyz
  1  'x, y, z'
loop_
 _atom_site_type_symbol
 _atom_site_label
 _atom_site_symmetry_multiplicity
 _atom_site_fract_x
 _atom_site_fract_y
 _atom_site_fract_z
 _atom_site_occupancy
  Tm  Tm0  1  0.186877  0.186877  0.500000  1
  Tm  Tm1  1  0.813123  0.000000  0.500000  1
  Tm  Tm2  1  0.000000  0.813123  0.500000  1
  Tm  Tm3  1  0.333333  0.666667  0.000000  1
  Tm  Tm4  1  0.666667  0.333333  0.000000  1
  Mn  Mn5  1  0.561179  0.561179  0.000000  1
  Mn  Mn6  1  0.438821  0.000000  0.000000  1
  Mn  Mn7  1  0.000000  0.438821  0.000000  1
  Co  Co8  1  0.715858  0.715858  0.500000  1
  Co  Co9  1  0.284142  0.000000  0.500000  1
  Co  Co10  1  0.000000  0.284142  0.500000  1
  Co  Co11  1  0.178174  0.376421  0.000000  1
  Co  Co12  1  0.623579  0.801752  0.000000  1
  Co  Co13  1  0.198248  0.821826  0.000000  1
  Co  Co14  1  0.801752  0.623579  0.000000  1
  Co  Co15  1  0.821826  0.198248  0.000000  1
  Co  Co16  1  0.376421  0.178174  0.000000  1
  Co  Co17  1  0.356479  0.481454  0.500000  1
  Co  Co18  1  0.518546  0.875026  0.500000  1
  Co  Co19  1  0.124974  0.643521  0.500000  1
  Co  Co20  1  0.875026  0.518546  0.500000  1
  Co  Co21  1  0.643521  0.124974  0.500000  1
  Co  Co22  1  0.481454  0.356479  0.500000  1
  Co  Co23  1  0.000000  0.000000  0.000000  1
  As  As24  1  0.821419  0.821419  0.000000  1
  As  As25  1  0.178581  0.000000  0.000000  1
  As  As26  1  0.000000  0.178581  0.000000  1
  As  As27  1  0.168672  0.483196  0.500000  1
  As  As28  1  0.516804  0.685478  0.500000  1
  As  As29  1  0.314522  0.831328  0.500000  1
  As  As30  1  0.685478  0.516804  0.500000  1
  As  As31  1  0.831328  0.314522  0.500000  1
  As  As32  1  0.483196  0.168672  0.500000  1
  As  As33  1  0.362604  0.362604  0.000000  1
  As  As34  1  0.637396  0.000000  0.000000  1
  As  As35  1  0.000000  0.637396  0.000000  1
