# generated using pymatgen
data_La2P7(RuRh)6
_symmetry_space_group_name_H-M   'P 1'
_cell_length_a   3.90830409
_cell_length_b   9.64523137
_cell_length_c   9.64687596
_cell_angle_alpha   119.99176338
_cell_angle_beta   89.99750989
_cell_angle_gamma   90.00172651
_symmetry_Int_Tables_number   1
_chemical_formula_structural   La2P7(RuRh)6
_chemical_formula_sum   'La2 P7 Ru6 Rh6'
_cell_volume   314.95924610
_cell_formula_units_Z   1
loop_
 _symmetry_equiv_pos_site_id
 _symmetry_equiv_pos_as_xyz
  1  'x, y, z'
loop_
 _atom_site_type_symbol
 _atom_site_label
 _atom_site_symmetry_multiplicity
 _atom_site_fract_x
 _atom_site_fract_y
 _atom_site_fract_z
 _atom_site_occupancy
  La  La0  1  0.253823  0.666776  0.333421  1
  La  La1  1  0.746177  0.333224  0.666579  1
  P  P2  1  0.500000  0.000000  0.000000  1
  P  P3  1  0.754113  0.887409  0.602287  1
  P  P4  1  0.754141  0.397835  0.285150  1
  P  P5  1  0.754262  0.714882  0.112667  1
  P  P6  1  0.245887  0.112591  0.397713  1
  P  P7  1  0.245859  0.602165  0.714850  1
  P  P8  1  0.245738  0.285118  0.887333  1
  Ru  Ru9  1  0.741112  0.114355  0.853827  1
  Ru  Ru10  1  0.741297  0.146186  0.260396  1
  Ru  Ru11  1  0.741237  0.739534  0.885748  1
  Ru  Ru12  1  0.258888  0.885645  0.146173  1
  Ru  Ru13  1  0.258703  0.853814  0.739604  1
  Ru  Ru14  1  0.258763  0.260466  0.114252  1
  Rh  Rh15  1  0.753387  0.617397  0.556995  1
  Rh  Rh16  1  0.753413  0.443171  0.060553  1
  Rh  Rh17  1  0.753446  0.939623  0.382645  1
  Rh  Rh18  1  0.246613  0.382603  0.443005  1
  Rh  Rh19  1  0.246587  0.556829  0.939447  1
  Rh  Rh20  1  0.246554  0.060377  0.617355  1
