# generated using pymatgen
data_Ac2Er(TmPb2)2
_symmetry_space_group_name_H-M   'P 1'
_cell_length_a   8.48019700
_cell_length_b   16.13464800
_cell_length_c   8.51973300
_cell_angle_alpha   90.00000000
_cell_angle_beta   90.00000000
_cell_angle_gamma   90.00000000
_symmetry_Int_Tables_number   1
_chemical_formula_structural   Ac2Er(TmPb2)2
_chemical_formula_sum   'Ac8 Er4 Tm8 Pb16'
_cell_volume   1165.71241291
_cell_formula_units_Z   4
loop_
 _symmetry_equiv_pos_site_id
 _symmetry_equiv_pos_as_xyz
  1  'x, y, z'
loop_
 _atom_site_type_symbol
 _atom_site_label
 _atom_site_symmetry_multiplicity
 _atom_site_fract_x
 _atom_site_fract_y
 _atom_site_fract_z
 _atom_site_occupancy
  Ac  Ac0  1  0.475085  0.596371  0.676719  1
  Ac  Ac1  1  0.975085  0.903629  0.823281  1
  Ac  Ac2  1  0.524915  0.096371  0.323281  1
  Ac  Ac3  1  0.024915  0.403629  0.176719  1
  Ac  Ac4  1  0.524915  0.403629  0.323281  1
  Ac  Ac5  1  0.024915  0.096371  0.176719  1
  Ac  Ac6  1  0.475085  0.903629  0.676719  1
  Ac  Ac7  1  0.975085  0.596371  0.823281  1
  Er  Er8  1  0.799182  0.750000  0.493301  1
  Er  Er9  1  0.299182  0.750000  0.006699  1
  Er  Er10  1  0.200818  0.250000  0.506699  1
  Er  Er11  1  0.700818  0.250000  0.993301  1
  Tm  Tm12  1  0.634083  0.623613  0.156577  1
  Tm  Tm13  1  0.134083  0.876387  0.343423  1
  Tm  Tm14  1  0.365917  0.123613  0.843423  1
  Tm  Tm15  1  0.865917  0.376387  0.656577  1
  Tm  Tm16  1  0.365917  0.376387  0.843423  1
  Tm  Tm17  1  0.865917  0.123613  0.656577  1
  Tm  Tm18  1  0.634083  0.876387  0.156577  1
  Tm  Tm19  1  0.134083  0.623613  0.343423  1
  Pb  Pb20  1  0.698252  0.454078  0.953523  1
  Pb  Pb21  1  0.198252  0.045922  0.546477  1
  Pb  Pb22  1  0.301748  0.954078  0.046477  1
  Pb  Pb23  1  0.801748  0.545922  0.453523  1
  Pb  Pb24  1  0.301748  0.545922  0.046477  1
  Pb  Pb25  1  0.801748  0.954078  0.453523  1
  Pb  Pb26  1  0.698252  0.045922  0.953523  1
  Pb  Pb27  1  0.198252  0.454078  0.546477  1
  Pb  Pb28  1  0.439347  0.750000  0.363489  1
  Pb  Pb29  1  0.939347  0.750000  0.136511  1
  Pb  Pb30  1  0.560653  0.250000  0.636511  1
  Pb  Pb31  1  0.060653  0.250000  0.863489  1
  Pb  Pb32  1  0.663682  0.750000  0.856659  1
  Pb  Pb33  1  0.163682  0.750000  0.643341  1
  Pb  Pb34  1  0.336318  0.250000  0.143341  1
  Pb  Pb35  1  0.836318  0.250000  0.356659  1
