# generated using pymatgen
data_Zr4FeCo3Si7
_symmetry_space_group_name_H-M   'P 1'
_cell_length_a   9.49900713
_cell_length_b   9.49900667
_cell_length_c   9.51742831
_cell_angle_alpha   94.13335526
_cell_angle_beta   94.13335120
_cell_angle_gamma   148.82212243
_symmetry_Int_Tables_number   1
_chemical_formula_structural   Zr4FeCo3Si7
_chemical_formula_sum   'Zr8 Fe2 Co6 Si14'
_cell_volume   428.29183882
_cell_formula_units_Z   2
loop_
 _symmetry_equiv_pos_site_id
 _symmetry_equiv_pos_as_xyz
  1  'x, y, z'
loop_
 _atom_site_type_symbol
 _atom_site_label
 _atom_site_symmetry_multiplicity
 _atom_site_fract_x
 _atom_site_fract_y
 _atom_site_fract_z
 _atom_site_occupancy
  Zr  Zr0  1  0.137873  0.137873  0.275747  1
  Zr  Zr1  1  0.862127  0.862127  0.724253  1
  Zr  Zr2  1  0.861275  0.138725  0.000000  1
  Zr  Zr3  1  0.138725  0.861275  0.000000  1
  Zr  Zr4  1  0.501626  0.305066  0.803101  1
  Zr  Zr5  1  0.501966  0.698525  0.196899  1
  Zr  Zr6  1  0.694934  0.498374  0.196899  1
  Zr  Zr7  1  0.301475  0.498034  0.803101  1
  Fe  Fe8  1  0.399004  0.899004  0.798010  1
  Fe  Fe9  1  0.100996  0.600996  0.201990  1
  Co  Co10  1  0.101568  0.898432  0.500000  1
  Co  Co11  1  0.398432  0.601568  0.500000  1
  Co  Co12  1  0.604426  0.395574  0.500000  1
  Co  Co13  1  0.895574  0.104426  0.500000  1
  Co  Co14  1  0.896845  0.396845  0.793690  1
  Co  Co15  1  0.603155  0.103155  0.206310  1
  Si  Si16  1  0.493164  0.082975  0.593471  1
  Si  Si17  1  0.489504  0.899693  0.406529  1
  Si  Si18  1  0.917025  0.506836  0.406529  1
  Si  Si19  1  0.100307  0.510496  0.593471  1
  Si  Si20  1  0.749906  0.749906  0.000000  1
  Si  Si21  1  0.250094  0.250094  0.000000  1
  Si  Si22  1  0.289006  0.289006  0.578011  1
  Si  Si23  1  0.710994  0.710994  0.421989  1
  Si  Si24  1  0.710453  0.289547  0.000000  1
  Si  Si25  1  0.289547  0.710453  0.000000  1
  Si  Si26  1  0.002606  0.305347  0.302349  1
  Si  Si27  1  0.002999  0.700257  0.697651  1
  Si  Si28  1  0.694653  0.997394  0.697651  1
  Si  Si29  1  0.299743  0.997001  0.302349  1
