# generated using pymatgen
data_YSc(IrO4)2
_symmetry_space_group_name_H-M   'P 1'
_cell_length_a   5.28043061
_cell_length_b   7.52495760
_cell_length_c   7.31041254
_cell_angle_alpha   80.40432405
_cell_angle_beta   90.68066878
_cell_angle_gamma   86.79317531
_symmetry_Int_Tables_number   1
_chemical_formula_structural   YSc(IrO4)2
_chemical_formula_sum   'Y2 Sc2 Ir4 O16'
_cell_volume   285.90031710
_cell_formula_units_Z   2
loop_
 _symmetry_equiv_pos_site_id
 _symmetry_equiv_pos_as_xyz
  1  'x, y, z'
loop_
 _atom_site_type_symbol
 _atom_site_label
 _atom_site_symmetry_multiplicity
 _atom_site_fract_x
 _atom_site_fract_y
 _atom_site_fract_z
 _atom_site_occupancy
  Y  Y0  1  0.248178  0.127173  0.121033  1
  Y  Y1  1  0.751874  0.872922  0.878819  1
  Sc  Sc2  1  0.286859  0.169272  0.626532  1
  Sc  Sc3  1  0.712968  0.830484  0.373399  1
  Ir  Ir4  1  0.221057  0.658521  0.201215  1
  Ir  Ir5  1  0.778902  0.341462  0.798787  1
  Ir  Ir6  1  0.750014  0.332080  0.301933  1
  Ir  Ir7  1  0.250042  0.667899  0.698081  1
  O  O8  1  0.103617  0.435349  0.691080  1
  O  O9  1  0.896352  0.564706  0.309036  1
  O  O10  1  0.624301  0.324585  0.554996  1
  O  O11  1  0.375800  0.675329  0.444909  1
  O  O12  1  0.898881  0.330258  0.055770  1
  O  O13  1  0.101085  0.669758  0.944398  1
  O  O14  1  0.419011  0.435816  0.191708  1
  O  O15  1  0.580979  0.564309  0.808330  1
  O  O16  1  0.998786  0.890061  0.183954  1
  O  O17  1  0.001141  0.110069  0.816111  1
  O  O18  1  0.585072  0.096349  0.321719  1
  O  O19  1  0.415224  0.903639  0.678107  1
  O  O20  1  0.510652  0.173401  0.881274  1
  O  O21  1  0.489165  0.826582  0.118758  1
  O  O22  1  0.072802  0.205904  0.389718  1
  O  O23  1  0.927238  0.794072  0.610331  1
