# generated using pymatgen
data_Ta5Nb3FeCo2Si14Ni5
_symmetry_space_group_name_H-M   'P 1'
_cell_length_a   9.25137313
_cell_length_b   9.25344258
_cell_length_c   9.27570300
_cell_angle_alpha   94.22631550
_cell_angle_beta   94.12804372
_cell_angle_gamma   148.60792829
_symmetry_Int_Tables_number   1
_chemical_formula_structural   Ta5Nb3FeCo2Si14Ni5
_chemical_formula_sum   'Ta5 Nb3 Fe1 Co2 Si14 Ni5'
_cell_volume   398.34704594
_cell_formula_units_Z   1
loop_
 _symmetry_equiv_pos_site_id
 _symmetry_equiv_pos_as_xyz
  1  'x, y, z'
loop_
 _atom_site_type_symbol
 _atom_site_label
 _atom_site_symmetry_multiplicity
 _atom_site_fract_x
 _atom_site_fract_y
 _atom_site_fract_z
 _atom_site_occupancy
  Ta  Ta0  1  0.133198  0.134416  0.266337  1
  Ta  Ta1  1  0.865998  0.866658  0.733991  1
  Ta  Ta2  1  0.867019  0.133624  0.001406  1
  Ta  Ta3  1  0.133942  0.867472  0.000924  1
  Ta  Ta4  1  0.496963  0.687675  0.189200  1
  Nb  Nb5  1  0.498132  0.306947  0.809210  1
  Nb  Nb6  1  0.312180  0.503061  0.810525  1
  Nb  Nb7  1  0.692957  0.501939  0.190337  1
  Fe  Fe8  1  0.598552  0.098877  0.198084  1
  Co  Co9  1  0.900633  0.099780  0.500503  1
  Co  Co10  1  0.900109  0.401218  0.800973  1
  Si  Si11  1  0.289556  0.291282  0.586722  1
  Si  Si12  1  0.709219  0.710447  0.413710  1
  Si  Si13  1  0.706854  0.292104  0.999533  1
  Si  Si14  1  0.291975  0.707103  0.999080  1
  Si  Si15  1  0.988934  0.284344  0.295641  1
  Si  Si16  1  0.995734  0.700787  0.707225  1
  Si  Si17  1  0.714361  0.009040  0.705474  1
  Si  Si18  1  0.301461  0.006072  0.293411  1
  Si  Si19  1  0.521722  0.929675  0.405418  1
  Si  Si20  1  0.513020  0.104482  0.595727  1
  Si  Si21  1  0.076054  0.483060  0.594666  1
  Si  Si22  1  0.891117  0.481729  0.404153  1
  Si  Si23  1  0.750668  0.750569  0.000168  1
  Si  Si24  1  0.249498  0.249153  0.999797  1
  Ni  Ni25  1  0.397596  0.896062  0.793492  1
  Ni  Ni26  1  0.103748  0.601457  0.205259  1
  Ni  Ni27  1  0.103494  0.895358  0.499334  1
  Ni  Ni28  1  0.396344  0.603567  0.498660  1
  Ni  Ni29  1  0.598958  0.402038  0.501038  1
