# generated using pymatgen
data_RbSm3CBr6
_symmetry_space_group_name_H-M   'P 1'
_cell_length_a   8.92983149
_cell_length_b   8.97422490
_cell_length_c   9.62859094
_cell_angle_alpha   69.67758838
_cell_angle_beta   85.80854475
_cell_angle_gamma   89.24521323
_symmetry_Int_Tables_number   1
_chemical_formula_structural   RbSm3CBr6
_chemical_formula_sum   'Rb2 Sm6 C2 Br12'
_cell_volume   721.59138264
_cell_formula_units_Z   2
loop_
 _symmetry_equiv_pos_site_id
 _symmetry_equiv_pos_as_xyz
  1  'x, y, z'
loop_
 _atom_site_type_symbol
 _atom_site_label
 _atom_site_symmetry_multiplicity
 _atom_site_fract_x
 _atom_site_fract_y
 _atom_site_fract_z
 _atom_site_occupancy
  Rb  Rb0  1  0.472863  0.349929  0.333296  1
  Rb  Rb1  1  0.527138  0.650071  0.666704  1
  Sm  Sm2  1  0.914676  0.739512  0.005571  1
  Sm  Sm3  1  0.085324  0.260488  0.994428  1
  Sm  Sm4  1  0.738588  0.087117  0.000931  1
  Sm  Sm5  1  0.261411  0.912883  0.999070  1
  Sm  Sm6  1  0.978486  0.877395  0.328024  1
  Sm  Sm7  1  0.021513  0.122605  0.671977  1
  C  C8  1  0.004906  0.028503  0.921584  1
  C  C9  1  0.995093  0.971497  0.078416  1
  Br  Br10  1  0.085869  0.191592  0.325471  1
  Br  Br11  1  0.914131  0.808408  0.674529  1
  Br  Br12  1  0.207475  0.590443  0.001645  1
  Br  Br13  1  0.792526  0.409557  0.998355  1
  Br  Br14  1  0.405594  0.202139  0.004571  1
  Br  Br15  1  0.594405  0.797862  0.995428  1
  Br  Br16  1  0.669985  0.996892  0.328172  1
  Br  Br17  1  0.330015  0.003108  0.671828  1
  Br  Br18  1  0.287478  0.763655  0.324929  1
  Br  Br19  1  0.712522  0.236345  0.675071  1
  Br  Br20  1  0.846537  0.582728  0.328868  1
  Br  Br21  1  0.153462  0.417272  0.671132  1
