# generated using pymatgen
data_Tm12Co4TcBi
_symmetry_space_group_name_H-M   'P 1'
_cell_length_a   8.22738949
_cell_length_b   8.22746145
_cell_length_c   8.22738812
_cell_angle_alpha   110.51424928
_cell_angle_beta   111.84997049
_cell_angle_gamma   106.10370047
_symmetry_Int_Tables_number   1
_chemical_formula_structural   Tm12Co4TcBi
_chemical_formula_sum   'Tm12 Co4 Tc1 Bi1'
_cell_volume   427.55191256
_cell_formula_units_Z   1
loop_
 _symmetry_equiv_pos_site_id
 _symmetry_equiv_pos_as_xyz
  1  'x, y, z'
loop_
 _atom_site_type_symbol
 _atom_site_label
 _atom_site_symmetry_multiplicity
 _atom_site_fract_x
 _atom_site_fract_y
 _atom_site_fract_z
 _atom_site_occupancy
  Tm  Tm0  1  0.279373  0.181325  0.460700  1
  Tm  Tm1  1  0.720627  0.818675  0.539300  1
  Tm  Tm2  1  0.279375  0.818675  0.098047  1
  Tm  Tm3  1  0.720625  0.181325  0.901953  1
  Tm  Tm4  1  0.619856  0.310652  0.309204  1
  Tm  Tm5  1  0.380144  0.689348  0.690796  1
  Tm  Tm6  1  0.001448  0.310652  0.690796  1
  Tm  Tm7  1  0.998552  0.689348  0.309204  1
  Tm  Tm8  1  0.217149  0.414941  0.197793  1
  Tm  Tm9  1  0.782851  0.585059  0.802207  1
  Tm  Tm10  1  0.217146  0.019354  0.802208  1
  Tm  Tm11  1  0.782854  0.980646  0.197792  1
  Co  Co12  1  0.999999  0.376429  0.376430  1
  Co  Co13  1  0.000001  0.623571  0.623570  1
  Co  Co14  1  0.388655  0.888655  0.500000  1
  Co  Co15  1  0.611345  0.111345  0.500000  1
  Tc  Tc16  1  0.000000  0.000000  0.000000  1
  Bi  Bi17  1  0.500000  0.500000  0.000000  1
