# generated using pymatgen
data_NaMnAgF6
_symmetry_space_group_name_H-M   'P 1'
_cell_length_a   5.25149500
_cell_length_b   9.28616500
_cell_length_c   10.59772400
_cell_angle_alpha   90.00000000
_cell_angle_beta   90.00000000
_cell_angle_gamma   90.00000000
_symmetry_Int_Tables_number   1
_chemical_formula_structural   NaMnAgF6
_chemical_formula_sum   'Na4 Mn4 Ag4 F24'
_cell_volume   516.81124812
_cell_formula_units_Z   4
loop_
 _symmetry_equiv_pos_site_id
 _symmetry_equiv_pos_as_xyz
  1  'x, y, z'
loop_
 _atom_site_type_symbol
 _atom_site_label
 _atom_site_symmetry_multiplicity
 _atom_site_fract_x
 _atom_site_fract_y
 _atom_site_fract_z
 _atom_site_occupancy
  Na  Na0  1  0.027002  0.639280  0.092217  1
  Na  Na1  1  0.472998  0.360720  0.592217  1
  Na  Na2  1  0.972998  0.139280  0.407783  1
  Na  Na3  1  0.527002  0.860720  0.907783  1
  Mn  Mn4  1  0.017024  0.993778  0.125586  1
  Mn  Mn5  1  0.482976  0.006222  0.625586  1
  Mn  Mn6  1  0.982976  0.493778  0.374414  1
  Mn  Mn7  1  0.517024  0.506222  0.874414  1
  Ag  Ag8  1  0.505760  0.306589  0.160367  1
  Ag  Ag9  1  0.994240  0.693411  0.660367  1
  Ag  Ag10  1  0.494240  0.806589  0.339633  1
  Ag  Ag11  1  0.005760  0.193411  0.839633  1
  F  F12  1  0.265438  0.144902  0.559657  1
  F  F13  1  0.234562  0.855098  0.059657  1
  F  F14  1  0.734562  0.644902  0.940343  1
  F  F15  1  0.765438  0.355098  0.440343  1
  F  F16  1  0.201160  0.624107  0.297111  1
  F  F17  1  0.298840  0.375893  0.797111  1
  F  F18  1  0.798840  0.124107  0.202889  1
  F  F19  1  0.701160  0.875893  0.702889  1
  F  F20  1  0.222154  0.141610  0.065671  1
  F  F21  1  0.277846  0.858390  0.565671  1
  F  F22  1  0.777846  0.641610  0.434329  1
  F  F23  1  0.722154  0.358390  0.934329  1
  F  F24  1  0.193568  0.342557  0.324416  1
  F  F25  1  0.306432  0.657443  0.824416  1
  F  F26  1  0.806432  0.842557  0.175584  1
  F  F27  1  0.693568  0.157443  0.675584  1
  F  F28  1  0.338555  0.493877  0.025344  1
  F  F29  1  0.161445  0.506123  0.525344  1
  F  F30  1  0.661445  0.993877  0.474656  1
  F  F31  1  0.838555  0.006123  0.974656  1
  F  F32  1  0.196654  0.987650  0.276438  1
  F  F33  1  0.303346  0.012350  0.776438  1
  F  F34  1  0.803346  0.487650  0.223562  1
  F  F35  1  0.696654  0.512350  0.723562  1
