# generated using pymatgen
data_Ho8Sc12Sn15Pt
_symmetry_space_group_name_H-M   'P 1'
_cell_length_a   7.61799800
_cell_length_b   7.95811938
_cell_length_c   14.80576200
_cell_angle_alpha   90.00000000
_cell_angle_beta   90.00000000
_cell_angle_gamma   89.81748823
_symmetry_Int_Tables_number   1
_chemical_formula_structural   Ho8Sc12Sn15Pt
_chemical_formula_sum   'Ho8 Sc12 Sn15 Pt1'
_cell_volume   897.59384172
_cell_formula_units_Z   1
loop_
 _symmetry_equiv_pos_site_id
 _symmetry_equiv_pos_as_xyz
  1  'x, y, z'
loop_
 _atom_site_type_symbol
 _atom_site_label
 _atom_site_symmetry_multiplicity
 _atom_site_fract_x
 _atom_site_fract_y
 _atom_site_fract_z
 _atom_site_occupancy
  Ho  Ho0  1  0.991905  0.179470  0.093417  1
  Ho  Ho1  1  0.005454  0.826036  0.905124  1
  Ho  Ho2  1  0.507662  0.681522  0.905277  1
  Ho  Ho3  1  0.005454  0.826036  0.594876  1
  Ho  Ho4  1  0.492256  0.322565  0.093513  1
  Ho  Ho5  1  0.991905  0.179470  0.406583  1
  Ho  Ho6  1  0.492256  0.322565  0.406487  1
  Ho  Ho7  1  0.507662  0.681522  0.594723  1
  Sc  Sc8  1  0.176420  0.494366  0.750000  1
  Sc  Sc9  1  0.829836  0.503732  0.250000  1
  Sc  Sc10  1  0.330154  0.997948  0.250000  1
  Sc  Sc11  1  0.690129  0.006813  0.750000  1
  Sc  Sc12  1  0.313014  0.161204  0.630765  1
  Sc  Sc13  1  0.661592  0.839680  0.373626  1
  Sc  Sc14  1  0.159190  0.662619  0.372304  1
  Sc  Sc15  1  0.661592  0.839680  0.126374  1
  Sc  Sc16  1  0.860534  0.322760  0.633164  1
  Sc  Sc17  1  0.313014  0.161204  0.869235  1
  Sc  Sc18  1  0.860534  0.322760  0.866836  1
  Sc  Sc19  1  0.159190  0.662619  0.127696  1
  Sn  Sn20  1  0.967106  0.877241  0.250000  1
  Sn  Sn21  1  0.468369  0.624344  0.250000  1
  Sn  Sn22  1  0.537303  0.373304  0.750000  1
  Sn  Sn23  1  0.302857  0.856707  0.750000  1
  Sn  Sn24  1  0.687524  0.152877  0.250000  1
  Sn  Sn25  1  0.187203  0.349853  0.250000  1
  Sn  Sn26  1  0.809591  0.642118  0.750000  1
  Sn  Sn27  1  0.185390  0.463124  0.541028  1
  Sn  Sn28  1  0.816605  0.541421  0.461071  1
  Sn  Sn29  1  0.318452  0.958362  0.458793  1
  Sn  Sn30  1  0.816605  0.541421  0.038929  1
  Sn  Sn31  1  0.677999  0.044043  0.543542  1
  Sn  Sn32  1  0.185390  0.463124  0.958972  1
  Sn  Sn33  1  0.677999  0.044043  0.956458  1
  Sn  Sn34  1  0.318452  0.958362  0.041207  1
  Pt  Pt35  1  0.033404  0.115086  0.750000  1
