# generated using pymatgen
data_Nd3YIrRh3O14
_symmetry_space_group_name_H-M   'P 1'
_cell_length_a   7.36722521
_cell_length_b   7.36722576
_cell_length_c   7.32737522
_cell_angle_alpha   59.89546971
_cell_angle_beta   59.89546756
_cell_angle_gamma   60.07449071
_symmetry_Int_Tables_number   1
_chemical_formula_structural   Nd3YIrRh3O14
_chemical_formula_sum   'Nd3 Y1 Ir1 Rh3 O14'
_cell_volume   280.92894313
_cell_formula_units_Z   1
loop_
 _symmetry_equiv_pos_site_id
 _symmetry_equiv_pos_as_xyz
  1  'x, y, z'
loop_
 _atom_site_type_symbol
 _atom_site_label
 _atom_site_symmetry_multiplicity
 _atom_site_fract_x
 _atom_site_fract_y
 _atom_site_fract_z
 _atom_site_occupancy
  Nd  Nd0  1  0.625000  0.125000  0.125000  1
  Nd  Nd1  1  0.125000  0.625000  0.125000  1
  Nd  Nd2  1  0.125000  0.125000  0.125000  1
  Y  Y3  1  0.125000  0.125000  0.625000  1
  Ir  Ir4  1  0.625000  0.625000  0.625000  1
  Rh  Rh5  1  0.125000  0.625000  0.625000  1
  Rh  Rh6  1  0.625000  0.125000  0.625000  1
  Rh  Rh7  1  0.625000  0.625000  0.125000  1
  O  O8  1  0.706033  0.706033  0.297161  1
  O  O9  1  0.289787  0.289787  0.701625  1
  O  O10  1  0.711689  0.296696  0.700899  1
  O  O11  1  0.290033  0.707446  0.290626  1
  O  O12  1  0.296696  0.711689  0.700899  1
  O  O13  1  0.707446  0.290033  0.290626  1
  O  O14  1  0.543967  0.543967  0.952839  1
  O  O15  1  0.960213  0.960213  0.548375  1
  O  O16  1  0.538311  0.953304  0.549101  1
  O  O17  1  0.959967  0.542554  0.959374  1
  O  O18  1  0.953304  0.538311  0.549101  1
  O  O19  1  0.542554  0.959967  0.959374  1
  O  O20  1  0.247448  0.247448  0.260511  1
  O  O21  1  0.002552  0.002552  0.989489  1
