# generated using pymatgen
data_Sc12Si12AgOs3
_symmetry_space_group_name_H-M   'P 1'
_cell_length_a   4.04808800
_cell_length_b   10.33443220
_cell_length_c   11.70749450
_cell_angle_alpha   90.04475548
_cell_angle_beta   90.00000000
_cell_angle_gamma   90.00000000
_symmetry_Int_Tables_number   1
_chemical_formula_structural   Sc12Si12AgOs3
_chemical_formula_sum   'Sc12 Si12 Ag1 Os3'
_cell_volume   489.77926492
_cell_formula_units_Z   1
loop_
 _symmetry_equiv_pos_site_id
 _symmetry_equiv_pos_as_xyz
  1  'x, y, z'
loop_
 _atom_site_type_symbol
 _atom_site_label
 _atom_site_symmetry_multiplicity
 _atom_site_fract_x
 _atom_site_fract_y
 _atom_site_fract_z
 _atom_site_occupancy
  Sc  Sc0  1  0.250000  0.878730  0.025167  1
  Sc  Sc1  1  0.250000  0.623484  0.517316  1
  Sc  Sc2  1  0.750000  0.128544  0.984800  1
  Sc  Sc3  1  0.750000  0.378483  0.479230  1
  Sc  Sc4  1  0.250000  0.920667  0.601524  1
  Sc  Sc5  1  0.250000  0.579405  0.104931  1
  Sc  Sc6  1  0.750000  0.079406  0.395232  1
  Sc  Sc7  1  0.750000  0.421148  0.897615  1
  Sc  Sc8  1  0.250000  0.652572  0.798100  1
  Sc  Sc9  1  0.250000  0.841239  0.297359  1
  Sc  Sc10  1  0.750000  0.341632  0.202560  1
  Sc  Sc11  1  0.750000  0.165323  0.699230  1
  Si  Si12  1  0.250000  0.027553  0.825887  1
  Si  Si13  1  0.250000  0.485293  0.321638  1
  Si  Si14  1  0.750000  0.985498  0.176629  1
  Si  Si15  1  0.750000  0.511283  0.678102  1
  Si  Si16  1  0.250000  0.255399  0.842019  1
  Si  Si17  1  0.250000  0.248171  0.341314  1
  Si  Si18  1  0.750000  0.748434  0.159270  1
  Si  Si19  1  0.750000  0.744965  0.649301  1
  Si  Si20  1  0.250000  0.196942  0.544170  1
  Si  Si21  1  0.250000  0.306132  0.048035  1
  Si  Si22  1  0.750000  0.805581  0.450156  1
  Si  Si23  1  0.750000  0.681330  0.960364  1
  Ag  Ag24  1  0.750000  0.885525  0.824023  1
  Os  Os25  1  0.250000  0.390485  0.675784  1
  Os  Os26  1  0.250000  0.108727  0.176894  1
  Os  Os27  1  0.750000  0.608045  0.323350  1
