# generated using pymatgen
data_Np2B6Os
_symmetry_space_group_name_H-M   'P 1'
_cell_length_a   3.56661800
_cell_length_b   9.34980500
_cell_length_c   11.38460300
_cell_angle_alpha   90.00000000
_cell_angle_beta   90.00000000
_cell_angle_gamma   90.00000000
_symmetry_Int_Tables_number   1
_chemical_formula_structural   Np2B6Os
_chemical_formula_sum   'Np8 B24 Os4'
_cell_volume   379.64443745
_cell_formula_units_Z   4
loop_
 _symmetry_equiv_pos_site_id
 _symmetry_equiv_pos_as_xyz
  1  'x, y, z'
loop_
 _atom_site_type_symbol
 _atom_site_label
 _atom_site_symmetry_multiplicity
 _atom_site_fract_x
 _atom_site_fract_y
 _atom_site_fract_z
 _atom_site_occupancy
  Np  Np0  1  0.000000  0.337336  0.406865  1
  Np  Np1  1  0.000000  0.662664  0.593135  1
  Np  Np2  1  0.000000  0.837336  0.093135  1
  Np  Np3  1  0.000000  0.162664  0.906865  1
  Np  Np4  1  0.000000  0.959051  0.401097  1
  Np  Np5  1  0.000000  0.040949  0.598903  1
  Np  Np6  1  0.000000  0.459051  0.098903  1
  Np  Np7  1  0.000000  0.540949  0.901097  1
  B  B8  1  0.500000  0.551371  0.432121  1
  B  B9  1  0.500000  0.448629  0.567879  1
  B  B10  1  0.500000  0.051371  0.067879  1
  B  B11  1  0.500000  0.948629  0.932121  1
  B  B12  1  0.500000  0.742768  0.423610  1
  B  B13  1  0.500000  0.257232  0.576390  1
  B  B14  1  0.500000  0.242768  0.076390  1
  B  B15  1  0.500000  0.757232  0.923610  1
  B  B16  1  0.500000  0.805493  0.273997  1
  B  B17  1  0.500000  0.194507  0.726002  1
  B  B18  1  0.500000  0.305493  0.226003  1
  B  B19  1  0.500000  0.694507  0.773998  1
  B  B20  1  0.500000  0.646157  0.188357  1
  B  B21  1  0.500000  0.353843  0.811643  1
  B  B22  1  0.500000  0.146157  0.311643  1
  B  B23  1  0.500000  0.853843  0.688357  1
  B  B24  1  0.500000  0.987584  0.220921  1
  B  B25  1  0.500000  0.012416  0.779079  1
  B  B26  1  0.500000  0.487584  0.279079  1
  B  B27  1  0.500000  0.512416  0.720921  1
  B  B28  1  0.500000  0.644474  0.039883  1
  B  B29  1  0.500000  0.355526  0.960117  1
  B  B30  1  0.500000  0.144474  0.460117  1
  B  B31  1  0.500000  0.855526  0.539883  1
  Os  Os32  1  0.000000  0.646103  0.319486  1
  Os  Os33  1  0.000000  0.353897  0.680514  1
  Os  Os34  1  0.000000  0.146103  0.180514  1
  Os  Os35  1  0.000000  0.853897  0.819486  1
