# generated using pymatgen
data_Tb20Co4SnBi7
_symmetry_space_group_name_H-M   'P 1'
_cell_length_a   8.04891574
_cell_length_b   8.88694594
_cell_length_c   12.41050294
_cell_angle_alpha   90.05126889
_cell_angle_beta   90.10987038
_cell_angle_gamma   89.98823334
_symmetry_Int_Tables_number   1
_chemical_formula_structural   Tb20Co4SnBi7
_chemical_formula_sum   'Tb20 Co4 Sn1 Bi7'
_cell_volume   887.72473278
_cell_formula_units_Z   1
loop_
 _symmetry_equiv_pos_site_id
 _symmetry_equiv_pos_as_xyz
  1  'x, y, z'
loop_
 _atom_site_type_symbol
 _atom_site_label
 _atom_site_symmetry_multiplicity
 _atom_site_fract_x
 _atom_site_fract_y
 _atom_site_fract_z
 _atom_site_occupancy
  Tb  Tb0  1  0.845531  0.746179  0.800621  1
  Tb  Tb1  1  0.150928  0.250797  0.197304  1
  Tb  Tb2  1  0.351091  0.253031  0.700775  1
  Tb  Tb3  1  0.650446  0.750879  0.301806  1
  Tb  Tb4  1  0.384771  0.746364  0.691751  1
  Tb  Tb5  1  0.618753  0.250160  0.310021  1
  Tb  Tb6  1  0.875587  0.253178  0.809869  1
  Tb  Tb7  1  0.118928  0.749883  0.190066  1
  Tb  Tb8  1  0.955123  0.750888  0.502710  1
  Tb  Tb9  1  0.046665  0.249246  0.497539  1
  Tb  Tb10  1  0.457699  0.254014  0.995008  1
  Tb  Tb11  1  0.546088  0.746139  0.000656  1
  Tb  Tb12  1  0.677929  0.034251  0.563202  1
  Tb  Tb13  1  0.322957  0.965816  0.437207  1
  Tb  Tb14  1  0.176511  0.967620  0.936710  1
  Tb  Tb15  1  0.322941  0.532770  0.436466  1
  Tb  Tb16  1  0.822281  0.032317  0.062954  1
  Tb  Tb17  1  0.675937  0.466875  0.567280  1
  Tb  Tb18  1  0.821931  0.465626  0.060747  1
  Tb  Tb19  1  0.180186  0.533257  0.936081  1
  Co  Co20  1  0.560638  0.749654  0.508248  1
  Co  Co21  1  0.439129  0.249792  0.492058  1
  Co  Co22  1  0.058560  0.249644  0.991275  1
  Co  Co23  1  0.940471  0.750118  0.008022  1
  Sn  Sn24  1  0.571284  0.493256  0.827390  1
  Bi  Bi25  1  0.427599  0.508109  0.174809  1
  Bi  Bi26  1  0.073391  0.507691  0.673526  1
  Bi  Bi27  1  0.427206  0.992489  0.172618  1
  Bi  Bi28  1  0.926791  0.492175  0.326200  1
  Bi  Bi29  1  0.572412  0.007009  0.826155  1
  Bi  Bi30  1  0.927994  0.008127  0.325399  1
  Bi  Bi31  1  0.072241  0.992648  0.675528  1
