# generated using pymatgen
data_Tb2VO5
_symmetry_space_group_name_H-M   'P 1'
_cell_length_a   3.75487000
_cell_length_b   10.44282300
_cell_length_c   11.29754100
_cell_angle_alpha   90.00000000
_cell_angle_beta   90.00000000
_cell_angle_gamma   90.00000000
_symmetry_Int_Tables_number   1
_chemical_formula_structural   Tb2VO5
_chemical_formula_sum   'Tb8 V4 O20'
_cell_volume   442.99288268
_cell_formula_units_Z   4
loop_
 _symmetry_equiv_pos_site_id
 _symmetry_equiv_pos_as_xyz
  1  'x, y, z'
loop_
 _atom_site_type_symbol
 _atom_site_label
 _atom_site_symmetry_multiplicity
 _atom_site_fract_x
 _atom_site_fract_y
 _atom_site_fract_z
 _atom_site_occupancy
  Tb  Tb0  1  0.250000  0.137128  0.944809  1
  Tb  Tb1  1  0.250000  0.637128  0.555191  1
  Tb  Tb2  1  0.750000  0.862872  0.055191  1
  Tb  Tb3  1  0.750000  0.362872  0.444809  1
  Tb  Tb4  1  0.750000  0.381939  0.774013  1
  Tb  Tb5  1  0.750000  0.881939  0.725987  1
  Tb  Tb6  1  0.250000  0.618061  0.225987  1
  Tb  Tb7  1  0.250000  0.118061  0.274013  1
  V  V8  1  0.250000  0.172009  0.618683  1
  V  V9  1  0.250000  0.672009  0.881317  1
  V  V10  1  0.750000  0.827991  0.381317  1
  V  V11  1  0.750000  0.327991  0.118683  1
  O  O12  1  0.250000  0.226292  0.457792  1
  O  O13  1  0.250000  0.726292  0.042208  1
  O  O14  1  0.750000  0.773708  0.542208  1
  O  O15  1  0.750000  0.273708  0.957792  1
  O  O16  1  0.250000  0.494168  0.394862  1
  O  O17  1  0.250000  0.994168  0.105138  1
  O  O18  1  0.750000  0.505832  0.605138  1
  O  O19  1  0.750000  0.005832  0.894862  1
  O  O20  1  0.250000  0.265758  0.116217  1
  O  O21  1  0.250000  0.765758  0.383783  1
  O  O22  1  0.750000  0.734242  0.883783  1
  O  O23  1  0.750000  0.234242  0.616217  1
  O  O24  1  0.250000  0.009987  0.654564  1
  O  O25  1  0.250000  0.509987  0.845436  1
  O  O26  1  0.750000  0.990013  0.345436  1
  O  O27  1  0.750000  0.490013  0.154564  1
  O  O28  1  0.250000  0.259301  0.768755  1
  O  O29  1  0.250000  0.759301  0.731245  1
  O  O30  1  0.750000  0.740699  0.231245  1
  O  O31  1  0.750000  0.240699  0.268755  1
