# generated using pymatgen
data_ScTa2Re3Si2B
_symmetry_space_group_name_H-M   'P 1'
_cell_length_a   6.80194817
_cell_length_b   6.77125587
_cell_length_c   3.23669100
_cell_angle_alpha   90.00000000
_cell_angle_beta   90.00000000
_cell_angle_gamma   119.85085040
_symmetry_Int_Tables_number   1
_chemical_formula_structural   ScTa2Re3Si2B
_chemical_formula_sum   'Sc1 Ta2 Re3 Si2 B1'
_cell_volume   129.29602396
_cell_formula_units_Z   1
loop_
 _symmetry_equiv_pos_site_id
 _symmetry_equiv_pos_as_xyz
  1  'x, y, z'
loop_
 _atom_site_type_symbol
 _atom_site_label
 _atom_site_symmetry_multiplicity
 _atom_site_fract_x
 _atom_site_fract_y
 _atom_site_fract_z
 _atom_site_occupancy
  Sc  Sc0  1  0.000000  0.608579  0.000000  1
  Ta  Ta1  1  0.605599  0.997346  0.000000  1
  Ta  Ta2  1  0.394401  0.391747  0.000000  1
  Re  Re3  1  0.248489  0.006289  0.500000  1
  Re  Re4  1  0.751511  0.757800  0.500000  1
  Re  Re5  1  0.000000  0.239377  0.500000  1
  Si  Si6  1  0.331082  0.665439  0.500000  1
  Si  Si7  1  0.668918  0.334356  0.500000  1
  B  B8  1  0.000000  0.999067  0.000000  1
