# generated using pymatgen
data_Sc3Pa(Ni2Sn)2
_symmetry_space_group_name_H-M   'P 1'
_cell_length_a   7.25813108
_cell_length_b   7.25813108
_cell_length_c   3.38140800
_cell_angle_alpha   90.00000000
_cell_angle_beta   90.00000000
_cell_angle_gamma   92.47076483
_symmetry_Int_Tables_number   1
_chemical_formula_structural   Sc3Pa(Ni2Sn)2
_chemical_formula_sum   'Sc3 Pa1 Ni4 Sn2'
_cell_volume   177.96854906
_cell_formula_units_Z   1
loop_
 _symmetry_equiv_pos_site_id
 _symmetry_equiv_pos_as_xyz
  1  'x, y, z'
loop_
 _atom_site_type_symbol
 _atom_site_label
 _atom_site_symmetry_multiplicity
 _atom_site_fract_x
 _atom_site_fract_y
 _atom_site_fract_z
 _atom_site_occupancy
  Sc  Sc0  1  0.169115  0.331633  0.500000  1
  Sc  Sc1  1  0.831633  0.669115  0.500000  1
  Sc  Sc2  1  0.325669  0.825669  0.500000  1
  Pa  Pa3  1  0.670435  0.170435  0.500000  1
  Ni  Ni4  1  0.869984  0.369984  0.000000  1
  Ni  Ni5  1  0.383675  0.128515  0.000000  1
  Ni  Ni6  1  0.628515  0.883675  0.000000  1
  Ni  Ni7  1  0.119122  0.619122  0.000000  1
  Sn  Sn8  1  0.013522  0.988328  0.000000  1
  Sn  Sn9  1  0.488328  0.513522  0.000000  1
