# generated using pymatgen
data_Ta12Ga8Ni4CN3
_symmetry_space_group_name_H-M   'P 1'
_cell_length_a   8.19268021
_cell_length_b   8.19268095
_cell_length_c   8.19267859
_cell_angle_alpha   59.88130393
_cell_angle_beta   59.88130227
_cell_angle_gamma   59.88130152
_symmetry_Int_Tables_number   1
_chemical_formula_structural   Ta12Ga8Ni4CN3
_chemical_formula_sum   'Ta12 Ga8 Ni4 C1 N3'
_cell_volume   387.78567131
_cell_formula_units_Z   1
loop_
 _symmetry_equiv_pos_site_id
 _symmetry_equiv_pos_as_xyz
  1  'x, y, z'
loop_
 _atom_site_type_symbol
 _atom_site_label
 _atom_site_symmetry_multiplicity
 _atom_site_fract_x
 _atom_site_fract_y
 _atom_site_fract_z
 _atom_site_occupancy
  Ta  Ta0  1  0.561671  0.938404  0.561671  1
  Ta  Ta1  1  0.311596  0.688329  0.688329  1
  Ta  Ta2  1  0.688322  0.312643  0.312643  1
  Ta  Ta3  1  0.312643  0.688322  0.312643  1
  Ta  Ta4  1  0.688329  0.688329  0.311596  1
  Ta  Ta5  1  0.312643  0.312643  0.688322  1
  Ta  Ta6  1  0.561671  0.561671  0.938404  1
  Ta  Ta7  1  0.938404  0.561671  0.561671  1
  Ta  Ta8  1  0.561678  0.937357  0.937357  1
  Ta  Ta9  1  0.937357  0.937357  0.561678  1
  Ta  Ta10  1  0.688329  0.311596  0.688329  1
  Ta  Ta11  1  0.937357  0.561678  0.937357  1
  Ga  Ga12  1  0.916068  0.916068  0.916068  1
  Ga  Ga13  1  0.998041  0.333841  0.333841  1
  Ga  Ga14  1  0.333841  0.998041  0.333841  1
  Ga  Ga15  1  0.333841  0.333841  0.998041  1
  Ga  Ga16  1  0.916159  0.251959  0.916159  1
  Ga  Ga17  1  0.916159  0.916159  0.251959  1
  Ga  Ga18  1  0.251959  0.916159  0.916159  1
  Ga  Ga19  1  0.333932  0.333932  0.333932  1
  Ni  Ni20  1  0.125000  0.125000  0.125000  1
  Ni  Ni21  1  0.625000  0.125000  0.125000  1
  Ni  Ni22  1  0.125000  0.625000  0.125000  1
  Ni  Ni23  1  0.125000  0.125000  0.625000  1
  C  C24  1  0.625000  0.625000  0.625000  1
  N  N25  1  0.125000  0.625000  0.625000  1
  N  N26  1  0.625000  0.125000  0.625000  1
  N  N27  1  0.625000  0.625000  0.125000  1
