# generated using pymatgen
data_Zr6GaGeC2
_symmetry_space_group_name_H-M   'P 1'
_cell_length_a   5.97844735
_cell_length_b   5.97844819
_cell_length_c   8.98301300
_cell_angle_alpha   90.00000000
_cell_angle_beta   90.00000000
_cell_angle_gamma   146.25760443
_symmetry_Int_Tables_number   1
_chemical_formula_structural   Zr6GaGeC2
_chemical_formula_sum   'Zr6 Ga1 Ge1 C2'
_cell_volume   178.34116431
_cell_formula_units_Z   1
loop_
 _symmetry_equiv_pos_site_id
 _symmetry_equiv_pos_as_xyz
  1  'x, y, z'
loop_
 _atom_site_type_symbol
 _atom_site_label
 _atom_site_symmetry_multiplicity
 _atom_site_fract_x
 _atom_site_fract_y
 _atom_site_fract_z
 _atom_site_occupancy
  Zr  Zr0  1  0.128441  0.871557  0.047223  1
  Zr  Zr1  1  0.447996  0.552003  0.250000  1
  Zr  Zr2  1  0.128441  0.871557  0.452777  1
  Zr  Zr3  1  0.871297  0.128701  0.549398  1
  Zr  Zr4  1  0.554613  0.445386  0.750000  1
  Zr  Zr5  1  0.871297  0.128701  0.950603  1
  Ga  Ga6  1  0.749982  0.250017  0.250000  1
  Ge  Ge7  1  0.248422  0.751577  0.750000  1
  C  C8  1  0.499752  0.500246  0.999092  1
  C  C9  1  0.499752  0.500246  0.500908  1
