# generated using pymatgen
data_Na3LiAlGa(FeBr8)2
_symmetry_space_group_name_H-M   'P 1'
_cell_length_a   7.59010042
_cell_length_b   7.86654503
_cell_length_c   14.59840500
_cell_angle_alpha   87.08943005
_cell_angle_beta   89.87376213
_cell_angle_gamma   90.24896335
_symmetry_Int_Tables_number   1
_chemical_formula_structural   Na3LiAlGa(FeBr8)2
_chemical_formula_sum   'Na3 Li1 Al1 Ga1 Fe2 Br16'
_cell_volume   870.50442923
_cell_formula_units_Z   1
loop_
 _symmetry_equiv_pos_site_id
 _symmetry_equiv_pos_as_xyz
  1  'x, y, z'
loop_
 _atom_site_type_symbol
 _atom_site_label
 _atom_site_symmetry_multiplicity
 _atom_site_fract_x
 _atom_site_fract_y
 _atom_site_fract_z
 _atom_site_occupancy
  Na  Na0  1  0.489611  0.847242  0.869399  1
  Na  Na1  1  0.506725  0.148946  0.133053  1
  Na  Na2  1  0.989241  0.153741  0.629745  1
  Li  Li3  1  0.019411  0.848488  0.378123  1
  Al  Al4  1  0.827686  0.289795  0.397241  1
  Ga  Ga5  1  0.172868  0.710915  0.597010  1
  Fe  Fe6  1  0.678608  0.290385  0.898762  1
  Fe  Fe7  1  0.317805  0.709719  0.104415  1
  Br  Br8  1  0.191434  0.457567  0.688094  1
  Br  Br9  1  0.833020  0.552074  0.317238  1
  Br  Br10  1  0.689401  0.546251  0.809769  1
  Br  Br11  1  0.312763  0.451065  0.190995  1
  Br  Br12  1  0.309434  0.932499  0.678935  1
  Br  Br13  1  0.698221  0.071486  0.315562  1
  Br  Br14  1  0.812097  0.069377  0.816276  1
  Br  Br15  1  0.183697  0.922293  0.192520  1
  Br  Br16  1  0.174894  0.691867  0.962841  1
  Br  Br17  1  0.820626  0.310890  0.040150  1
  Br  Br18  1  0.682876  0.309524  0.536492  1
  Br  Br19  1  0.302157  0.698957  0.450216  1
  Br  Br20  1  0.878416  0.801421  0.566034  1
  Br  Br21  1  0.113456  0.183583  0.425995  1
  Br  Br22  1  0.382697  0.202051  0.928882  1
  Br  Br23  1  0.612854  0.799860  0.072255  1
