# generated using pymatgen
data_TbGd2Dy(B6Os)2
_symmetry_space_group_name_H-M   'P 1'
_cell_length_a   3.67512900
_cell_length_b   9.19803610
_cell_length_c   11.57889813
_cell_angle_alpha   90.01730060
_cell_angle_beta   90.00000000
_cell_angle_gamma   90.00000000
_symmetry_Int_Tables_number   1
_chemical_formula_structural   TbGd2Dy(B6Os)2
_chemical_formula_sum   'Tb2 Gd4 Dy2 B24 Os4'
_cell_volume   391.41269835
_cell_formula_units_Z   2
loop_
 _symmetry_equiv_pos_site_id
 _symmetry_equiv_pos_as_xyz
  1  'x, y, z'
loop_
 _atom_site_type_symbol
 _atom_site_label
 _atom_site_symmetry_multiplicity
 _atom_site_fract_x
 _atom_site_fract_y
 _atom_site_fract_z
 _atom_site_occupancy
  Tb  Tb0  1  0.000000  0.944122  0.372884  1
  Tb  Tb1  1  0.000000  0.055878  0.627116  1
  Gd  Gd2  1  0.000000  0.323147  0.413735  1
  Gd  Gd3  1  0.000000  0.676853  0.586265  1
  Gd  Gd4  1  0.000000  0.822986  0.086182  1
  Gd  Gd5  1  0.000000  0.177014  0.913818  1
  Dy  Dy6  1  0.000000  0.444158  0.126993  1
  Dy  Dy7  1  0.000000  0.555842  0.873007  1
  B  B8  1  0.500000  0.554298  0.432362  1
  B  B9  1  0.500000  0.445702  0.567638  1
  B  B10  1  0.500000  0.054355  0.067621  1
  B  B11  1  0.500000  0.945645  0.932379  1
  B  B12  1  0.500000  0.747411  0.419571  1
  B  B13  1  0.500000  0.252589  0.580429  1
  B  B14  1  0.500000  0.247732  0.080427  1
  B  B15  1  0.500000  0.752268  0.919573  1
  B  B16  1  0.500000  0.790520  0.266965  1
  B  B17  1  0.500000  0.209480  0.733035  1
  B  B18  1  0.500000  0.290858  0.232915  1
  B  B19  1  0.500000  0.709142  0.767085  1
  B  B20  1  0.500000  0.632122  0.185718  1
  B  B21  1  0.500000  0.367878  0.814282  1
  B  B22  1  0.500000  0.132409  0.314109  1
  B  B23  1  0.500000  0.867591  0.685891  1
  B  B24  1  0.500000  0.984565  0.213016  1
  B  B25  1  0.500000  0.015435  0.786984  1
  B  B26  1  0.500000  0.484375  0.286760  1
  B  B27  1  0.500000  0.515625  0.713240  1
  B  B28  1  0.500000  0.608716  0.030118  1
  B  B29  1  0.500000  0.391284  0.969882  1
  B  B30  1  0.500000  0.109242  0.469735  1
  B  B31  1  0.500000  0.890757  0.530265  1
  Os  Os32  1  0.000000  0.637649  0.321022  1
  Os  Os33  1  0.000000  0.362351  0.678978  1
  Os  Os34  1  0.000000  0.138217  0.178719  1
  Os  Os35  1  0.000000  0.861783  0.821281  1
