# generated using pymatgen
data_La5Pr11Cd2Co3Hg2Ir
_symmetry_space_group_name_H-M   'P 1'
_cell_length_a   9.93692599
_cell_length_b   9.93739572
_cell_length_c   9.93739500
_cell_angle_alpha   59.86835028
_cell_angle_beta   60.29513504
_cell_angle_gamma   60.29512709
_symmetry_Int_Tables_number   1
_chemical_formula_structural   La5Pr11Cd2Co3Hg2Ir
_chemical_formula_sum   'La5 Pr11 Cd2 Co3 Hg2 Ir1'
_cell_volume   696.25358357
_cell_formula_units_Z   1
loop_
 _symmetry_equiv_pos_site_id
 _symmetry_equiv_pos_as_xyz
  1  'x, y, z'
loop_
 _atom_site_type_symbol
 _atom_site_label
 _atom_site_symmetry_multiplicity
 _atom_site_fract_x
 _atom_site_fract_y
 _atom_site_fract_z
 _atom_site_occupancy
  La  La0  1  0.339254  0.349691  0.349368  1
  La  La1  1  0.341046  0.349272  0.960158  1
  La  La2  1  0.341834  0.958917  0.349427  1
  La  La3  1  0.958391  0.349285  0.348730  1
  La  La4  1  0.821089  0.186650  0.187382  1
  Pr  Pr5  1  0.190580  0.809648  0.809890  1
  Pr  Pr6  1  0.192724  0.807653  0.187904  1
  Pr  Pr7  1  0.815385  0.188103  0.802732  1
  Pr  Pr8  1  0.192204  0.186857  0.808489  1
  Pr  Pr9  1  0.814520  0.801765  0.189128  1
  Pr  Pr10  1  0.936193  0.563459  0.563959  1
  Pr  Pr11  1  0.562078  0.938265  0.938853  1
  Pr  Pr12  1  0.562894  0.939331  0.558156  1
  Pr  Pr13  1  0.937514  0.560309  0.938813  1
  Pr  Pr14  1  0.562613  0.557442  0.940623  1
  Pr  Pr15  1  0.937499  0.938032  0.560871  1
  Cd  Cd16  1  0.578775  0.260950  0.581286  1
  Cd  Cd17  1  0.259463  0.579988  0.580702  1
  Co  Co18  1  0.129682  0.146131  0.145787  1
  Co  Co19  1  0.142768  0.144249  0.574002  1
  Co  Co20  1  0.142755  0.573805  0.144353  1
  Hg  Hg21  1  0.582047  0.582323  0.584420  1
  Hg  Hg22  1  0.581887  0.584010  0.251038  1
  Ir  Ir23  1  0.576807  0.143865  0.143928  1
