# generated using pymatgen
data_Ho7Er3(IrPb3)2
_symmetry_space_group_name_H-M   'P 1'
_cell_length_a   9.17505713
_cell_length_b   9.17235370
_cell_length_c   6.82088800
_cell_angle_alpha   90.00000000
_cell_angle_beta   90.00000000
_cell_angle_gamma   120.02869863
_symmetry_Int_Tables_number   1
_chemical_formula_structural   Ho7Er3(IrPb3)2
_chemical_formula_sum   'Ho7 Er3 Ir2 Pb6'
_cell_volume   496.97604542
_cell_formula_units_Z   1
loop_
 _symmetry_equiv_pos_site_id
 _symmetry_equiv_pos_as_xyz
  1  'x, y, z'
loop_
 _atom_site_type_symbol
 _atom_site_label
 _atom_site_symmetry_multiplicity
 _atom_site_fract_x
 _atom_site_fract_y
 _atom_site_fract_z
 _atom_site_occupancy
  Ho  Ho0  1  0.999997  0.764236  0.750000  1
  Ho  Ho1  1  0.235690  0.999962  0.250000  1
  Ho  Ho2  1  0.764292  0.999978  0.750000  1
  Ho  Ho3  1  0.333319  0.666593  0.499974  1
  Ho  Ho4  1  0.666676  0.333290  0.499977  1
  Ho  Ho5  1  0.333319  0.666593  0.000026  1
  Ho  Ho6  1  0.666676  0.333290  0.000023  1
  Er  Er7  1  0.999993  0.235532  0.250000  1
  Er  Er8  1  0.764465  0.764448  0.250000  1
  Er  Er9  1  0.235611  0.235579  0.750000  1
  Ir  Ir10  1  0.000019  0.000465  0.000416  1
  Ir  Ir11  1  0.000019  0.000465  0.499584  1
  Pb  Pb12  1  0.405249  0.405471  0.250000  1
  Pb  Pb13  1  0.000236  0.405244  0.750000  1
  Pb  Pb14  1  0.999752  0.594335  0.250000  1
  Pb  Pb15  1  0.595018  0.000017  0.250000  1
  Pb  Pb16  1  0.405366  0.000219  0.750000  1
  Pb  Pb17  1  0.594306  0.594283  0.750000  1
