# generated using pymatgen
data_Hf18TiFeCuMo7
_symmetry_space_group_name_H-M   'P 1'
_cell_length_a   8.43143400
_cell_length_b   8.71539003
_cell_length_c   8.71538800
_cell_angle_alpha   119.99913444
_cell_angle_beta   90.00011353
_cell_angle_gamma   89.99988423
_symmetry_Int_Tables_number   1
_chemical_formula_structural   Hf18TiFeCuMo7
_chemical_formula_sum   'Hf18 Ti1 Fe1 Cu1 Mo7'
_cell_volume   554.63774049
_cell_formula_units_Z   1
loop_
 _symmetry_equiv_pos_site_id
 _symmetry_equiv_pos_as_xyz
  1  'x, y, z'
loop_
 _atom_site_type_symbol
 _atom_site_label
 _atom_site_symmetry_multiplicity
 _atom_site_fract_x
 _atom_site_fract_y
 _atom_site_fract_z
 _atom_site_occupancy
  Hf  Hf0  1  0.553616  0.802434  0.604867  1
  Hf  Hf1  1  0.553627  0.802430  0.197570  1
  Hf  Hf2  1  0.553616  0.395133  0.197566  1
  Hf  Hf3  1  0.441634  0.202763  0.405526  1
  Hf  Hf4  1  0.441616  0.202765  0.797235  1
  Hf  Hf5  1  0.441634  0.594474  0.797237  1
  Hf  Hf6  1  0.059825  0.202825  0.405648  1
  Hf  Hf7  1  0.059845  0.202828  0.797172  1
  Hf  Hf8  1  0.059825  0.594352  0.797175  1
  Hf  Hf9  1  0.945499  0.802345  0.604689  1
  Hf  Hf10  1  0.945490  0.802340  0.197660  1
  Hf  Hf11  1  0.945499  0.395311  0.197655  1
  Hf  Hf12  1  0.750539  0.458371  0.916767  1
  Hf  Hf13  1  0.750538  0.458383  0.541617  1
  Hf  Hf14  1  0.750539  0.083233  0.541629  1
  Hf  Hf15  1  0.249681  0.541763  0.083512  1
  Hf  Hf16  1  0.249682  0.541756  0.458244  1
  Hf  Hf17  1  0.249681  0.916488  0.458237  1
  Ti  Ti18  1  0.497428  0.999999  0.000001  1
  Fe  Fe19  1  0.249008  0.333353  0.666647  1
  Cu  Cu20  1  0.750180  0.666658  0.333342  1
  Mo  Mo21  1  0.749609  0.113007  0.226025  1
  Mo  Mo22  1  0.749612  0.113006  0.886994  1
  Mo  Mo23  1  0.749609  0.773975  0.886993  1
  Mo  Mo24  1  0.249964  0.886707  0.773405  1
  Mo  Mo25  1  0.249962  0.886705  0.113295  1
  Mo  Mo26  1  0.249964  0.226595  0.113293  1
  Mo  Mo27  1  0.002277  0.999999  0.000001  1
