# generated using pymatgen
data_SrLi4Gd(ThSi3)2
_symmetry_space_group_name_H-M   'P 1'
_cell_length_a   9.38926000
_cell_length_b   9.38925927
_cell_length_c   6.74054000
_cell_angle_alpha   90.00000000
_cell_angle_beta   90.00000000
_cell_angle_gamma   152.95097640
_symmetry_Int_Tables_number   1
_chemical_formula_structural   SrLi4Gd(ThSi3)2
_chemical_formula_sum   'Sr1 Li4 Gd1 Th2 Si6'
_cell_volume   270.22944737
_cell_formula_units_Z   1
loop_
 _symmetry_equiv_pos_site_id
 _symmetry_equiv_pos_as_xyz
  1  'x, y, z'
loop_
 _atom_site_type_symbol
 _atom_site_label
 _atom_site_symmetry_multiplicity
 _atom_site_fract_x
 _atom_site_fract_y
 _atom_site_fract_z
 _atom_site_occupancy
  Sr  Sr0  1  0.341285  0.658715  0.250000  1
  Li  Li1  1  0.809478  0.190522  0.559454  1
  Li  Li2  1  0.189278  0.810722  0.440787  1
  Li  Li3  1  0.189278  0.810722  0.059213  1
  Li  Li4  1  0.809478  0.190522  0.940546  1
  Gd  Gd5  1  0.657331  0.342669  0.750000  1
  Th  Th6  1  0.551770  0.448230  0.250000  1
  Th  Th7  1  0.448852  0.551148  0.750000  1
  Si  Si8  1  0.944282  0.055718  0.070935  1
  Si  Si9  1  0.061450  0.938550  0.925941  1
  Si  Si10  1  0.061450  0.938550  0.574059  1
  Si  Si11  1  0.944282  0.055718  0.429065  1
  Si  Si12  1  0.713191  0.286809  0.250000  1
  Si  Si13  1  0.278596  0.721404  0.750000  1
