# generated using pymatgen
data_Hf6Ga6Ir3PdPt2
_symmetry_space_group_name_H-M   'P 1'
_cell_length_a   7.25927000
_cell_length_b   7.25926893
_cell_length_c   6.82467500
_cell_angle_alpha   90.00000000
_cell_angle_beta   90.00000000
_cell_angle_gamma   120.00000487
_symmetry_Int_Tables_number   1
_chemical_formula_structural   Hf6Ga6Ir3PdPt2
_chemical_formula_sum   'Hf6 Ga6 Ir3 Pd1 Pt2'
_cell_volume   311.45723273
_cell_formula_units_Z   1
loop_
 _symmetry_equiv_pos_site_id
 _symmetry_equiv_pos_as_xyz
  1  'x, y, z'
loop_
 _atom_site_type_symbol
 _atom_site_label
 _atom_site_symmetry_multiplicity
 _atom_site_fract_x
 _atom_site_fract_y
 _atom_site_fract_z
 _atom_site_occupancy
  Hf  Hf0  1  0.400718  0.388156  0.246764  1
  Hf  Hf1  1  0.598161  0.996805  0.752923  1
  Hf  Hf2  1  0.398644  0.401839  0.752923  1
  Hf  Hf3  1  0.003195  0.601356  0.752923  1
  Hf  Hf4  1  0.987438  0.599282  0.246764  1
  Hf  Hf5  1  0.611844  0.012562  0.246764  1
  Ga  Ga6  1  0.270838  0.997314  0.998707  1
  Ga  Ga7  1  0.270378  0.000591  0.502027  1
  Ga  Ga8  1  0.999409  0.269787  0.502027  1
  Ga  Ga9  1  0.002686  0.273525  0.998707  1
  Ga  Ga10  1  0.726475  0.729162  0.998707  1
  Ga  Ga11  1  0.730213  0.729622  0.502027  1
  Ir  Ir12  1  0.666667  0.333333  0.509374  1
  Ir  Ir13  1  0.666667  0.333333  0.990749  1
  Ir  Ir14  1  0.333333  0.666667  0.010143  1
  Pd  Pd15  1  0.000000  0.000000  0.752050  1
  Pt  Pt16  1  0.333333  0.666667  0.487472  1
  Pt  Pt17  1  0.000000  0.000000  0.248947  1
