# generated using pymatgen
data_Rb2ScP2S7
_symmetry_space_group_name_H-M   'P 1'
_cell_length_a   9.36734739
_cell_length_b   9.36734778
_cell_length_c   9.05296140
_cell_angle_alpha   72.64745803
_cell_angle_beta   72.64745762
_cell_angle_gamma   70.25604039
_symmetry_Int_Tables_number   1
_chemical_formula_structural   Rb2ScP2S7
_chemical_formula_sum   'Rb4 Sc2 P4 S14'
_cell_volume   696.18574651
_cell_formula_units_Z   2
loop_
 _symmetry_equiv_pos_site_id
 _symmetry_equiv_pos_as_xyz
  1  'x, y, z'
loop_
 _atom_site_type_symbol
 _atom_site_label
 _atom_site_symmetry_multiplicity
 _atom_site_fract_x
 _atom_site_fract_y
 _atom_site_fract_z
 _atom_site_occupancy
  Rb  Rb0  1  0.609526  0.053020  0.163928  1
  Rb  Rb1  1  0.946980  0.390474  0.836072  1
  Rb  Rb2  1  0.390474  0.946980  0.836072  1
  Rb  Rb3  1  0.053020  0.609526  0.163928  1
  Sc  Sc4  1  0.681350  0.318650  0.500000  1
  Sc  Sc5  1  0.318650  0.681350  0.500000  1
  P  P6  1  0.945723  0.945723  0.439987  1
  P  P7  1  0.054277  0.054277  0.560013  1
  P  P8  1  0.393743  0.393743  0.810954  1
  P  P9  1  0.606257  0.606257  0.189046  1
  S  S10  1  0.686644  0.370346  0.204204  1
  S  S11  1  0.629654  0.313356  0.795796  1
  S  S12  1  0.313356  0.629654  0.795796  1
  S  S13  1  0.370346  0.686644  0.204204  1
  S  S14  1  0.000007  0.000007  0.204313  1
  S  S15  1  0.999993  0.999993  0.795687  1
  S  S16  1  0.710322  0.027157  0.531808  1
  S  S17  1  0.972843  0.289678  0.468192  1
  S  S18  1  0.289678  0.972843  0.468192  1
  S  S19  1  0.027157  0.710322  0.531808  1
  S  S20  1  0.273594  0.273594  0.999220  1
  S  S21  1  0.726406  0.726406  0.000780  1
  S  S22  1  0.371021  0.371021  0.593636  1
  S  S23  1  0.628979  0.628979  0.406364  1
