# generated using pymatgen
data_H7F15
_symmetry_space_group_name_H-M   'P 1'
_cell_length_a   5.11905730
_cell_length_b   5.82760696
_cell_length_c   10.66996572
_cell_angle_alpha   92.61149341
_cell_angle_beta   82.27468811
_cell_angle_gamma   65.88263415
_symmetry_Int_Tables_number   1
_chemical_formula_structural   H7F15
_chemical_formula_sum   'H7 F15'
_cell_volume   286.10085009
_cell_formula_units_Z   1
loop_
 _symmetry_equiv_pos_site_id
 _symmetry_equiv_pos_as_xyz
  1  'x, y, z'
loop_
 _atom_site_type_symbol
 _atom_site_label
 _atom_site_symmetry_multiplicity
 _atom_site_fract_x
 _atom_site_fract_y
 _atom_site_fract_z
 _atom_site_occupancy
  H  H0  1  0.458479  0.395275  0.815243  1
  H  H1  1  0.826761  0.526239  0.160231  1
  H  H2  1  0.112935  0.785506  0.629013  1
  H  H3  1  0.431403  0.472142  0.521100  1
  H  H4  1  0.735072  0.472520  0.366092  1
  H  H5  1  0.889612  0.180305  0.704268  1
  H  H6  1  0.062530  0.446162  0.961735  1
  F  F7  1  0.241694  0.973760  0.381369  1
  F  F8  1  0.779035  0.958761  0.906257  1
  F  F9  1  0.074342  0.041366  0.662235  1
  F  F10  1  0.161670  0.604783  0.602675  1
  F  F11  1  0.200605  0.369640  0.881660  1
  F  F12  1  0.359329  0.303965  0.228374  1
  F  F13  1  0.198354  0.799213  0.110659  1
  F  F14  1  0.654454  0.125973  0.186791  1
  F  F15  1  0.627345  0.405006  0.763491  1
  F  F16  1  0.621941  0.368646  0.464839  1
  F  F17  1  0.217863  0.972020  0.023182  1
  F  F18  1  0.663109  0.850385  0.817980  1
  F  F19  1  0.826322  0.545112  0.299017  1
  F  F20  1  0.076814  0.828738  0.369983  1
  F  F21  1  0.820701  0.532467  0.068529  1
