# generated using pymatgen
data_Na2TbLu(InBr3)4
_symmetry_space_group_name_H-M   'P 1'
_cell_length_a   8.15460603
_cell_length_b   7.67626115
_cell_length_c   13.25401526
_cell_angle_alpha   56.01289242
_cell_angle_beta   89.97475885
_cell_angle_gamma   89.86303506
_symmetry_Int_Tables_number   1
_chemical_formula_structural   Na2TbLu(InBr3)4
_chemical_formula_sum   'Na2 Tb1 Lu1 In4 Br12'
_cell_volume   687.92138352
_cell_formula_units_Z   1
loop_
 _symmetry_equiv_pos_site_id
 _symmetry_equiv_pos_as_xyz
  1  'x, y, z'
loop_
 _atom_site_type_symbol
 _atom_site_label
 _atom_site_symmetry_multiplicity
 _atom_site_fract_x
 _atom_site_fract_y
 _atom_site_fract_z
 _atom_site_occupancy
  Na  Na0  1  0.500000  0.500000  0.000000  1
  Na  Na1  1  0.000000  0.500000  0.500000  1
  Tb  Tb2  1  0.500000  0.000000  0.500000  1
  Lu  Lu3  1  0.000000  0.000000  0.000000  1
  In  In4  1  0.067334  0.717159  0.760061  1
  In  In5  1  0.932666  0.282841  0.239939  1
  In  In6  1  0.569631  0.278628  0.743024  1
  In  In7  1  0.430369  0.721372  0.256976  1
  Br  Br8  1  0.787946  0.754041  0.560439  1
  Br  Br9  1  0.212054  0.245959  0.439561  1
  Br  Br10  1  0.281380  0.239868  0.940371  1
  Br  Br11  1  0.718620  0.760132  0.059629  1
  Br  Br12  1  0.462365  0.865629  0.744430  1
  Br  Br13  1  0.537635  0.134371  0.255570  1
  Br  Br14  1  0.962416  0.130010  0.761431  1
  Br  Br15  1  0.037584  0.869990  0.238569  1
  Br  Br16  1  0.311736  0.653900  0.545355  1
  Br  Br17  1  0.688264  0.346100  0.454645  1
  Br  Br18  1  0.814743  0.338563  0.955697  1
  Br  Br19  1  0.185257  0.661437  0.044303  1
