# generated using pymatgen
data_Zr3Sc(TaP)4
_symmetry_space_group_name_H-M   'P 1'
_cell_length_a   3.55466700
_cell_length_b   6.93166667
_cell_length_c   8.34270338
_cell_angle_alpha   89.75836926
_cell_angle_beta   90.00000000
_cell_angle_gamma   90.00000000
_symmetry_Int_Tables_number   1
_chemical_formula_structural   Zr3Sc(TaP)4
_chemical_formula_sum   'Zr3 Sc1 Ta4 P4'
_cell_volume   205.56043761
_cell_formula_units_Z   1
loop_
 _symmetry_equiv_pos_site_id
 _symmetry_equiv_pos_as_xyz
  1  'x, y, z'
loop_
 _atom_site_type_symbol
 _atom_site_label
 _atom_site_symmetry_multiplicity
 _atom_site_fract_x
 _atom_site_fract_y
 _atom_site_fract_z
 _atom_site_occupancy
  Zr  Zr0  1  0.250000  0.531464  0.832896  1
  Zr  Zr1  1  0.750000  0.467925  0.169475  1
  Zr  Zr2  1  0.750000  0.967453  0.332348  1
  Sc  Sc3  1  0.250000  0.031732  0.666227  1
  Ta  Ta4  1  0.750000  0.861050  0.940778  1
  Ta  Ta5  1  0.250000  0.639069  0.440834  1
  Ta  Ta6  1  0.750000  0.361166  0.559438  1
  Ta  Ta7  1  0.250000  0.140882  0.059660  1
  P  P8  1  0.250000  0.263373  0.358251  1
  P  P9  1  0.250000  0.764038  0.142705  1
  P  P10  1  0.750000  0.738369  0.643536  1
  P  P11  1  0.750000  0.233478  0.853851  1
