# generated using pymatgen
data_Er3In3IrRh2
_symmetry_space_group_name_H-M   'P 1'
_cell_length_a   7.55060800
_cell_length_b   7.55060770
_cell_length_c   3.86668900
_cell_angle_alpha   90.00000000
_cell_angle_beta   90.00000000
_cell_angle_gamma   120.00000130
_symmetry_Int_Tables_number   1
_chemical_formula_structural   Er3In3IrRh2
_chemical_formula_sum   'Er3 In3 Ir1 Rh2'
_cell_volume   190.91220762
_cell_formula_units_Z   1
loop_
 _symmetry_equiv_pos_site_id
 _symmetry_equiv_pos_as_xyz
  1  'x, y, z'
loop_
 _atom_site_type_symbol
 _atom_site_label
 _atom_site_symmetry_multiplicity
 _atom_site_fract_x
 _atom_site_fract_y
 _atom_site_fract_z
 _atom_site_occupancy
  Er  Er0  1  0.996684  0.590608  0.500000  1
  Er  Er1  1  0.409392  0.406076  0.500000  1
  Er  Er2  1  0.593924  0.003316  0.500000  1
  In  In3  1  0.258919  0.999272  0.000000  1
  In  In4  1  0.740352  0.741081  0.000000  1
  In  In5  1  0.000728  0.259648  0.000000  1
  Ir  Ir6  1  0.666667  0.333333  0.000000  1
  Rh  Rh7  1  0.333333  0.666667  0.000000  1
  Rh  Rh8  1  0.000000  0.000000  0.500000  1
