# generated using pymatgen
data_Ho2Co10Mo2P7
_symmetry_space_group_name_H-M   'P 1'
_cell_length_a   9.02838344
_cell_length_b   9.04381610
_cell_length_c   3.68877300
_cell_angle_alpha   90.00000000
_cell_angle_beta   90.00000000
_cell_angle_gamma   119.79310515
_symmetry_Int_Tables_number   1
_chemical_formula_structural   Ho2Co10Mo2P7
_chemical_formula_sum   'Ho2 Co10 Mo2 P7'
_cell_volume   261.38215319
_cell_formula_units_Z   1
loop_
 _symmetry_equiv_pos_site_id
 _symmetry_equiv_pos_as_xyz
  1  'x, y, z'
loop_
 _atom_site_type_symbol
 _atom_site_label
 _atom_site_symmetry_multiplicity
 _atom_site_fract_x
 _atom_site_fract_y
 _atom_site_fract_z
 _atom_site_occupancy
  Ho  Ho0  1  0.666579  0.334138  0.500000  1
  Ho  Ho1  1  0.336905  0.666661  0.000000  1
  Co  Co2  1  0.720972  0.877729  0.000000  1
  Co  Co3  1  0.937945  0.370885  0.000000  1
  Co  Co4  1  0.160543  0.283648  0.000000  1
  Co  Co5  1  0.387255  0.439357  0.500000  1
  Co  Co6  1  0.118579  0.837451  0.000000  1
  Co  Co7  1  0.432159  0.060846  0.000000  1
  Co  Co8  1  0.047203  0.614063  0.500000  1
  Co  Co9  1  0.562681  0.946810  0.500000  1
  Co  Co10  1  0.630308  0.568264  0.000000  1
  Co  Co11  1  0.874320  0.780786  0.500000  1
  Mo  Mo12  1  0.217763  0.097873  0.500000  1
  Mo  Mo13  1  0.904021  0.122289  0.500000  1
  P  P14  1  0.413817  0.302039  0.000000  1
  P  P15  1  0.289162  0.879969  0.500000  1
  P  P16  1  0.697017  0.111042  0.000000  1
  P  P17  1  0.597516  0.710442  0.500000  1
  P  P18  1  0.887242  0.588501  0.000000  1
  P  P19  1  0.118527  0.411425  0.500000  1
  P  P20  1  0.999487  0.995782  0.000000  1
