# generated using pymatgen
data_La9Pr7(YIr3)4
_symmetry_space_group_name_H-M   'P 1'
_cell_length_a   11.34712402
_cell_length_b   11.33970080
_cell_length_c   6.55389627
_cell_angle_alpha   90.09449927
_cell_angle_beta   90.01487484
_cell_angle_gamma   89.93331030
_symmetry_Int_Tables_number   1
_chemical_formula_structural   La9Pr7(YIr3)4
_chemical_formula_sum   'La9 Pr7 Y4 Ir12'
_cell_volume   843.30769129
_cell_formula_units_Z   1
loop_
 _symmetry_equiv_pos_site_id
 _symmetry_equiv_pos_as_xyz
  1  'x, y, z'
loop_
 _atom_site_type_symbol
 _atom_site_label
 _atom_site_symmetry_multiplicity
 _atom_site_fract_x
 _atom_site_fract_y
 _atom_site_fract_z
 _atom_site_occupancy
  La  La0  1  0.412722  0.210388  0.887570  1
  La  La1  1  0.212046  0.411295  0.612810  1
  La  La2  1  0.212294  0.589282  0.112759  1
  La  La3  1  0.787664  0.411073  0.113344  1
  La  La4  1  0.787655  0.588984  0.613243  1
  La  La5  1  0.911125  0.712343  0.113037  1
  La  La6  1  0.911108  0.287604  0.613183  1
  La  La7  1  0.088828  0.712356  0.613042  1
  La  La8  1  0.088509  0.287770  0.113593  1
  Pr  Pr9  1  0.289120  0.086562  0.385739  1
  Pr  Pr10  1  0.289116  0.912109  0.885774  1
  Pr  Pr11  1  0.711242  0.086896  0.885433  1
  Pr  Pr12  1  0.710430  0.913031  0.385748  1
  Pr  Pr13  1  0.587077  0.789511  0.885724  1
  Pr  Pr14  1  0.587723  0.210515  0.385677  1
  Pr  Pr15  1  0.412993  0.789678  0.386010  1
  Y  Y16  1  0.000005  0.999972  0.499864  1
  Y  Y17  1  0.000023  0.999807  0.999876  1
  Y  Y18  1  0.500332  0.500619  0.999877  1
  Y  Y19  1  0.499961  0.500104  0.499400  1
  Ir  Ir20  1  0.851375  0.150271  0.251932  1
  Ir  Ir21  1  0.851165  0.849779  0.751692  1
  Ir  Ir22  1  0.148721  0.150351  0.752111  1
  Ir  Ir23  1  0.148559  0.849564  0.251971  1
  Ir  Ir24  1  0.650472  0.351350  0.751765  1
  Ir  Ir25  1  0.650277  0.648776  0.251946  1
  Ir  Ir26  1  0.350074  0.350377  0.249968  1
  Ir  Ir27  1  0.349702  0.648687  0.751631  1
  Ir  Ir28  1  0.500008  0.000180  0.117259  1
  Ir  Ir29  1  0.499636  0.000775  0.618760  1
  Ir  Ir30  1  0.999876  0.500063  0.879651  1
  Ir  Ir31  1  0.000163  0.499928  0.379612  1
