# generated using pymatgen
data_Tb7Ho(GaBr6)2
_symmetry_space_group_name_H-M   'P 1'
_cell_length_a   4.07128700
_cell_length_b   13.41819332
_cell_length_c   14.18639839
_cell_angle_alpha   89.94924410
_cell_angle_beta   90.00000000
_cell_angle_gamma   90.00000000
_symmetry_Int_Tables_number   1
_chemical_formula_structural   Tb7Ho(GaBr6)2
_chemical_formula_sum   'Tb7 Ho1 Ga2 Br12'
_cell_volume   774.99293672
_cell_formula_units_Z   1
loop_
 _symmetry_equiv_pos_site_id
 _symmetry_equiv_pos_as_xyz
  1  'x, y, z'
loop_
 _atom_site_type_symbol
 _atom_site_label
 _atom_site_symmetry_multiplicity
 _atom_site_fract_x
 _atom_site_fract_y
 _atom_site_fract_z
 _atom_site_occupancy
  Tb  Tb0  1  0.500000  0.881438  0.660230  1
  Tb  Tb1  1  0.500000  0.618659  0.160384  1
  Tb  Tb2  1  0.500000  0.381315  0.839634  1
  Tb  Tb3  1  0.000000  0.121590  0.580544  1
  Tb  Tb4  1  0.000000  0.878412  0.419455  1
  Tb  Tb5  1  0.000000  0.621609  0.919424  1
  Tb  Tb6  1  0.000000  0.378380  0.080600  1
  Ho  Ho7  1  0.500000  0.118440  0.339926  1
  Ga  Ga8  1  0.500000  0.000395  0.499471  1
  Ga  Ga9  1  0.500000  0.499981  0.000017  1
  Br  Br10  1  0.500000  0.244493  0.165257  1
  Br  Br11  1  0.500000  0.754993  0.835445  1
  Br  Br12  1  0.500000  0.745094  0.335498  1
  Br  Br13  1  0.500000  0.254926  0.664477  1
  Br  Br14  1  0.000000  0.253616  0.410071  1
  Br  Br15  1  0.000000  0.745419  0.589038  1
  Br  Br16  1  0.000000  0.754664  0.089057  1
  Br  Br17  1  0.000000  0.245347  0.910960  1
  Br  Br18  1  0.000000  0.003171  0.243950  1
  Br  Br19  1  0.000000  0.998056  0.756555  1
  Br  Br20  1  0.000000  0.501934  0.256623  1
  Br  Br21  1  0.000000  0.498067  0.743385  1
