# generated using pymatgen
data_Tb4Ga17GeIr5Rh
_symmetry_space_group_name_H-M   'P 1'
_cell_length_a   7.61405843
_cell_length_b   7.59159931
_cell_length_c   9.49749338
_cell_angle_alpha   90.06993003
_cell_angle_beta   89.78923452
_cell_angle_gamma   119.81540339
_symmetry_Int_Tables_number   1
_chemical_formula_structural   Tb4Ga17GeIr5Rh
_chemical_formula_sum   'Tb4 Ga17 Ge1 Ir5 Rh1'
_cell_volume   476.31132307
_cell_formula_units_Z   1
loop_
 _symmetry_equiv_pos_site_id
 _symmetry_equiv_pos_as_xyz
  1  'x, y, z'
loop_
 _atom_site_type_symbol
 _atom_site_label
 _atom_site_symmetry_multiplicity
 _atom_site_fract_x
 _atom_site_fract_y
 _atom_site_fract_z
 _atom_site_occupancy
  Tb  Tb0  1  0.997341  0.667132  0.248726  1
  Tb  Tb1  1  0.002832  0.331208  0.752942  1
  Tb  Tb2  1  0.671758  0.000207  0.248703  1
  Tb  Tb3  1  0.330733  0.002636  0.750024  1
  Ga  Ga4  1  0.129444  0.124329  0.252420  1
  Ga  Ga5  1  0.873614  0.875646  0.748579  1
  Ga  Ga6  1  0.999153  0.670368  0.917570  1
  Ga  Ga7  1  0.999929  0.666690  0.580139  1
  Ga  Ga8  1  0.333631  0.999097  0.420336  1
  Ga  Ga9  1  0.000935  0.333962  0.422344  1
  Ga  Ga10  1  0.665984  0.999652  0.580058  1
  Ga  Ga11  1  0.659698  0.995053  0.917737  1
  Ga  Ga12  1  0.333587  0.998567  0.080406  1
  Ga  Ga13  1  0.331673  0.330641  0.564371  1
  Ga  Ga14  1  0.669441  0.669660  0.436183  1
  Ga  Ga15  1  0.667751  0.668632  0.065345  1
  Ga  Ga16  1  0.336757  0.332534  0.934069  1
  Ga  Ga17  1  0.345084  0.548814  0.251758  1
  Ga  Ga18  1  0.662024  0.453347  0.749061  1
  Ga  Ga19  1  0.546486  0.339199  0.249912  1
  Ga  Ga20  1  0.451848  0.658837  0.749435  1
  Ge  Ge21  1  0.997786  0.334492  0.081142  1
  Ir  Ir22  1  0.674744  0.328591  0.999770  1
  Ir  Ir23  1  0.320405  0.664179  0.000374  1
  Ir  Ir24  1  0.326893  0.671237  0.500037  1
  Ir  Ir25  1  0.672543  0.327886  0.498849  1
  Ir  Ir26  1  0.998768  0.006874  0.000342  1
  Rh  Rh27  1  0.999157  0.000531  0.499371  1
