# generated using pymatgen
data_Sm3Hg3Rh2
_symmetry_space_group_name_H-M   'P 1'
_cell_length_a   7.59696700
_cell_length_b   7.59696689
_cell_length_c   3.79904300
_cell_angle_alpha   90.00000000
_cell_angle_beta   90.00000000
_cell_angle_gamma   120.00000483
_symmetry_Int_Tables_number   1
_chemical_formula_structural   Sm3Hg3Rh2
_chemical_formula_sum   'Sm3 Hg3 Rh2'
_cell_volume   189.88265407
_cell_formula_units_Z   1
loop_
 _symmetry_equiv_pos_site_id
 _symmetry_equiv_pos_as_xyz
  1  'x, y, z'
loop_
 _atom_site_type_symbol
 _atom_site_label
 _atom_site_symmetry_multiplicity
 _atom_site_fract_x
 _atom_site_fract_y
 _atom_site_fract_z
 _atom_site_occupancy
  Sm  Sm0  1  0.581002  0.000000  0.499999  1
  Sm  Sm1  1  0.418997  0.418997  0.499999  1
  Sm  Sm2  1  0.000000  0.581002  0.499999  1
  Hg  Hg3  1  0.233472  0.000000  0.000000  1
  Hg  Hg4  1  0.000000  0.233471  0.000000  1
  Hg  Hg5  1  0.766528  0.766528  0.000000  1
  Rh  Rh6  1  0.666666  0.333334  0.000000  1
  Rh  Rh7  1  0.333334  0.666667  0.000000  1
