# generated using pymatgen
data_Ca4AlInPt4
_symmetry_space_group_name_H-M   'P 1'
_cell_length_a   5.76518104
_cell_length_b   5.76518150
_cell_length_c   8.03514204
_cell_angle_alpha   78.42691840
_cell_angle_beta   78.42691417
_cell_angle_gamma   60.02179107
_symmetry_Int_Tables_number   1
_chemical_formula_structural   Ca4AlInPt4
_chemical_formula_sum   'Ca4 Al1 In1 Pt4'
_cell_volume   225.04303894
_cell_formula_units_Z   1
loop_
 _symmetry_equiv_pos_site_id
 _symmetry_equiv_pos_as_xyz
  1  'x, y, z'
loop_
 _atom_site_type_symbol
 _atom_site_label
 _atom_site_symmetry_multiplicity
 _atom_site_fract_x
 _atom_site_fract_y
 _atom_site_fract_z
 _atom_site_occupancy
  Ca  Ca0  1  0.786689  0.511505  0.852908  1
  Ca  Ca1  1  0.488495  0.213311  0.647092  1
  Ca  Ca2  1  0.212192  0.489607  0.149064  1
  Ca  Ca3  1  0.510393  0.787808  0.350936  1
  Al  Al4  1  0.885555  0.114445  0.250000  1
  In  In5  1  0.147167  0.852833  0.750000  1
  Pt  Pt6  1  0.989567  0.735493  0.491223  1
  Pt  Pt7  1  0.264507  0.010433  0.008777  1
  Pt  Pt8  1  0.985185  0.269750  0.483536  1
  Pt  Pt9  1  0.730250  0.014815  0.016464  1
