# generated using pymatgen
data_Hf4Al4Cr3Au
_symmetry_space_group_name_H-M   'P 1'
_cell_length_a   5.18211967
_cell_length_b   5.18165588
_cell_length_c   8.53622400
_cell_angle_alpha   90.00000000
_cell_angle_beta   90.00000000
_cell_angle_gamma   60.41972100
_symmetry_Int_Tables_number   1
_chemical_formula_structural   Hf4Al4Cr3Au
_chemical_formula_sum   'Hf4 Al4 Cr3 Au1'
_cell_volume   199.33967527
_cell_formula_units_Z   1
loop_
 _symmetry_equiv_pos_site_id
 _symmetry_equiv_pos_as_xyz
  1  'x, y, z'
loop_
 _atom_site_type_symbol
 _atom_site_label
 _atom_site_symmetry_multiplicity
 _atom_site_fract_x
 _atom_site_fract_y
 _atom_site_fract_z
 _atom_site_occupancy
  Hf  Hf0  1  0.334549  0.334602  0.548419  1
  Hf  Hf1  1  0.665040  0.665028  0.424055  1
  Hf  Hf2  1  0.665040  0.665028  0.075945  1
  Hf  Hf3  1  0.334549  0.334602  0.951581  1
  Al  Al4  1  0.999799  0.999314  0.485026  1
  Al  Al5  1  0.999799  0.999314  0.014974  1
  Al  Al6  1  0.830822  0.342921  0.750000  1
  Al  Al7  1  0.343149  0.830710  0.750000  1
  Cr  Cr8  1  0.178512  0.636634  0.250000  1
  Cr  Cr9  1  0.636281  0.178933  0.250000  1
  Cr  Cr10  1  0.178939  0.179481  0.250000  1
  Au  Au11  1  0.833521  0.833433  0.750000  1
