# generated using pymatgen
data_Tb6PdI10
_symmetry_space_group_name_H-M   'P 1'
_cell_length_a   7.74569797
_cell_length_b   9.77557059
_cell_length_c   9.81458639
_cell_angle_alpha   107.20472675
_cell_angle_beta   97.11577925
_cell_angle_gamma   104.77566132
_symmetry_Int_Tables_number   1
_chemical_formula_structural   Tb6PdI10
_chemical_formula_sum   'Tb6 Pd1 I10'
_cell_volume   670.24809719
_cell_formula_units_Z   1
loop_
 _symmetry_equiv_pos_site_id
 _symmetry_equiv_pos_as_xyz
  1  'x, y, z'
loop_
 _atom_site_type_symbol
 _atom_site_label
 _atom_site_symmetry_multiplicity
 _atom_site_fract_x
 _atom_site_fract_y
 _atom_site_fract_z
 _atom_site_occupancy
  Tb  Tb0  1  0.350973  0.126574  0.167331  1
  Tb  Tb1  1  0.649027  0.873426  0.832669  1
  Tb  Tb2  1  0.970716  0.287959  0.086611  1
  Tb  Tb3  1  0.029284  0.712041  0.913389  1
  Tb  Tb4  1  0.884865  0.959525  0.241940  1
  Tb  Tb5  1  0.115135  0.040475  0.758060  1
  Pd  Pd6  1  0.000000  0.000000  0.000000  1
  I  I7  1  0.356541  0.453791  0.273092  1
  I  I8  1  0.643459  0.546209  0.726908  1
  I  I9  1  0.782611  0.259741  0.348139  1
  I  I10  1  0.217389  0.740259  0.651861  1
  I  I11  1  0.546640  0.182789  0.908519  1
  I  I12  1  0.453360  0.817211  0.091481  1
  I  I13  1  0.739297  0.912382  0.536345  1
  I  I14  1  0.260703  0.087618  0.463655  1
  I  I15  1  0.913945  0.627446  0.179460  1
  I  I16  1  0.086055  0.372554  0.820540  1
