# generated using pymatgen
data_La4Nd12Cd4CoPt3
_symmetry_space_group_name_H-M   'P 1'
_cell_length_a   10.02084777
_cell_length_b   10.02084671
_cell_length_c   10.02084698
_cell_angle_alpha   60.12475750
_cell_angle_beta   60.12475744
_cell_angle_gamma   60.12476584
_symmetry_Int_Tables_number   1
_chemical_formula_structural   La4Nd12Cd4CoPt3
_chemical_formula_sum   'La4 Nd12 Cd4 Co1 Pt3'
_cell_volume   713.54944430
_cell_formula_units_Z   1
loop_
 _symmetry_equiv_pos_site_id
 _symmetry_equiv_pos_as_xyz
  1  'x, y, z'
loop_
 _atom_site_type_symbol
 _atom_site_label
 _atom_site_symmetry_multiplicity
 _atom_site_fract_x
 _atom_site_fract_y
 _atom_site_fract_z
 _atom_site_occupancy
  La  La0  1  0.350587  0.350587  0.350587  1
  La  La1  1  0.344889  0.344889  0.953130  1
  La  La2  1  0.344889  0.953130  0.344889  1
  La  La3  1  0.953130  0.344889  0.344889  1
  Nd  Nd4  1  0.820372  0.188627  0.188627  1
  Nd  Nd5  1  0.190218  0.809408  0.809408  1
  Nd  Nd6  1  0.188627  0.820372  0.188627  1
  Nd  Nd7  1  0.809408  0.190218  0.809408  1
  Nd  Nd8  1  0.188627  0.188627  0.820372  1
  Nd  Nd9  1  0.809408  0.809408  0.190218  1
  Nd  Nd10  1  0.937527  0.563340  0.563340  1
  Nd  Nd11  1  0.563336  0.934968  0.934968  1
  Nd  Nd12  1  0.563340  0.937527  0.563340  1
  Nd  Nd13  1  0.934968  0.563336  0.934968  1
  Nd  Nd14  1  0.563340  0.563340  0.937527  1
  Nd  Nd15  1  0.934968  0.934968  0.563336  1
  Cd  Cd16  1  0.580031  0.580031  0.580031  1
  Cd  Cd17  1  0.581275  0.581275  0.257181  1
  Cd  Cd18  1  0.581275  0.257181  0.581275  1
  Cd  Cd19  1  0.257181  0.581275  0.581275  1
  Co  Co20  1  0.142874  0.142874  0.142874  1
  Pt  Pt21  1  0.143304  0.143304  0.573120  1
  Pt  Pt22  1  0.143304  0.573120  0.143304  1
  Pt  Pt23  1  0.573120  0.143304  0.143304  1
