# generated using pymatgen
data_NaPr(MoO4)2
_symmetry_space_group_name_H-M   'P 1'
_cell_length_a   6.97939182
_cell_length_b   6.97939249
_cell_length_c   6.97939223
_cell_angle_alpha   134.75522547
_cell_angle_beta   134.75523552
_cell_angle_gamma   65.91075686
_symmetry_Int_Tables_number   1
_chemical_formula_structural   NaPr(MoO4)2
_chemical_formula_sum   'Na1 Pr1 Mo2 O8'
_cell_volume   168.83739287
_cell_formula_units_Z   1
loop_
 _symmetry_equiv_pos_site_id
 _symmetry_equiv_pos_as_xyz
  1  'x, y, z'
loop_
 _atom_site_type_symbol
 _atom_site_label
 _atom_site_symmetry_multiplicity
 _atom_site_fract_x
 _atom_site_fract_y
 _atom_site_fract_z
 _atom_site_occupancy
  Na  Na0  1  0.750000  0.250000  0.500000  1
  Pr  Pr1  1  0.500000  0.500000  0.000000  1
  Mo  Mo2  1  0.000000  0.000000  0.000000  1
  Mo  Mo3  1  0.250000  0.750000  0.500000  1
  O  O4  1  0.478620  0.075909  0.881334  1
  O  O5  1  0.194575  0.597286  0.118666  1
  O  O6  1  0.924091  0.805425  0.402712  1
  O  O7  1  0.402714  0.521380  0.597288  1
  O  O8  1  0.322308  0.927670  0.087410  1
  O  O9  1  0.840260  0.234898  0.912590  1
  O  O10  1  0.072330  0.159740  0.394638  1
  O  O11  1  0.765102  0.677692  0.605362  1
