# generated using pymatgen
data_Y5Er5(BiPb)3
_symmetry_space_group_name_H-M   'P 1'
_cell_length_a   9.10753725
_cell_length_b   9.12447066
_cell_length_c   6.46968100
_cell_angle_alpha   90.00000000
_cell_angle_beta   90.00000000
_cell_angle_gamma   120.06152484
_symmetry_Int_Tables_number   1
_chemical_formula_structural   Y5Er5(BiPb)3
_chemical_formula_sum   'Y5 Er5 Bi3 Pb3'
_cell_volume   465.32089307
_cell_formula_units_Z   1
loop_
 _symmetry_equiv_pos_site_id
 _symmetry_equiv_pos_as_xyz
  1  'x, y, z'
loop_
 _atom_site_type_symbol
 _atom_site_label
 _atom_site_symmetry_multiplicity
 _atom_site_fract_x
 _atom_site_fract_y
 _atom_site_fract_z
 _atom_site_occupancy
  Y  Y0  1  0.761192  0.760677  0.750000  1
  Y  Y1  1  0.238808  0.999485  0.750000  1
  Y  Y2  1  0.000000  0.239950  0.750000  1
  Y  Y3  1  0.239428  0.239216  0.250000  1
  Y  Y4  1  0.760572  0.999788  0.250000  1
  Er  Er5  1  0.666603  0.333343  0.003170  1
  Er  Er6  1  0.333397  0.666741  0.003170  1
  Er  Er7  1  0.333397  0.666741  0.496830  1
  Er  Er8  1  0.666603  0.333343  0.496830  1
  Er  Er9  1  0.000000  0.760376  0.250000  1
  Bi  Bi10  1  0.394111  0.394155  0.750000  1
  Bi  Bi11  1  0.605889  0.000045  0.750000  1
  Bi  Bi12  1  0.000000  0.606038  0.750000  1
  Pb  Pb13  1  0.607692  0.606895  0.250000  1
  Pb  Pb14  1  0.392308  0.999203  0.250000  1
  Pb  Pb15  1  0.000000  0.394003  0.250000  1
