# generated using pymatgen
data_Sc2AlRu4W
_symmetry_space_group_name_H-M   'P 1'
_cell_length_a   4.45005800
_cell_length_b   6.27920100
_cell_length_c   13.30252100
_cell_angle_alpha   90.00000000
_cell_angle_beta   90.00010300
_cell_angle_gamma   90.00000000
_symmetry_Int_Tables_number   1
_chemical_formula_structural   Sc2AlRu4W
_chemical_formula_sum   'Sc6 Al3 Ru12 W3'
_cell_volume   371.70979878
_cell_formula_units_Z   3
loop_
 _symmetry_equiv_pos_site_id
 _symmetry_equiv_pos_as_xyz
  1  'x, y, z'
loop_
 _atom_site_type_symbol
 _atom_site_label
 _atom_site_symmetry_multiplicity
 _atom_site_fract_x
 _atom_site_fract_y
 _atom_site_fract_z
 _atom_site_occupancy
  Sc  Sc0  1  0.999998  0.500001  0.994232  1
  Sc  Sc1  1  0.499988  0.000000  0.166677  1
  Sc  Sc2  1  0.999995  0.500001  0.339119  1
  Sc  Sc3  1  0.499994  0.000000  0.509041  1
  Sc  Sc4  1  0.000024  0.500001  0.666675  1
  Sc  Sc5  1  0.500007  0.000000  0.824272  1
  Al  Al6  1  0.500002  0.500001  0.504178  1
  Al  Al7  1  0.000006  0.000000  0.666669  1
  Al  Al8  1  0.500008  0.500001  0.829167  1
  Ru  Ru9  1  0.499999  0.246728  0.003448  1
  Ru  Ru10  1  0.499999  0.753272  0.003448  1
  Ru  Ru11  1  0.999991  0.253512  0.166662  1
  Ru  Ru12  1  0.999991  0.746488  0.166662  1
  Ru  Ru13  1  0.499994  0.246823  0.329857  1
  Ru  Ru14  1  0.499994  0.753176  0.329857  1
  Ru  Ru15  1  0.999999  0.246100  0.494651  1
  Ru  Ru16  1  0.999999  0.753900  0.494651  1
  Ru  Ru17  1  0.500012  0.253152  0.666673  1
  Ru  Ru18  1  0.500012  0.746847  0.666673  1
  Ru  Ru19  1  0.000008  0.246198  0.838717  1
  Ru  Ru20  1  0.000008  0.753802  0.838717  1
  W  W21  1  0.999999  0.000000  0.993207  1
  W  W22  1  0.499995  0.500001  0.166633  1
  W  W23  1  0.999990  0.000000  0.340118  1
