# generated using pymatgen
data_Zr3TiNbSn3P
_symmetry_space_group_name_H-M   'P 1'
_cell_length_a   8.51633300
_cell_length_b   8.51633249
_cell_length_c   5.76481900
_cell_angle_alpha   90.00000000
_cell_angle_beta   90.00000000
_cell_angle_gamma   119.99999034
_symmetry_Int_Tables_number   1
_chemical_formula_structural   Zr3TiNbSn3P
_chemical_formula_sum   'Zr6 Ti2 Nb2 Sn6 P2'
_cell_volume   362.09422072
_cell_formula_units_Z   2
loop_
 _symmetry_equiv_pos_site_id
 _symmetry_equiv_pos_as_xyz
  1  'x, y, z'
loop_
 _atom_site_type_symbol
 _atom_site_label
 _atom_site_symmetry_multiplicity
 _atom_site_fract_x
 _atom_site_fract_y
 _atom_site_fract_z
 _atom_site_occupancy
  Zr  Zr0  1  0.747672  0.747672  0.750784  1
  Zr  Zr1  1  0.252328  0.000000  0.750784  1
  Zr  Zr2  1  0.000000  0.252328  0.750784  1
  Zr  Zr3  1  0.252328  0.252328  0.249216  1
  Zr  Zr4  1  0.747672  0.000000  0.249216  1
  Zr  Zr5  1  0.000000  0.747672  0.249216  1
  Ti  Ti6  1  0.333333  0.666667  0.500000  1
  Ti  Ti7  1  0.666667  0.333333  0.500000  1
  Nb  Nb8  1  0.666667  0.333333  0.000000  1
  Nb  Nb9  1  0.333333  0.666667  0.000000  1
  Sn  Sn10  1  0.402450  0.402450  0.748402  1
  Sn  Sn11  1  0.597550  0.000000  0.748402  1
  Sn  Sn12  1  0.000000  0.597550  0.748402  1
  Sn  Sn13  1  0.597550  0.597550  0.251598  1
  Sn  Sn14  1  0.402450  0.000000  0.251598  1
  Sn  Sn15  1  0.000000  0.402450  0.251598  1
  P  P16  1  0.000000  0.000000  0.000000  1
  P  P17  1  0.000000  0.000000  0.500000  1
