# generated using pymatgen
data_Y16In6FePd
_symmetry_space_group_name_H-M   'P 1'
_cell_length_a   10.48452000
_cell_length_b   10.48443585
_cell_length_c   7.05754400
_cell_angle_alpha   89.99998907
_cell_angle_beta   90.00028417
_cell_angle_gamma   119.99973543
_symmetry_Int_Tables_number   1
_chemical_formula_structural   Y16In6FePd
_chemical_formula_sum   'Y16 In6 Fe1 Pd1'
_cell_volume   671.86033681
_cell_formula_units_Z   1
loop_
 _symmetry_equiv_pos_site_id
 _symmetry_equiv_pos_as_xyz
  1  'x, y, z'
loop_
 _atom_site_type_symbol
 _atom_site_label
 _atom_site_symmetry_multiplicity
 _atom_site_fract_x
 _atom_site_fract_y
 _atom_site_fract_z
 _atom_site_occupancy
  Y  Y0  1  0.825568  0.651228  0.492554  1
  Y  Y1  1  0.348734  0.174347  0.492486  1
  Y  Y2  1  0.825502  0.174260  0.492376  1
  Y  Y3  1  0.176991  0.353824  0.997979  1
  Y  Y4  1  0.645921  0.823081  0.997662  1
  Y  Y5  1  0.177002  0.823064  0.997571  1
  Y  Y6  1  0.666747  0.333469  0.162766  1
  Y  Y7  1  0.333241  0.666661  0.677163  1
  Y  Y8  1  0.529358  0.058507  0.790590  1
  Y  Y9  1  0.941293  0.470638  0.790543  1
  Y  Y10  1  0.529103  0.470602  0.790567  1
  Y  Y11  1  0.462554  0.925346  0.288937  1
  Y  Y12  1  0.074909  0.537502  0.288754  1
  Y  Y13  1  0.462930  0.537533  0.288653  1
  Y  Y14  1  0.000024  0.000021  0.774391  1
  Y  Y15  1  0.000034  0.999917  0.273105  1
  In  In16  1  0.836694  0.673541  0.032319  1
  In  In17  1  0.326735  0.163267  0.032524  1
  In  In18  1  0.836736  0.163261  0.032401  1
  In  In19  1  0.163122  0.326358  0.537766  1
  In  In20  1  0.673405  0.836695  0.537319  1
  In  In21  1  0.163126  0.836738  0.537453  1
  Fe  Fe22  1  0.333567  0.666815  0.060001  1
  Pd  Pd23  1  0.666707  0.333330  0.560193  1
