# generated using pymatgen
data_Ba6DyEr(BO3)6
_symmetry_space_group_name_H-M   'P 1'
_cell_length_a   8.21394437
_cell_length_b   8.21394494
_cell_length_c   8.21394478
_cell_angle_alpha   105.64641130
_cell_angle_beta   105.64642457
_cell_angle_gamma   105.64641943
_symmetry_Int_Tables_number   1
_chemical_formula_structural   Ba6DyEr(BO3)6
_chemical_formula_sum   'Ba6 Dy1 Er1 B6 O18'
_cell_volume   477.54948864
_cell_formula_units_Z   1
loop_
 _symmetry_equiv_pos_site_id
 _symmetry_equiv_pos_as_xyz
  1  'x, y, z'
loop_
 _atom_site_type_symbol
 _atom_site_label
 _atom_site_symmetry_multiplicity
 _atom_site_fract_x
 _atom_site_fract_y
 _atom_site_fract_z
 _atom_site_occupancy
  Ba  Ba0  1  0.348927  0.734653  0.840501  1
  Ba  Ba1  1  0.840501  0.348927  0.734653  1
  Ba  Ba2  1  0.734653  0.840501  0.348927  1
  Ba  Ba3  1  0.651073  0.265347  0.159499  1
  Ba  Ba4  1  0.159499  0.651073  0.265347  1
  Ba  Ba5  1  0.265347  0.159499  0.651073  1
  Dy  Dy6  1  0.000000  0.000000  0.000000  1
  Er  Er7  1  0.500000  0.500000  0.500000  1
  B  B8  1  0.709998  0.624032  0.955417  1
  B  B9  1  0.955417  0.709998  0.624032  1
  B  B10  1  0.624032  0.955417  0.709998  1
  B  B11  1  0.044583  0.290002  0.375968  1
  B  B12  1  0.375968  0.044583  0.290002  1
  B  B13  1  0.290002  0.375968  0.044583  1
  O  O14  1  0.063766  0.804076  0.551632  1
  O  O15  1  0.551632  0.063766  0.804076  1
  O  O16  1  0.426325  0.490237  0.214325  1
  O  O17  1  0.490237  0.214325  0.426325  1
  O  O18  1  0.214325  0.426325  0.490237  1
  O  O19  1  0.785675  0.573675  0.509763  1
  O  O20  1  0.573675  0.509763  0.785675  1
  O  O21  1  0.509763  0.785675  0.573675  1
  O  O22  1  0.256833  0.189481  0.985281  1
  O  O23  1  0.189481  0.985281  0.256833  1
  O  O24  1  0.985281  0.256833  0.189481  1
  O  O25  1  0.743167  0.810519  0.014719  1
  O  O26  1  0.810519  0.014719  0.743167  1
  O  O27  1  0.014719  0.743167  0.810519  1
  O  O28  1  0.195924  0.448368  0.936234  1
  O  O29  1  0.448368  0.936234  0.195924  1
  O  O30  1  0.936234  0.195924  0.448368  1
  O  O31  1  0.804076  0.551632  0.063766  1
