# generated using pymatgen
data_Er6Tm2B24IrRu3
_symmetry_space_group_name_H-M   'P 1'
_cell_length_a   3.63123200
_cell_length_b   9.09782359
_cell_length_c   11.44926837
_cell_angle_alpha   90.05768633
_cell_angle_beta   90.00000000
_cell_angle_gamma   90.00000000
_symmetry_Int_Tables_number   1
_chemical_formula_structural   Er6Tm2B24IrRu3
_chemical_formula_sum   'Er6 Tm2 B24 Ir1 Ru3'
_cell_volume   378.24136599
_cell_formula_units_Z   1
loop_
 _symmetry_equiv_pos_site_id
 _symmetry_equiv_pos_as_xyz
  1  'x, y, z'
loop_
 _atom_site_type_symbol
 _atom_site_label
 _atom_site_symmetry_multiplicity
 _atom_site_fract_x
 _atom_site_fract_y
 _atom_site_fract_z
 _atom_site_occupancy
  Er  Er0  1  0.000000  0.318872  0.414435  1
  Er  Er1  1  0.000000  0.678907  0.589021  1
  Er  Er2  1  0.000000  0.823050  0.083945  1
  Er  Er3  1  0.000000  0.179071  0.913255  1
  Er  Er4  1  0.000000  0.945398  0.372969  1
  Er  Er5  1  0.000000  0.055921  0.627059  1
  Tm  Tm6  1  0.000000  0.441859  0.125486  1
  Tm  Tm7  1  0.000000  0.556027  0.873306  1
  B  B8  1  0.500000  0.553325  0.433946  1
  B  B9  1  0.500000  0.446290  0.566859  1
  B  B10  1  0.500000  0.054270  0.066436  1
  B  B11  1  0.500000  0.946221  0.933226  1
  B  B12  1  0.500000  0.749351  0.421155  1
  B  B13  1  0.500000  0.251521  0.580023  1
  B  B14  1  0.500000  0.248774  0.079486  1
  B  B15  1  0.500000  0.751292  0.920341  1
  B  B16  1  0.500000  0.792138  0.264880  1
  B  B17  1  0.500000  0.208862  0.734262  1
  B  B18  1  0.500000  0.292012  0.234175  1
  B  B19  1  0.500000  0.708078  0.766285  1
  B  B20  1  0.500000  0.631536  0.183162  1
  B  B21  1  0.500000  0.368962  0.815383  1
  B  B22  1  0.500000  0.131850  0.315102  1
  B  B23  1  0.500000  0.867927  0.685191  1
  B  B24  1  0.500000  0.982930  0.212609  1
  B  B25  1  0.500000  0.017158  0.787070  1
  B  B26  1  0.500000  0.481278  0.286608  1
  B  B27  1  0.500000  0.517541  0.713493  1
  B  B28  1  0.500000  0.607797  0.029930  1
  B  B29  1  0.500000  0.392298  0.970323  1
  B  B30  1  0.500000  0.108723  0.470078  1
  B  B31  1  0.500000  0.890463  0.529651  1
  Ir  Ir32  1  0.000000  0.636911  0.321407  1
  Ru  Ru33  1  0.000000  0.363081  0.679036  1
  Ru  Ru34  1  0.000000  0.138803  0.178953  1
  Ru  Ru35  1  0.000000  0.861505  0.821455  1
