# generated using pymatgen
data_ZnHg4(PCl2)2
_symmetry_space_group_name_H-M   'P 1'
_cell_length_a   12.50722900
_cell_length_b   7.70831930
_cell_length_c   7.78101700
_cell_angle_alpha   62.30261012
_cell_angle_beta   90.00000000
_cell_angle_gamma   90.00000000
_symmetry_Int_Tables_number   1
_chemical_formula_structural   ZnHg4(PCl2)2
_chemical_formula_sum   'Zn2 Hg8 P4 Cl8'
_cell_volume   664.20775118
_cell_formula_units_Z   2
loop_
 _symmetry_equiv_pos_site_id
 _symmetry_equiv_pos_as_xyz
  1  'x, y, z'
loop_
 _atom_site_type_symbol
 _atom_site_label
 _atom_site_symmetry_multiplicity
 _atom_site_fract_x
 _atom_site_fract_y
 _atom_site_fract_z
 _atom_site_occupancy
  Zn  Zn0  1  0.838156  0.981888  0.015060  1
  Zn  Zn1  1  0.338156  0.018112  0.984940  1
  Hg  Hg2  1  0.793390  0.672456  0.668924  1
  Hg  Hg3  1  0.553345  0.033325  0.585951  1
  Hg  Hg4  1  0.053345  0.966675  0.414049  1
  Hg  Hg5  1  0.556709  0.530044  0.063258  1
  Hg  Hg6  1  0.293390  0.327544  0.331076  1
  Hg  Hg7  1  0.020413  0.468235  0.436967  1
  Hg  Hg8  1  0.520413  0.531765  0.563033  1
  Hg  Hg9  1  0.056709  0.469956  0.936742  1
  P  P10  1  0.481303  0.356039  0.383452  1
  P  P11  1  0.605385  0.694406  0.726047  1
  P  P12  1  0.981303  0.643961  0.616548  1
  P  P13  1  0.105385  0.305594  0.273953  1
  Cl  Cl14  1  0.240604  0.281889  0.768882  1
  Cl  Cl15  1  0.324070  0.745856  0.939473  1
  Cl  Cl16  1  0.017219  0.885291  0.077053  1
  Cl  Cl17  1  0.740604  0.718111  0.231118  1
  Cl  Cl18  1  0.517219  0.114709  0.922947  1
  Cl  Cl19  1  0.824070  0.254144  0.060527  1
  Cl  Cl20  1  0.808138  0.065133  0.694923  1
  Cl  Cl21  1  0.308138  0.934867  0.305077  1
