# generated using pymatgen
data_TbY2(Al3Ni2)3
_symmetry_space_group_name_H-M   'P 1'
_cell_length_a   9.05566100
_cell_length_b   9.05566034
_cell_length_c   4.05590200
_cell_angle_alpha   90.00000000
_cell_angle_beta   90.00000000
_cell_angle_gamma   119.99999876
_symmetry_Int_Tables_number   1
_chemical_formula_structural   TbY2(Al3Ni2)3
_chemical_formula_sum   'Tb1 Y2 Al9 Ni6'
_cell_volume   288.04369334
_cell_formula_units_Z   1
loop_
 _symmetry_equiv_pos_site_id
 _symmetry_equiv_pos_as_xyz
  1  'x, y, z'
loop_
 _atom_site_type_symbol
 _atom_site_label
 _atom_site_symmetry_multiplicity
 _atom_site_fract_x
 _atom_site_fract_y
 _atom_site_fract_z
 _atom_site_occupancy
  Tb  Tb0  1  0.000000  0.000000  0.000000  1
  Y  Y1  1  0.333333  0.666667  0.500000  1
  Y  Y2  1  0.666667  0.333333  0.500000  1
  Al  Al3  1  0.500000  0.000000  0.000000  1
  Al  Al4  1  0.000000  0.500000  0.000000  1
  Al  Al5  1  0.500000  0.500000  0.000000  1
  Al  Al6  1  0.296049  0.000000  0.500000  1
  Al  Al7  1  0.703951  0.000000  0.500000  1
  Al  Al8  1  0.000000  0.296049  0.500000  1
  Al  Al9  1  0.000000  0.703951  0.500000  1
  Al  Al10  1  0.703951  0.703951  0.500000  1
  Al  Al11  1  0.296049  0.296049  0.500000  1
  Ni  Ni12  1  0.181673  0.363347  0.000000  1
  Ni  Ni13  1  0.818327  0.636653  0.000000  1
  Ni  Ni14  1  0.636653  0.818327  0.000000  1
  Ni  Ni15  1  0.363347  0.181673  0.000000  1
  Ni  Ni16  1  0.181673  0.818327  0.000000  1
  Ni  Ni17  1  0.818327  0.181673  0.000000  1
