# generated using pymatgen
data_PrEuY(Co3P2)3
_symmetry_space_group_name_H-M   'P 1'
_cell_length_a   3.76196500
_cell_length_b   10.64266600
_cell_length_c   12.31832900
_cell_angle_alpha   90.00000000
_cell_angle_beta   90.00000000
_cell_angle_gamma   90.00000000
_symmetry_Int_Tables_number   1
_chemical_formula_structural   PrEuY(Co3P2)3
_chemical_formula_sum   'Pr2 Eu2 Y2 Co18 P12'
_cell_volume   493.19308943
_cell_formula_units_Z   2
loop_
 _symmetry_equiv_pos_site_id
 _symmetry_equiv_pos_as_xyz
  1  'x, y, z'
loop_
 _atom_site_type_symbol
 _atom_site_label
 _atom_site_symmetry_multiplicity
 _atom_site_fract_x
 _atom_site_fract_y
 _atom_site_fract_z
 _atom_site_occupancy
  Pr  Pr0  1  0.000000  0.500000  0.522608  1
  Pr  Pr1  1  0.500000  0.000000  0.478775  1
  Eu  Eu2  1  0.500000  0.819023  0.205114  1
  Eu  Eu3  1  0.500000  0.180977  0.205114  1
  Y  Y4  1  0.000000  0.682423  0.795055  1
  Y  Y5  1  0.000000  0.317577  0.795055  1
  Co  Co6  1  0.500000  0.500000  0.154609  1
  Co  Co7  1  0.000000  0.000000  0.843897  1
  Co  Co8  1  0.500000  0.500000  0.705783  1
  Co  Co9  1  0.000000  0.000000  0.295787  1
  Co  Co10  1  0.000000  0.500000  0.985957  1
  Co  Co11  1  0.500000  0.000000  0.009618  1
  Co  Co12  1  0.500000  0.334345  0.993313  1
  Co  Co13  1  0.500000  0.665655  0.993313  1
  Co  Co14  1  0.000000  0.167752  0.002363  1
  Co  Co15  1  0.000000  0.832248  0.002363  1
  Co  Co16  1  0.500000  0.296966  0.431329  1
  Co  Co17  1  0.500000  0.703034  0.431329  1
  Co  Co18  1  0.000000  0.203811  0.572363  1
  Co  Co19  1  0.000000  0.796189  0.572363  1
  Co  Co20  1  0.500000  0.879968  0.713721  1
  Co  Co21  1  0.500000  0.120032  0.713721  1
  Co  Co22  1  0.000000  0.618428  0.288320  1
  Co  Co23  1  0.000000  0.381572  0.288320  1
  P  P24  1  0.500000  0.500000  0.883483  1
  P  P25  1  0.000000  0.000000  0.112100  1
  P  P26  1  0.500000  0.500000  0.336966  1
  P  P27  1  0.000000  0.000000  0.663038  1
  P  P28  1  0.500000  0.305998  0.618285  1
  P  P29  1  0.500000  0.694002  0.618285  1
  P  P30  1  0.000000  0.196052  0.384956  1
  P  P31  1  0.000000  0.803948  0.384956  1
  P  P32  1  0.500000  0.845415  0.894704  1
  P  P33  1  0.500000  0.154585  0.894704  1
  P  P34  1  0.000000  0.652581  0.104169  1
  P  P35  1  0.000000  0.347419  0.104169  1
