# generated using pymatgen
data_Tb3Nd6YSn6
_symmetry_space_group_name_H-M   'P 1'
_cell_length_a   9.19846900
_cell_length_b   9.19847076
_cell_length_c   6.72194700
_cell_angle_alpha   90.00000000
_cell_angle_beta   90.00000000
_cell_angle_gamma   120.00000445
_symmetry_Int_Tables_number   1
_chemical_formula_structural   Tb3Nd6YSn6
_chemical_formula_sum   'Tb3 Nd6 Y1 Sn6'
_cell_volume   492.55743332
_cell_formula_units_Z   1
loop_
 _symmetry_equiv_pos_site_id
 _symmetry_equiv_pos_as_xyz
  1  'x, y, z'
loop_
 _atom_site_type_symbol
 _atom_site_label
 _atom_site_symmetry_multiplicity
 _atom_site_fract_x
 _atom_site_fract_y
 _atom_site_fract_z
 _atom_site_occupancy
  Tb  Tb0  1  0.333333  0.666667  0.000000  1
  Tb  Tb1  1  0.666667  0.333333  0.500000  1
  Tb  Tb2  1  0.666667  0.333333  0.000000  1
  Nd  Nd3  1  0.241411  0.999976  0.250013  1
  Nd  Nd4  1  0.241411  0.241436  0.749987  1
  Nd  Nd5  1  0.000024  0.758589  0.749987  1
  Nd  Nd6  1  0.000024  0.241436  0.250013  1
  Nd  Nd7  1  0.758564  0.758589  0.250013  1
  Nd  Nd8  1  0.758564  0.999976  0.749987  1
  Y  Y9  1  0.333333  0.666667  0.500000  1
  Sn  Sn10  1  0.602081  0.999912  0.250044  1
  Sn  Sn11  1  0.602081  0.602170  0.749956  1
  Sn  Sn12  1  0.000088  0.397919  0.749956  1
  Sn  Sn13  1  0.000088  0.602170  0.250044  1
  Sn  Sn14  1  0.397830  0.397919  0.250044  1
  Sn  Sn15  1  0.397830  0.999912  0.749956  1
