# generated using pymatgen
data_Y8ZnSiI12
_symmetry_space_group_name_H-M   'P 1'
_cell_length_a   4.20500200
_cell_length_b   14.28746977
_cell_length_c   14.82991059
_cell_angle_alpha   90.03499965
_cell_angle_beta   90.00000000
_cell_angle_gamma   90.00000000
_symmetry_Int_Tables_number   1
_chemical_formula_structural   Y8ZnSiI12
_chemical_formula_sum   'Y8 Zn1 Si1 I12'
_cell_volume   890.96364397
_cell_formula_units_Z   1
loop_
 _symmetry_equiv_pos_site_id
 _symmetry_equiv_pos_as_xyz
  1  'x, y, z'
loop_
 _atom_site_type_symbol
 _atom_site_label
 _atom_site_symmetry_multiplicity
 _atom_site_fract_x
 _atom_site_fract_y
 _atom_site_fract_z
 _atom_site_occupancy
  Y  Y0  1  0.500000  0.120480  0.350756  1
  Y  Y1  1  0.500000  0.879520  0.649244  1
  Y  Y2  1  0.500000  0.617861  0.147881  1
  Y  Y3  1  0.500000  0.382139  0.852119  1
  Y  Y4  1  0.000000  0.109557  0.582469  1
  Y  Y5  1  0.000000  0.890443  0.417531  1
  Y  Y6  1  0.000000  0.606001  0.921394  1
  Y  Y7  1  0.000000  0.393999  0.078606  1
  Zn  Zn8  1  0.500000  0.000000  0.500000  1
  Si  Si9  1  0.500000  0.500000  0.000000  1
  I  I10  1  0.500000  0.259345  0.173494  1
  I  I11  1  0.500000  0.740655  0.826506  1
  I  I12  1  0.500000  0.759738  0.322781  1
  I  I13  1  0.500000  0.240262  0.677219  1
  I  I14  1  0.000000  0.261482  0.425060  1
  I  I15  1  0.000000  0.738518  0.574940  1
  I  I16  1  0.000000  0.757061  0.075587  1
  I  I17  1  0.000000  0.242939  0.924413  1
  I  I18  1  0.000000  0.010689  0.236764  1
  I  I19  1  0.000000  0.989311  0.763236  1
  I  I20  1  0.000000  0.509446  0.259469  1
  I  I21  1  0.000000  0.490554  0.740531  1
