# generated using pymatgen
data_Tb16MgCd3(OsPt)2
_symmetry_space_group_name_H-M   'P 1'
_cell_length_a   9.73006526
_cell_length_b   9.73006560
_cell_length_c   9.78586717
_cell_angle_alpha   59.63965664
_cell_angle_beta   59.63965352
_cell_angle_gamma   59.50214881
_symmetry_Int_Tables_number   1
_chemical_formula_structural   Tb16MgCd3(OsPt)2
_chemical_formula_sum   'Tb16 Mg1 Cd3 Os2 Pt2'
_cell_volume   649.06167886
_cell_formula_units_Z   1
loop_
 _symmetry_equiv_pos_site_id
 _symmetry_equiv_pos_as_xyz
  1  'x, y, z'
loop_
 _atom_site_type_symbol
 _atom_site_label
 _atom_site_symmetry_multiplicity
 _atom_site_fract_x
 _atom_site_fract_y
 _atom_site_fract_z
 _atom_site_occupancy
  Tb  Tb0  1  0.349892  0.349892  0.353190  1
  Tb  Tb1  1  0.349514  0.349514  0.950536  1
  Tb  Tb2  1  0.344629  0.958503  0.348606  1
  Tb  Tb3  1  0.958503  0.344629  0.348606  1
  Tb  Tb4  1  0.814075  0.189113  0.191141  1
  Tb  Tb5  1  0.185559  0.815247  0.806785  1
  Tb  Tb6  1  0.189113  0.814075  0.191141  1
  Tb  Tb7  1  0.815247  0.185559  0.806785  1
  Tb  Tb8  1  0.189113  0.189113  0.810874  1
  Tb  Tb9  1  0.809110  0.809110  0.190395  1
  Tb  Tb10  1  0.939105  0.556362  0.567295  1
  Tb  Tb11  1  0.555888  0.938304  0.939711  1
  Tb  Tb12  1  0.556362  0.939105  0.567295  1
  Tb  Tb13  1  0.938304  0.555888  0.939711  1
  Tb  Tb14  1  0.563586  0.563586  0.938734  1
  Tb  Tb15  1  0.939575  0.939575  0.560558  1
  Mg  Mg16  1  0.574927  0.574927  0.574636  1
  Cd  Cd17  1  0.581307  0.581307  0.254458  1
  Cd  Cd18  1  0.582181  0.252918  0.581492  1
  Cd  Cd19  1  0.252918  0.582181  0.581492  1
  Os  Os20  1  0.144380  0.144380  0.137276  1
  Os  Os21  1  0.145655  0.145655  0.575846  1
  Pt  Pt22  1  0.145744  0.575312  0.141718  1
  Pt  Pt23  1  0.575312  0.145744  0.141718  1
