# generated using pymatgen
data_Nd2Er3Tm(IrO7)2
_symmetry_space_group_name_H-M   'P 1'
_cell_length_a   6.42333180
_cell_length_b   6.42692197
_cell_length_c   7.46110308
_cell_angle_alpha   90.04427199
_cell_angle_beta   89.94468315
_cell_angle_gamma   109.50416362
_symmetry_Int_Tables_number   1
_chemical_formula_structural   Nd2Er3Tm(IrO7)2
_chemical_formula_sum   'Nd2 Er3 Tm1 Ir2 O14'
_cell_volume   290.33643923
_cell_formula_units_Z   1
loop_
 _symmetry_equiv_pos_site_id
 _symmetry_equiv_pos_as_xyz
  1  'x, y, z'
loop_
 _atom_site_type_symbol
 _atom_site_label
 _atom_site_symmetry_multiplicity
 _atom_site_fract_x
 _atom_site_fract_y
 _atom_site_fract_z
 _atom_site_occupancy
  Nd  Nd0  1  0.003157  0.002709  0.000673  1
  Nd  Nd1  1  0.003782  0.003334  0.499440  1
  Er  Er2  1  0.486553  0.941405  0.750032  1
  Er  Er3  1  0.513842  0.060798  0.249867  1
  Er  Er4  1  0.941272  0.486261  0.750121  1
  Tm  Tm5  1  0.059879  0.512785  0.249965  1
  Ir  Ir6  1  0.500794  0.501062  0.000714  1
  Ir  Ir7  1  0.501038  0.501264  0.499197  1
  O  O8  1  0.588835  0.588215  0.749897  1
  O  O9  1  0.401115  0.404633  0.250111  1
  O  O10  1  0.840396  0.123304  0.749933  1
  O  O11  1  0.160565  0.874218  0.250063  1
  O  O12  1  0.122921  0.839648  0.750062  1
  O  O13  1  0.877489  0.161370  0.249921  1
  O  O14  1  0.437654  0.177848  0.966795  1
  O  O15  1  0.562199  0.822178  0.466049  1
  O  O16  1  0.178149  0.440296  0.967425  1
  O  O17  1  0.821035  0.558936  0.464541  1
  O  O18  1  0.437770  0.178097  0.533043  1
  O  O19  1  0.562070  0.822262  0.034064  1
  O  O20  1  0.821073  0.558928  0.035393  1
  O  O21  1  0.178413  0.440450  0.532694  1
