# generated using pymatgen
data_Tb11YIn20
_symmetry_space_group_name_H-M   'P 1'
_cell_length_a   6.53129604
_cell_length_b   10.47456400
_cell_length_c   12.31274507
_cell_angle_alpha   90.00000000
_cell_angle_beta   90.01216702
_cell_angle_gamma   90.00000000
_symmetry_Int_Tables_number   1
_chemical_formula_structural   Tb11YIn20
_chemical_formula_sum   'Tb11 Y1 In20'
_cell_volume   842.34538638
_cell_formula_units_Z   1
loop_
 _symmetry_equiv_pos_site_id
 _symmetry_equiv_pos_as_xyz
  1  'x, y, z'
loop_
 _atom_site_type_symbol
 _atom_site_label
 _atom_site_symmetry_multiplicity
 _atom_site_fract_x
 _atom_site_fract_y
 _atom_site_fract_z
 _atom_site_occupancy
  Tb  Tb0  1  0.349732  0.750000  0.056703  1
  Tb  Tb1  1  0.150500  0.750000  0.556827  1
  Tb  Tb2  1  0.650436  0.250000  0.943050  1
  Tb  Tb3  1  0.890511  0.493872  0.142386  1
  Tb  Tb4  1  0.609545  0.006283  0.642338  1
  Tb  Tb5  1  0.109302  0.994144  0.857646  1
  Tb  Tb6  1  0.390585  0.505960  0.357615  1
  Tb  Tb7  1  0.109302  0.505856  0.857646  1
  Tb  Tb8  1  0.390585  0.994040  0.357615  1
  Tb  Tb9  1  0.890511  0.006128  0.142386  1
  Tb  Tb10  1  0.609545  0.493717  0.642338  1
  Y  Y11  1  0.849662  0.250000  0.443027  1
  In  In12  1  0.618032  0.750000  0.505209  1
  In  In13  1  0.881962  0.750000  0.005176  1
  In  In14  1  0.382565  0.250000  0.495079  1
  In  In15  1  0.118027  0.250000  0.995021  1
  In  In16  1  0.651274  0.750000  0.246307  1
  In  In17  1  0.848663  0.750000  0.746300  1
  In  In18  1  0.348903  0.250000  0.753498  1
  In  In19  1  0.151012  0.250000  0.253537  1
  In  In20  1  0.125203  0.750000  0.285578  1
  In  In21  1  0.374631  0.750000  0.785714  1
  In  In22  1  0.874646  0.250000  0.714307  1
  In  In23  1  0.625121  0.250000  0.214377  1
  In  In24  1  0.875518  0.544256  0.401557  1
  In  In25  1  0.624469  0.955713  0.901517  1
  In  In26  1  0.124526  0.044310  0.598558  1
  In  In27  1  0.375360  0.455756  0.098529  1
  In  In28  1  0.124526  0.455690  0.598558  1
  In  In29  1  0.375360  0.044244  0.098529  1
  In  In30  1  0.875518  0.955744  0.401557  1
  In  In31  1  0.624469  0.544287  0.901517  1
