# generated using pymatgen
data_VReSbBr13
_symmetry_space_group_name_H-M   'P 1'
_cell_length_a   11.86540700
_cell_length_b   10.29010020
_cell_length_c   11.44294109
_cell_angle_alpha   77.49383188
_cell_angle_beta   90.00000000
_cell_angle_gamma   90.00000000
_symmetry_Int_Tables_number   1
_chemical_formula_structural   VReSbBr13
_chemical_formula_sum   'V2 Re2 Sb2 Br26'
_cell_volume   1363.98957508
_cell_formula_units_Z   2
loop_
 _symmetry_equiv_pos_site_id
 _symmetry_equiv_pos_as_xyz
  1  'x, y, z'
loop_
 _atom_site_type_symbol
 _atom_site_label
 _atom_site_symmetry_multiplicity
 _atom_site_fract_x
 _atom_site_fract_y
 _atom_site_fract_z
 _atom_site_occupancy
  V  V0  1  0.250000  0.263379  0.503229  1
  V  V1  1  0.750000  0.736621  0.496771  1
  Re  Re2  1  0.250000  0.673204  0.852138  1
  Re  Re3  1  0.750000  0.326796  0.147862  1
  Sb  Sb4  1  0.250000  0.848813  0.124776  1
  Sb  Sb5  1  0.750000  0.151187  0.875224  1
  Br  Br6  1  0.593486  0.806421  0.578598  1
  Br  Br7  1  0.093486  0.193579  0.421402  1
  Br  Br8  1  0.750000  0.434670  0.927313  1
  Br  Br9  1  0.250000  0.565330  0.072687  1
  Br  Br10  1  0.895047  0.167952  0.094929  1
  Br  Br11  1  0.395047  0.832048  0.905071  1
  Br  Br12  1  0.104953  0.832048  0.905071  1
  Br  Br13  1  0.604953  0.167952  0.094929  1
  Br  Br14  1  0.750000  0.201773  0.357405  1
  Br  Br15  1  0.250000  0.798227  0.642595  1
  Br  Br16  1  0.900096  0.475668  0.185132  1
  Br  Br17  1  0.400096  0.524332  0.814868  1
  Br  Br18  1  0.099904  0.524332  0.814868  1
  Br  Br19  1  0.599904  0.475668  0.185132  1
  Br  Br20  1  0.750000  0.895787  0.912399  1
  Br  Br21  1  0.250000  0.104213  0.087601  1
  Br  Br22  1  0.912808  0.193968  0.721888  1
  Br  Br23  1  0.412808  0.806032  0.278112  1
  Br  Br24  1  0.087192  0.806032  0.278112  1
  Br  Br25  1  0.587192  0.193968  0.721888  1
  Br  Br26  1  0.750000  0.817613  0.296935  1
  Br  Br27  1  0.250000  0.182387  0.703065  1
  Br  Br28  1  0.750000  0.511561  0.532061  1
  Br  Br29  1  0.250000  0.488439  0.467939  1
  Br  Br30  1  0.906514  0.806421  0.578598  1
  Br  Br31  1  0.406514  0.193579  0.421402  1
