# generated using pymatgen
data_Sc4Si12Ni19Ru
_symmetry_space_group_name_H-M   'P 1'
_cell_length_a   3.62827800
_cell_length_b   10.50559059
_cell_length_c   11.93074578
_cell_angle_alpha   90.15904183
_cell_angle_beta   90.00000000
_cell_angle_gamma   90.00000000
_symmetry_Int_Tables_number   1
_chemical_formula_structural   Sc4Si12Ni19Ru
_chemical_formula_sum   'Sc4 Si12 Ni19 Ru1'
_cell_volume   454.76490929
_cell_formula_units_Z   1
loop_
 _symmetry_equiv_pos_site_id
 _symmetry_equiv_pos_as_xyz
  1  'x, y, z'
loop_
 _atom_site_type_symbol
 _atom_site_label
 _atom_site_symmetry_multiplicity
 _atom_site_fract_x
 _atom_site_fract_y
 _atom_site_fract_z
 _atom_site_occupancy
  Sc  Sc0  1  0.250000  0.585055  0.703963  1
  Sc  Sc1  1  0.250000  0.917144  0.201441  1
  Sc  Sc2  1  0.750000  0.416004  0.296795  1
  Sc  Sc3  1  0.750000  0.085736  0.796054  1
  Si  Si4  1  0.250000  0.407281  0.112935  1
  Si  Si5  1  0.250000  0.090543  0.613783  1
  Si  Si6  1  0.750000  0.589364  0.886064  1
  Si  Si7  1  0.750000  0.909717  0.385109  1
  Si  Si8  1  0.250000  0.265816  0.873310  1
  Si  Si9  1  0.250000  0.233245  0.374573  1
  Si  Si10  1  0.750000  0.733705  0.127913  1
  Si  Si11  1  0.750000  0.766623  0.625812  1
  Si  Si12  1  0.250000  0.596878  0.389879  1
  Si  Si13  1  0.250000  0.906644  0.886850  1
  Si  Si14  1  0.750000  0.403189  0.611045  1
  Si  Si15  1  0.750000  0.098907  0.112305  1
  Ni  Ni16  1  0.250000  0.788792  0.487314  1
  Ni  Ni17  1  0.750000  0.285704  0.010171  1
  Ni  Ni18  1  0.750000  0.210962  0.513218  1
  Ni  Ni19  1  0.250000  0.408292  0.487646  1
  Ni  Ni20  1  0.250000  0.092641  0.987825  1
  Ni  Ni21  1  0.750000  0.591510  0.512522  1
  Ni  Ni22  1  0.750000  0.912091  0.011761  1
  Ni  Ni23  1  0.250000  0.213059  0.183196  1
  Ni  Ni24  1  0.250000  0.286670  0.680797  1
  Ni  Ni25  1  0.750000  0.787951  0.817379  1
  Ni  Ni26  1  0.750000  0.713346  0.319491  1
  Ni  Ni27  1  0.250000  0.887609  0.695062  1
  Ni  Ni28  1  0.250000  0.609760  0.198629  1
  Ni  Ni29  1  0.750000  0.113047  0.305096  1
  Ni  Ni30  1  0.750000  0.386482  0.802657  1
  Ni  Ni31  1  0.250000  0.467105  0.930287  1
  Ni  Ni32  1  0.250000  0.029211  0.431104  1
  Ni  Ni33  1  0.750000  0.527871  0.070456  1
  Ni  Ni34  1  0.750000  0.970232  0.568348  1
  Ru  Ru35  1  0.250000  0.711811  0.989214  1
