# generated using pymatgen
data_TbNd4Pt2Rh
_symmetry_space_group_name_H-M   'P 1'
_cell_length_a   11.38900500
_cell_length_b   11.38900500
_cell_length_c   6.49408300
_cell_angle_alpha   90.00000000
_cell_angle_beta   90.00000000
_cell_angle_gamma   90.00000000
_symmetry_Int_Tables_number   1
_chemical_formula_structural   TbNd4Pt2Rh
_chemical_formula_sum   'Tb4 Nd16 Pt8 Rh4'
_cell_volume   842.34383606
_cell_formula_units_Z   4
loop_
 _symmetry_equiv_pos_site_id
 _symmetry_equiv_pos_as_xyz
  1  'x, y, z'
loop_
 _atom_site_type_symbol
 _atom_site_label
 _atom_site_symmetry_multiplicity
 _atom_site_fract_x
 _atom_site_fract_y
 _atom_site_fract_z
 _atom_site_occupancy
  Tb  Tb0  1  0.000000  0.000000  0.500000  1
  Tb  Tb1  1  0.000000  0.000000  0.000000  1
  Tb  Tb2  1  0.500000  0.500000  0.000000  1
  Tb  Tb3  1  0.500000  0.500000  0.500000  1
  Nd  Nd4  1  0.292176  0.088251  0.374847  1
  Nd  Nd5  1  0.292176  0.911749  0.874847  1
  Nd  Nd6  1  0.707824  0.088251  0.874847  1
  Nd  Nd7  1  0.707824  0.911749  0.374847  1
  Nd  Nd8  1  0.588251  0.792176  0.874847  1
  Nd  Nd9  1  0.588251  0.207824  0.374847  1
  Nd  Nd10  1  0.411749  0.792176  0.374847  1
  Nd  Nd11  1  0.411749  0.207824  0.874847  1
  Nd  Nd12  1  0.207824  0.411749  0.625153  1
  Nd  Nd13  1  0.207824  0.588251  0.125153  1
  Nd  Nd14  1  0.792176  0.411749  0.125153  1
  Nd  Nd15  1  0.792176  0.588251  0.625153  1
  Nd  Nd16  1  0.911749  0.707824  0.125153  1
  Nd  Nd17  1  0.911749  0.292176  0.625153  1
  Nd  Nd18  1  0.088251  0.707824  0.625153  1
  Nd  Nd19  1  0.088251  0.292176  0.125153  1
  Pt  Pt20  1  0.850681  0.149319  0.250000  1
  Pt  Pt21  1  0.850681  0.850681  0.750000  1
  Pt  Pt22  1  0.149319  0.149319  0.750000  1
  Pt  Pt23  1  0.149319  0.850681  0.250000  1
  Pt  Pt24  1  0.649319  0.350681  0.750000  1
  Pt  Pt25  1  0.649319  0.649319  0.250000  1
  Pt  Pt26  1  0.350681  0.350681  0.250000  1
  Pt  Pt27  1  0.350681  0.649319  0.750000  1
  Rh  Rh28  1  0.500000  0.000000  0.114779  1
  Rh  Rh29  1  0.500000  0.000000  0.614779  1
  Rh  Rh30  1  0.000000  0.500000  0.885221  1
  Rh  Rh31  1  0.000000  0.500000  0.385221  1
