# generated using pymatgen
data_BaSmNi12P5
_symmetry_space_group_name_H-M   'P 1'
_cell_length_a   3.67045100
_cell_length_b   10.90302174
_cell_length_c   13.35748307
_cell_angle_alpha   71.65316107
_cell_angle_beta   90.00000000
_cell_angle_gamma   90.00000000
_symmetry_Int_Tables_number   1
_chemical_formula_structural   BaSmNi12P5
_chemical_formula_sum   'Ba2 Sm2 Ni24 P10'
_cell_volume   507.38105382
_cell_formula_units_Z   2
loop_
 _symmetry_equiv_pos_site_id
 _symmetry_equiv_pos_as_xyz
  1  'x, y, z'
loop_
 _atom_site_type_symbol
 _atom_site_label
 _atom_site_symmetry_multiplicity
 _atom_site_fract_x
 _atom_site_fract_y
 _atom_site_fract_z
 _atom_site_occupancy
  Ba  Ba0  1  0.250000  0.747781  0.187893  1
  Ba  Ba1  1  0.750000  0.252219  0.812107  1
  Sm  Sm2  1  0.250000  0.782023  0.680896  1
  Sm  Sm3  1  0.750000  0.217977  0.319104  1
  Ni  Ni4  1  0.250000  0.568408  0.014681  1
  Ni  Ni5  1  0.250000  0.564532  0.449305  1
  Ni  Ni6  1  0.750000  0.499851  0.343901  1
  Ni  Ni7  1  0.250000  0.500149  0.656099  1
  Ni  Ni8  1  0.750000  0.502352  0.152262  1
  Ni  Ni9  1  0.250000  0.497648  0.847738  1
  Ni  Ni10  1  0.750000  0.435468  0.550695  1
  Ni  Ni11  1  0.250000  0.339040  0.140066  1
  Ni  Ni12  1  0.750000  0.661389  0.562934  1
  Ni  Ni13  1  0.250000  0.338611  0.437066  1
  Ni  Ni14  1  0.750000  0.911170  0.307330  1
  Ni  Ni15  1  0.250000  0.088830  0.692670  1
  Ni  Ni16  1  0.750000  0.920137  0.986770  1
  Ni  Ni17  1  0.250000  0.079863  0.013230  1
  Ni  Ni18  1  0.750000  0.920650  0.492598  1
  Ni  Ni19  1  0.250000  0.079350  0.507402  1
  Ni  Ni20  1  0.750000  0.931431  0.794496  1
  Ni  Ni21  1  0.250000  0.068569  0.205504  1
  Ni  Ni22  1  0.250000  0.787773  0.441917  1
  Ni  Ni23  1  0.750000  0.212227  0.558083  1
  Ni  Ni24  1  0.250000  0.794705  0.914076  1
  Ni  Ni25  1  0.750000  0.205295  0.085924  1
  Ni  Ni26  1  0.750000  0.660960  0.859934  1
  Ni  Ni27  1  0.750000  0.431592  0.985319  1
  P  P28  1  0.250000  0.002669  0.872372  1
  P  P29  1  0.750000  0.997331  0.127628  1
  P  P30  1  0.250000  0.304579  0.988231  1
  P  P31  1  0.750000  0.695421  0.011769  1
  P  P32  1  0.250000  0.442723  0.262367  1
  P  P33  1  0.750000  0.557277  0.737633  1
  P  P34  1  0.250000  0.994986  0.378288  1
  P  P35  1  0.750000  0.005014  0.621712  1
  P  P36  1  0.250000  0.312818  0.606143  1
  P  P37  1  0.750000  0.687182  0.393857  1
