# generated using pymatgen
data_Al2TlInSe5
_symmetry_space_group_name_H-M   'P 1'
_cell_length_a   10.08503640
_cell_length_b   10.15761239
_cell_length_c   10.09677900
_cell_angle_alpha   91.40795802
_cell_angle_beta   90.63604221
_cell_angle_gamma   91.24886296
_symmetry_Int_Tables_number   1
_chemical_formula_structural   Al2TlInSe5
_chemical_formula_sum   'Al8 Tl4 In4 Se20'
_cell_volume   1033.68498188
_cell_formula_units_Z   4
loop_
 _symmetry_equiv_pos_site_id
 _symmetry_equiv_pos_as_xyz
  1  'x, y, z'
loop_
 _atom_site_type_symbol
 _atom_site_label
 _atom_site_symmetry_multiplicity
 _atom_site_fract_x
 _atom_site_fract_y
 _atom_site_fract_z
 _atom_site_occupancy
  Al  Al0  1  0.113603  0.167619  0.421852  1
  Al  Al1  1  0.423227  0.109768  0.176398  1
  Al  Al2  1  0.733567  0.160487  0.354126  1
  Al  Al3  1  0.355639  0.736007  0.164714  1
  Al  Al4  1  0.163904  0.355893  0.729022  1
  Al  Al5  1  0.268915  0.641526  0.831937  1
  Al  Al6  1  0.836945  0.265524  0.641634  1
  Al  Al7  1  0.643653  0.835401  0.264929  1
  Tl  Tl8  1  0.246044  0.001543  0.750436  1
  Tl  Tl9  1  0.746386  0.244667  0.997811  1
  Tl  Tl10  1  0.001003  0.753640  0.246863  1
  Tl  Tl11  1  0.500248  0.497159  0.498430  1
  In  In12  1  0.839857  0.890808  0.575201  1
  In  In13  1  0.574661  0.841349  0.890253  1
  In  In14  1  0.886962  0.577181  0.839823  1
  In  In15  1  0.167764  0.420757  0.116000  1
  Se  Se16  1  0.200687  0.794877  0.998007  1
  Se  Se17  1  0.800283  0.997644  0.197351  1
  Se  Se18  1  0.183133  0.165640  0.185457  1
  Se  Se19  1  0.835151  0.836665  0.834419  1
  Se  Se20  1  0.999156  0.202840  0.799591  1
  Se  Se21  1  0.923661  0.495293  0.080390  1
  Se  Se22  1  0.078424  0.944588  0.489598  1
  Se  Se23  1  0.484543  0.075632  0.948793  1
  Se  Se24  1  0.735362  0.700150  0.429619  1
  Se  Se25  1  0.432708  0.738967  0.695825  1
  Se  Se26  1  0.698807  0.430019  0.732804  1
  Se  Se27  1  0.264444  0.574708  0.305258  1
  Se  Se28  1  0.290451  0.261776  0.555790  1
  Se  Se29  1  0.561121  0.288061  0.263665  1
  Se  Se30  1  0.674042  0.090493  0.577678  1
  Se  Se31  1  0.576941  0.674330  0.089044  1
  Se  Se32  1  0.089827  0.577414  0.673767  1
  Se  Se33  1  0.325564  0.420130  0.905762  1
  Se  Se34  1  0.920812  0.312512  0.417871  1
  Se  Se35  1  0.422507  0.918932  0.319879  1
