# generated using pymatgen
data_Er2Lu6Re(B8Ir)3
_symmetry_space_group_name_H-M   'P 1'
_cell_length_a   3.61039800
_cell_length_b   9.07692768
_cell_length_c   11.41161007
_cell_angle_alpha   90.15510587
_cell_angle_beta   90.00000000
_cell_angle_gamma   90.00000000
_symmetry_Int_Tables_number   1
_chemical_formula_structural   Er2Lu6Re(B8Ir)3
_chemical_formula_sum   'Er2 Lu6 Re1 B24 Ir3'
_cell_volume   373.97217255
_cell_formula_units_Z   1
loop_
 _symmetry_equiv_pos_site_id
 _symmetry_equiv_pos_as_xyz
  1  'x, y, z'
loop_
 _atom_site_type_symbol
 _atom_site_label
 _atom_site_symmetry_multiplicity
 _atom_site_fract_x
 _atom_site_fract_y
 _atom_site_fract_z
 _atom_site_occupancy
  Er  Er0  1  0.000000  0.320147  0.413835  1
  Er  Er1  1  0.000000  0.683854  0.590355  1
  Lu  Lu2  1  0.000000  0.819625  0.082087  1
  Lu  Lu3  1  0.000000  0.176564  0.912593  1
  Lu  Lu4  1  0.000000  0.943802  0.373257  1
  Lu  Lu5  1  0.000000  0.053457  0.626571  1
  Lu  Lu6  1  0.000000  0.443681  0.125684  1
  Lu  Lu7  1  0.000000  0.557366  0.875115  1
  Re  Re8  1  0.000000  0.862526  0.821512  1
  B  B9  1  0.500000  0.554210  0.434540  1
  B  B10  1  0.500000  0.447179  0.566321  1
  B  B11  1  0.500000  0.053548  0.065661  1
  B  B12  1  0.500000  0.946907  0.934103  1
  B  B13  1  0.500000  0.751229  0.420713  1
  B  B14  1  0.500000  0.249259  0.579135  1
  B  B15  1  0.500000  0.249838  0.078339  1
  B  B16  1  0.500000  0.750731  0.920531  1
  B  B17  1  0.500000  0.793204  0.263682  1
  B  B18  1  0.500000  0.206780  0.734687  1
  B  B19  1  0.500000  0.293781  0.235234  1
  B  B20  1  0.500000  0.707180  0.766025  1
  B  B21  1  0.500000  0.631076  0.183122  1
  B  B22  1  0.500000  0.368292  0.816907  1
  B  B23  1  0.500000  0.131256  0.316122  1
  B  B24  1  0.500000  0.869612  0.685049  1
  B  B25  1  0.500000  0.980682  0.212993  1
  B  B26  1  0.500000  0.018552  0.786769  1
  B  B27  1  0.500000  0.480964  0.286756  1
  B  B28  1  0.500000  0.518408  0.714224  1
  B  B29  1  0.500000  0.605937  0.030187  1
  B  B30  1  0.500000  0.391746  0.970821  1
  B  B31  1  0.500000  0.106451  0.470457  1
  B  B32  1  0.500000  0.894535  0.527884  1
  Ir  Ir33  1  0.000000  0.638421  0.321022  1
  Ir  Ir34  1  0.000000  0.361717  0.679332  1
  Ir  Ir35  1  0.000000  0.137484  0.178372  1
