# generated using pymatgen
data_SrNd3(Sn4Pt3)2
_symmetry_space_group_name_H-M   'P 1'
_cell_length_a   14.80290500
_cell_length_b   14.79130741
_cell_length_c   4.47076800
_cell_angle_alpha   90.00000000
_cell_angle_beta   90.00000000
_cell_angle_gamma   120.02594283
_symmetry_Int_Tables_number   1
_chemical_formula_structural   SrNd3(Sn4Pt3)2
_chemical_formula_sum   'Sr2 Nd6 Sn16 Pt12'
_cell_volume   847.52533483
_cell_formula_units_Z   2
loop_
 _symmetry_equiv_pos_site_id
 _symmetry_equiv_pos_as_xyz
  1  'x, y, z'
loop_
 _atom_site_type_symbol
 _atom_site_label
 _atom_site_symmetry_multiplicity
 _atom_site_fract_x
 _atom_site_fract_y
 _atom_site_fract_z
 _atom_site_occupancy
  Sr  Sr0  1  0.815413  0.815401  0.500000  1
  Sr  Sr1  1  0.000012  0.184599  0.500000  1
  Nd  Nd2  1  0.183526  0.000000  0.500000  1
  Nd  Nd3  1  0.666595  0.333543  0.000000  1
  Nd  Nd4  1  0.333051  0.666457  0.000000  1
  Nd  Nd5  1  0.563067  0.000000  0.000000  1
  Nd  Nd6  1  0.435706  0.435679  0.000000  1
  Nd  Nd7  1  0.000027  0.564321  0.000000  1
  Sn  Sn8  1  0.495740  0.126199  0.500000  1
  Sn  Sn9  1  0.873035  0.369469  0.500000  1
  Sn  Sn10  1  0.630747  0.503700  0.500000  1
  Sn  Sn11  1  0.503566  0.630531  0.500000  1
  Sn  Sn12  1  0.369542  0.873801  0.500000  1
  Sn  Sn13  1  0.127047  0.496300  0.500000  1
  Sn  Sn14  1  0.374393  0.186129  0.000000  1
  Sn  Sn15  1  0.813830  0.188315  0.000000  1
  Sn  Sn16  1  0.812433  0.627220  0.000000  1
  Sn  Sn17  1  0.625516  0.811685  0.000000  1
  Sn  Sn18  1  0.001584  0.000000  0.000000  1
  Sn  Sn19  1  0.188265  0.813871  0.000000  1
  Sn  Sn20  1  0.722298  0.000000  0.500000  1
  Sn  Sn21  1  0.276837  0.276284  0.500000  1
  Sn  Sn22  1  0.000554  0.723716  0.500000  1
  Sn  Sn23  1  0.185215  0.372780  0.000000  1
  Pt  Pt24  1  0.999882  0.366444  0.000000  1
  Pt  Pt25  1  0.362405  0.000000  0.000000  1
  Pt  Pt26  1  0.478371  0.300704  0.500000  1
  Pt  Pt27  1  0.698999  0.177467  0.500000  1
  Pt  Pt28  1  0.822497  0.521909  0.500000  1
  Pt  Pt29  1  0.521532  0.822533  0.500000  1
  Pt  Pt30  1  0.177667  0.699296  0.500000  1
  Pt  Pt31  1  0.300588  0.478091  0.500000  1
  Pt  Pt32  1  0.004472  0.823667  0.000000  1
  Pt  Pt33  1  0.180805  0.176333  0.000000  1
  Pt  Pt34  1  0.821344  0.000000  0.000000  1
  Pt  Pt35  1  0.633438  0.633556  0.000000  1
