# generated using pymatgen
data_ErPu3Ge6IrRh6
_symmetry_space_group_name_H-M   'P 1'
_cell_length_a   7.28638238
_cell_length_b   7.28638242
_cell_length_c   7.31392700
_cell_angle_alpha   109.54781917
_cell_angle_beta   109.54781926
_cell_angle_gamma   109.39451341
_symmetry_Int_Tables_number   1
_chemical_formula_structural   ErPu3Ge6IrRh6
_chemical_formula_sum   'Er1 Pu3 Ge6 Ir1 Rh6'
_cell_volume   298.63535795
_cell_formula_units_Z   1
loop_
 _symmetry_equiv_pos_site_id
 _symmetry_equiv_pos_as_xyz
  1  'x, y, z'
loop_
 _atom_site_type_symbol
 _atom_site_label
 _atom_site_symmetry_multiplicity
 _atom_site_fract_x
 _atom_site_fract_y
 _atom_site_fract_z
 _atom_site_occupancy
  Er  Er0  1  0.000000  0.000000  0.500000  1
  Pu  Pu1  1  0.000000  0.500000  0.000000  1
  Pu  Pu2  1  0.500000  0.000000  0.000000  1
  Pu  Pu3  1  0.500000  0.500000  0.500000  1
  Ge  Ge4  1  0.681643  0.681643  0.000769  1
  Ge  Ge5  1  0.318357  0.000000  0.319124  1
  Ge  Ge6  1  0.000000  0.318357  0.319124  1
  Ge  Ge7  1  0.318357  0.318357  0.999231  1
  Ge  Ge8  1  0.681643  0.000000  0.680876  1
  Ge  Ge9  1  0.000000  0.681643  0.680876  1
  Ir  Ir10  1  0.000000  0.000000  0.000000  1
  Rh  Rh11  1  0.751378  0.248622  0.500000  1
  Rh  Rh12  1  0.751378  0.502755  0.251378  1
  Rh  Rh13  1  0.497245  0.248622  0.748622  1
  Rh  Rh14  1  0.248622  0.497245  0.748622  1
  Rh  Rh15  1  0.248622  0.751378  0.500000  1
  Rh  Rh16  1  0.502755  0.751378  0.251378  1
