# generated using pymatgen
data_Nd4TmIn3
_symmetry_space_group_name_H-M   'P 1'
_cell_length_a   6.19857682
_cell_length_b   9.38879688
_cell_length_c   9.38879626
_cell_angle_alpha   84.05244181
_cell_angle_beta   70.70340796
_cell_angle_gamma   70.70342092
_symmetry_Int_Tables_number   1
_chemical_formula_structural   Nd4TmIn3
_chemical_formula_sum   'Nd8 Tm2 In6'
_cell_volume   486.72343682
_cell_formula_units_Z   2
loop_
 _symmetry_equiv_pos_site_id
 _symmetry_equiv_pos_as_xyz
  1  'x, y, z'
loop_
 _atom_site_type_symbol
 _atom_site_label
 _atom_site_symmetry_multiplicity
 _atom_site_fract_x
 _atom_site_fract_y
 _atom_site_fract_z
 _atom_site_occupancy
  Nd  Nd0  1  0.721937  0.863995  0.691801  1
  Nd  Nd1  1  0.278063  0.136005  0.308199  1
  Nd  Nd2  1  0.778063  0.308199  0.136005  1
  Nd  Nd3  1  0.221937  0.691801  0.863995  1
  Nd  Nd4  1  0.585778  0.692163  0.135603  1
  Nd  Nd5  1  0.414222  0.307837  0.864397  1
  Nd  Nd6  1  0.085778  0.135603  0.692163  1
  Nd  Nd7  1  0.914222  0.864397  0.307837  1
  Tm  Tm8  1  0.750000  0.500190  0.499810  1
  Tm  Tm9  1  0.250000  0.499810  0.500190  1
  In  In10  1  0.156803  0.500469  0.186527  1
  In  In11  1  0.843197  0.499531  0.813473  1
  In  In12  1  0.343197  0.813473  0.499531  1
  In  In13  1  0.656803  0.186527  0.500469  1
  In  In14  1  0.250000  0.000024  0.999976  1
  In  In15  1  0.750000  0.999976  0.000024  1
