# generated using pymatgen
data_ErTm2Hf3(SnIr)6
_symmetry_space_group_name_H-M   'P 1'
_cell_length_a   7.44867308
_cell_length_b   7.44681354
_cell_length_c   7.55732000
_cell_angle_alpha   90.00000000
_cell_angle_beta   90.00000000
_cell_angle_gamma   119.99129559
_symmetry_Int_Tables_number   1
_chemical_formula_structural   ErTm2Hf3(SnIr)6
_chemical_formula_sum   'Er1 Tm2 Hf3 Sn6 Ir6'
_cell_volume   363.06628619
_cell_formula_units_Z   1
loop_
 _symmetry_equiv_pos_site_id
 _symmetry_equiv_pos_as_xyz
  1  'x, y, z'
loop_
 _atom_site_type_symbol
 _atom_site_label
 _atom_site_symmetry_multiplicity
 _atom_site_fract_x
 _atom_site_fract_y
 _atom_site_fract_z
 _atom_site_occupancy
  Er  Er0  1  0.000132  0.405841  0.750000  1
  Tm  Tm1  1  0.594333  0.594485  0.750000  1
  Tm  Tm2  1  0.405520  0.999873  0.750000  1
  Hf  Hf3  1  0.998779  0.390761  0.250000  1
  Hf  Hf4  1  0.609243  0.608034  0.250000  1
  Hf  Hf5  1  0.391987  0.001225  0.250000  1
  Sn  Sn6  1  0.266600  0.267216  0.495512  1
  Sn  Sn7  1  0.000751  0.733575  0.495355  1
  Sn  Sn8  1  0.000751  0.733575  0.004645  1
  Sn  Sn9  1  0.732649  0.999128  0.495517  1
  Sn  Sn10  1  0.732649  0.999128  0.004483  1
  Sn  Sn11  1  0.266600  0.267216  0.004488  1
  Ir  Ir12  1  0.333562  0.666844  0.463704  1
  Ir  Ir13  1  0.666440  0.333290  0.466444  1
  Ir  Ir14  1  0.333562  0.666844  0.036296  1
  Ir  Ir15  1  0.999993  0.999662  0.750000  1
  Ir  Ir16  1  0.000004  0.000015  0.250000  1
  Ir  Ir17  1  0.666440  0.333290  0.033556  1
