# generated using pymatgen
data_Cs4GdNbI12
_symmetry_space_group_name_H-M   'P 1'
_cell_length_a   14.65636020
_cell_length_b   14.65635899
_cell_length_c   14.65635900
_cell_angle_alpha   132.10562091
_cell_angle_beta   132.10562190
_cell_angle_gamma   70.06226325
_symmetry_Int_Tables_number   1
_chemical_formula_structural   Cs4GdNbI12
_chemical_formula_sum   'Cs8 Gd2 Nb2 I24'
_cell_volume   1698.88389968
_cell_formula_units_Z   2
loop_
 _symmetry_equiv_pos_site_id
 _symmetry_equiv_pos_as_xyz
  1  'x, y, z'
loop_
 _atom_site_type_symbol
 _atom_site_label
 _atom_site_symmetry_multiplicity
 _atom_site_fract_x
 _atom_site_fract_y
 _atom_site_fract_z
 _atom_site_occupancy
  Cs  Cs0  1  0.375097  0.348845  0.471622  1
  Cs  Cs1  1  0.096537  0.624900  0.973756  1
  Cs  Cs2  1  0.877220  0.903476  0.528377  1
  Cs  Cs3  1  0.098856  0.127220  0.473759  1
  Cs  Cs4  1  0.374903  0.901155  0.028378  1
  Cs  Cs5  1  0.653463  0.625100  0.526244  1
  Cs  Cs6  1  0.651144  0.122780  0.026241  1
  Cs  Cs7  1  0.872780  0.346524  0.971623  1
  Gd  Gd8  1  0.750014  0.250023  0.499974  1
  Gd  Gd9  1  0.999986  0.999977  0.000026  1
  Nb  Nb10  1  0.249991  0.750005  0.499972  1
  Nb  Nb11  1  0.500009  0.499995  0.000028  1
  I  I12  1  0.014869  0.769963  0.288915  1
  I  I13  1  0.019722  0.261654  0.270855  1
  I  I14  1  0.274041  0.985134  0.755094  1
  I  I15  1  0.011658  0.240820  0.741971  1
  I  I16  1  0.134161  0.634159  0.499997  1
  I  I17  1  0.268955  0.524046  0.788917  1
  I  I18  1  0.481045  0.725954  0.711083  1
  I  I19  1  0.498859  0.269699  0.258050  1
  I  I20  1  0.475959  0.264866  0.744906  1
  I  I21  1  0.615839  0.615841  0.000003  1
  I  I22  1  0.519975  0.731054  0.255113  1
  I  I23  1  0.127455  0.127445  0.999959  1
  I  I24  1  0.872523  0.872535  0.000007  1
  I  I25  1  0.990812  0.748873  0.729147  1
  I  I26  1  0.738342  0.009180  0.758029  1
  I  I27  1  0.251141  0.980301  0.241950  1
  I  I28  1  0.735131  0.480037  0.211085  1
  I  I29  1  0.230025  0.518946  0.244887  1
  I  I30  1  0.365827  0.865826  0.499985  1
  I  I31  1  0.877477  0.377465  0.499993  1
  I  I32  1  0.384173  0.384174  0.000015  1
  I  I33  1  0.622545  0.122555  0.500041  1
  I  I34  1  0.759188  0.501127  0.770853  1
  I  I35  1  0.730278  0.988346  0.229145  1
