# generated using pymatgen
data_Cr3FeSi8(W6C)2
_symmetry_space_group_name_H-M   'P 1'
_cell_length_a   7.80143665
_cell_length_b   7.80141227
_cell_length_c   7.80160981
_cell_angle_alpha   60.19329449
_cell_angle_beta   60.19347778
_cell_angle_gamma   60.19009514
_symmetry_Int_Tables_number   1
_chemical_formula_structural   Cr3FeSi8(W6C)2
_chemical_formula_sum   'Cr3 Fe1 Si8 W12 C2'
_cell_volume   337.21276901
_cell_formula_units_Z   1
loop_
 _symmetry_equiv_pos_site_id
 _symmetry_equiv_pos_as_xyz
  1  'x, y, z'
loop_
 _atom_site_type_symbol
 _atom_site_label
 _atom_site_symmetry_multiplicity
 _atom_site_fract_x
 _atom_site_fract_y
 _atom_site_fract_z
 _atom_site_occupancy
  Cr  Cr0  1  0.125000  0.125000  0.625000  1
  Cr  Cr1  1  0.125000  0.625000  0.125000  1
  Cr  Cr2  1  0.625000  0.125000  0.125000  1
  Fe  Fe3  1  0.125000  0.125000  0.125000  1
  Si  Si4  1  0.918542  0.253052  0.918395  1
  Si  Si5  1  0.331458  0.996948  0.331605  1
  Si  Si6  1  0.333669  0.333667  0.333827  1
  Si  Si7  1  0.996943  0.331459  0.331607  1
  Si  Si8  1  0.918489  0.918490  0.253065  1
  Si  Si9  1  0.253057  0.918541  0.918393  1
  Si  Si10  1  0.331511  0.331510  0.996935  1
  Si  Si11  1  0.916331  0.916333  0.916173  1
  W  W12  1  0.306290  0.695756  0.695803  1
  W  W13  1  0.307334  0.307335  0.690732  1
  W  W14  1  0.554242  0.943716  0.554189  1
  W  W15  1  0.943710  0.554244  0.554197  1
  W  W16  1  0.559260  0.942690  0.942753  1
  W  W17  1  0.690740  0.307310  0.307247  1
  W  W18  1  0.942687  0.559262  0.942750  1
  W  W19  1  0.307313  0.690738  0.307250  1
  W  W20  1  0.554181  0.554176  0.943788  1
  W  W21  1  0.695758  0.306284  0.695811  1
  W  W22  1  0.695819  0.695824  0.306212  1
  W  W23  1  0.942666  0.942665  0.559268  1
  C  C24  1  0.748700  0.748703  0.748712  1
  C  C25  1  0.501300  0.501297  0.501288  1
