# generated using pymatgen
data_DyLu7(CdPt)2
_symmetry_space_group_name_H-M   'P 1'
_cell_length_a   9.50284212
_cell_length_b   9.50284291
_cell_length_c   9.49619700
_cell_angle_alpha   60.02312846
_cell_angle_beta   60.02312574
_cell_angle_gamma   59.95374277
_symmetry_Int_Tables_number   1
_chemical_formula_structural   DyLu7(CdPt)2
_chemical_formula_sum   'Dy2 Lu14 Cd4 Pt4'
_cell_volume   606.37508352
_cell_formula_units_Z   2
loop_
 _symmetry_equiv_pos_site_id
 _symmetry_equiv_pos_as_xyz
  1  'x, y, z'
loop_
 _atom_site_type_symbol
 _atom_site_label
 _atom_site_symmetry_multiplicity
 _atom_site_fract_x
 _atom_site_fract_y
 _atom_site_fract_z
 _atom_site_occupancy
  Dy  Dy0  1  0.565376  0.565376  0.934624  1
  Dy  Dy1  1  0.934624  0.934624  0.565375  1
  Lu  Lu2  1  0.352011  0.352011  0.352503  1
  Lu  Lu3  1  0.352011  0.352011  0.943476  1
  Lu  Lu4  1  0.352503  0.943476  0.352011  1
  Lu  Lu5  1  0.943476  0.352503  0.352011  1
  Lu  Lu6  1  0.810371  0.189629  0.189629  1
  Lu  Lu7  1  0.189629  0.810371  0.810371  1
  Lu  Lu8  1  0.189629  0.810371  0.189629  1
  Lu  Lu9  1  0.810371  0.189629  0.810371  1
  Lu  Lu10  1  0.189645  0.189645  0.810355  1
  Lu  Lu11  1  0.810355  0.810355  0.189645  1
  Lu  Lu12  1  0.935592  0.564408  0.564408  1
  Lu  Lu13  1  0.564408  0.935592  0.935592  1
  Lu  Lu14  1  0.564408  0.935592  0.564408  1
  Lu  Lu15  1  0.935592  0.564407  0.935592  1
  Cd  Cd16  1  0.582055  0.582055  0.581625  1
  Cd  Cd17  1  0.582055  0.582055  0.254263  1
  Cd  Cd18  1  0.581625  0.254263  0.582055  1
  Cd  Cd19  1  0.254263  0.581625  0.582055  1
  Pt  Pt20  1  0.143232  0.143232  0.142705  1
  Pt  Pt21  1  0.143232  0.143232  0.570833  1
  Pt  Pt22  1  0.142705  0.570833  0.143232  1
  Pt  Pt23  1  0.570833  0.142705  0.143232  1
