# generated using pymatgen
data_TiBe9VMo
_symmetry_space_group_name_H-M   'P 1'
_cell_length_a   7.38650997
_cell_length_b   7.38650923
_cell_length_c   7.38650844
_cell_angle_alpha   34.68091294
_cell_angle_beta   34.68092089
_cell_angle_gamma   34.68090973
_symmetry_Int_Tables_number   1
_chemical_formula_structural   TiBe9VMo
_chemical_formula_sum   'Ti1 Be9 V1 Mo1'
_cell_volume   116.44168760
_cell_formula_units_Z   1
loop_
 _symmetry_equiv_pos_site_id
 _symmetry_equiv_pos_as_xyz
  1  'x, y, z'
loop_
 _atom_site_type_symbol
 _atom_site_label
 _atom_site_symmetry_multiplicity
 _atom_site_fract_x
 _atom_site_fract_y
 _atom_site_fract_z
 _atom_site_occupancy
  Ti  Ti0  1  0.998518  0.998518  0.998518  1
  Be  Be1  1  0.414287  0.921409  0.414287  1
  Be  Be2  1  0.414287  0.414287  0.921409  1
  Be  Be3  1  0.921409  0.414287  0.414287  1
  Be  Be4  1  0.586126  0.078141  0.586126  1
  Be  Be5  1  0.586126  0.586126  0.078141  1
  Be  Be6  1  0.078141  0.586126  0.586126  1
  Be  Be7  1  0.666127  0.666127  0.666127  1
  Be  Be8  1  0.335411  0.335411  0.335411  1
  Be  Be9  1  0.499669  0.499669  0.499669  1
  V  V10  1  0.144329  0.144329  0.144329  1
  Mo  Mo11  1  0.855569  0.855569  0.855569  1
