# generated using pymatgen
data_Pr16Ho(TmIr4)3
_symmetry_space_group_name_H-M   'P 1'
_cell_length_a   11.25031900
_cell_length_b   11.25031900
_cell_length_c   6.54553900
_cell_angle_alpha   90.00000000
_cell_angle_beta   90.00000000
_cell_angle_gamma   90.00000000
_symmetry_Int_Tables_number   1
_chemical_formula_structural   Pr16Ho(TmIr4)3
_chemical_formula_sum   'Pr16 Ho1 Tm3 Ir12'
_cell_volume   828.46676096
_cell_formula_units_Z   1
loop_
 _symmetry_equiv_pos_site_id
 _symmetry_equiv_pos_as_xyz
  1  'x, y, z'
loop_
 _atom_site_type_symbol
 _atom_site_label
 _atom_site_symmetry_multiplicity
 _atom_site_fract_x
 _atom_site_fract_y
 _atom_site_fract_z
 _atom_site_occupancy
  Pr  Pr0  1  0.288276  0.087332  0.380991  1
  Pr  Pr1  1  0.288116  0.912676  0.881080  1
  Pr  Pr2  1  0.711884  0.087324  0.881080  1
  Pr  Pr3  1  0.711724  0.912668  0.380991  1
  Pr  Pr4  1  0.587334  0.788093  0.880980  1
  Pr  Pr5  1  0.587281  0.211923  0.381026  1
  Pr  Pr6  1  0.412719  0.788077  0.381026  1
  Pr  Pr7  1  0.412666  0.211907  0.880980  1
  Pr  Pr8  1  0.211923  0.412719  0.618974  1
  Pr  Pr9  1  0.211907  0.587334  0.119020  1
  Pr  Pr10  1  0.788093  0.412666  0.119020  1
  Pr  Pr11  1  0.788077  0.587281  0.618974  1
  Pr  Pr12  1  0.912676  0.711884  0.118920  1
  Pr  Pr13  1  0.912668  0.288276  0.619009  1
  Pr  Pr14  1  0.087332  0.711724  0.619009  1
  Pr  Pr15  1  0.087324  0.288116  0.118920  1
  Ho  Ho16  1  0.000000  0.000000  0.500000  1
  Tm  Tm17  1  0.000000  0.000000  0.000000  1
  Tm  Tm18  1  0.500000  0.500000  0.000000  1
  Tm  Tm19  1  0.500000  0.500000  0.500000  1
  Ir  Ir20  1  0.853006  0.146955  0.249501  1
  Ir  Ir21  1  0.853045  0.853006  0.750499  1
  Ir  Ir22  1  0.146955  0.146994  0.750499  1
  Ir  Ir23  1  0.146994  0.853045  0.249501  1
  Ir  Ir24  1  0.646625  0.353383  0.749993  1
  Ir  Ir25  1  0.646617  0.646625  0.250007  1
  Ir  Ir26  1  0.353383  0.353375  0.250007  1
  Ir  Ir27  1  0.353375  0.646617  0.749993  1
  Ir  Ir28  1  0.500000  0.000000  0.116805  1
  Ir  Ir29  1  0.500000  0.000000  0.616754  1
  Ir  Ir30  1  0.000000  0.500000  0.883195  1
  Ir  Ir31  1  0.000000  0.500000  0.383246  1
