# generated using pymatgen
data_NpP2Br8O3
_symmetry_space_group_name_H-M   'P 1'
_cell_length_a   10.67944485
_cell_length_b   11.96418179
_cell_length_c   9.73751000
_cell_angle_alpha   109.15809674
_cell_angle_beta   121.98879951
_cell_angle_gamma   90.73066188
_symmetry_Int_Tables_number   1
_chemical_formula_structural   NpP2Br8O3
_chemical_formula_sum   'Np2 P4 Br16 O6'
_cell_volume   969.38721494
_cell_formula_units_Z   2
loop_
 _symmetry_equiv_pos_site_id
 _symmetry_equiv_pos_as_xyz
  1  'x, y, z'
loop_
 _atom_site_type_symbol
 _atom_site_label
 _atom_site_symmetry_multiplicity
 _atom_site_fract_x
 _atom_site_fract_y
 _atom_site_fract_z
 _atom_site_occupancy
  Np  Np0  1  0.195424  0.229295  0.271957  1
  Np  Np1  1  0.804545  0.770728  0.728047  1
  P  P2  1  0.793132  0.065964  0.002317  1
  P  P3  1  0.807406  0.636299  0.031590  1
  P  P4  1  0.192646  0.363663  0.968382  1
  P  P5  1  0.206841  0.934081  0.997752  1
  Br  Br6  1  0.794618  0.447198  0.998930  1
  Br  Br7  1  0.608547  0.682076  0.023990  1
  Br  Br8  1  0.734254  0.083378  0.191511  1
  Br  Br9  1  0.398320  0.895866  0.209368  1
  Br  Br10  1  0.005647  0.743769  0.293002  1
  Br  Br11  1  0.195609  0.084793  0.438161  1
  Br  Br12  1  0.502675  0.293479  0.466964  1
  Br  Br13  1  0.178043  0.422262  0.497379  1
  Br  Br14  1  0.821984  0.577816  0.502577  1
  Br  Br15  1  0.497282  0.706525  0.533074  1
  Br  Br16  1  0.804401  0.915248  0.561865  1
  Br  Br17  1  0.994391  0.256185  0.706982  1
  Br  Br18  1  0.601658  0.104109  0.790612  1
  Br  Br19  1  0.265607  0.916602  0.808453  1
  Br  Br20  1  0.391475  0.317893  0.975903  1
  Br  Br21  1  0.205455  0.552761  0.001035  1
  O  O22  1  0.198292  0.065266  0.069339  1
  O  O23  1  0.934157  0.163283  0.087418  1
  O  O24  1  0.183354  0.342033  0.106747  1
  O  O25  1  0.816734  0.657912  0.893224  1
  O  O26  1  0.065821  0.836757  0.912698  1
  O  O27  1  0.801686  0.934757  0.930723  1
