# generated using pymatgen
data_Tm12Tc3SnTe
_symmetry_space_group_name_H-M   'P 1'
_cell_length_a   8.36327500
_cell_length_b   8.36327443
_cell_length_c   8.36327500
_cell_angle_alpha   109.04340828
_cell_angle_beta   108.99172564
_cell_angle_gamma   110.38239127
_symmetry_Int_Tables_number   1
_chemical_formula_structural   Tm12Tc3SnTe
_chemical_formula_sum   'Tm12 Tc3 Sn1 Te1'
_cell_volume   450.21980630
_cell_formula_units_Z   1
loop_
 _symmetry_equiv_pos_site_id
 _symmetry_equiv_pos_as_xyz
  1  'x, y, z'
loop_
 _atom_site_type_symbol
 _atom_site_label
 _atom_site_symmetry_multiplicity
 _atom_site_fract_x
 _atom_site_fract_y
 _atom_site_fract_z
 _atom_site_occupancy
  Tm  Tm0  1  0.184296  0.423090  0.238795  1
  Tm  Tm1  1  0.815704  0.576910  0.761205  1
  Tm  Tm2  1  0.184296  0.945502  0.761205  1
  Tm  Tm3  1  0.945748  0.185617  0.760130  1
  Tm  Tm4  1  0.815704  0.054498  0.238795  1
  Tm  Tm5  1  0.054252  0.814383  0.239870  1
  Tm  Tm6  1  0.425487  0.185617  0.239870  1
  Tm  Tm7  1  0.574513  0.814383  0.760130  1
  Tm  Tm8  1  0.316051  0.325030  0.641082  1
  Tm  Tm9  1  0.683949  0.674970  0.358918  1
  Tm  Tm10  1  0.683949  0.325030  0.008980  1
  Tm  Tm11  1  0.316051  0.674970  0.991020  1
  Tc  Tc12  1  0.341553  0.341553  0.000000  1
  Tc  Tc13  1  0.658447  0.658447  0.000000  1
  Tc  Tc14  1  0.000000  0.000000  0.000000  1
  Sn  Sn15  1  0.000000  0.500000  0.500000  1
  Te  Te16  1  0.500000  0.000000  0.500000  1
