# generated using pymatgen
data_Pr5Tm(SiPt5)2
_symmetry_space_group_name_H-M   'P 1'
_cell_length_a   8.39081265
_cell_length_b   8.42097536
_cell_length_c   8.42097663
_cell_angle_alpha   127.35180714
_cell_angle_beta   126.30503256
_cell_angle_gamma   78.61634419
_symmetry_Int_Tables_number   1
_chemical_formula_structural   Pr5Tm(SiPt5)2
_chemical_formula_sum   'Pr5 Tm1 Si2 Pt10'
_cell_volume   368.80907337
_cell_formula_units_Z   1
loop_
 _symmetry_equiv_pos_site_id
 _symmetry_equiv_pos_as_xyz
  1  'x, y, z'
loop_
 _atom_site_type_symbol
 _atom_site_label
 _atom_site_symmetry_multiplicity
 _atom_site_fract_x
 _atom_site_fract_y
 _atom_site_fract_z
 _atom_site_occupancy
  Pr  Pr0  1  0.829428  0.550904  0.278523  1
  Pr  Pr1  1  0.614706  0.249574  0.365132  1
  Pr  Pr2  1  0.171243  0.450421  0.720822  1
  Pr  Pr3  1  0.388507  0.749723  0.638784  1
  Pr  Pr4  1  0.233271  0.950423  0.282848  1
  Tm  Tm5  1  0.777569  0.049635  0.727934  1
  Si  Si6  1  0.214591  0.250290  0.964301  1
  Si  Si7  1  0.787771  0.750796  0.036975  1
  Pt  Pt8  1  0.166206  0.908620  0.861928  1
  Pt  Pt9  1  0.827582  0.090596  0.128904  1
  Pt  Pt10  1  0.457541  0.191307  0.861485  1
  Pt  Pt11  1  0.547500  0.403319  0.737410  1
  Pt  Pt12  1  0.827582  0.698678  0.736986  1
  Pt  Pt13  1  0.457541  0.596057  0.266233  1
  Pt  Pt14  1  0.547500  0.810090  0.144180  1
  Pt  Pt15  1  0.166206  0.304278  0.257586  1
  Pt  Pt16  1  0.992628  0.005165  0.502506  1
  Pt  Pt17  1  0.992628  0.490122  0.987463  1
