# generated using pymatgen
data_LaCePa2(Al3Ir)6
_symmetry_space_group_name_H-M   'P 1'
_cell_length_a   7.64930783
_cell_length_b   7.64323877
_cell_length_c   9.43399300
_cell_angle_alpha   90.00000000
_cell_angle_beta   90.00000000
_cell_angle_gamma   119.73373612
_symmetry_Int_Tables_number   1
_chemical_formula_structural   LaCePa2(Al3Ir)6
_chemical_formula_sum   'La1 Ce1 Pa2 Al18 Ir6'
_cell_volume   478.94400238
_cell_formula_units_Z   1
loop_
 _symmetry_equiv_pos_site_id
 _symmetry_equiv_pos_as_xyz
  1  'x, y, z'
loop_
 _atom_site_type_symbol
 _atom_site_label
 _atom_site_symmetry_multiplicity
 _atom_site_fract_x
 _atom_site_fract_y
 _atom_site_fract_z
 _atom_site_occupancy
  La  La0  1  0.669715  0.993964  0.250000  1
  Ce  Ce1  1  0.327405  0.003331  0.750000  1
  Pa  Pa2  1  0.998997  0.672124  0.250000  1
  Pa  Pa3  1  0.001122  0.328754  0.750000  1
  Al  Al4  1  0.132865  0.128369  0.250000  1
  Al  Al5  1  0.867945  0.870225  0.750000  1
  Al  Al6  1  0.002891  0.334934  0.075188  1
  Al  Al7  1  0.998541  0.666402  0.924660  1
  Al  Al8  1  0.998541  0.666402  0.575340  1
  Al  Al9  1  0.335970  0.004147  0.425472  1
  Al  Al10  1  0.002891  0.334934  0.424812  1
  Al  Al11  1  0.662827  0.995965  0.576491  1
  Al  Al12  1  0.662827  0.995965  0.923509  1
  Al  Al13  1  0.335970  0.004147  0.074528  1
  Al  Al14  1  0.334751  0.334955  0.551765  1
  Al  Al15  1  0.665833  0.664795  0.449993  1
  Al  Al16  1  0.665833  0.664795  0.050007  1
  Al  Al17  1  0.334751  0.334955  0.948235  1
  Al  Al18  1  0.337661  0.544628  0.250000  1
  Al  Al19  1  0.660370  0.453094  0.750000  1
  Al  Al20  1  0.551788  0.347260  0.250000  1
  Al  Al21  1  0.449620  0.654722  0.750000  1
  Ir  Ir22  1  0.675116  0.329963  0.998412  1
  Ir  Ir23  1  0.324442  0.669408  0.000108  1
  Ir  Ir24  1  0.324442  0.669408  0.499892  1
  Ir  Ir25  1  0.675116  0.329963  0.501588  1
  Ir  Ir26  1  0.000882  0.001196  0.998803  1
  Ir  Ir27  1  0.000882  0.001196  0.501197  1
