# generated using pymatgen
data_MnGa2FeRh4
_symmetry_space_group_name_H-M   'P 1'
_cell_length_a   7.42567684
_cell_length_b   7.42567659
_cell_length_c   7.42567606
_cell_angle_alpha   33.52994588
_cell_angle_beta   33.52994884
_cell_angle_gamma   33.52994382
_symmetry_Int_Tables_number   1
_chemical_formula_structural   MnGa2FeRh4
_chemical_formula_sum   'Mn1 Ga2 Fe1 Rh4'
_cell_volume   111.27457885
_cell_formula_units_Z   1
loop_
 _symmetry_equiv_pos_site_id
 _symmetry_equiv_pos_as_xyz
  1  'x, y, z'
loop_
 _atom_site_type_symbol
 _atom_site_label
 _atom_site_symmetry_multiplicity
 _atom_site_fract_x
 _atom_site_fract_y
 _atom_site_fract_z
 _atom_site_occupancy
  Mn  Mn0  1  0.000000  0.000000  0.000000  1
  Ga  Ga1  1  0.250932  0.250932  0.250932  1
  Ga  Ga2  1  0.749068  0.749068  0.749068  1
  Fe  Fe3  1  0.500000  0.500000  0.500000  1
  Rh  Rh4  1  0.623722  0.623722  0.623722  1
  Rh  Rh5  1  0.126407  0.126407  0.126407  1
  Rh  Rh6  1  0.873593  0.873593  0.873593  1
  Rh  Rh7  1  0.376278  0.376278  0.376278  1
