# generated using pymatgen
data_Dy4Er7TmCo5Bi
_symmetry_space_group_name_H-M   'P 1'
_cell_length_a   8.25657301
_cell_length_b   8.25657217
_cell_length_c   8.25657200
_cell_angle_alpha   110.89332939
_cell_angle_beta   110.71624804
_cell_angle_gamma   106.83584600
_symmetry_Int_Tables_number   1
_chemical_formula_structural   Dy4Er7TmCo5Bi
_chemical_formula_sum   'Dy4 Er7 Tm1 Co5 Bi1'
_cell_volume   432.60421242
_cell_formula_units_Z   1
loop_
 _symmetry_equiv_pos_site_id
 _symmetry_equiv_pos_as_xyz
  1  'x, y, z'
loop_
 _atom_site_type_symbol
 _atom_site_label
 _atom_site_symmetry_multiplicity
 _atom_site_fract_x
 _atom_site_fract_y
 _atom_site_fract_z
 _atom_site_occupancy
  Dy  Dy0  1  0.287197  0.183977  0.471174  1
  Dy  Dy1  1  0.712803  0.816023  0.528826  1
  Dy  Dy2  1  0.287197  0.816023  0.103221  1
  Dy  Dy3  1  0.712803  0.183977  0.896779  1
  Er  Er4  1  0.378384  0.688306  0.690078  1
  Er  Er5  1  0.001774  0.311694  0.690078  1
  Er  Er6  1  0.998226  0.688306  0.309922  1
  Er  Er7  1  0.208166  0.402733  0.194567  1
  Er  Er8  1  0.791834  0.597267  0.805433  1
  Er  Er9  1  0.208166  0.013598  0.805433  1
  Er  Er10  1  0.791834  0.986402  0.194567  1
  Tm  Tm11  1  0.621616  0.311694  0.309922  1
  Co  Co12  1  0.000000  0.375080  0.375080  1
  Co  Co13  1  0.000000  0.624920  0.624920  1
  Co  Co14  1  0.388090  0.888090  0.500000  1
  Co  Co15  1  0.611910  0.111910  0.500000  1
  Co  Co16  1  0.000000  0.000000  0.000000  1
  Bi  Bi17  1  0.500000  0.500000  0.000000  1
