# generated using pymatgen
data_CdRu2PbO7
_symmetry_space_group_name_H-M   'P 1'
_cell_length_a   7.27426947
_cell_length_b   7.31219417
_cell_length_c   7.31219475
_cell_angle_alpha   60.48497129
_cell_angle_beta   60.17142485
_cell_angle_gamma   60.17142467
_symmetry_Int_Tables_number   1
_chemical_formula_structural   CdRu2PbO7
_chemical_formula_sum   'Cd2 Ru4 Pb2 O14'
_cell_volume   276.73563822
_cell_formula_units_Z   2
loop_
 _symmetry_equiv_pos_site_id
 _symmetry_equiv_pos_as_xyz
  1  'x, y, z'
loop_
 _atom_site_type_symbol
 _atom_site_label
 _atom_site_symmetry_multiplicity
 _atom_site_fract_x
 _atom_site_fract_y
 _atom_site_fract_z
 _atom_site_occupancy
  Cd  Cd0  1  0.625000  0.125000  0.125000  1
  Cd  Cd1  1  0.125000  0.125000  0.125000  1
  Ru  Ru2  1  0.625000  0.125000  0.625000  1
  Ru  Ru3  1  0.625000  0.625000  0.125000  1
  Ru  Ru4  1  0.125000  0.625000  0.625000  1
  Ru  Ru5  1  0.625000  0.625000  0.625000  1
  Pb  Pb6  1  0.125000  0.625000  0.125000  1
  Pb  Pb7  1  0.125000  0.125000  0.625000  1
  O  O8  1  0.700674  0.690515  0.305709  1
  O  O9  1  0.950864  0.549136  0.549136  1
  O  O10  1  0.560490  0.939510  0.939510  1
  O  O11  1  0.946898  0.944291  0.559485  1
  O  O12  1  0.946898  0.559485  0.944291  1
  O  O13  1  0.549326  0.944291  0.559485  1
  O  O14  1  0.303102  0.690515  0.305709  1
  O  O15  1  0.299136  0.700864  0.700864  1
  O  O16  1  0.689510  0.310490  0.310490  1
  O  O17  1  0.700674  0.305709  0.690515  1
  O  O18  1  0.549326  0.559485  0.944291  1
  O  O19  1  0.303102  0.305709  0.690515  1
  O  O20  1  0.265622  0.234378  0.234378  1
  O  O21  1  0.984378  0.015622  0.015622  1
