# generated using pymatgen
data_Nd4Sc4Re(TcB8)3
_symmetry_space_group_name_H-M   'P 1'
_cell_length_a   3.64705600
_cell_length_b   9.08470126
_cell_length_c   11.53886970
_cell_angle_alpha   90.01027803
_cell_angle_beta   90.00000000
_cell_angle_gamma   90.00000000
_symmetry_Int_Tables_number   1
_chemical_formula_structural   Nd4Sc4Re(TcB8)3
_chemical_formula_sum   'Nd4 Sc4 Re1 Tc3 B24'
_cell_volume   382.31060450
_cell_formula_units_Z   1
loop_
 _symmetry_equiv_pos_site_id
 _symmetry_equiv_pos_as_xyz
  1  'x, y, z'
loop_
 _atom_site_type_symbol
 _atom_site_label
 _atom_site_symmetry_multiplicity
 _atom_site_fract_x
 _atom_site_fract_y
 _atom_site_fract_z
 _atom_site_occupancy
  Nd  Nd0  1  0.000000  0.321909  0.414921  1
  Nd  Nd1  1  0.000000  0.677937  0.584766  1
  Nd  Nd2  1  0.000000  0.821973  0.085388  1
  Nd  Nd3  1  0.000000  0.178503  0.915034  1
  Sc  Sc4  1  0.000000  0.943607  0.368904  1
  Sc  Sc5  1  0.000000  0.056727  0.630538  1
  Sc  Sc6  1  0.000000  0.443622  0.131220  1
  Sc  Sc7  1  0.000000  0.555741  0.869129  1
  Re  Re8  1  0.000000  0.858628  0.816692  1
  Tc  Tc9  1  0.000000  0.641887  0.316673  1
  Tc  Tc10  1  0.000000  0.358148  0.683233  1
  Tc  Tc11  1  0.000000  0.141592  0.183371  1
  B  B12  1  0.500000  0.556139  0.429646  1
  B  B13  1  0.500000  0.443838  0.570316  1
  B  B14  1  0.500000  0.056245  0.070398  1
  B  B15  1  0.500000  0.943953  0.929923  1
  B  B16  1  0.500000  0.754691  0.415484  1
  B  B17  1  0.500000  0.245436  0.584444  1
  B  B18  1  0.500000  0.254761  0.084615  1
  B  B19  1  0.500000  0.745033  0.915722  1
  B  B20  1  0.500000  0.794669  0.265389  1
  B  B21  1  0.500000  0.205398  0.734552  1
  B  B22  1  0.500000  0.294564  0.234690  1
  B  B23  1  0.500000  0.705011  0.765255  1
  B  B24  1  0.500000  0.627740  0.183607  1
  B  B25  1  0.500000  0.372191  0.816416  1
  B  B26  1  0.500000  0.127894  0.316519  1
  B  B27  1  0.500000  0.872155  0.683276  1
  B  B28  1  0.500000  0.982748  0.214925  1
  B  B29  1  0.500000  0.017660  0.785035  1
  B  B30  1  0.500000  0.482746  0.285170  1
  B  B31  1  0.500000  0.517085  0.714852  1
  B  B32  1  0.500000  0.593366  0.025214  1
  B  B33  1  0.500000  0.406341  0.975013  1
  B  B34  1  0.500000  0.093541  0.474673  1
  B  B35  1  0.500000  0.906526  0.525000  1
