# generated using pymatgen
data_Ti6Tc3RuRh2
_symmetry_space_group_name_H-M   'P 1'
_cell_length_a   4.37871900
_cell_length_b   6.19900700
_cell_length_c   13.16912000
_cell_angle_alpha   90.00000000
_cell_angle_beta   89.99986935
_cell_angle_gamma   90.00000000
_symmetry_Int_Tables_number   1
_chemical_formula_structural   Ti6Tc3RuRh2
_chemical_formula_sum   'Ti12 Tc6 Ru2 Rh4'
_cell_volume   357.45877071
_cell_formula_units_Z   2
loop_
 _symmetry_equiv_pos_site_id
 _symmetry_equiv_pos_as_xyz
  1  'x, y, z'
loop_
 _atom_site_type_symbol
 _atom_site_label
 _atom_site_symmetry_multiplicity
 _atom_site_fract_x
 _atom_site_fract_y
 _atom_site_fract_z
 _atom_site_occupancy
  Ti  Ti0  1  0.499987  0.248537  0.997711  1
  Ti  Ti1  1  0.499987  0.751462  0.997711  1
  Ti  Ti2  1  0.000040  0.249662  0.166361  1
  Ti  Ti3  1  0.000040  0.750337  0.166361  1
  Ti  Ti4  1  0.500051  0.250337  0.333637  1
  Ti  Ti5  1  0.500051  0.749663  0.333637  1
  Ti  Ti6  1  0.999996  0.251462  0.502290  1
  Ti  Ti7  1  0.999996  0.748539  0.502290  1
  Ti  Ti8  1  0.499938  0.251971  0.668566  1
  Ti  Ti9  1  0.499938  0.748029  0.668566  1
  Ti  Ti10  1  0.999931  0.248029  0.831436  1
  Ti  Ti11  1  0.999931  0.751970  0.831436  1
  Tc  Tc12  1  0.999989  0.000000  0.001587  1
  Tc  Tc13  1  0.500040  0.500000  0.167054  1
  Tc  Tc14  1  0.000047  0.000000  0.332948  1
  Tc  Tc15  1  0.499998  0.500000  0.498413  1
  Tc  Tc16  1  0.999942  0.000000  0.665447  1
  Tc  Tc17  1  0.499941  0.500000  0.834551  1
  Ru  Ru18  1  0.999950  0.500000  0.666141  1
  Ru  Ru19  1  0.499944  0.000000  0.833859  1
  Rh  Rh20  1  0.999992  0.500000  0.000733  1
  Rh  Rh21  1  0.500033  0.000000  0.167019  1
  Rh  Rh22  1  0.000041  0.500000  0.332980  1
  Rh  Rh23  1  0.499997  0.000000  0.499269  1
