# generated using pymatgen
data_TbSmMn5(PRh)7
_symmetry_space_group_name_H-M   'P 1'
_cell_length_a   9.44584630
_cell_length_b   9.43344273
_cell_length_c   3.83104900
_cell_angle_alpha   90.00000000
_cell_angle_beta   90.00000000
_cell_angle_gamma   119.96024438
_symmetry_Int_Tables_number   1
_chemical_formula_structural   TbSmMn5(PRh)7
_chemical_formula_sum   'Tb1 Sm1 Mn5 P7 Rh7'
_cell_volume   295.75580046
_cell_formula_units_Z   1
loop_
 _symmetry_equiv_pos_site_id
 _symmetry_equiv_pos_as_xyz
  1  'x, y, z'
loop_
 _atom_site_type_symbol
 _atom_site_label
 _atom_site_symmetry_multiplicity
 _atom_site_fract_x
 _atom_site_fract_y
 _atom_site_fract_z
 _atom_site_occupancy
  Tb  Tb0  1  0.333872  0.667234  0.500000  1
  Sm  Sm1  1  0.666565  0.332248  0.000000  1
  Mn  Mn2  1  0.269014  0.112290  0.000000  1
  Mn  Mn3  1  0.842008  0.729466  0.000000  1
  Mn  Mn4  1  0.890795  0.159311  0.000000  1
  Mn  Mn5  1  0.778129  0.898414  0.500000  1
  Mn  Mn6  1  0.121050  0.224181  0.500000  1
  P  P7  1  0.299771  0.891608  0.000000  1
  P  P8  1  0.594013  0.702703  0.000000  1
  P  P9  1  0.111505  0.410315  0.000000  1
  P  P10  1  0.394675  0.276246  0.500000  1
  P  P11  1  0.878452  0.604461  0.500000  1
  P  P12  1  0.724741  0.116428  0.500000  1
  P  P13  1  0.997522  0.997055  0.000000  1
  Rh  Rh14  1  0.064168  0.637217  0.000000  1
  Rh  Rh15  1  0.573375  0.936760  0.000000  1
  Rh  Rh16  1  0.364463  0.428547  0.000000  1
  Rh  Rh17  1  0.440832  0.051342  0.500000  1
  Rh  Rh18  1  0.610893  0.560074  0.500000  1
  Rh  Rh19  1  0.949696  0.390114  0.500000  1
  Rh  Rh20  1  0.094462  0.873989  0.500000  1
