# generated using pymatgen
data_Pr11In2Hg7Rh4
_symmetry_space_group_name_H-M   'P 1'
_cell_length_a   13.43593566
_cell_length_b   13.44474519
_cell_length_c   3.88528300
_cell_angle_alpha   90.00000000
_cell_angle_beta   90.00000000
_cell_angle_gamma   113.61708080
_symmetry_Int_Tables_number   1
_chemical_formula_structural   Pr11In2Hg7Rh4
_chemical_formula_sum   'Pr11 In2 Hg7 Rh4'
_cell_volume   643.06367658
_cell_formula_units_Z   1
loop_
 _symmetry_equiv_pos_site_id
 _symmetry_equiv_pos_as_xyz
  1  'x, y, z'
loop_
 _atom_site_type_symbol
 _atom_site_label
 _atom_site_symmetry_multiplicity
 _atom_site_fract_x
 _atom_site_fract_y
 _atom_site_fract_z
 _atom_site_occupancy
  Pr  Pr0  1  0.501254  0.501198  0.500000  1
  Pr  Pr1  1  0.803264  0.804470  0.500000  1
  Pr  Pr2  1  0.192192  0.189427  0.500000  1
  Pr  Pr3  1  0.583974  0.919291  0.500000  1
  Pr  Pr4  1  0.417825  0.084082  0.500000  1
  Pr  Pr5  1  0.917603  0.584551  0.500000  1
  Pr  Pr6  1  0.078910  0.417739  0.500000  1
  Pr  Pr7  1  0.127690  0.870940  0.500000  1
  Pr  Pr8  1  0.874657  0.128083  0.500000  1
  Pr  Pr9  1  0.335737  0.663302  0.500000  1
  Pr  Pr10  1  0.664445  0.335930  0.500000  1
  In  In11  1  0.283018  0.426554  0.000000  1
  In  In12  1  0.998914  0.997587  0.000000  1
  Hg  Hg13  1  0.347235  0.868235  0.000000  1
  Hg  Hg14  1  0.652978  0.132610  0.000000  1
  Hg  Hg15  1  0.864311  0.345609  0.000000  1
  Hg  Hg16  1  0.133840  0.652872  0.000000  1
  Hg  Hg17  1  0.568089  0.717041  0.000000  1
  Hg  Hg18  1  0.428580  0.285944  0.000000  1
  Hg  Hg19  1  0.716640  0.567912  0.000000  1
  Rh  Rh20  1  0.756721  0.953993  0.000000  1
  Rh  Rh21  1  0.245595  0.046328  0.000000  1
  Rh  Rh22  1  0.949372  0.755660  0.000000  1
  Rh  Rh23  1  0.057154  0.250642  0.000000  1
