# generated using pymatgen
data_Ce8Er12Si15Sb
_symmetry_space_group_name_H-M   'P 1'
_cell_length_a   7.60756700
_cell_length_b   7.89509591
_cell_length_c   14.92101200
_cell_angle_alpha   90.00000000
_cell_angle_beta   90.00000000
_cell_angle_gamma   90.35776458
_symmetry_Int_Tables_number   1
_chemical_formula_structural   Ce8Er12Si15Sb
_chemical_formula_sum   'Ce8 Er12 Si15 Sb1'
_cell_volume   896.17538141
_cell_formula_units_Z   1
loop_
 _symmetry_equiv_pos_site_id
 _symmetry_equiv_pos_as_xyz
  1  'x, y, z'
loop_
 _atom_site_type_symbol
 _atom_site_label
 _atom_site_symmetry_multiplicity
 _atom_site_fract_x
 _atom_site_fract_y
 _atom_site_fract_z
 _atom_site_occupancy
  Ce  Ce0  1  0.990286  0.166978  0.091826  1
  Ce  Ce1  1  0.476904  0.322934  0.404101  1
  Ce  Ce2  1  0.519477  0.677934  0.901436  1
  Ce  Ce3  1  0.019014  0.821825  0.598739  1
  Ce  Ce4  1  0.019014  0.821825  0.901261  1
  Ce  Ce5  1  0.519477  0.677934  0.598564  1
  Ce  Ce6  1  0.476904  0.322934  0.095899  1
  Ce  Ce7  1  0.990286  0.166978  0.408174  1
  Er  Er8  1  0.652095  0.998425  0.250000  1
  Er  Er9  1  0.170622  0.490106  0.250000  1
  Er  Er10  1  0.840911  0.515048  0.750000  1
  Er  Er11  1  0.341587  0.985997  0.750000  1
  Er  Er12  1  0.825578  0.683610  0.121176  1
  Er  Er13  1  0.319280  0.823715  0.378694  1
  Er  Er14  1  0.675090  0.179032  0.876445  1
  Er  Er15  1  0.175321  0.322188  0.624103  1
  Er  Er16  1  0.175321  0.322188  0.875897  1
  Er  Er17  1  0.675090  0.179032  0.623555  1
  Er  Er18  1  0.319280  0.823715  0.121306  1
  Er  Er19  1  0.825578  0.683610  0.378824  1
  Si  Si20  1  0.281116  0.125888  0.250000  1
  Si  Si21  1  0.721167  0.877701  0.750000  1
  Si  Si22  1  0.222361  0.622942  0.750000  1
  Si  Si23  1  0.027947  0.888299  0.250000  1
  Si  Si24  1  0.522679  0.633060  0.250000  1
  Si  Si25  1  0.469023  0.390639  0.750000  1
  Si  Si26  1  0.967811  0.109521  0.750000  1
  Si  Si27  1  0.850977  0.469552  0.960780  1
  Si  Si28  1  0.350268  0.030615  0.540439  1
  Si  Si29  1  0.647245  0.972434  0.039300  1
  Si  Si30  1  0.147290  0.528300  0.460744  1
  Si  Si31  1  0.147290  0.528300  0.039256  1
  Si  Si32  1  0.647245  0.972434  0.460700  1
  Si  Si33  1  0.350268  0.030615  0.959561  1
  Si  Si34  1  0.850977  0.469552  0.539220  1
  Sb  Sb35  1  0.789223  0.364142  0.250000  1
