# generated using pymatgen
data_HoErCd4(BiO6)2
_symmetry_space_group_name_H-M   'P 1'
_cell_length_a   6.67697663
_cell_length_b   6.74054113
_cell_length_c   6.71434137
_cell_angle_alpha   90.66535288
_cell_angle_beta   90.82566877
_cell_angle_gamma   90.95711018
_symmetry_Int_Tables_number   1
_chemical_formula_structural   HoErCd4(BiO6)2
_chemical_formula_sum   'Ho1 Er1 Cd4 Bi2 O12'
_cell_volume   302.09380494
_cell_formula_units_Z   1
loop_
 _symmetry_equiv_pos_site_id
 _symmetry_equiv_pos_as_xyz
  1  'x, y, z'
loop_
 _atom_site_type_symbol
 _atom_site_label
 _atom_site_symmetry_multiplicity
 _atom_site_fract_x
 _atom_site_fract_y
 _atom_site_fract_z
 _atom_site_occupancy
  Ho  Ho0  1  0.057738  0.748333  0.563938  1
  Er  Er1  1  0.749829  0.564257  0.058365  1
  Cd  Cd2  1  0.561433  0.049102  0.747332  1
  Cd  Cd3  1  0.946883  0.247849  0.440063  1
  Cd  Cd4  1  0.251661  0.434207  0.948292  1
  Cd  Cd5  1  0.439376  0.956075  0.252016  1
  Bi  Bi6  1  0.501662  0.499891  0.502104  1
  Bi  Bi7  1  0.999080  0.004234  0.001538  1
  O  O8  1  0.028256  0.692993  0.902639  1
  O  O9  1  0.696968  0.897971  0.038920  1
  O  O10  1  0.914383  0.027513  0.694097  1
  O  O11  1  0.947092  0.302962  0.091041  1
  O  O12  1  0.303216  0.093177  0.961040  1
  O  O13  1  0.085003  0.950254  0.302556  1
  O  O14  1  0.806066  0.583124  0.410139  1
  O  O15  1  0.580463  0.435280  0.804710  1
  O  O16  1  0.405230  0.798988  0.564866  1
  O  O17  1  0.195627  0.437335  0.580389  1
  O  O18  1  0.441528  0.574238  0.196631  1
  O  O19  1  0.588506  0.202216  0.439321  1
