# generated using pymatgen
data_TbPa(PSe3)4
_symmetry_space_group_name_H-M   'P 1'
_cell_length_a   7.53382000
_cell_length_b   7.53382000
_cell_length_c   10.51361400
_cell_angle_alpha   90.00000000
_cell_angle_beta   90.00000000
_cell_angle_gamma   90.00000000
_symmetry_Int_Tables_number   1
_chemical_formula_structural   TbPa(PSe3)4
_chemical_formula_sum   'Tb1 Pa1 P4 Se12'
_cell_volume   596.73636927
_cell_formula_units_Z   1
loop_
 _symmetry_equiv_pos_site_id
 _symmetry_equiv_pos_as_xyz
  1  'x, y, z'
loop_
 _atom_site_type_symbol
 _atom_site_label
 _atom_site_symmetry_multiplicity
 _atom_site_fract_x
 _atom_site_fract_y
 _atom_site_fract_z
 _atom_site_occupancy
  Tb  Tb0  1  0.000000  0.000000  0.750000  1
  Pa  Pa1  1  0.000000  0.000000  0.250000  1
  P  P2  1  0.052908  0.350280  0.499707  1
  P  P3  1  0.947092  0.649720  0.499707  1
  P  P4  1  0.350280  0.947092  0.000293  1
  P  P5  1  0.649720  0.052908  0.000293  1
  Se  Se6  1  0.206212  0.312978  0.673043  1
  Se  Se7  1  0.689994  0.200411  0.182170  1
  Se  Se8  1  0.167010  0.177902  0.009888  1
  Se  Se9  1  0.822098  0.167010  0.490112  1
  Se  Se10  1  0.177902  0.832990  0.490112  1
  Se  Se11  1  0.832990  0.822098  0.009888  1
  Se  Se12  1  0.200411  0.310006  0.317830  1
  Se  Se13  1  0.687022  0.206212  0.826957  1
  Se  Se14  1  0.312978  0.793788  0.826957  1
  Se  Se15  1  0.799589  0.689994  0.317830  1
  Se  Se16  1  0.793788  0.687022  0.673043  1
  Se  Se17  1  0.310006  0.799589  0.182170  1
