# generated using pymatgen
data_Eu3Ho14Er3Pb16
_symmetry_space_group_name_H-M   'P 1'
_cell_length_a   8.19276429
_cell_length_b   8.26154309
_cell_length_c   15.61042200
_cell_angle_alpha   89.99757267
_cell_angle_beta   90.01521777
_cell_angle_gamma   89.99191416
_symmetry_Int_Tables_number   1
_chemical_formula_structural   Eu3Ho14Er3Pb16
_chemical_formula_sum   'Eu3 Ho14 Er3 Pb16'
_cell_volume   1056.58941610
_cell_formula_units_Z   1
loop_
 _symmetry_equiv_pos_site_id
 _symmetry_equiv_pos_as_xyz
  1  'x, y, z'
loop_
 _atom_site_type_symbol
 _atom_site_label
 _atom_site_symmetry_multiplicity
 _atom_site_fract_x
 _atom_site_fract_y
 _atom_site_fract_z
 _atom_site_occupancy
  Eu  Eu0  1  0.968624  0.821853  0.402558  1
  Eu  Eu1  1  0.529555  0.321743  0.594911  1
  Eu  Eu2  1  0.029833  0.178736  0.906220  1
  Ho  Ho3  1  0.375392  0.844732  0.880632  1
  Ho  Ho4  1  0.872928  0.655454  0.619320  1
  Ho  Ho5  1  0.627630  0.155267  0.378210  1
  Ho  Ho6  1  0.125995  0.344037  0.119083  1
  Ho  Ho7  1  0.625108  0.156805  0.121135  1
  Ho  Ho8  1  0.125090  0.343155  0.378101  1
  Ho  Ho9  1  0.375498  0.843321  0.621133  1
  Ho  Ho10  1  0.876940  0.656354  0.880381  1
  Ho  Ho11  1  0.532781  0.324361  0.901770  1
  Ho  Ho12  1  0.032327  0.178039  0.598020  1
  Ho  Ho13  1  0.466534  0.676525  0.400606  1
  Ho  Ho14  1  0.965942  0.821085  0.099403  1
  Ho  Ho15  1  0.466763  0.677922  0.098302  1
  Ho  Ho16  1  0.209138  0.504042  0.749314  1
  Er  Er17  1  0.708891  0.995916  0.750971  1
  Er  Er18  1  0.792647  0.496204  0.248202  1
  Er  Er19  1  0.292131  0.003970  0.250975  1
  Pb  Pb20  1  0.288039  0.030340  0.047560  1
  Pb  Pb21  1  0.787057  0.463486  0.452822  1
  Pb  Pb22  1  0.712820  0.964371  0.545821  1
  Pb  Pb23  1  0.220167  0.540075  0.957637  1
  Pb  Pb24  1  0.710735  0.958473  0.959344  1
  Pb  Pb25  1  0.211119  0.539583  0.541786  1
  Pb  Pb26  1  0.289186  0.038919  0.457314  1
  Pb  Pb27  1  0.780887  0.467129  0.043897  1
  Pb  Pb28  1  0.570261  0.626995  0.752335  1
  Pb  Pb29  1  0.068878  0.872017  0.748935  1
  Pb  Pb30  1  0.431443  0.374426  0.249667  1
  Pb  Pb31  1  0.931856  0.127915  0.246839  1
  Pb  Pb32  1  0.342836  0.149802  0.751956  1
  Pb  Pb33  1  0.843329  0.350136  0.748973  1
  Pb  Pb34  1  0.651680  0.845776  0.248867  1
  Pb  Pb35  1  0.159956  0.651036  0.247000  1
