# generated using pymatgen
data_Y5Ho(Tm2Sb3)2
_symmetry_space_group_name_H-M   'P 1'
_cell_length_a   6.25122100
_cell_length_b   8.95843637
_cell_length_c   8.95707608
_cell_angle_alpha   120.00502137
_cell_angle_beta   90.00003752
_cell_angle_gamma   89.99993504
_symmetry_Int_Tables_number   1
_chemical_formula_structural   Y5Ho(Tm2Sb3)2
_chemical_formula_sum   'Y5 Ho1 Tm4 Sb6'
_cell_volume   434.38216352
_cell_formula_units_Z   1
loop_
 _symmetry_equiv_pos_site_id
 _symmetry_equiv_pos_as_xyz
  1  'x, y, z'
loop_
 _atom_site_type_symbol
 _atom_site_label
 _atom_site_symmetry_multiplicity
 _atom_site_fract_x
 _atom_site_fract_y
 _atom_site_fract_z
 _atom_site_occupancy
  Y  Y0  1  0.749997  0.752356  0.752335  1
  Y  Y1  1  0.749997  0.000021  0.247665  1
  Y  Y2  1  0.249997  0.752176  0.000000  1
  Y  Y3  1  0.250002  0.247716  0.247639  1
  Y  Y4  1  0.250002  0.000077  0.752361  1
  Ho  Ho5  1  0.750003  0.247776  0.000000  1
  Tm  Tm6  1  0.500019  0.333317  0.666666  1
  Tm  Tm7  1  0.500019  0.666650  0.333334  1
  Tm  Tm8  1  0.999988  0.666651  0.333333  1
  Tm  Tm9  1  0.999988  0.333318  0.666667  1
  Sb  Sb10  1  0.749996  0.610087  0.000000  1
  Sb  Sb11  1  0.750000  0.389812  0.389657  1
  Sb  Sb12  1  0.750000  0.000156  0.610343  1
  Sb  Sb13  1  0.249998  0.389763  0.000000  1
  Sb  Sb14  1  0.250000  0.610151  0.610176  1
  Sb  Sb15  1  0.250000  0.999975  0.389824  1
