# generated using pymatgen
data_Nb12V3Fe(Co2N)4
_symmetry_space_group_name_H-M   'P 1'
_cell_length_a   8.04998923
_cell_length_b   8.04998894
_cell_length_c   8.04998890
_cell_angle_alpha   59.80824656
_cell_angle_beta   59.80825041
_cell_angle_gamma   59.80824913
_symmetry_Int_Tables_number   1
_chemical_formula_structural   Nb12V3Fe(Co2N)4
_chemical_formula_sum   'Nb12 V3 Fe1 Co8 N4'
_cell_volume   367.26233282
_cell_formula_units_Z   1
loop_
 _symmetry_equiv_pos_site_id
 _symmetry_equiv_pos_as_xyz
  1  'x, y, z'
loop_
 _atom_site_type_symbol
 _atom_site_label
 _atom_site_symmetry_multiplicity
 _atom_site_fract_x
 _atom_site_fract_y
 _atom_site_fract_z
 _atom_site_occupancy
  Nb  Nb0  1  0.801473  0.801473  0.201159  1
  Nb  Nb1  1  0.192345  0.192345  0.806664  1
  Nb  Nb2  1  0.801473  0.201159  0.801473  1
  Nb  Nb3  1  0.192345  0.806664  0.192345  1
  Nb  Nb4  1  0.201159  0.801473  0.801473  1
  Nb  Nb5  1  0.806664  0.192345  0.192345  1
  Nb  Nb6  1  0.448527  0.448527  0.048841  1
  Nb  Nb7  1  0.057655  0.057655  0.443336  1
  Nb  Nb8  1  0.448527  0.048841  0.448527  1
  Nb  Nb9  1  0.057655  0.443336  0.057655  1
  Nb  Nb10  1  0.048841  0.448527  0.448527  1
  Nb  Nb11  1  0.443336  0.057655  0.057655  1
  V  V12  1  0.125000  0.625000  0.625000  1
  V  V13  1  0.625000  0.125000  0.625000  1
  V  V14  1  0.625000  0.625000  0.125000  1
  Fe  Fe15  1  0.625000  0.625000  0.625000  1
  Co  Co16  1  0.727507  0.425271  0.425271  1
  Co  Co17  1  0.425271  0.727507  0.425271  1
  Co  Co18  1  0.425271  0.425271  0.727507  1
  Co  Co19  1  0.422826  0.422826  0.422826  1
  Co  Co20  1  0.522493  0.824729  0.824729  1
  Co  Co21  1  0.824729  0.522493  0.824729  1
  Co  Co22  1  0.824729  0.824729  0.522493  1
  Co  Co23  1  0.827174  0.827174  0.827174  1
  N  N24  1  0.625000  0.125000  0.125000  1
  N  N25  1  0.125000  0.625000  0.125000  1
  N  N26  1  0.125000  0.125000  0.625000  1
  N  N27  1  0.125000  0.125000  0.125000  1
