# generated using pymatgen
data_Tb3In4RhAu
_symmetry_space_group_name_H-M   'P 1'
_cell_length_a   7.89720000
_cell_length_b   7.89719929
_cell_length_c   3.93288700
_cell_angle_alpha   90.00000000
_cell_angle_beta   90.00000000
_cell_angle_gamma   120.00000297
_symmetry_Int_Tables_number   1
_chemical_formula_structural   Tb3In4RhAu
_chemical_formula_sum   'Tb3 In4 Rh1 Au1'
_cell_volume   212.41653577
_cell_formula_units_Z   1
loop_
 _symmetry_equiv_pos_site_id
 _symmetry_equiv_pos_as_xyz
  1  'x, y, z'
loop_
 _atom_site_type_symbol
 _atom_site_label
 _atom_site_symmetry_multiplicity
 _atom_site_fract_x
 _atom_site_fract_y
 _atom_site_fract_z
 _atom_site_occupancy
  Tb  Tb0  1  0.385690  0.418960  0.500000  1
  Tb  Tb1  1  0.033270  0.614311  0.500000  1
  Tb  Tb2  1  0.581040  0.966730  0.500000  1
  In  In3  1  0.003028  0.264143  0.000000  1
  In  In4  1  0.666667  0.333334  0.000000  1
  In  In5  1  0.735856  0.738886  0.000000  1
  In  In6  1  0.261115  0.996972  0.000000  1
  Rh  Rh7  1  0.333334  0.666667  0.000000  1
  Au  Au8  1  0.000000  0.000000  0.500000  1
