# generated using pymatgen
data_ScF17
_symmetry_space_group_name_H-M   'P 1'
_cell_length_a   8.78146519
_cell_length_b   8.05301014
_cell_length_c   10.33381250
_cell_angle_alpha   84.83357724
_cell_angle_beta   89.28900038
_cell_angle_gamma   64.97128974
_symmetry_Int_Tables_number   1
_chemical_formula_structural   ScF17
_chemical_formula_sum   'Sc2 F34'
_cell_volume   659.19812067
_cell_formula_units_Z   2
loop_
 _symmetry_equiv_pos_site_id
 _symmetry_equiv_pos_as_xyz
  1  'x, y, z'
loop_
 _atom_site_type_symbol
 _atom_site_label
 _atom_site_symmetry_multiplicity
 _atom_site_fract_x
 _atom_site_fract_y
 _atom_site_fract_z
 _atom_site_occupancy
  Sc  Sc0  1  0.867741  0.246379  0.765724  1
  Sc  Sc1  1  0.132259  0.753621  0.234276  1
  F  F2  1  0.591723  0.202874  0.505824  1
  F  F3  1  0.408277  0.797126  0.494176  1
  F  F4  1  0.848265  0.689019  0.707099  1
  F  F5  1  0.151735  0.310981  0.292901  1
  F  F6  1  0.078370  0.789497  0.855522  1
  F  F7  1  0.921630  0.210503  0.144478  1
  F  F8  1  0.552118  0.162683  0.381977  1
  F  F9  1  0.447882  0.837317  0.618023  1
  F  F10  1  0.620434  0.298726  0.756298  1
  F  F11  1  0.379566  0.701274  0.243702  1
  F  F12  1  0.994464  0.090719  0.623812  1
  F  F13  1  0.005536  0.909281  0.376188  1
  F  F14  1  0.867193  0.365626  0.584374  1
  F  F15  1  0.132807  0.634374  0.415626  1
  F  F16  1  0.846104  0.832749  0.614090  1
  F  F17  1  0.153896  0.167251  0.385910  1
  F  F18  1  0.845994  0.455435  0.871840  1
  F  F19  1  0.154006  0.544565  0.128160  1
  F  F20  1  0.217369  0.703812  0.774396  1
  F  F21  1  0.782631  0.296188  0.225604  1
  F  F22  1  0.940841  0.779948  0.113222  1
  F  F23  1  0.059159  0.220052  0.886778  1
  F  F24  1  0.780496  0.085185  0.874628  1
  F  F25  1  0.219504  0.914815  0.125372  1
  F  F26  1  0.504043  0.582798  0.973357  1
  F  F27  1  0.495957  0.417202  0.026643  1
  F  F28  1  0.425945  0.065774  0.874328  1
  F  F29  1  0.574055  0.934226  0.125672  1
  F  F30  1  0.271587  0.233258  0.623456  1
  F  F31  1  0.728413  0.766742  0.376544  1
  F  F32  1  0.242117  0.401775  0.676165  1
  F  F33  1  0.757883  0.598225  0.323835  1
  F  F34  1  0.553193  0.896585  0.839078  1
  F  F35  1  0.446807  0.103415  0.160922  1
