# generated using pymatgen
data_DyTmMg2(PaNi2)2
_symmetry_space_group_name_H-M   'P 1'
_cell_length_a   7.44245560
_cell_length_b   7.44245548
_cell_length_c   3.53276800
_cell_angle_alpha   90.00000000
_cell_angle_beta   90.00000000
_cell_angle_gamma   93.41776568
_symmetry_Int_Tables_number   1
_chemical_formula_structural   DyTmMg2(PaNi2)2
_chemical_formula_sum   'Dy1 Tm1 Mg2 Pa2 Ni4'
_cell_volume   195.33249085
_cell_formula_units_Z   1
loop_
 _symmetry_equiv_pos_site_id
 _symmetry_equiv_pos_as_xyz
  1  'x, y, z'
loop_
 _atom_site_type_symbol
 _atom_site_label
 _atom_site_symmetry_multiplicity
 _atom_site_fract_x
 _atom_site_fract_y
 _atom_site_fract_z
 _atom_site_occupancy
  Dy  Dy0  1  0.169350  0.330650  0.500000  1
  Tm  Tm1  1  0.830501  0.669499  0.500000  1
  Mg  Mg2  1  0.999527  0.998971  0.000000  1
  Mg  Mg3  1  0.501029  0.500473  0.000000  1
  Pa  Pa4  1  0.671743  0.171245  0.500000  1
  Pa  Pa5  1  0.328755  0.828257  0.500000  1
  Ni  Ni6  1  0.135595  0.637593  0.000000  1
  Ni  Ni7  1  0.862407  0.364405  0.000000  1
  Ni  Ni8  1  0.618553  0.881447  0.000000  1
  Ni  Ni9  1  0.382540  0.117460  0.000000  1
