# generated using pymatgen
data_Tb2B4Ir4Rh
_symmetry_space_group_name_H-M   'P 1'
_cell_length_a   7.53262673
_cell_length_b   6.33630063
_cell_length_c   5.62433557
_cell_angle_alpha   77.81709107
_cell_angle_beta   55.30930782
_cell_angle_gamma   46.91774681
_symmetry_Int_Tables_number   1
_chemical_formula_structural   Tb2B4Ir4Rh
_chemical_formula_sum   'Tb2 B4 Ir4 Rh1'
_cell_volume   153.99034436
_cell_formula_units_Z   1
loop_
 _symmetry_equiv_pos_site_id
 _symmetry_equiv_pos_as_xyz
  1  'x, y, z'
loop_
 _atom_site_type_symbol
 _atom_site_label
 _atom_site_symmetry_multiplicity
 _atom_site_fract_x
 _atom_site_fract_y
 _atom_site_fract_z
 _atom_site_occupancy
  Tb  Tb0  1  0.858504  0.858504  0.141496  1
  Tb  Tb1  1  0.141496  0.141496  0.858504  1
  B  B2  1  0.211246  0.521306  0.479482  1
  B  B3  1  0.788754  0.478694  0.520518  1
  B  B4  1  0.521306  0.211246  0.787967  1
  B  B5  1  0.478694  0.788754  0.212033  1
  Ir  Ir6  1  0.749650  0.749650  0.750350  1
  Ir  Ir7  1  0.250350  0.250350  0.249650  1
  Ir  Ir8  1  0.000000  0.000000  0.500000  1
  Ir  Ir9  1  0.500000  0.500000  0.500000  1
  Rh  Rh10  1  0.500000  0.500000  0.000000  1
