# generated using pymatgen
data_Y2Si4Ni17Ir
_symmetry_space_group_name_H-M   'P 1'
_cell_length_a   7.61388937
_cell_length_b   7.61367823
_cell_length_c   7.61375214
_cell_angle_alpha   99.52406103
_cell_angle_beta   99.48889393
_cell_angle_gamma   132.03790497
_symmetry_Int_Tables_number   1
_chemical_formula_structural   Y2Si4Ni17Ir
_chemical_formula_sum   'Y2 Si4 Ni17 Ir1'
_cell_volume   299.51873675
_cell_formula_units_Z   1
loop_
 _symmetry_equiv_pos_site_id
 _symmetry_equiv_pos_as_xyz
  1  'x, y, z'
loop_
 _atom_site_type_symbol
 _atom_site_label
 _atom_site_symmetry_multiplicity
 _atom_site_fract_x
 _atom_site_fract_y
 _atom_site_fract_z
 _atom_site_occupancy
  Y  Y0  1  0.499766  0.499783  0.999858  1
  Y  Y1  1  0.750007  0.249987  0.500128  1
  Si  Si2  1  0.626714  0.875465  0.751172  1
  Si  Si3  1  0.124634  0.373404  0.248763  1
  Si  Si4  1  0.124464  0.875742  0.751323  1
  Si  Si5  1  0.124313  0.875455  0.248717  1
  Ni  Ni6  1  0.000051  0.000057  0.999964  1
  Ni  Ni7  1  0.687602  0.013693  0.078569  1
  Ni  Ni8  1  0.687580  0.608963  0.674073  1
  Ni  Ni9  1  0.264669  0.433750  0.581136  1
  Ni  Ni10  1  0.264514  0.683468  0.830818  1
  Ni  Ni11  1  0.934994  0.013637  0.326000  1
  Ni  Ni12  1  0.934900  0.608941  0.921318  1
  Ni  Ni13  1  0.852731  0.433841  0.169096  1
  Ni  Ni14  1  0.852659  0.683547  0.418949  1
  Ni  Ni15  1  0.566257  0.735407  0.418913  1
  Ni  Ni16  1  0.566232  0.147312  0.830859  1
  Ni  Ni17  1  0.986364  0.312422  0.921363  1
  Ni  Ni18  1  0.986342  0.064920  0.673926  1
  Ni  Ni19  1  0.316616  0.735475  0.169201  1
  Ni  Ni20  1  0.316578  0.147390  0.581164  1
  Ni  Ni21  1  0.391083  0.312452  0.326078  1
  Ni  Ni22  1  0.391060  0.064955  0.078630  1
  Ir  Ir23  1  0.249869  0.749932  0.499985  1
