# generated using pymatgen
data_TbEr7(CdPd)2
_symmetry_space_group_name_H-M   'P 1'
_cell_length_a   9.63120132
_cell_length_b   9.63120185
_cell_length_c   9.62798800
_cell_angle_alpha   60.01103783
_cell_angle_beta   60.01103600
_cell_angle_gamma   59.97792836
_symmetry_Int_Tables_number   1
_chemical_formula_structural   TbEr7(CdPd)2
_chemical_formula_sum   'Tb2 Er14 Cd4 Pd4'
_cell_volume   631.51169696
_cell_formula_units_Z   2
loop_
 _symmetry_equiv_pos_site_id
 _symmetry_equiv_pos_as_xyz
  1  'x, y, z'
loop_
 _atom_site_type_symbol
 _atom_site_label
 _atom_site_symmetry_multiplicity
 _atom_site_fract_x
 _atom_site_fract_y
 _atom_site_fract_z
 _atom_site_occupancy
  Tb  Tb0  1  0.566308  0.566308  0.933692  1
  Tb  Tb1  1  0.933692  0.933692  0.566308  1
  Er  Er2  1  0.353450  0.353450  0.353794  1
  Er  Er3  1  0.353450  0.353450  0.939307  1
  Er  Er4  1  0.353794  0.939307  0.353450  1
  Er  Er5  1  0.939307  0.353794  0.353450  1
  Er  Er6  1  0.810768  0.189232  0.189232  1
  Er  Er7  1  0.189232  0.810768  0.810768  1
  Er  Er8  1  0.189232  0.810768  0.189232  1
  Er  Er9  1  0.810768  0.189232  0.810768  1
  Er  Er10  1  0.189290  0.189290  0.810710  1
  Er  Er11  1  0.810710  0.810710  0.189290  1
  Er  Er12  1  0.934119  0.565881  0.565881  1
  Er  Er13  1  0.565881  0.934119  0.934119  1
  Er  Er14  1  0.565881  0.934119  0.565881  1
  Er  Er15  1  0.934119  0.565881  0.934119  1
  Cd  Cd16  1  0.582124  0.582124  0.581802  1
  Cd  Cd17  1  0.582124  0.582124  0.253949  1
  Cd  Cd18  1  0.581802  0.253949  0.582124  1
  Cd  Cd19  1  0.253949  0.581802  0.582124  1
  Pd  Pd20  1  0.144412  0.144412  0.144086  1
  Pd  Pd21  1  0.144412  0.144412  0.567091  1
  Pd  Pd22  1  0.144086  0.567091  0.144412  1
  Pd  Pd23  1  0.567091  0.144086  0.144412  1
