# generated using pymatgen
data_Ba10Si17Ag
_symmetry_space_group_name_H-M   'P 1'
_cell_length_a   6.68064120
_cell_length_b   6.68064110
_cell_length_c   18.03704006
_cell_angle_alpha   81.66709503
_cell_angle_beta   81.66709310
_cell_angle_gamma   100.09640973
_symmetry_Int_Tables_number   1
_chemical_formula_structural   Ba10Si17Ag
_chemical_formula_sum   'Ba10 Si17 Ag1'
_cell_volume   772.09618028
_cell_formula_units_Z   1
loop_
 _symmetry_equiv_pos_site_id
 _symmetry_equiv_pos_as_xyz
  1  'x, y, z'
loop_
 _atom_site_type_symbol
 _atom_site_label
 _atom_site_symmetry_multiplicity
 _atom_site_fract_x
 _atom_site_fract_y
 _atom_site_fract_z
 _atom_site_occupancy
  Ba  Ba0  1  0.749264  0.254173  0.997663  1
  Ba  Ba1  1  0.111940  0.578768  0.790669  1
  Ba  Ba2  1  0.287913  0.708956  0.499817  1
  Ba  Ba3  1  0.759613  0.759613  0.647733  1
  Ba  Ba4  1  0.243875  0.243875  0.350846  1
  Ba  Ba5  1  0.578768  0.111940  0.790669  1
  Ba  Ba6  1  0.254173  0.749264  0.997663  1
  Ba  Ba7  1  0.708956  0.287913  0.499817  1
  Ba  Ba8  1  0.420322  0.888454  0.211572  1
  Ba  Ba9  1  0.888454  0.420322  0.211572  1
  Si  Si10  1  0.918531  0.918531  0.262396  1
  Si  Si11  1  0.072504  0.072504  0.735856  1
  Si  Si12  1  0.778110  0.778110  0.932614  1
  Si  Si13  1  0.346535  0.346535  0.647240  1
  Si  Si14  1  0.295364  0.295364  0.927502  1
  Si  Si15  1  0.933293  0.933293  0.130727  1
  Si  Si16  1  0.649398  0.649398  0.356608  1
  Si  Si17  1  0.438822  0.438822  0.144983  1
  Si  Si18  1  0.064827  0.064827  0.867440  1
  Si  Si19  1  0.816876  0.816876  0.450335  1
  Si  Si20  1  0.328131  0.971883  0.643551  1
  Si  Si21  1  0.666859  0.023179  0.357501  1
  Si  Si22  1  0.183483  0.183483  0.550325  1
  Si  Si23  1  0.971883  0.328131  0.643551  1
  Si  Si24  1  0.023179  0.666859  0.357501  1
  Si  Si25  1  0.707186  0.707186  0.070402  1
  Si  Si26  1  0.578235  0.578235  0.852924  1
  Ag  Ag27  1  0.223503  0.223503  0.070525  1
