# generated using pymatgen
data_Lu2PIr6
_symmetry_space_group_name_H-M   'P 1'
_cell_length_a   5.93651406
_cell_length_b   5.93651422
_cell_length_c   5.93651400
_cell_angle_alpha   60.00000123
_cell_angle_beta   60.00000032
_cell_angle_gamma   60.00001078
_symmetry_Int_Tables_number   1
_chemical_formula_structural   Lu2PIr6
_chemical_formula_sum   'Lu2 P1 Ir6'
_cell_volume   147.93793489
_cell_formula_units_Z   1
loop_
 _symmetry_equiv_pos_site_id
 _symmetry_equiv_pos_as_xyz
  1  'x, y, z'
loop_
 _atom_site_type_symbol
 _atom_site_label
 _atom_site_symmetry_multiplicity
 _atom_site_fract_x
 _atom_site_fract_y
 _atom_site_fract_z
 _atom_site_occupancy
  Lu  Lu0  1  0.750000  0.750000  0.750000  1
  Lu  Lu1  1  0.250000  0.250000  0.250000  1
  P  P2  1  0.000000  0.000000  0.000000  1
  Ir  Ir3  1  0.732114  0.732114  0.267886  1
  Ir  Ir4  1  0.267886  0.732114  0.267886  1
  Ir  Ir5  1  0.732114  0.267886  0.267886  1
  Ir  Ir6  1  0.267886  0.267886  0.732114  1
  Ir  Ir7  1  0.732114  0.267886  0.732114  1
  Ir  Ir8  1  0.267886  0.732114  0.732114  1
