# generated using pymatgen
data_Pr15Th(MgIr)4
_symmetry_space_group_name_H-M   'P 1'
_cell_length_a   10.10366652
_cell_length_b   10.10366667
_cell_length_c   10.10366670
_cell_angle_alpha   59.89221698
_cell_angle_beta   59.89221687
_cell_angle_gamma   59.89221913
_symmetry_Int_Tables_number   1
_chemical_formula_structural   Pr15Th(MgIr)4
_chemical_formula_sum   'Pr15 Th1 Mg4 Ir4'
_cell_volume   727.54309847
_cell_formula_units_Z   1
loop_
 _symmetry_equiv_pos_site_id
 _symmetry_equiv_pos_as_xyz
  1  'x, y, z'
loop_
 _atom_site_type_symbol
 _atom_site_label
 _atom_site_symmetry_multiplicity
 _atom_site_fract_x
 _atom_site_fract_y
 _atom_site_fract_z
 _atom_site_occupancy
  Pr  Pr0  1  0.347103  0.347103  0.958265  1
  Pr  Pr1  1  0.347103  0.958265  0.347103  1
  Pr  Pr2  1  0.958265  0.347103  0.347103  1
  Pr  Pr3  1  0.810720  0.188971  0.188971  1
  Pr  Pr4  1  0.188377  0.810716  0.810716  1
  Pr  Pr5  1  0.188971  0.810720  0.188971  1
  Pr  Pr6  1  0.810716  0.188377  0.810716  1
  Pr  Pr7  1  0.188971  0.188971  0.810720  1
  Pr  Pr8  1  0.810716  0.810716  0.188377  1
  Pr  Pr9  1  0.940289  0.562036  0.562036  1
  Pr  Pr10  1  0.560025  0.938715  0.938715  1
  Pr  Pr11  1  0.562036  0.940289  0.562036  1
  Pr  Pr12  1  0.938715  0.560025  0.938715  1
  Pr  Pr13  1  0.562036  0.562036  0.940289  1
  Pr  Pr14  1  0.938715  0.938715  0.560025  1
  Th  Th15  1  0.342965  0.342965  0.342965  1
  Mg  Mg16  1  0.578729  0.578729  0.578729  1
  Mg  Mg17  1  0.577990  0.577990  0.262883  1
  Mg  Mg18  1  0.577990  0.262883  0.577990  1
  Mg  Mg19  1  0.262883  0.577990  0.577990  1
  Ir  Ir20  1  0.141807  0.141807  0.141807  1
  Ir  Ir21  1  0.147065  0.147065  0.570750  1
  Ir  Ir22  1  0.147065  0.570750  0.147065  1
  Ir  Ir23  1  0.570750  0.147065  0.147065  1
