# generated using pymatgen
data_Cu4Mo12Pd3PtN4
_symmetry_space_group_name_H-M   'P 1'
_cell_length_a   6.80632587
_cell_length_b   6.80632587
_cell_length_c   6.80632587
_cell_angle_alpha   89.95913165
_cell_angle_beta   89.95913165
_cell_angle_gamma   89.95913165
_symmetry_Int_Tables_number   1
_chemical_formula_structural   Cu4Mo12Pd3PtN4
_chemical_formula_sum   'Cu4 Mo12 Pd3 Pt1 N4'
_cell_volume   315.31010012
_cell_formula_units_Z   1
loop_
 _symmetry_equiv_pos_site_id
 _symmetry_equiv_pos_as_xyz
  1  'x, y, z'
loop_
 _atom_site_type_symbol
 _atom_site_label
 _atom_site_symmetry_multiplicity
 _atom_site_fract_x
 _atom_site_fract_y
 _atom_site_fract_z
 _atom_site_occupancy
  Cu  Cu0  1  0.183277  0.815153  0.317949  1
  Cu  Cu1  1  0.317949  0.183277  0.815153  1
  Cu  Cu2  1  0.815153  0.317949  0.183277  1
  Cu  Cu3  1  0.682980  0.682980  0.682980  1
  Mo  Mo4  1  0.802438  0.963219  0.373149  1
  Mo  Mo5  1  0.700177  0.037508  0.873126  1
  Mo  Mo6  1  0.199646  0.461026  0.125835  1
  Mo  Mo7  1  0.300063  0.537895  0.626259  1
  Mo  Mo8  1  0.963219  0.373149  0.802438  1
  Mo  Mo9  1  0.037508  0.873126  0.700177  1
  Mo  Mo10  1  0.461026  0.125835  0.199646  1
  Mo  Mo11  1  0.537895  0.626259  0.300063  1
  Mo  Mo12  1  0.373149  0.802438  0.963219  1
  Mo  Mo13  1  0.873126  0.700177  0.037508  1
  Mo  Mo14  1  0.125835  0.199646  0.461026  1
  Mo  Mo15  1  0.626259  0.300063  0.537895  1
  Pd  Pd16  1  0.566194  0.433378  0.932695  1
  Pd  Pd17  1  0.433378  0.932695  0.566194  1
  Pd  Pd18  1  0.932695  0.566194  0.433378  1
  Pt  Pt19  1  0.067138  0.067138  0.067138  1
  N  N20  1  0.872950  0.127650  0.627432  1
  N  N21  1  0.627432  0.872950  0.127650  1
  N  N22  1  0.127650  0.627432  0.872950  1
  N  N23  1  0.372862  0.372862  0.372862  1
