# generated using pymatgen
data_LaYHo4Ta2O14
_symmetry_space_group_name_H-M   'P 1'
_cell_length_a   6.49891183
_cell_length_b   6.49891205
_cell_length_c   7.53122405
_cell_angle_alpha   89.84956870
_cell_angle_beta   90.15043379
_cell_angle_gamma   108.59308400
_symmetry_Int_Tables_number   1
_chemical_formula_structural   LaYHo4Ta2O14
_chemical_formula_sum   'La1 Y1 Ho4 Ta2 O14'
_cell_volume   301.48413984
_cell_formula_units_Z   1
loop_
 _symmetry_equiv_pos_site_id
 _symmetry_equiv_pos_as_xyz
  1  'x, y, z'
loop_
 _atom_site_type_symbol
 _atom_site_label
 _atom_site_symmetry_multiplicity
 _atom_site_fract_x
 _atom_site_fract_y
 _atom_site_fract_z
 _atom_site_occupancy
  La  La0  1  0.508968  0.508968  0.500000  1
  Y  Y1  1  0.461897  0.461897  0.000000  1
  Ho  Ho2  1  0.999956  0.534640  0.240485  1
  Ho  Ho3  1  0.998162  0.466503  0.746841  1
  Ho  Ho4  1  0.534640  0.999956  0.759515  1
  Ho  Ho5  1  0.466503  0.998162  0.253159  1
  Ta  Ta6  1  0.000708  0.000708  0.500000  1
  Ta  Ta7  1  0.997272  0.997272  0.000000  1
  O  O8  1  0.933355  0.067330  0.749620  1
  O  O9  1  0.067330  0.933355  0.250380  1
  O  O10  1  0.357095  0.643138  0.238776  1
  O  O11  1  0.643138  0.357095  0.761224  1
  O  O12  1  0.365776  0.633492  0.760946  1
  O  O13  1  0.633492  0.365776  0.239054  1
  O  O14  1  0.326331  0.079287  0.973796  1
  O  O15  1  0.676735  0.929263  0.471929  1
  O  O16  1  0.314945  0.061202  0.541407  1
  O  O17  1  0.692231  0.951717  0.042256  1
  O  O18  1  0.061202  0.314945  0.458593  1
  O  O19  1  0.951717  0.692231  0.957744  1
  O  O20  1  0.929263  0.676735  0.528071  1
  O  O21  1  0.079287  0.326331  0.026204  1
