# generated using pymatgen
data_La9Pr11(CoSn2)4
_symmetry_space_group_name_H-M   'P 1'
_cell_length_a   8.31402405
_cell_length_b   9.13325800
_cell_length_c   12.83577470
_cell_angle_alpha   90.00000000
_cell_angle_beta   90.05830039
_cell_angle_gamma   90.00000000
_symmetry_Int_Tables_number   1
_chemical_formula_structural   La9Pr11(CoSn2)4
_chemical_formula_sum   'La9 Pr11 Co4 Sn8'
_cell_volume   974.67283750
_cell_formula_units_Z   1
loop_
 _symmetry_equiv_pos_site_id
 _symmetry_equiv_pos_as_xyz
  1  'x, y, z'
loop_
 _atom_site_type_symbol
 _atom_site_label
 _atom_site_symmetry_multiplicity
 _atom_site_fract_x
 _atom_site_fract_y
 _atom_site_fract_z
 _atom_site_occupancy
  La  La0  1  0.840812  0.750000  0.794556  1
  La  La1  1  0.674083  0.024890  0.566602  1
  La  La2  1  0.326479  0.977257  0.433732  1
  La  La3  1  0.174625  0.978191  0.933431  1
  La  La4  1  0.326479  0.522743  0.433732  1
  La  La5  1  0.826584  0.026101  0.066771  1
  La  La6  1  0.674083  0.475110  0.566602  1
  La  La7  1  0.826584  0.473899  0.066771  1
  La  La8  1  0.174625  0.521809  0.933431  1
  Pr  Pr9  1  0.162682  0.250000  0.210749  1
  Pr  Pr10  1  0.337822  0.250000  0.710199  1
  Pr  Pr11  1  0.661499  0.750000  0.290299  1
  Pr  Pr12  1  0.364439  0.750000  0.698813  1
  Pr  Pr13  1  0.636798  0.250000  0.299407  1
  Pr  Pr14  1  0.862779  0.250000  0.799222  1
  Pr  Pr15  1  0.134264  0.750000  0.197518  1
  Pr  Pr16  1  0.952171  0.750000  0.501427  1
  Pr  Pr17  1  0.046492  0.250000  0.498446  1
  Pr  Pr18  1  0.453447  0.250000  0.999706  1
  Pr  Pr19  1  0.545646  0.750000  0.001620  1
  Co  Co20  1  0.583985  0.750000  0.515373  1
  Co  Co21  1  0.415554  0.250000  0.482938  1
  Co  Co22  1  0.083706  0.250000  0.984144  1
  Co  Co23  1  0.914954  0.750000  0.014754  1
  Sn  Sn24  1  0.562149  0.494119  0.828502  1
  Sn  Sn25  1  0.435017  0.505927  0.171967  1
  Sn  Sn26  1  0.065855  0.505188  0.671339  1
  Sn  Sn27  1  0.435017  0.994073  0.171967  1
  Sn  Sn28  1  0.936684  0.495474  0.328069  1
  Sn  Sn29  1  0.562149  0.005881  0.828502  1
  Sn  Sn30  1  0.936684  0.004526  0.328069  1
  Sn  Sn31  1  0.065855  0.994812  0.671339  1
