# generated using pymatgen
data_Sc6Si7PPd16
_symmetry_space_group_name_H-M   'P 1'
_cell_length_a   8.60036202
_cell_length_b   8.60036985
_cell_length_c   8.60037100
_cell_angle_alpha   60.00003018
_cell_angle_beta   60.00000009
_cell_angle_gamma   59.99992134
_symmetry_Int_Tables_number   1
_chemical_formula_structural   Sc6Si7PPd16
_chemical_formula_sum   'Sc6 Si7 P1 Pd16'
_cell_volume   449.81702620
_cell_formula_units_Z   1
loop_
 _symmetry_equiv_pos_site_id
 _symmetry_equiv_pos_as_xyz
  1  'x, y, z'
loop_
 _atom_site_type_symbol
 _atom_site_label
 _atom_site_symmetry_multiplicity
 _atom_site_fract_x
 _atom_site_fract_y
 _atom_site_fract_z
 _atom_site_occupancy
  Sc  Sc0  1  0.710078  0.289922  0.289921  1
  Sc  Sc1  1  0.289922  0.710078  0.710079  1
  Sc  Sc2  1  0.289922  0.710078  0.289922  1
  Sc  Sc3  1  0.710078  0.289922  0.710078  1
  Sc  Sc4  1  0.289921  0.289921  0.710078  1
  Sc  Sc5  1  0.710079  0.710079  0.289922  1
  Si  Si6  1  0.000000  0.000000  0.000000  1
  Si  Si7  1  0.500000  0.000000  0.000000  1
  Si  Si8  1  0.000000  0.500000  0.500000  1
  Si  Si9  1  0.000000  0.500000  0.000000  1
  Si  Si10  1  0.500000  0.000000  0.500000  1
  Si  Si11  1  0.000000  0.000000  0.500000  1
  Si  Si12  1  0.500000  0.500000  0.000000  1
  P  P13  1  0.500000  0.500000  0.500000  1
  Pd  Pd14  1  0.116891  0.116891  0.116891  1
  Pd  Pd15  1  0.883109  0.883109  0.883109  1
  Pd  Pd16  1  0.116891  0.116891  0.649325  1
  Pd  Pd17  1  0.116891  0.649325  0.116891  1
  Pd  Pd18  1  0.883109  0.883109  0.350675  1
  Pd  Pd19  1  0.883109  0.350675  0.883109  1
  Pd  Pd20  1  0.649325  0.116891  0.116892  1
  Pd  Pd21  1  0.350675  0.883109  0.883108  1
  Pd  Pd22  1  0.336430  0.336430  0.336430  1
  Pd  Pd23  1  0.663570  0.663570  0.663570  1
  Pd  Pd24  1  0.336430  0.336430  0.990708  1
  Pd  Pd25  1  0.336430  0.990708  0.336430  1
  Pd  Pd26  1  0.663570  0.663570  0.009292  1
  Pd  Pd27  1  0.663570  0.009292  0.663570  1
  Pd  Pd28  1  0.990709  0.336430  0.336430  1
  Pd  Pd29  1  0.009291  0.663570  0.663570  1
