# generated using pymatgen
data_Tm5Mg(Si3Ru)8
_symmetry_space_group_name_H-M   'P 1'
_cell_length_a   10.10505300
_cell_length_b   10.10505366
_cell_length_c   8.08407851
_cell_angle_alpha   90.29527824
_cell_angle_beta   89.70472085
_cell_angle_gamma   132.82945698
_symmetry_Int_Tables_number   1
_chemical_formula_structural   Tm5Mg(Si3Ru)8
_chemical_formula_sum   'Tm5 Mg1 Si24 Ru8'
_cell_volume   605.38297841
_cell_formula_units_Z   1
loop_
 _symmetry_equiv_pos_site_id
 _symmetry_equiv_pos_as_xyz
  1  'x, y, z'
loop_
 _atom_site_type_symbol
 _atom_site_label
 _atom_site_symmetry_multiplicity
 _atom_site_fract_x
 _atom_site_fract_y
 _atom_site_fract_z
 _atom_site_occupancy
  Tm  Tm0  1  0.498130  0.998130  0.250000  1
  Tm  Tm1  1  0.002573  0.502573  0.750000  1
  Tm  Tm2  1  0.501512  0.001512  0.750000  1
  Tm  Tm3  1  0.499689  0.499804  0.498671  1
  Tm  Tm4  1  0.999804  0.999689  0.001329  1
  Mg  Mg5  1  0.997705  0.497705  0.250000  1
  Si  Si6  1  0.387341  0.153830  0.003897  1
  Si  Si7  1  0.653830  0.887341  0.496103  1
  Si  Si8  1  0.111320  0.343893  0.505668  1
  Si  Si9  1  0.843893  0.611320  0.994332  1
  Si  Si10  1  0.613057  0.847665  0.993723  1
  Si  Si11  1  0.347665  0.113057  0.506277  1
  Si  Si12  1  0.889696  0.656276  0.496970  1
  Si  Si13  1  0.156276  0.389696  0.003030  1
  Si  Si14  1  0.610050  0.376878  0.226486  1
  Si  Si15  1  0.876878  0.110050  0.273514  1
  Si  Si16  1  0.887041  0.121733  0.730448  1
  Si  Si17  1  0.621733  0.387041  0.769552  1
  Si  Si18  1  0.388554  0.623697  0.770222  1
  Si  Si19  1  0.123697  0.888554  0.729778  1
  Si  Si20  1  0.707944  0.298451  0.001780  1
  Si  Si21  1  0.798451  0.207944  0.498220  1
  Si  Si22  1  0.293567  0.703921  0.002229  1
  Si  Si23  1  0.203921  0.793567  0.497771  1
  Si  Si24  1  0.168090  0.164933  0.333790  1
  Si  Si25  1  0.664933  0.668090  0.166210  1
  Si  Si26  1  0.329786  0.333291  0.832796  1
  Si  Si27  1  0.833291  0.829786  0.667204  1
  Si  Si28  1  0.378158  0.612610  0.227078  1
  Si  Si29  1  0.112610  0.878158  0.272922  1
  Ru  Ru30  1  0.625811  0.625542  0.871565  1
  Ru  Ru31  1  0.125542  0.125811  0.628435  1
  Ru  Ru32  1  0.871866  0.871861  0.372611  1
  Ru  Ru33  1  0.371861  0.371866  0.127389  1
  Ru  Ru34  1  0.328771  0.668900  0.498550  1
  Ru  Ru35  1  0.168900  0.828771  0.001450  1
  Ru  Ru36  1  0.673666  0.332387  0.496248  1
  Ru  Ru37  1  0.832387  0.173666  0.003752  1
