# generated using pymatgen
data_Er4VRe3B16
_symmetry_space_group_name_H-M   'P 1'
_cell_length_a   3.57011900
_cell_length_b   5.95543349
_cell_length_c   11.51311078
_cell_angle_alpha   89.87580169
_cell_angle_beta   90.00000000
_cell_angle_gamma   90.00000000
_symmetry_Int_Tables_number   1
_chemical_formula_structural   Er4VRe3B16
_chemical_formula_sum   'Er4 V1 Re3 B16'
_cell_volume   244.78665303
_cell_formula_units_Z   1
loop_
 _symmetry_equiv_pos_site_id
 _symmetry_equiv_pos_as_xyz
  1  'x, y, z'
loop_
 _atom_site_type_symbol
 _atom_site_label
 _atom_site_symmetry_multiplicity
 _atom_site_fract_x
 _atom_site_fract_y
 _atom_site_fract_z
 _atom_site_occupancy
  Er  Er0  1  0.500000  0.126060  0.851306  1
  Er  Er1  1  0.500000  0.874973  0.149173  1
  Er  Er2  1  0.500000  0.626552  0.650831  1
  Er  Er3  1  0.500000  0.372950  0.347774  1
  V  V4  1  0.500000  0.371448  0.082962  1
  Re  Re5  1  0.500000  0.133537  0.587374  1
  Re  Re6  1  0.500000  0.866398  0.413691  1
  Re  Re7  1  0.500000  0.627464  0.915810  1
  B  B8  1  0.000000  0.286375  0.686004  1
  B  B9  1  0.000000  0.713697  0.314161  1
  B  B10  1  0.000000  0.786851  0.815208  1
  B  B11  1  0.000000  0.213406  0.184991  1
  B  B12  1  0.000000  0.364680  0.531437  1
  B  B13  1  0.000000  0.635408  0.468504  1
  B  B14  1  0.000000  0.865264  0.968101  1
  B  B15  1  0.000000  0.134670  0.032377  1
  B  B16  1  0.000000  0.023911  0.306900  1
  B  B17  1  0.000000  0.976217  0.692973  1
  B  B18  1  0.000000  0.522960  0.192735  1
  B  B19  1  0.000000  0.476669  0.807344  1
  B  B20  1  0.000000  0.114885  0.452205  1
  B  B21  1  0.000000  0.885632  0.547719  1
  B  B22  1  0.000000  0.614659  0.047550  1
  B  B23  1  0.000000  0.385334  0.952871  1
