# generated using pymatgen
data_UP2WO11
_symmetry_space_group_name_H-M   'P 1'
_cell_length_a   6.66276500
_cell_length_b   8.10201103
_cell_length_c   8.08650466
_cell_angle_alpha   88.29857990
_cell_angle_beta   90.00000000
_cell_angle_gamma   90.00000000
_symmetry_Int_Tables_number   1
_chemical_formula_structural   UP2WO11
_chemical_formula_sum   'U2 P4 W2 O22'
_cell_volume   436.33158802
_cell_formula_units_Z   2
loop_
 _symmetry_equiv_pos_site_id
 _symmetry_equiv_pos_as_xyz
  1  'x, y, z'
loop_
 _atom_site_type_symbol
 _atom_site_label
 _atom_site_symmetry_multiplicity
 _atom_site_fract_x
 _atom_site_fract_y
 _atom_site_fract_z
 _atom_site_occupancy
  U  U0  1  0.500000  0.202212  0.149262  1
  U  U1  1  0.500000  0.797788  0.850738  1
  P  P2  1  0.500000  0.374591  0.723980  1
  P  P3  1  0.000000  0.889281  0.745168  1
  P  P4  1  0.000000  0.110719  0.254832  1
  P  P5  1  0.500000  0.625409  0.276020  1
  W  W6  1  0.000000  0.690963  0.350997  1
  W  W7  1  0.000000  0.309037  0.649003  1
  O  O8  1  0.307640  0.301158  0.643232  1
  O  O9  1  0.820037  0.177867  0.154284  1
  O  O10  1  0.307640  0.698842  0.356768  1
  O  O11  1  0.500000  0.668743  0.086208  1
  O  O12  1  0.500000  0.919554  0.658132  1
  O  O13  1  0.820037  0.822133  0.845716  1
  O  O14  1  0.692360  0.301158  0.643232  1
  O  O15  1  0.000000  0.170745  0.431243  1
  O  O16  1  0.000000  0.829255  0.568757  1
  O  O17  1  0.500000  0.563209  0.703361  1
  O  O18  1  0.692360  0.698842  0.356768  1
  O  O19  1  0.500000  0.080446  0.341868  1
  O  O20  1  0.179963  0.177867  0.154284  1
  O  O21  1  0.000000  0.412693  0.832980  1
  O  O22  1  0.500000  0.436791  0.296639  1
  O  O23  1  0.000000  0.082043  0.750939  1
  O  O24  1  0.000000  0.587307  0.167020  1
  O  O25  1  0.500000  0.331257  0.913792  1
  O  O26  1  0.000000  0.917957  0.249061  1
  O  O27  1  0.000000  0.500000  0.500000  1
  O  O28  1  0.179963  0.822133  0.845716  1
  O  O29  1  0.500000  0.000000  0.000000  1
