# generated using pymatgen
data_LiDy16Cd3CoIr3
_symmetry_space_group_name_H-M   'P 1'
_cell_length_a   9.61153891
_cell_length_b   9.61153885
_cell_length_c   9.61153898
_cell_angle_alpha   59.98392549
_cell_angle_beta   59.98392431
_cell_angle_gamma   59.98392540
_symmetry_Int_Tables_number   1
_chemical_formula_structural   LiDy16Cd3CoIr3
_chemical_formula_sum   'Li1 Dy16 Cd3 Co1 Ir3'
_cell_volume   627.63255295
_cell_formula_units_Z   1
loop_
 _symmetry_equiv_pos_site_id
 _symmetry_equiv_pos_as_xyz
  1  'x, y, z'
loop_
 _atom_site_type_symbol
 _atom_site_label
 _atom_site_symmetry_multiplicity
 _atom_site_fract_x
 _atom_site_fract_y
 _atom_site_fract_z
 _atom_site_occupancy
  Li  Li0  1  0.820987  0.820987  0.820987  1
  Dy  Dy1  1  0.600593  0.600593  0.600593  1
  Dy  Dy2  1  0.593794  0.593794  0.210904  1
  Dy  Dy3  1  0.593794  0.210904  0.593794  1
  Dy  Dy4  1  0.210904  0.593794  0.593794  1
  Dy  Dy5  1  0.065617  0.439430  0.439430  1
  Dy  Dy6  1  0.435449  0.062622  0.062622  1
  Dy  Dy7  1  0.439430  0.065617  0.439430  1
  Dy  Dy8  1  0.062622  0.435449  0.062622  1
  Dy  Dy9  1  0.439430  0.439430  0.065617  1
  Dy  Dy10  1  0.062622  0.062622  0.435449  1
  Dy  Dy11  1  0.189518  0.810323  0.810323  1
  Dy  Dy12  1  0.814082  0.185759  0.185759  1
  Dy  Dy13  1  0.810323  0.189518  0.810323  1
  Dy  Dy14  1  0.185759  0.814082  0.185759  1
  Dy  Dy15  1  0.810323  0.810323  0.189518  1
  Dy  Dy16  1  0.185759  0.185759  0.814082  1
  Cd  Cd17  1  0.833368  0.833368  0.506234  1
  Cd  Cd18  1  0.833368  0.506234  0.833368  1
  Cd  Cd19  1  0.506234  0.833368  0.833368  1
  Co  Co20  1  0.391301  0.391301  0.391301  1
  Ir  Ir21  1  0.394301  0.394301  0.826119  1
  Ir  Ir22  1  0.394301  0.826119  0.394301  1
  Ir  Ir23  1  0.826119  0.394301  0.394301  1
