# generated using pymatgen
data_Y3HoZr2MoO12
_symmetry_space_group_name_H-M   'P 1'
_cell_length_a   6.32593483
_cell_length_b   6.41659856
_cell_length_c   6.59493750
_cell_angle_alpha   100.36924444
_cell_angle_beta   98.33655502
_cell_angle_gamma   99.34748147
_symmetry_Int_Tables_number   1
_chemical_formula_structural   Y3HoZr2MoO12
_chemical_formula_sum   'Y3 Ho1 Zr2 Mo1 O12'
_cell_volume   255.60650897
_cell_formula_units_Z   1
loop_
 _symmetry_equiv_pos_site_id
 _symmetry_equiv_pos_as_xyz
  1  'x, y, z'
loop_
 _atom_site_type_symbol
 _atom_site_label
 _atom_site_symmetry_multiplicity
 _atom_site_fract_x
 _atom_site_fract_y
 _atom_site_fract_z
 _atom_site_occupancy
  Y  Y0  1  0.386237  0.700403  0.865892  1
  Y  Y1  1  0.701283  0.866424  0.391576  1
  Y  Y2  1  0.613257  0.298647  0.133869  1
  Ho  Ho3  1  0.299009  0.133881  0.608806  1
  Zr  Zr4  1  0.847222  0.396572  0.671278  1
  Zr  Zr5  1  0.152891  0.603553  0.329412  1
  Mo  Mo6  1  0.000465  0.000478  0.999914  1
  O  O7  1  0.019440  0.683955  0.888004  1
  O  O8  1  0.691046  0.933215  0.057221  1
  O  O9  1  0.925775  0.089436  0.695338  1
  O  O10  1  0.980231  0.316128  0.111730  1
  O  O11  1  0.308993  0.066819  0.940908  1
  O  O12  1  0.076668  0.912273  0.305286  1
  O  O13  1  0.586980  0.187495  0.434322  1
  O  O14  1  0.173759  0.431912  0.576673  1
  O  O15  1  0.416466  0.584839  0.178117  1
  O  O16  1  0.410679  0.813539  0.566757  1
  O  O17  1  0.827098  0.566698  0.423277  1
  O  O18  1  0.582503  0.413733  0.821621  1
