# generated using pymatgen
data_La8Pr12Si15Ag
_symmetry_space_group_name_H-M   'P 1'
_cell_length_a   7.99858365
_cell_length_b   7.98835441
_cell_length_c   15.43294600
_cell_angle_alpha   89.99897434
_cell_angle_beta   89.71543193
_cell_angle_gamma   89.95549063
_symmetry_Int_Tables_number   1
_chemical_formula_structural   La8Pr12Si15Ag
_chemical_formula_sum   'La8 Pr12 Si15 Ag1'
_cell_volume   986.08366540
_cell_formula_units_Z   1
loop_
 _symmetry_equiv_pos_site_id
 _symmetry_equiv_pos_as_xyz
  1  'x, y, z'
loop_
 _atom_site_type_symbol
 _atom_site_label
 _atom_site_symmetry_multiplicity
 _atom_site_fract_x
 _atom_site_fract_y
 _atom_site_fract_z
 _atom_site_occupancy
  La  La0  1  0.373319  0.012079  0.447937  1
  La  La1  1  0.490830  0.869761  0.699509  1
  La  La2  1  0.510673  0.123877  0.198000  1
  La  La3  1  0.876633  0.488032  0.300123  1
  La  La4  1  0.121896  0.517985  0.802403  1
  La  La5  1  0.626763  0.987419  0.950105  1
  La  La6  1  0.002313  0.380843  0.548244  1
  La  La7  1  0.988825  0.626475  0.051603  1
  Pr  Pr8  1  0.307735  0.307781  0.999631  1
  Pr  Pr9  1  0.191050  0.809000  0.249850  1
  Pr  Pr10  1  0.800768  0.184879  0.752489  1
  Pr  Pr11  1  0.692802  0.688486  0.498794  1
  Pr  Pr12  1  0.132062  0.984050  0.878735  1
  Pr  Pr13  1  0.517185  0.629792  0.126386  1
  Pr  Pr14  1  0.485743  0.372916  0.626658  1
  Pr  Pr15  1  0.629145  0.519583  0.875131  1
  Pr  Pr16  1  0.372465  0.483047  0.372459  1
  Pr  Pr17  1  0.871819  0.019080  0.375622  1
  Pr  Pr18  1  0.982595  0.127640  0.124219  1
  Pr  Pr19  1  0.012795  0.865282  0.621732  1
  Si  Si20  1  0.332884  0.696010  0.952402  1
  Si  Si21  1  0.663323  0.302256  0.451918  1
  Si  Si22  1  0.699020  0.334892  0.048839  1
  Si  Si23  1  0.304271  0.667964  0.546483  1
  Si  Si24  1  0.804337  0.832306  0.202939  1
  Si  Si25  1  0.167813  0.197299  0.297559  1
  Si  Si26  1  0.835428  0.803590  0.797688  1
  Si  Si27  1  0.287520  0.921201  0.060422  1
  Si  Si28  1  0.579890  0.786834  0.309812  1
  Si  Si29  1  0.432615  0.212706  0.815314  1
  Si  Si30  1  0.787385  0.578558  0.690669  1
  Si  Si31  1  0.212790  0.421744  0.190056  1
  Si  Si32  1  0.708296  0.077530  0.559050  1
  Si  Si33  1  0.922340  0.289353  0.940869  1
  Si  Si34  1  0.079527  0.713719  0.439571  1
  Ag  Ag35  1  0.195148  0.166032  0.696784  1
