# generated using pymatgen
data_La5Tc2
_symmetry_space_group_name_H-M   'P 1'
_cell_length_a   9.10061373
_cell_length_b   9.10061333
_cell_length_c   7.42484829
_cell_angle_alpha   84.64152489
_cell_angle_beta   84.64152201
_cell_angle_gamma   43.18914512
_symmetry_Int_Tables_number   1
_chemical_formula_structural   La5Tc2
_chemical_formula_sum   'La10 Tc4'
_cell_volume   418.73865054
_cell_formula_units_Z   2
loop_
 _symmetry_equiv_pos_site_id
 _symmetry_equiv_pos_as_xyz
  1  'x, y, z'
loop_
 _atom_site_type_symbol
 _atom_site_label
 _atom_site_symmetry_multiplicity
 _atom_site_fract_x
 _atom_site_fract_y
 _atom_site_fract_z
 _atom_site_occupancy
  La  La0  1  0.021801  0.791353  0.904822  1
  La  La1  1  0.208647  0.978199  0.595178  1
  La  La2  1  0.978199  0.208647  0.095178  1
  La  La3  1  0.791353  0.021801  0.404822  1
  La  La4  1  0.357115  0.214649  0.817555  1
  La  La5  1  0.785351  0.642885  0.682445  1
  La  La6  1  0.642885  0.785351  0.182445  1
  La  La7  1  0.214649  0.357115  0.317555  1
  La  La8  1  0.578752  0.421248  0.750000  1
  La  La9  1  0.421248  0.578752  0.250000  1
  Tc  Tc10  1  0.168177  0.611359  0.577278  1
  Tc  Tc11  1  0.388641  0.831823  0.922722  1
  Tc  Tc12  1  0.831823  0.388641  0.422722  1
  Tc  Tc13  1  0.611359  0.168177  0.077278  1
