# generated using pymatgen
data_HoTm5TcSb2
_symmetry_space_group_name_H-M   'P 1'
_cell_length_a   8.07906801
_cell_length_b   8.08422828
_cell_length_c   4.23528000
_cell_angle_alpha   90.00000000
_cell_angle_beta   90.00000000
_cell_angle_gamma   120.02112568
_symmetry_Int_Tables_number   1
_chemical_formula_structural   HoTm5TcSb2
_chemical_formula_sum   'Ho1 Tm5 Tc1 Sb2'
_cell_volume   239.50804266
_cell_formula_units_Z   1
loop_
 _symmetry_equiv_pos_site_id
 _symmetry_equiv_pos_as_xyz
  1  'x, y, z'
loop_
 _atom_site_type_symbol
 _atom_site_label
 _atom_site_symmetry_multiplicity
 _atom_site_fract_x
 _atom_site_fract_y
 _atom_site_fract_z
 _atom_site_occupancy
  Ho  Ho0  1  0.000000  0.604804  0.500000  1
  Tm  Tm1  1  0.235631  0.000360  0.000000  1
  Tm  Tm2  1  0.764369  0.764729  0.000000  1
  Tm  Tm3  1  0.000000  0.235824  0.000000  1
  Tm  Tm4  1  0.394093  0.393867  0.500000  1
  Tm  Tm5  1  0.605907  0.999774  0.500000  1
  Tc  Tc6  1  0.000000  0.001399  0.500000  1
  Sb  Sb7  1  0.334204  0.666725  0.000000  1
  Sb  Sb8  1  0.665796  0.332519  0.000000  1
