# generated using pymatgen
data_Sm5Co16(P4W)3
_symmetry_space_group_name_H-M   'P 1'
_cell_length_a   12.17788300
_cell_length_b   12.17788221
_cell_length_c   3.74998100
_cell_angle_alpha   90.00000000
_cell_angle_beta   90.00000000
_cell_angle_gamma   119.99999399
_symmetry_Int_Tables_number   1
_chemical_formula_structural   Sm5Co16(P4W)3
_chemical_formula_sum   'Sm5 Co16 P12 W3'
_cell_volume   481.61864520
_cell_formula_units_Z   1
loop_
 _symmetry_equiv_pos_site_id
 _symmetry_equiv_pos_as_xyz
  1  'x, y, z'
loop_
 _atom_site_type_symbol
 _atom_site_label
 _atom_site_symmetry_multiplicity
 _atom_site_fract_x
 _atom_site_fract_y
 _atom_site_fract_z
 _atom_site_occupancy
  Sm  Sm0  1  0.666667  0.333333  0.000000  1
  Sm  Sm1  1  0.333333  0.666667  0.000000  1
  Sm  Sm2  1  0.185693  0.185693  0.500000  1
  Sm  Sm3  1  0.814307  0.000000  0.500000  1
  Sm  Sm4  1  0.000000  0.814307  0.500000  1
  Co  Co5  1  0.823609  0.199870  0.000000  1
  Co  Co6  1  0.800130  0.623738  0.000000  1
  Co  Co7  1  0.376262  0.176391  0.000000  1
  Co  Co8  1  0.199870  0.823609  0.000000  1
  Co  Co9  1  0.623738  0.800130  0.000000  1
  Co  Co10  1  0.176391  0.376262  0.000000  1
  Co  Co11  1  0.643227  0.125794  0.500000  1
  Co  Co12  1  0.874206  0.517433  0.500000  1
  Co  Co13  1  0.482567  0.356773  0.500000  1
  Co  Co14  1  0.125794  0.643227  0.500000  1
  Co  Co15  1  0.517433  0.874206  0.500000  1
  Co  Co16  1  0.356773  0.482567  0.500000  1
  Co  Co17  1  0.718043  0.718043  0.500000  1
  Co  Co18  1  0.281957  0.000000  0.500000  1
  Co  Co19  1  0.000000  0.281957  0.500000  1
  Co  Co20  1  0.000000  0.000000  0.000000  1
  P  P21  1  0.362347  0.362347  0.000000  1
  P  P22  1  0.637653  0.000000  0.000000  1
  P  P23  1  0.000000  0.637653  0.000000  1
  P  P24  1  0.835425  0.313354  0.500000  1
  P  P25  1  0.686646  0.522070  0.500000  1
  P  P26  1  0.477930  0.164575  0.500000  1
  P  P27  1  0.313354  0.835425  0.500000  1
  P  P28  1  0.522070  0.686646  0.500000  1
  P  P29  1  0.164575  0.477930  0.500000  1
  P  P30  1  0.820304  0.820304  0.000000  1
  P  P31  1  0.179696  0.000000  0.000000  1
  P  P32  1  0.000000  0.179696  0.000000  1
  W  W33  1  0.554597  0.554597  0.000000  1
  W  W34  1  0.445403  0.000000  0.000000  1
  W  W35  1  0.000000  0.445403  0.000000  1
