# generated using pymatgen
data_Nb4VTe8
_symmetry_space_group_name_H-M   'P 1'
_cell_length_a   7.46704700
_cell_length_b   7.46704741
_cell_length_c   13.80842900
_cell_angle_alpha   90.00000000
_cell_angle_beta   90.00000000
_cell_angle_gamma   120.00001148
_symmetry_Int_Tables_number   1
_chemical_formula_structural   Nb4VTe8
_chemical_formula_sum   'Nb8 V2 Te16'
_cell_volume   666.76477234
_cell_formula_units_Z   2
loop_
 _symmetry_equiv_pos_site_id
 _symmetry_equiv_pos_as_xyz
  1  'x, y, z'
loop_
 _atom_site_type_symbol
 _atom_site_label
 _atom_site_symmetry_multiplicity
 _atom_site_fract_x
 _atom_site_fract_y
 _atom_site_fract_z
 _atom_site_occupancy
  Nb  Nb0  1  0.000000  0.000000  0.250000  1
  Nb  Nb1  1  0.000000  0.000000  0.750000  1
  Nb  Nb2  1  0.508720  0.017441  0.250000  1
  Nb  Nb3  1  0.491280  0.982559  0.750000  1
  Nb  Nb4  1  0.982559  0.491280  0.250000  1
  Nb  Nb5  1  0.017441  0.508720  0.750000  1
  Nb  Nb6  1  0.508720  0.491280  0.250000  1
  Nb  Nb7  1  0.491280  0.508720  0.750000  1
  V  V8  1  0.000000  0.000000  0.000000  1
  V  V9  1  0.000000  0.000000  0.500000  1
  Te  Te10  1  0.333333  0.666667  0.612755  1
  Te  Te11  1  0.666667  0.333333  0.387245  1
  Te  Te12  1  0.666667  0.333333  0.112755  1
  Te  Te13  1  0.333333  0.666667  0.887245  1
  Te  Te14  1  0.167821  0.335643  0.120806  1
  Te  Te15  1  0.832179  0.664357  0.879194  1
  Te  Te16  1  0.664357  0.832179  0.120806  1
  Te  Te17  1  0.832179  0.664357  0.620806  1
  Te  Te18  1  0.335643  0.167821  0.879194  1
  Te  Te19  1  0.167821  0.335643  0.379194  1
  Te  Te20  1  0.167821  0.832179  0.120806  1
  Te  Te21  1  0.335643  0.167821  0.620806  1
  Te  Te22  1  0.832179  0.167821  0.879194  1
  Te  Te23  1  0.664357  0.832179  0.379194  1
  Te  Te24  1  0.832179  0.167821  0.620806  1
  Te  Te25  1  0.167821  0.832179  0.379194  1
