# generated using pymatgen
data_Zr8Cd4Pd5Pt3
_symmetry_space_group_name_H-M   'P 1'
_cell_length_a   7.63021071
_cell_length_b   7.62695534
_cell_length_c   6.74909346
_cell_angle_alpha   90.16196933
_cell_angle_beta   89.93459281
_cell_angle_gamma   90.03794153
_symmetry_Int_Tables_number   1
_chemical_formula_structural   Zr8Cd4Pd5Pt3
_chemical_formula_sum   'Zr8 Cd4 Pd5 Pt3'
_cell_volume   392.76344808
_cell_formula_units_Z   1
loop_
 _symmetry_equiv_pos_site_id
 _symmetry_equiv_pos_as_xyz
  1  'x, y, z'
loop_
 _atom_site_type_symbol
 _atom_site_label
 _atom_site_symmetry_multiplicity
 _atom_site_fract_x
 _atom_site_fract_y
 _atom_site_fract_z
 _atom_site_occupancy
  Zr  Zr0  1  0.656461  0.656588  0.502310  1
  Zr  Zr1  1  0.813950  0.183781  0.499884  1
  Zr  Zr2  1  0.684614  0.684672  0.999017  1
  Zr  Zr3  1  0.842046  0.153282  0.001760  1
  Zr  Zr4  1  0.183769  0.813896  0.502020  1
  Zr  Zr5  1  0.317568  0.317572  0.000079  1
  Zr  Zr6  1  0.153233  0.842031  0.995235  1
  Zr  Zr7  1  0.346750  0.346794  0.499150  1
  Cd  Cd8  1  0.001680  0.500141  0.250015  1
  Cd  Cd9  1  0.498074  0.002635  0.749446  1
  Cd  Cd10  1  0.498303  0.997665  0.249984  1
  Cd  Cd11  1  0.998580  0.496124  0.749200  1
  Pd  Pd12  1  0.631492  0.369324  0.783109  1
  Pd  Pd13  1  0.368970  0.631530  0.216753  1
  Pd  Pd14  1  0.128694  0.128783  0.278838  1
  Pd  Pd15  1  0.871229  0.871413  0.281573  1
  Pd  Pd16  1  0.131181  0.130821  0.718485  1
  Pt  Pt17  1  0.627293  0.373002  0.224606  1
  Pt  Pt18  1  0.373145  0.627058  0.775498  1
  Pt  Pt19  1  0.872968  0.872889  0.723035  1
