# generated using pymatgen
data_Hf4Zr6ZnGaSn6
_symmetry_space_group_name_H-M   'P 1'
_cell_length_a   8.70337800
_cell_length_b   8.70337811
_cell_length_c   5.87043000
_cell_angle_alpha   90.00000000
_cell_angle_beta   90.00000000
_cell_angle_gamma   120.00000717
_symmetry_Int_Tables_number   1
_chemical_formula_structural   Hf4Zr6ZnGaSn6
_chemical_formula_sum   'Hf4 Zr6 Zn1 Ga1 Sn6'
_cell_volume   385.10238801
_cell_formula_units_Z   1
loop_
 _symmetry_equiv_pos_site_id
 _symmetry_equiv_pos_as_xyz
  1  'x, y, z'
loop_
 _atom_site_type_symbol
 _atom_site_label
 _atom_site_symmetry_multiplicity
 _atom_site_fract_x
 _atom_site_fract_y
 _atom_site_fract_z
 _atom_site_occupancy
  Hf  Hf0  1  0.666667  0.333333  0.000000  1
  Hf  Hf1  1  0.333333  0.666667  0.000000  1
  Hf  Hf2  1  0.333333  0.666667  0.500000  1
  Hf  Hf3  1  0.666667  0.333333  0.500000  1
  Zr  Zr4  1  0.732545  0.732545  0.749050  1
  Zr  Zr5  1  0.267455  0.000000  0.749050  1
  Zr  Zr6  1  0.000000  0.267455  0.749050  1
  Zr  Zr7  1  0.267455  0.267455  0.250950  1
  Zr  Zr8  1  0.732545  0.000000  0.250950  1
  Zr  Zr9  1  0.000000  0.732545  0.250950  1
  Zn  Zn10  1  0.000000  0.000000  0.000000  1
  Ga  Ga11  1  0.000000  0.000000  0.500000  1
  Sn  Sn12  1  0.387111  0.387111  0.749663  1
  Sn  Sn13  1  0.612889  0.000000  0.749663  1
  Sn  Sn14  1  0.000000  0.612889  0.749663  1
  Sn  Sn15  1  0.612889  0.612889  0.250337  1
  Sn  Sn16  1  0.387111  0.000000  0.250337  1
  Sn  Sn17  1  0.000000  0.387111  0.250337  1
