# generated using pymatgen
data_Lu20(Bi3Sb)3
_symmetry_space_group_name_H-M   'P 1'
_cell_length_a   8.06242224
_cell_length_b   9.34548300
_cell_length_c   11.73147735
_cell_angle_alpha   90.00000000
_cell_angle_beta   89.97216133
_cell_angle_gamma   90.00000000
_symmetry_Int_Tables_number   1
_chemical_formula_structural   Lu20(Bi3Sb)3
_chemical_formula_sum   'Lu20 Bi9 Sb3'
_cell_volume   883.93421707
_cell_formula_units_Z   1
loop_
 _symmetry_equiv_pos_site_id
 _symmetry_equiv_pos_as_xyz
  1  'x, y, z'
loop_
 _atom_site_type_symbol
 _atom_site_label
 _atom_site_symmetry_multiplicity
 _atom_site_fract_x
 _atom_site_fract_y
 _atom_site_fract_z
 _atom_site_occupancy
  Lu  Lu0  1  0.027143  0.250000  0.510570  1
  Lu  Lu1  1  0.972574  0.750000  0.489263  1
  Lu  Lu2  1  0.471768  0.750000  0.011119  1
  Lu  Lu3  1  0.523939  0.250000  0.989447  1
  Lu  Lu4  1  0.354658  0.250000  0.284882  1
  Lu  Lu5  1  0.645324  0.750000  0.715018  1
  Lu  Lu6  1  0.145179  0.750000  0.784648  1
  Lu  Lu7  1  0.853763  0.250000  0.218363  1
  Lu  Lu8  1  0.190041  0.250000  0.780444  1
  Lu  Lu9  1  0.814110  0.750000  0.216841  1
  Lu  Lu10  1  0.314411  0.750000  0.283138  1
  Lu  Lu11  1  0.684016  0.250000  0.715029  1
  Lu  Lu12  1  0.192561  0.063043  0.059606  1
  Lu  Lu13  1  0.808882  0.931318  0.941503  1
  Lu  Lu14  1  0.309989  0.934700  0.558327  1
  Lu  Lu15  1  0.808882  0.568682  0.941503  1
  Lu  Lu16  1  0.689850  0.065103  0.441938  1
  Lu  Lu17  1  0.192561  0.436957  0.059606  1
  Lu  Lu18  1  0.689850  0.434897  0.441938  1
  Lu  Lu19  1  0.309989  0.565300  0.558327  1
  Bi  Bi20  1  0.905602  0.250000  0.956649  1
  Bi  Bi21  1  0.066469  0.003045  0.325161  1
  Bi  Bi22  1  0.933548  0.996829  0.674985  1
  Bi  Bi23  1  0.433908  0.996270  0.825011  1
  Bi  Bi24  1  0.933548  0.503171  0.674985  1
  Bi  Bi25  1  0.566731  0.003406  0.175061  1
  Bi  Bi26  1  0.066469  0.496955  0.325161  1
  Bi  Bi27  1  0.566731  0.496594  0.175061  1
  Bi  Bi28  1  0.433908  0.503730  0.825011  1
  Sb  Sb29  1  0.404678  0.250000  0.541522  1
  Sb  Sb30  1  0.594667  0.750000  0.457824  1
  Sb  Sb31  1  0.094251  0.750000  0.042058  1
