# generated using pymatgen
data_LiTm(BeB14)2
_symmetry_space_group_name_H-M   'P 1'
_cell_length_a   7.15684988
_cell_length_b   7.15685162
_cell_length_c   7.15685146
_cell_angle_alpha   132.65550270
_cell_angle_beta   110.55836946
_cell_angle_gamma   88.35251130
_symmetry_Int_Tables_number   1
_chemical_formula_structural   LiTm(BeB14)2
_chemical_formula_sum   'Li1 Tm1 Be2 B28'
_cell_volume   240.49681327
_cell_formula_units_Z   1
loop_
 _symmetry_equiv_pos_site_id
 _symmetry_equiv_pos_as_xyz
  1  'x, y, z'
loop_
 _atom_site_type_symbol
 _atom_site_label
 _atom_site_symmetry_multiplicity
 _atom_site_fract_x
 _atom_site_fract_y
 _atom_site_fract_z
 _atom_site_occupancy
  Li  Li0  1  0.126005  0.750000  0.376005  1
  Tm  Tm1  1  0.892914  0.250000  0.642914  1
  Be  Be2  1  0.493504  0.505370  0.498875  1
  Be  Be3  1  0.493504  0.994630  0.988134  1
  B  B4  1  0.722974  0.721448  0.323037  1
  B  B5  1  0.710650  0.343415  0.367237  1
  B  B6  1  0.872352  0.666364  0.700721  1
  B  B7  1  0.127398  0.827301  0.791610  1
  B  B8  1  0.534357  0.833636  0.205989  1
  B  B9  1  0.464309  0.672699  0.300096  1
  B  B10  1  0.127398  0.335787  0.300096  1
  B  B11  1  0.872352  0.171632  0.205989  1
  B  B12  1  0.464309  0.164213  0.791610  1
  B  B13  1  0.534357  0.328368  0.700721  1
  B  B14  1  0.101589  0.778552  0.001526  1
  B  B15  1  0.898532  0.898441  0.677800  1
  B  B16  1  0.898532  0.220733  0.000092  1
  B  B17  1  0.279359  0.601559  0.000092  1
  B  B18  1  0.101589  0.100063  0.323037  1
  B  B19  1  0.523821  0.156585  0.367237  1
  B  B20  1  0.279359  0.279267  0.677800  1
  B  B21  1  0.722974  0.399937  0.001526  1
  B  B22  1  0.738842  0.909166  0.829675  1
  B  B23  1  0.258720  0.089068  0.169653  1
  B  B24  1  0.420509  0.590834  0.829675  1
  B  B25  1  0.580585  0.410932  0.169653  1
  B  B26  1  0.865072  0.833553  0.031519  1
  B  B27  1  0.134793  0.165688  0.969105  1
  B  B28  1  0.697966  0.666447  0.031519  1
  B  B29  1  0.303417  0.334312  0.969105  1
  B  B30  1  0.472525  0.843548  0.628976  1
  B  B31  1  0.285429  0.656452  0.628976  1
