# generated using pymatgen
data_NaYEr2(Ga2Ag)4
_symmetry_space_group_name_H-M   'P 1'
_cell_length_a   4.32785200
_cell_length_b   6.96126334
_cell_length_c   10.35436074
_cell_angle_alpha   90.18220222
_cell_angle_beta   90.00000000
_cell_angle_gamma   90.00000000
_symmetry_Int_Tables_number   1
_chemical_formula_structural   NaYEr2(Ga2Ag)4
_chemical_formula_sum   'Na1 Y1 Er2 Ga8 Ag4'
_cell_volume   311.94753571
_cell_formula_units_Z   1
loop_
 _symmetry_equiv_pos_site_id
 _symmetry_equiv_pos_as_xyz
  1  'x, y, z'
loop_
 _atom_site_type_symbol
 _atom_site_label
 _atom_site_symmetry_multiplicity
 _atom_site_fract_x
 _atom_site_fract_y
 _atom_site_fract_z
 _atom_site_occupancy
  Na  Na0  1  0.250000  0.271623  0.674004  1
  Y  Y1  1  0.250000  0.779230  0.825003  1
  Er  Er2  1  0.750000  0.224089  0.173332  1
  Er  Er3  1  0.750000  0.719359  0.328258  1
  Ga  Ga4  1  0.250000  0.701883  0.533145  1
  Ga  Ga5  1  0.750000  0.301790  0.467133  1
  Ga  Ga6  1  0.750000  0.792895  0.037208  1
  Ga  Ga7  1  0.250000  0.203825  0.964706  1
  Ga  Ga8  1  0.250000  0.927164  0.153273  1
  Ga  Ga9  1  0.750000  0.073901  0.848801  1
  Ga  Ga10  1  0.750000  0.570266  0.651530  1
  Ga  Ga11  1  0.250000  0.427477  0.343332  1
  Ag  Ag12  1  0.250000  0.543544  0.099756  1
  Ag  Ag13  1  0.750000  0.456327  0.903217  1
  Ag  Ag14  1  0.750000  0.961591  0.597059  1
  Ag  Ag15  1  0.250000  0.045036  0.400242  1
