# generated using pymatgen
data_Ho2Tm8Si5Pb
_symmetry_space_group_name_H-M   'P 1'
_cell_length_a   8.45412888
_cell_length_b   8.45412816
_cell_length_c   6.30347700
_cell_angle_alpha   90.00000000
_cell_angle_beta   90.00000000
_cell_angle_gamma   120.25098111
_symmetry_Int_Tables_number   1
_chemical_formula_structural   Ho2Tm8Si5Pb
_chemical_formula_sum   'Ho2 Tm8 Si5 Pb1'
_cell_volume   389.17468013
_cell_formula_units_Z   1
loop_
 _symmetry_equiv_pos_site_id
 _symmetry_equiv_pos_as_xyz
  1  'x, y, z'
loop_
 _atom_site_type_symbol
 _atom_site_label
 _atom_site_symmetry_multiplicity
 _atom_site_fract_x
 _atom_site_fract_y
 _atom_site_fract_z
 _atom_site_occupancy
  Ho  Ho0  1  0.767581  0.767581  0.250000  1
  Ho  Ho1  1  0.239498  0.239498  0.750000  1
  Tm  Tm2  1  0.675191  0.331302  0.503873  1
  Tm  Tm3  1  0.331302  0.675191  0.503873  1
  Tm  Tm4  1  0.331302  0.675191  0.996127  1
  Tm  Tm5  1  0.675191  0.331302  0.996127  1
  Tm  Tm6  1  0.239651  0.987233  0.250000  1
  Tm  Tm7  1  0.987233  0.239651  0.250000  1
  Tm  Tm8  1  0.756370  0.998588  0.750000  1
  Tm  Tm9  1  0.998588  0.756370  0.750000  1
  Si  Si10  1  0.603735  0.998601  0.250000  1
  Si  Si11  1  0.998601  0.603735  0.250000  1
  Si  Si12  1  0.606206  0.606206  0.750000  1
  Si  Si13  1  0.393954  0.001357  0.750000  1
  Si  Si14  1  0.001357  0.393954  0.750000  1
  Pb  Pb15  1  0.394242  0.394242  0.250000  1
