# generated using pymatgen
data_Er9Tm3(CoNi)2
_symmetry_space_group_name_H-M   'P 1'
_cell_length_a   6.21505151
_cell_length_b   6.81631108
_cell_length_c   9.34866895
_cell_angle_alpha   90.01325732
_cell_angle_beta   90.04997885
_cell_angle_gamma   89.93786052
_symmetry_Int_Tables_number   1
_chemical_formula_structural   Er9Tm3(CoNi)2
_chemical_formula_sum   'Er9 Tm3 Co2 Ni2'
_cell_volume   396.04404137
_cell_formula_units_Z   1
loop_
 _symmetry_equiv_pos_site_id
 _symmetry_equiv_pos_as_xyz
  1  'x, y, z'
loop_
 _atom_site_type_symbol
 _atom_site_label
 _atom_site_symmetry_multiplicity
 _atom_site_fract_x
 _atom_site_fract_y
 _atom_site_fract_z
 _atom_site_occupancy
  Er  Er0  1  0.634240  0.040845  0.250327  1
  Er  Er1  1  0.365535  0.959329  0.749739  1
  Er  Er2  1  0.140849  0.464135  0.749594  1
  Er  Er3  1  0.859440  0.535696  0.250351  1
  Er  Er4  1  0.179016  0.181837  0.066944  1
  Er  Er5  1  0.821049  0.818236  0.933321  1
  Er  Er6  1  0.675837  0.322236  0.934440  1
  Er  Er7  1  0.820755  0.818195  0.566545  1
  Er  Er8  1  0.324226  0.677747  0.065530  1
  Tm  Tm9  1  0.179173  0.181759  0.433154  1
  Tm  Tm10  1  0.324150  0.677684  0.434483  1
  Tm  Tm11  1  0.675789  0.322194  0.565338  1
  Co  Co12  1  0.452267  0.391173  0.250405  1
  Co  Co13  1  0.547522  0.608640  0.749731  1
  Ni  Ni14  1  0.951350  0.108773  0.749727  1
  Ni  Ni15  1  0.048802  0.891520  0.250371  1
