# generated using pymatgen
data_Y4HoP12Pd3Ru16
_symmetry_space_group_name_H-M   'P 1'
_cell_length_a   12.60084500
_cell_length_b   12.60084485
_cell_length_c   3.97190600
_cell_angle_alpha   90.00000000
_cell_angle_beta   90.00000000
_cell_angle_gamma   119.99999776
_symmetry_Int_Tables_number   1
_chemical_formula_structural   Y4HoP12Pd3Ru16
_chemical_formula_sum   'Y4 Ho1 P12 Pd3 Ru16'
_cell_volume   546.17137793
_cell_formula_units_Z   1
loop_
 _symmetry_equiv_pos_site_id
 _symmetry_equiv_pos_as_xyz
  1  'x, y, z'
loop_
 _atom_site_type_symbol
 _atom_site_label
 _atom_site_symmetry_multiplicity
 _atom_site_fract_x
 _atom_site_fract_y
 _atom_site_fract_z
 _atom_site_occupancy
  Y  Y0  1  0.999998  0.181340  0.500000  1
  Y  Y1  1  0.818660  0.818658  0.500000  1
  Y  Y2  1  0.181342  0.000002  0.500000  1
  Y  Y3  1  0.666667  0.333333  0.000000  1
  Ho  Ho4  1  0.333333  0.666667  0.000000  1
  P  P5  1  0.000018  0.814487  0.000000  1
  P  P6  1  0.185513  0.185531  0.000000  1
  P  P7  1  0.814469  0.999982  0.000000  1
  P  P8  1  0.698834  0.178649  0.500000  1
  P  P9  1  0.821351  0.520184  0.500000  1
  P  P10  1  0.479816  0.301166  0.500000  1
  P  P11  1  0.178916  0.698742  0.500000  1
  P  P12  1  0.519825  0.821084  0.500000  1
  P  P13  1  0.301258  0.480175  0.500000  1
  P  P14  1  0.999972  0.366653  0.000000  1
  P  P15  1  0.633347  0.633320  0.000000  1
  P  P16  1  0.366680  0.000028  0.000000  1
  Pd  Pd17  1  0.000019  0.553493  0.000000  1
  Pd  Pd18  1  0.446507  0.446526  0.000000  1
  Pd  Pd19  1  0.553474  0.999981  0.000000  1
  Ru  Ru20  1  0.000064  0.713079  0.500000  1
  Ru  Ru21  1  0.286921  0.286985  0.500000  1
  Ru  Ru22  1  0.713015  0.999936  0.500000  1
  Ru  Ru23  1  0.807167  0.185649  0.000000  1
  Ru  Ru24  1  0.814351  0.621519  0.000000  1
  Ru  Ru25  1  0.378481  0.192833  0.000000  1
  Ru  Ru26  1  0.185789  0.807059  0.000000  1
  Ru  Ru27  1  0.621270  0.814211  0.000000  1
  Ru  Ru28  1  0.192941  0.378730  0.000000  1
  Ru  Ru29  1  0.875935  0.368595  0.500000  1
  Ru  Ru30  1  0.631405  0.507340  0.500000  1
  Ru  Ru31  1  0.492660  0.124065  0.500000  1
  Ru  Ru32  1  0.368561  0.875548  0.500000  1
  Ru  Ru33  1  0.506988  0.631439  0.500000  1
  Ru  Ru34  1  0.124452  0.493012  0.500000  1
  Ru  Ru35  1  0.000000  0.000000  0.000000  1
