# generated using pymatgen
data_LaTh2P3
_symmetry_space_group_name_H-M   'P 1'
_cell_length_a   4.18722700
_cell_length_b   4.18722679
_cell_length_c   10.24156400
_cell_angle_alpha   90.00000000
_cell_angle_beta   90.00000000
_cell_angle_gamma   119.99999376
_symmetry_Int_Tables_number   1
_chemical_formula_structural   LaTh2P3
_chemical_formula_sum   'La1 Th2 P3'
_cell_volume   155.50699600
_cell_formula_units_Z   1
loop_
 _symmetry_equiv_pos_site_id
 _symmetry_equiv_pos_as_xyz
  1  'x, y, z'
loop_
 _atom_site_type_symbol
 _atom_site_label
 _atom_site_symmetry_multiplicity
 _atom_site_fract_x
 _atom_site_fract_y
 _atom_site_fract_z
 _atom_site_occupancy
  La  La0  1  0.000000  0.000000  0.000000  1
  Th  Th1  1  0.333333  0.666667  0.662411  1
  Th  Th2  1  0.666667  0.333333  0.337589  1
  P  P3  1  0.333333  0.666667  0.174695  1
  P  P4  1  0.666667  0.333333  0.825305  1
  P  P5  1  0.000000  0.000000  0.500000  1
