# generated using pymatgen
data_Ba8Ta3NbO18
_symmetry_space_group_name_H-M   'P 1'
_cell_length_a   6.16426600
_cell_length_b   6.16426604
_cell_length_c   16.74976500
_cell_angle_alpha   90.00000000
_cell_angle_beta   90.00000000
_cell_angle_gamma   119.99999048
_symmetry_Int_Tables_number   1
_chemical_formula_structural   Ba8Ta3NbO18
_chemical_formula_sum   'Ba8 Ta3 Nb1 O18'
_cell_volume   551.19102420
_cell_formula_units_Z   1
loop_
 _symmetry_equiv_pos_site_id
 _symmetry_equiv_pos_as_xyz
  1  'x, y, z'
loop_
 _atom_site_type_symbol
 _atom_site_label
 _atom_site_symmetry_multiplicity
 _atom_site_fract_x
 _atom_site_fract_y
 _atom_site_fract_z
 _atom_site_occupancy
  Ba  Ba0  1  0.000000  0.000000  0.750925  1
  Ba  Ba1  1  0.000000  0.000000  0.247480  1
  Ba  Ba2  1  0.666667  0.333333  0.635454  1
  Ba  Ba3  1  0.333333  0.666667  0.133363  1
  Ba  Ba4  1  0.333333  0.666667  0.362498  1
  Ba  Ba5  1  0.666667  0.333333  0.865983  1
  Ba  Ba6  1  0.000000  0.000000  0.501027  1
  Ba  Ba7  1  0.000000  0.000000  0.000394  1
  Ta  Ta8  1  0.333333  0.666667  0.840247  1
  Ta  Ta9  1  0.333333  0.666667  0.659766  1
  Ta  Ta10  1  0.666667  0.333333  0.160683  1
  Nb  Nb11  1  0.666667  0.333333  0.342146  1
  O  O12  1  0.527129  0.953820  0.750056  1
  O  O13  1  0.046180  0.573309  0.750056  1
  O  O14  1  0.426691  0.472871  0.750056  1
  O  O15  1  0.471859  0.044010  0.249336  1
  O  O16  1  0.955990  0.427849  0.249336  1
  O  O17  1  0.572151  0.528141  0.249336  1
  O  O18  1  0.108187  0.357454  0.608426  1
  O  O19  1  0.642546  0.750733  0.608426  1
  O  O20  1  0.249267  0.891813  0.608426  1
  O  O21  1  0.890169  0.642851  0.108469  1
  O  O22  1  0.357149  0.247318  0.108469  1
  O  O23  1  0.752682  0.109831  0.108469  1
  O  O24  1  0.893088  0.644427  0.392191  1
  O  O25  1  0.355573  0.248661  0.392191  1
  O  O26  1  0.751339  0.106912  0.392191  1
  O  O27  1  0.108931  0.357066  0.891533  1
  O  O28  1  0.642934  0.751865  0.891533  1
  O  O29  1  0.248135  0.891069  0.891533  1
