# generated using pymatgen
data_Zr2Ni4As3
_symmetry_space_group_name_H-M   'P 1'
_cell_length_a   12.68569000
_cell_length_b   12.68568967
_cell_length_c   3.82024000
_cell_angle_alpha   90.00000000
_cell_angle_beta   90.00000000
_cell_angle_gamma   119.99999565
_symmetry_Int_Tables_number   1
_chemical_formula_structural   Zr2Ni4As3
_chemical_formula_sum   'Zr8 Ni16 As12'
_cell_volume   532.41401081
_cell_formula_units_Z   4
loop_
 _symmetry_equiv_pos_site_id
 _symmetry_equiv_pos_as_xyz
  1  'x, y, z'
loop_
 _atom_site_type_symbol
 _atom_site_label
 _atom_site_symmetry_multiplicity
 _atom_site_fract_x
 _atom_site_fract_y
 _atom_site_fract_z
 _atom_site_occupancy
  Zr  Zr0  1  0.000000  0.174655  0.500000  1
  Zr  Zr1  1  0.825345  0.825345  0.500000  1
  Zr  Zr2  1  0.174655  0.000000  0.500000  1
  Zr  Zr3  1  0.666667  0.333333  0.000000  1
  Zr  Zr4  1  0.333333  0.666667  0.000000  1
  Zr  Zr5  1  0.000000  0.553383  0.000000  1
  Zr  Zr6  1  0.446617  0.446617  0.000000  1
  Zr  Zr7  1  0.553383  0.000000  0.000000  1
  Ni  Ni8  1  0.000000  0.721405  0.500000  1
  Ni  Ni9  1  0.278595  0.278595  0.500000  1
  Ni  Ni10  1  0.721405  0.000000  0.500000  1
  Ni  Ni11  1  0.806516  0.178369  0.000000  1
  Ni  Ni12  1  0.821631  0.628147  0.000000  1
  Ni  Ni13  1  0.371853  0.193484  0.000000  1
  Ni  Ni14  1  0.178369  0.806516  0.000000  1
  Ni  Ni15  1  0.628147  0.821631  0.000000  1
  Ni  Ni16  1  0.193484  0.371853  0.000000  1
  Ni  Ni17  1  0.878402  0.352689  0.500000  1
  Ni  Ni18  1  0.647311  0.525712  0.500000  1
  Ni  Ni19  1  0.474288  0.121598  0.500000  1
  Ni  Ni20  1  0.352689  0.878402  0.500000  1
  Ni  Ni21  1  0.525712  0.647311  0.500000  1
  Ni  Ni22  1  0.121598  0.474288  0.500000  1
  Ni  Ni23  1  0.000000  0.000000  0.000000  1
  As  As24  1  0.000000  0.823016  0.000000  1
  As  As25  1  0.176984  0.176984  0.000000  1
  As  As26  1  0.823016  0.000000  0.000000  1
  As  As27  1  0.685041  0.174020  0.500000  1
  As  As28  1  0.825980  0.511021  0.500000  1
  As  As29  1  0.488979  0.314959  0.500000  1
  As  As30  1  0.174020  0.685041  0.500000  1
  As  As31  1  0.511021  0.825980  0.500000  1
  As  As32  1  0.314959  0.488979  0.500000  1
  As  As33  1  0.000000  0.345608  0.000000  1
  As  As34  1  0.654392  0.654392  0.000000  1
  As  As35  1  0.345608  0.000000  0.000000  1
