# generated using pymatgen
data_Ti4As2Ru3Rh7
_symmetry_space_group_name_H-M   'P 1'
_cell_length_a   4.01391900
_cell_length_b   5.41978634
_cell_length_c   10.59837702
_cell_angle_alpha   90.32586034
_cell_angle_beta   90.00000000
_cell_angle_gamma   90.00000000
_symmetry_Int_Tables_number   1
_chemical_formula_structural   Ti4As2Ru3Rh7
_chemical_formula_sum   'Ti4 As2 Ru3 Rh7'
_cell_volume   230.55954768
_cell_formula_units_Z   1
loop_
 _symmetry_equiv_pos_site_id
 _symmetry_equiv_pos_as_xyz
  1  'x, y, z'
loop_
 _atom_site_type_symbol
 _atom_site_label
 _atom_site_symmetry_multiplicity
 _atom_site_fract_x
 _atom_site_fract_y
 _atom_site_fract_z
 _atom_site_occupancy
  Ti  Ti0  1  0.500000  0.333583  0.144399  1
  Ti  Ti1  1  0.500000  0.669274  0.856852  1
  Ti  Ti2  1  0.500000  0.832923  0.357045  1
  Ti  Ti3  1  0.500000  0.167738  0.639521  1
  As  As4  1  0.000000  0.997036  0.001410  1
  As  As5  1  0.000000  0.501879  0.499930  1
  Ru  Ru6  1  0.500000  0.316034  0.392307  1
  Ru  Ru7  1  0.500000  0.685007  0.608148  1
  Ru  Ru8  1  0.500000  0.815066  0.107609  1
  Rh  Rh9  1  0.000000  0.001382  0.500799  1
  Rh  Rh10  1  0.000000  0.497450  0.999206  1
  Rh  Rh11  1  0.000000  0.072914  0.246552  1
  Rh  Rh12  1  0.000000  0.926688  0.755326  1
  Rh  Rh13  1  0.000000  0.572610  0.254115  1
  Rh  Rh14  1  0.000000  0.425946  0.744708  1
  Rh  Rh15  1  0.500000  0.184470  0.892075  1
