# generated using pymatgen
data_Zr4P4OsRu3
_symmetry_space_group_name_H-M   'P 1'
_cell_length_a   3.90134100
_cell_length_b   6.48349721
_cell_length_c   7.36633024
_cell_angle_alpha   90.02908001
_cell_angle_beta   90.00000000
_cell_angle_gamma   90.00000000
_symmetry_Int_Tables_number   1
_chemical_formula_structural   Zr4P4OsRu3
_chemical_formula_sum   'Zr4 P4 Os1 Ru3'
_cell_volume   186.32638957
_cell_formula_units_Z   1
loop_
 _symmetry_equiv_pos_site_id
 _symmetry_equiv_pos_as_xyz
  1  'x, y, z'
loop_
 _atom_site_type_symbol
 _atom_site_label
 _atom_site_symmetry_multiplicity
 _atom_site_fract_x
 _atom_site_fract_y
 _atom_site_fract_z
 _atom_site_occupancy
  Zr  Zr0  1  0.750000  0.522031  0.319643  1
  Zr  Zr1  1  0.250000  0.977673  0.819228  1
  Zr  Zr2  1  0.750000  0.022777  0.181119  1
  Zr  Zr3  1  0.250000  0.477909  0.680084  1
  P  P4  1  0.250000  0.723705  0.121958  1
  P  P5  1  0.250000  0.223946  0.378432  1
  P  P6  1  0.750000  0.275954  0.878454  1
  P  P7  1  0.750000  0.775489  0.621377  1
  Os  Os8  1  0.250000  0.348019  0.059852  1
  Ru  Ru9  1  0.250000  0.849598  0.439290  1
  Ru  Ru10  1  0.750000  0.151641  0.560724  1
  Ru  Ru11  1  0.750000  0.651259  0.939840  1
