# generated using pymatgen
data_LaY3CdIr
_symmetry_space_group_name_H-M   'P 1'
_cell_length_a   9.80367646
_cell_length_b   9.80367620
_cell_length_c   9.80367700
_cell_angle_alpha   60.00000068
_cell_angle_beta   60.00000156
_cell_angle_gamma   59.99999821
_symmetry_Int_Tables_number   1
_chemical_formula_structural   LaY3CdIr
_chemical_formula_sum   'La4 Y12 Cd4 Ir4'
_cell_volume   666.27255922
_cell_formula_units_Z   4
loop_
 _symmetry_equiv_pos_site_id
 _symmetry_equiv_pos_as_xyz
  1  'x, y, z'
loop_
 _atom_site_type_symbol
 _atom_site_label
 _atom_site_symmetry_multiplicity
 _atom_site_fract_x
 _atom_site_fract_y
 _atom_site_fract_z
 _atom_site_occupancy
  La  La0  1  0.349911  0.349911  0.349911  1
  La  La1  1  0.349911  0.349911  0.950266  1
  La  La2  1  0.349911  0.950266  0.349911  1
  La  La3  1  0.950266  0.349911  0.349911  1
  Y  Y4  1  0.813102  0.186898  0.186898  1
  Y  Y5  1  0.186898  0.813102  0.813102  1
  Y  Y6  1  0.186898  0.813102  0.186898  1
  Y  Y7  1  0.813102  0.186898  0.813102  1
  Y  Y8  1  0.186898  0.186898  0.813102  1
  Y  Y9  1  0.813102  0.813102  0.186898  1
  Y  Y10  1  0.934892  0.565108  0.565108  1
  Y  Y11  1  0.565108  0.934892  0.934892  1
  Y  Y12  1  0.565108  0.934892  0.565108  1
  Y  Y13  1  0.934892  0.565108  0.934892  1
  Y  Y14  1  0.565108  0.565108  0.934892  1
  Y  Y15  1  0.934892  0.934892  0.565108  1
  Cd  Cd16  1  0.582008  0.582008  0.582008  1
  Cd  Cd17  1  0.582008  0.582008  0.253977  1
  Cd  Cd18  1  0.582008  0.253977  0.582008  1
  Cd  Cd19  1  0.253977  0.582008  0.582008  1
  Ir  Ir20  1  0.140366  0.140366  0.140366  1
  Ir  Ir21  1  0.140366  0.140366  0.578902  1
  Ir  Ir22  1  0.140366  0.578902  0.140366  1
  Ir  Ir23  1  0.578902  0.140366  0.140366  1
