# generated using pymatgen
data_Er6Al7Pt16
_symmetry_space_group_name_H-M   'P 1'
_cell_length_a   8.95423973
_cell_length_b   8.95423959
_cell_length_c   8.95423900
_cell_angle_alpha   59.99999849
_cell_angle_beta   59.99999900
_cell_angle_gamma   60.00000096
_symmetry_Int_Tables_number   1
_chemical_formula_structural   Er6Al7Pt16
_chemical_formula_sum   'Er6 Al7 Pt16'
_cell_volume   507.65785154
_cell_formula_units_Z   1
loop_
 _symmetry_equiv_pos_site_id
 _symmetry_equiv_pos_as_xyz
  1  'x, y, z'
loop_
 _atom_site_type_symbol
 _atom_site_label
 _atom_site_symmetry_multiplicity
 _atom_site_fract_x
 _atom_site_fract_y
 _atom_site_fract_z
 _atom_site_occupancy
  Er  Er0  1  0.713339  0.713339  0.286661  1
  Er  Er1  1  0.286661  0.713339  0.286661  1
  Er  Er2  1  0.713339  0.286661  0.286661  1
  Er  Er3  1  0.286661  0.286661  0.713339  1
  Er  Er4  1  0.713339  0.286661  0.713339  1
  Er  Er5  1  0.286661  0.713339  0.713339  1
  Al  Al6  1  0.000000  0.000000  0.000000  1
  Al  Al7  1  0.000000  0.000000  0.500000  1
  Al  Al8  1  0.500000  0.000000  0.500000  1
  Al  Al9  1  0.000000  0.500000  0.500000  1
  Al  Al10  1  0.500000  0.500000  0.000000  1
  Al  Al11  1  0.000000  0.500000  0.000000  1
  Al  Al12  1  0.500000  0.000000  0.000000  1
  Pt  Pt13  1  0.881228  0.881228  0.356315  1
  Pt  Pt14  1  0.881228  0.356315  0.881228  1
  Pt  Pt15  1  0.356315  0.881228  0.881228  1
  Pt  Pt16  1  0.881228  0.881228  0.881228  1
  Pt  Pt17  1  0.118772  0.118772  0.643685  1
  Pt  Pt18  1  0.118772  0.643685  0.118772  1
  Pt  Pt19  1  0.643685  0.118772  0.118772  1
  Pt  Pt20  1  0.118772  0.118772  0.118772  1
  Pt  Pt21  1  0.661948  0.661948  0.014156  1
  Pt  Pt22  1  0.661948  0.014156  0.661948  1
  Pt  Pt23  1  0.014156  0.661948  0.661948  1
  Pt  Pt24  1  0.661948  0.661948  0.661948  1
  Pt  Pt25  1  0.338052  0.338052  0.985844  1
  Pt  Pt26  1  0.338052  0.985844  0.338052  1
  Pt  Pt27  1  0.985844  0.338052  0.338052  1
  Pt  Pt28  1  0.338052  0.338052  0.338052  1
