# generated using pymatgen
data_Pr2URu3
_symmetry_space_group_name_H-M   'P 1'
_cell_length_a   5.29582429
_cell_length_b   5.29582407
_cell_length_c   5.29582513
_cell_angle_alpha   68.68715813
_cell_angle_beta   68.68715977
_cell_angle_gamma   68.68715642
_symmetry_Int_Tables_number   1
_chemical_formula_structural   Pr2URu3
_chemical_formula_sum   'Pr2 U1 Ru3'
_cell_volume   124.24031466
_cell_formula_units_Z   1
loop_
 _symmetry_equiv_pos_site_id
 _symmetry_equiv_pos_as_xyz
  1  'x, y, z'
loop_
 _atom_site_type_symbol
 _atom_site_label
 _atom_site_symmetry_multiplicity
 _atom_site_fract_x
 _atom_site_fract_y
 _atom_site_fract_z
 _atom_site_occupancy
  Pr  Pr0  1  0.624467  0.624467  0.624467  1
  Pr  Pr1  1  0.375533  0.375533  0.375533  1
  U  U2  1  0.000000  0.000000  0.000000  1
  Ru  Ru3  1  0.000000  0.500000  0.000000  1
  Ru  Ru4  1  0.500000  0.000000  0.000000  1
  Ru  Ru5  1  0.000000  0.000000  0.500000  1
