# generated using pymatgen
data_Ho5Er15(IrRh2)4
_symmetry_space_group_name_H-M   'P 1'
_cell_length_a   10.81251501
_cell_length_b   10.81324000
_cell_length_c   6.33099000
_cell_angle_alpha   90.00187004
_cell_angle_beta   89.99679782
_cell_angle_gamma   90.00148370
_symmetry_Int_Tables_number   1
_chemical_formula_structural   Ho5Er15(IrRh2)4
_chemical_formula_sum   'Ho5 Er15 Ir4 Rh8'
_cell_volume   740.20871193
_cell_formula_units_Z   1
loop_
 _symmetry_equiv_pos_site_id
 _symmetry_equiv_pos_as_xyz
  1  'x, y, z'
loop_
 _atom_site_type_symbol
 _atom_site_label
 _atom_site_symmetry_multiplicity
 _atom_site_fract_x
 _atom_site_fract_y
 _atom_site_fract_z
 _atom_site_occupancy
  Ho  Ho0  1  0.291123  0.089784  0.377950  1
  Ho  Ho1  1  0.291016  0.910276  0.877976  1
  Ho  Ho2  1  0.708893  0.089945  0.877926  1
  Ho  Ho3  1  0.708898  0.910340  0.377961  1
  Ho  Ho4  1  0.587445  0.789546  0.878523  1
  Er  Er5  1  0.587343  0.210293  0.378732  1
  Er  Er6  1  0.412495  0.789689  0.378708  1
  Er  Er7  1  0.412626  0.210299  0.878727  1
  Er  Er8  1  0.210090  0.412713  0.621235  1
  Er  Er9  1  0.210082  0.587279  0.121212  1
  Er  Er10  1  0.789925  0.412708  0.121167  1
  Er  Er11  1  0.790010  0.587150  0.621138  1
  Er  Er12  1  0.910582  0.708595  0.121800  1
  Er  Er13  1  0.910575  0.291393  0.621760  1
  Er  Er14  1  0.089499  0.708611  0.621772  1
  Er  Er15  1  0.089468  0.291407  0.121742  1
  Er  Er16  1  0.000068  0.000001  0.500104  1
  Er  Er17  1  0.000078  0.000023  0.000180  1
  Er  Er18  1  0.499916  0.499803  0.000143  1
  Er  Er19  1  0.499979  0.499942  0.500130  1
  Ir  Ir20  1  0.654533  0.345742  0.749848  1
  Ir  Ir21  1  0.654633  0.654105  0.250326  1
  Ir  Ir22  1  0.345450  0.345717  0.249812  1
  Ir  Ir23  1  0.345228  0.654161  0.749692  1
  Rh  Rh24  1  0.846813  0.153775  0.250334  1
  Rh  Rh25  1  0.847037  0.846306  0.750176  1
  Rh  Rh26  1  0.153204  0.153780  0.750375  1
  Rh  Rh27  1  0.153199  0.846202  0.250285  1
  Rh  Rh28  1  0.499883  0.000251  0.123386  1
  Rh  Rh29  1  0.499911  0.000206  0.623010  1
  Rh  Rh30  1  0.999996  0.499981  0.876934  1
  Rh  Rh31  1  0.000002  0.499978  0.376937  1
