# generated using pymatgen
data_Dy5Si7Tc3P5Ir16
_symmetry_space_group_name_H-M   'P 1'
_cell_length_a   12.76260384
_cell_length_b   12.77573713
_cell_length_c   3.97067400
_cell_angle_alpha   90.00000000
_cell_angle_beta   90.00000000
_cell_angle_gamma   119.87713126
_symmetry_Int_Tables_number   1
_chemical_formula_structural   Dy5Si7Tc3P5Ir16
_chemical_formula_sum   'Dy5 Si7 Tc3 P5 Ir16'
_cell_volume   561.37942632
_cell_formula_units_Z   1
loop_
 _symmetry_equiv_pos_site_id
 _symmetry_equiv_pos_as_xyz
  1  'x, y, z'
loop_
 _atom_site_type_symbol
 _atom_site_label
 _atom_site_symmetry_multiplicity
 _atom_site_fract_x
 _atom_site_fract_y
 _atom_site_fract_z
 _atom_site_occupancy
  Dy  Dy0  1  0.332449  0.666463  0.500000  1
  Dy  Dy1  1  0.665891  0.332737  0.500000  1
  Dy  Dy2  1  0.001152  0.812626  0.000000  1
  Dy  Dy3  1  0.188047  0.188792  0.000000  1
  Dy  Dy4  1  0.812658  0.998775  0.000000  1
  Si  Si5  1  0.001586  0.631955  0.500000  1
  Si  Si6  1  0.368927  0.370541  0.500000  1
  Si  Si7  1  0.630408  0.999224  0.500000  1
  Si  Si8  1  0.519814  0.684077  0.000000  1
  Si  Si9  1  0.316066  0.835992  0.000000  1
  Si  Si10  1  0.163797  0.480690  0.000000  1
  Si  Si11  1  0.480603  0.164707  0.000000  1
  Tc  Tc12  1  0.999605  0.444248  0.500000  1
  Tc  Tc13  1  0.556329  0.556576  0.500000  1
  Tc  Tc14  1  0.444472  0.002171  0.500000  1
  P  P15  1  0.685234  0.518080  0.000000  1
  P  P16  1  0.832804  0.313608  0.000000  1
  P  P17  1  0.000318  0.178937  0.500000  1
  P  P18  1  0.822202  0.820354  0.500000  1
  P  P19  1  0.179515  0.001460  0.500000  1
  Ir  Ir20  1  0.515257  0.873018  0.000000  1
  Ir  Ir21  1  0.125985  0.641557  0.000000  1
  Ir  Ir22  1  0.357690  0.486043  0.000000  1
  Ir  Ir23  1  0.491441  0.361402  0.000000  1
  Ir  Ir24  1  0.866514  0.507103  0.000000  1
  Ir  Ir25  1  0.644209  0.130760  0.000000  1
  Ir  Ir26  1  0.996597  0.278005  0.000000  1
  Ir  Ir27  1  0.722930  0.718291  0.000000  1
  Ir  Ir28  1  0.277426  0.001417  0.000000  1
  Ir  Ir29  1  0.628874  0.805589  0.500000  1
  Ir  Ir30  1  0.194947  0.822447  0.500000  1
  Ir  Ir31  1  0.177382  0.372277  0.500000  1
  Ir  Ir32  1  0.373603  0.181431  0.500000  1
  Ir  Ir33  1  0.804922  0.623549  0.500000  1
  Ir  Ir34  1  0.820792  0.195029  0.500000  1
  Ir  Ir35  1  0.999555  0.000070  0.500000  1
