# generated using pymatgen
data_Tb5In2(HgRh)2
_symmetry_space_group_name_H-M   'P 1'
_cell_length_a   3.66749100
_cell_length_b   7.96056300
_cell_length_c   18.28022100
_cell_angle_alpha   90.00000000
_cell_angle_beta   90.00000000
_cell_angle_gamma   90.00000000
_symmetry_Int_Tables_number   1
_chemical_formula_structural   Tb5In2(HgRh)2
_chemical_formula_sum   'Tb10 In4 Hg4 Rh4'
_cell_volume   533.69641108
_cell_formula_units_Z   2
loop_
 _symmetry_equiv_pos_site_id
 _symmetry_equiv_pos_as_xyz
  1  'x, y, z'
loop_
 _atom_site_type_symbol
 _atom_site_label
 _atom_site_symmetry_multiplicity
 _atom_site_fract_x
 _atom_site_fract_y
 _atom_site_fract_z
 _atom_site_occupancy
  Tb  Tb0  1  0.000000  0.500000  0.500000  1
  Tb  Tb1  1  0.000000  0.000000  0.000000  1
  Tb  Tb2  1  0.000000  0.747439  0.281444  1
  Tb  Tb3  1  0.000000  0.252561  0.718556  1
  Tb  Tb4  1  0.000000  0.752561  0.781444  1
  Tb  Tb5  1  0.000000  0.247439  0.218556  1
  Tb  Tb6  1  0.000000  0.610595  0.087200  1
  Tb  Tb7  1  0.000000  0.389405  0.912800  1
  Tb  Tb8  1  0.000000  0.889405  0.587200  1
  Tb  Tb9  1  0.000000  0.110595  0.412800  1
  In  In10  1  0.500000  0.576015  0.650854  1
  In  In11  1  0.500000  0.423985  0.349146  1
  In  In12  1  0.500000  0.923985  0.150854  1
  In  In13  1  0.500000  0.076015  0.849146  1
  Hg  Hg14  1  0.500000  0.713012  0.932700  1
  Hg  Hg15  1  0.500000  0.286988  0.067300  1
  Hg  Hg16  1  0.500000  0.786988  0.432700  1
  Hg  Hg17  1  0.500000  0.213012  0.567300  1
  Rh  Rh18  1  0.500000  0.535820  0.197183  1
  Rh  Rh19  1  0.500000  0.464180  0.802817  1
  Rh  Rh20  1  0.500000  0.964180  0.697183  1
  Rh  Rh21  1  0.500000  0.035820  0.302817  1
