# generated using pymatgen
data_Cr2SiB4Mo8P
_symmetry_space_group_name_H-M   'P 1'
_cell_length_a   5.89442375
_cell_length_b   5.89442445
_cell_length_c   6.97431328
_cell_angle_alpha   114.99764742
_cell_angle_beta   114.99763913
_cell_angle_gamma   89.99999658
_symmetry_Int_Tables_number   1
_chemical_formula_structural   Cr2SiB4Mo8P
_chemical_formula_sum   'Cr2 Si1 B4 Mo8 P1'
_cell_volume   194.28499181
_cell_formula_units_Z   1
loop_
 _symmetry_equiv_pos_site_id
 _symmetry_equiv_pos_as_xyz
  1  'x, y, z'
loop_
 _atom_site_type_symbol
 _atom_site_label
 _atom_site_symmetry_multiplicity
 _atom_site_fract_x
 _atom_site_fract_y
 _atom_site_fract_z
 _atom_site_occupancy
  Cr  Cr0  1  0.492757  0.492757  0.985514  1
  Cr  Cr1  1  0.007243  0.007243  0.014486  1
  Si  Si2  1  0.250000  0.250000  0.500000  1
  B  B3  1  0.378381  0.878381  0.000000  1
  B  B4  1  0.621619  0.121619  0.000000  1
  B  B5  1  0.121619  0.378381  0.000000  1
  B  B6  1  0.878381  0.621619  0.000000  1
  Mo  Mo7  1  0.029446  0.535044  0.725498  1
  Mo  Mo8  1  0.696053  0.190454  0.725498  1
  Mo  Mo9  1  0.190454  0.029446  0.725498  1
  Mo  Mo10  1  0.535044  0.696053  0.725498  1
  Mo  Mo11  1  0.964956  0.470554  0.274502  1
  Mo  Mo12  1  0.309546  0.803947  0.274502  1
  Mo  Mo13  1  0.803947  0.964956  0.274502  1
  Mo  Mo14  1  0.470554  0.309546  0.274502  1
  P  P15  1  0.750000  0.750000  0.500000  1
