# generated using pymatgen
data_NdTm3(Ir2O7)2
_symmetry_space_group_name_H-M   'P 1'
_cell_length_a   7.26542266
_cell_length_b   7.20798921
_cell_length_c   7.20798900
_cell_angle_alpha   60.00000553
_cell_angle_beta   60.26115937
_cell_angle_gamma   60.26116084
_symmetry_Int_Tables_number   1
_chemical_formula_structural   NdTm3(Ir2O7)2
_chemical_formula_sum   'Nd1 Tm3 Ir4 O14'
_cell_volume   267.96450120
_cell_formula_units_Z   1
loop_
 _symmetry_equiv_pos_site_id
 _symmetry_equiv_pos_as_xyz
  1  'x, y, z'
loop_
 _atom_site_type_symbol
 _atom_site_label
 _atom_site_symmetry_multiplicity
 _atom_site_fract_x
 _atom_site_fract_y
 _atom_site_fract_z
 _atom_site_occupancy
  Nd  Nd0  1  0.625000  0.125000  0.125000  1
  Tm  Tm1  1  0.125000  0.625000  0.125000  1
  Tm  Tm2  1  0.125000  0.125000  0.625000  1
  Tm  Tm3  1  0.125000  0.125000  0.125000  1
  Ir  Ir4  1  0.125000  0.625000  0.625000  1
  Ir  Ir5  1  0.625000  0.125000  0.625000  1
  Ir  Ir6  1  0.625000  0.625000  0.125000  1
  Ir  Ir7  1  0.625000  0.625000  0.625000  1
  O  O8  1  0.723459  0.701733  0.287404  1
  O  O9  1  0.286159  0.287520  0.713160  1
  O  O10  1  0.723459  0.287404  0.701733  1
  O  O11  1  0.286159  0.713160  0.287520  1
  O  O12  1  0.286159  0.713160  0.713160  1
  O  O13  1  0.723459  0.287404  0.287404  1
  O  O14  1  0.526541  0.548267  0.962596  1
  O  O15  1  0.963841  0.962480  0.536840  1
  O  O16  1  0.526541  0.962596  0.548267  1
  O  O17  1  0.963841  0.536840  0.962480  1
  O  O18  1  0.963841  0.536840  0.536840  1
  O  O19  1  0.526541  0.962596  0.962596  1
  O  O20  1  0.236326  0.254558  0.254558  1
  O  O21  1  0.013674  0.995442  0.995442  1
