# generated using pymatgen
data_TbHoTh6(ReC2)4
_symmetry_space_group_name_H-M   'P 1'
_cell_length_a   5.32859200
_cell_length_b   6.68751336
_cell_length_c   10.01698054
_cell_angle_alpha   89.96242727
_cell_angle_beta   90.00000000
_cell_angle_gamma   90.00000000
_symmetry_Int_Tables_number   1
_chemical_formula_structural   TbHoTh6(ReC2)4
_chemical_formula_sum   'Tb1 Ho1 Th6 Re4 C8'
_cell_volume   356.95532712
_cell_formula_units_Z   1
loop_
 _symmetry_equiv_pos_site_id
 _symmetry_equiv_pos_as_xyz
  1  'x, y, z'
loop_
 _atom_site_type_symbol
 _atom_site_label
 _atom_site_symmetry_multiplicity
 _atom_site_fract_x
 _atom_site_fract_y
 _atom_site_fract_z
 _atom_site_occupancy
  Tb  Tb0  1  0.250000  0.317965  0.446654  1
  Ho  Ho1  1  0.750000  0.179970  0.945803  1
  Th  Th2  1  0.250000  0.468821  0.781412  1
  Th  Th3  1  0.750000  0.031163  0.280813  1
  Th  Th4  1  0.250000  0.975295  0.719078  1
  Th  Th5  1  0.750000  0.524835  0.218762  1
  Th  Th6  1  0.250000  0.815734  0.047852  1
  Th  Th7  1  0.750000  0.684524  0.548162  1
  Re  Re8  1  0.250000  0.272319  0.137058  1
  Re  Re9  1  0.750000  0.227784  0.637915  1
  Re  Re10  1  0.250000  0.771101  0.363096  1
  Re  Re11  1  0.750000  0.729299  0.863242  1
  C  C12  1  0.250000  0.170116  0.948226  1
  C  C13  1  0.750000  0.833368  0.052265  1
  C  C14  1  0.250000  0.668007  0.552522  1
  C  C15  1  0.750000  0.329673  0.448582  1
  C  C16  1  0.250000  0.037798  0.260593  1
  C  C17  1  0.750000  0.461674  0.761314  1
  C  C18  1  0.250000  0.533463  0.243065  1
  C  C19  1  0.750000  0.967092  0.743586  1
