# generated using pymatgen
data_Tb3Mg3IrPdRu
_symmetry_space_group_name_H-M   'P 1'
_cell_length_a   7.34998000
_cell_length_b   7.34997966
_cell_length_c   4.07578000
_cell_angle_alpha   90.00000000
_cell_angle_beta   90.00000000
_cell_angle_gamma   120.00000155
_symmetry_Int_Tables_number   1
_chemical_formula_structural   Tb3Mg3IrPdRu
_chemical_formula_sum   'Tb3 Mg3 Ir1 Pd1 Ru1'
_cell_volume   190.68373635
_cell_formula_units_Z   1
loop_
 _symmetry_equiv_pos_site_id
 _symmetry_equiv_pos_as_xyz
  1  'x, y, z'
loop_
 _atom_site_type_symbol
 _atom_site_label
 _atom_site_symmetry_multiplicity
 _atom_site_fract_x
 _atom_site_fract_y
 _atom_site_fract_z
 _atom_site_occupancy
  Tb  Tb0  1  0.582527  0.002097  0.000000  1
  Tb  Tb1  1  0.997903  0.580430  0.000000  1
  Tb  Tb2  1  0.419570  0.417473  0.000000  1
  Mg  Mg3  1  0.246460  0.999560  0.500000  1
  Mg  Mg4  1  0.000440  0.246900  0.500000  1
  Mg  Mg5  1  0.753100  0.753540  0.500000  1
  Ir  Ir6  1  0.333333  0.666667  0.500000  1
  Pd  Pd7  1  0.000000  0.000000  0.000000  1
  Ru  Ru8  1  0.666667  0.333333  0.500000  1
