# generated using pymatgen
data_Rb2Dy2Bi3SbSe10
_symmetry_space_group_name_H-M   'P 1'
_cell_length_a   4.15706700
_cell_length_b   12.41978793
_cell_length_c   22.32642354
_cell_angle_alpha   89.66844642
_cell_angle_beta   90.00000000
_cell_angle_gamma   90.00000000
_symmetry_Int_Tables_number   1
_chemical_formula_structural   Rb2Dy2Bi3SbSe10
_chemical_formula_sum   'Rb4 Dy4 Bi6 Sb2 Se20'
_cell_volume   1152.69150471
_cell_formula_units_Z   2
loop_
 _symmetry_equiv_pos_site_id
 _symmetry_equiv_pos_as_xyz
  1  'x, y, z'
loop_
 _atom_site_type_symbol
 _atom_site_label
 _atom_site_symmetry_multiplicity
 _atom_site_fract_x
 _atom_site_fract_y
 _atom_site_fract_z
 _atom_site_occupancy
  Rb  Rb0  1  0.250000  0.488669  0.209649  1
  Rb  Rb1  1  0.750000  0.511331  0.790351  1
  Rb  Rb2  1  0.750000  0.989453  0.288939  1
  Rb  Rb3  1  0.250000  0.010547  0.711061  1
  Dy  Dy4  1  0.250000  0.365320  0.023406  1
  Dy  Dy5  1  0.750000  0.634680  0.976594  1
  Dy  Dy6  1  0.750000  0.863615  0.475985  1
  Dy  Dy7  1  0.250000  0.136385  0.524015  1
  Bi  Bi8  1  0.750000  0.301763  0.374249  1
  Bi  Bi9  1  0.250000  0.698237  0.625751  1
  Bi  Bi10  1  0.250000  0.595931  0.423349  1
  Bi  Bi11  1  0.750000  0.404069  0.576651  1
  Bi  Bi12  1  0.750000  0.096114  0.074366  1
  Bi  Bi13  1  0.250000  0.903886  0.925634  1
  Sb  Sb14  1  0.250000  0.806184  0.125371  1
  Sb  Sb15  1  0.750000  0.193816  0.874629  1
  Se  Se16  1  0.250000  0.812639  0.390081  1
  Se  Se17  1  0.750000  0.187361  0.609919  1
  Se  Se18  1  0.750000  0.310815  0.109707  1
  Se  Se19  1  0.250000  0.689185  0.890293  1
  Se  Se20  1  0.250000  0.246860  0.295708  1
  Se  Se21  1  0.750000  0.753140  0.704292  1
  Se  Se22  1  0.750000  0.751603  0.200204  1
  Se  Se23  1  0.250000  0.248397  0.799796  1
  Se  Se24  1  0.250000  0.355629  0.480831  1
  Se  Se25  1  0.750000  0.644371  0.519169  1
  Se  Se26  1  0.750000  0.855586  0.019399  1
  Se  Se27  1  0.250000  0.144414  0.980601  1
  Se  Se28  1  0.250000  0.019131  0.158536  1
  Se  Se29  1  0.750000  0.980869  0.841464  1
  Se  Se30  1  0.750000  0.527026  0.340662  1
  Se  Se31  1  0.250000  0.472974  0.659338  1
  Se  Se32  1  0.250000  0.582970  0.060425  1
  Se  Se33  1  0.750000  0.417030  0.939575  1
  Se  Se34  1  0.750000  0.083032  0.439827  1
  Se  Se35  1  0.250000  0.916968  0.560173  1
