# generated using pymatgen
data_Lu4Pa4Re(B8W)3
_symmetry_space_group_name_H-M   'P 1'
_cell_length_a   3.71126900
_cell_length_b   9.13125017
_cell_length_c   11.49787222
_cell_angle_alpha   89.97768629
_cell_angle_beta   90.00000000
_cell_angle_gamma   90.00000000
_symmetry_Int_Tables_number   1
_chemical_formula_structural   Lu4Pa4Re(B8W)3
_chemical_formula_sum   'Lu4 Pa4 Re1 B24 W3'
_cell_volume   389.64590859
_cell_formula_units_Z   1
loop_
 _symmetry_equiv_pos_site_id
 _symmetry_equiv_pos_as_xyz
  1  'x, y, z'
loop_
 _atom_site_type_symbol
 _atom_site_label
 _atom_site_symmetry_multiplicity
 _atom_site_fract_x
 _atom_site_fract_y
 _atom_site_fract_z
 _atom_site_occupancy
  Lu  Lu0  1  0.000000  0.945806  0.374394  1
  Lu  Lu1  1  0.000000  0.054407  0.626024  1
  Lu  Lu2  1  0.000000  0.445779  0.125628  1
  Lu  Lu3  1  0.000000  0.554548  0.874077  1
  Pa  Pa4  1  0.000000  0.321094  0.413082  1
  Pa  Pa5  1  0.000000  0.678004  0.585834  1
  Pa  Pa6  1  0.000000  0.821224  0.087448  1
  Pa  Pa7  1  0.000000  0.179552  0.913553  1
  Re  Re8  1  0.000000  0.860960  0.821029  1
  B  B9  1  0.500000  0.553678  0.433182  1
  B  B10  1  0.500000  0.446555  0.567041  1
  B  B11  1  0.500000  0.053365  0.066627  1
  B  B12  1  0.500000  0.945651  0.932135  1
  B  B13  1  0.500000  0.750454  0.420501  1
  B  B14  1  0.500000  0.249464  0.579765  1
  B  B15  1  0.500000  0.250736  0.079532  1
  B  B16  1  0.500000  0.749869  0.919496  1
  B  B17  1  0.500000  0.794258  0.264725  1
  B  B18  1  0.500000  0.205681  0.735212  1
  B  B19  1  0.500000  0.294014  0.235195  1
  B  B20  1  0.500000  0.707200  0.765488  1
  B  B21  1  0.500000  0.632156  0.183889  1
  B  B22  1  0.500000  0.367897  0.816168  1
  B  B23  1  0.500000  0.131813  0.315938  1
  B  B24  1  0.500000  0.868320  0.684794  1
  B  B25  1  0.500000  0.981331  0.213565  1
  B  B26  1  0.500000  0.016889  0.786590  1
  B  B27  1  0.500000  0.481454  0.286317  1
  B  B28  1  0.500000  0.518486  0.713721  1
  B  B29  1  0.500000  0.606605  0.028922  1
  B  B30  1  0.500000  0.393764  0.970524  1
  B  B31  1  0.500000  0.106100  0.470595  1
  B  B32  1  0.500000  0.893835  0.529976  1
  W  W33  1  0.000000  0.639299  0.320949  1
  W  W34  1  0.000000  0.361097  0.679504  1
  W  W35  1  0.000000  0.138655  0.178578  1
