# generated using pymatgen
data_Tb2Lu4ScCo17P12
_symmetry_space_group_name_H-M   'P 1'
_cell_length_a   3.68530300
_cell_length_b   10.53813100
_cell_length_c   12.20589100
_cell_angle_alpha   90.00000000
_cell_angle_beta   90.00000000
_cell_angle_gamma   90.00000000
_symmetry_Int_Tables_number   1
_chemical_formula_structural   Tb2Lu4ScCo17P12
_chemical_formula_sum   'Tb2 Lu4 Sc1 Co17 P12'
_cell_volume   474.03049471
_cell_formula_units_Z   1
loop_
 _symmetry_equiv_pos_site_id
 _symmetry_equiv_pos_as_xyz
  1  'x, y, z'
loop_
 _atom_site_type_symbol
 _atom_site_label
 _atom_site_symmetry_multiplicity
 _atom_site_fract_x
 _atom_site_fract_y
 _atom_site_fract_z
 _atom_site_occupancy
  Tb  Tb0  1  0.000000  0.500000  0.528496  1
  Tb  Tb1  1  0.500000  0.000000  0.476477  1
  Lu  Lu2  1  0.500000  0.822367  0.207358  1
  Lu  Lu3  1  0.500000  0.177633  0.207358  1
  Lu  Lu4  1  0.000000  0.681751  0.796060  1
  Lu  Lu5  1  0.000000  0.318249  0.796060  1
  Sc  Sc6  1  0.500000  0.500000  0.152353  1
  Co  Co7  1  0.000000  0.000000  0.837216  1
  Co  Co8  1  0.500000  0.500000  0.705855  1
  Co  Co9  1  0.000000  0.000000  0.293799  1
  Co  Co10  1  0.000000  0.500000  0.984698  1
  Co  Co11  1  0.500000  0.000000  0.013089  1
  Co  Co12  1  0.500000  0.326510  0.989894  1
  Co  Co13  1  0.500000  0.673490  0.989894  1
  Co  Co14  1  0.000000  0.162533  0.001365  1
  Co  Co15  1  0.000000  0.837467  0.001365  1
  Co  Co16  1  0.500000  0.294714  0.433664  1
  Co  Co17  1  0.500000  0.705286  0.433664  1
  Co  Co18  1  0.000000  0.202379  0.571114  1
  Co  Co19  1  0.000000  0.797621  0.571114  1
  Co  Co20  1  0.500000  0.879452  0.708560  1
  Co  Co21  1  0.500000  0.120548  0.708560  1
  Co  Co22  1  0.000000  0.623702  0.294441  1
  Co  Co23  1  0.000000  0.376298  0.294441  1
  P  P24  1  0.500000  0.500000  0.883120  1
  P  P25  1  0.000000  0.000000  0.116373  1
  P  P26  1  0.500000  0.500000  0.357934  1
  P  P27  1  0.000000  0.000000  0.654632  1
  P  P28  1  0.500000  0.309644  0.619561  1
  P  P29  1  0.500000  0.690356  0.619561  1
  P  P30  1  0.000000  0.188737  0.384493  1
  P  P31  1  0.000000  0.811263  0.384493  1
  P  P32  1  0.500000  0.850507  0.888020  1
  P  P33  1  0.500000  0.149493  0.888020  1
  P  P34  1  0.000000  0.664589  0.103450  1
  P  P35  1  0.000000  0.335411  0.103450  1
