# generated using pymatgen
data_TbY2Lu3FeBi2
_symmetry_space_group_name_H-M   'P 1'
_cell_length_a   8.23767500
_cell_length_b   8.24940207
_cell_length_c   4.18253500
_cell_angle_alpha   90.00000000
_cell_angle_beta   90.00000000
_cell_angle_gamma   119.95299813
_symmetry_Int_Tables_number   1
_chemical_formula_structural   TbY2Lu3FeBi2
_chemical_formula_sum   'Tb1 Y2 Lu3 Fe1 Bi2'
_cell_volume   246.26508190
_cell_formula_units_Z   1
loop_
 _symmetry_equiv_pos_site_id
 _symmetry_equiv_pos_as_xyz
  1  'x, y, z'
loop_
 _atom_site_type_symbol
 _atom_site_label
 _atom_site_symmetry_multiplicity
 _atom_site_fract_x
 _atom_site_fract_y
 _atom_site_fract_z
 _atom_site_occupancy
  Tb  Tb0  1  0.610241  0.000000  0.500000  1
  Y  Y1  1  0.999862  0.610039  0.500000  1
  Y  Y2  1  0.389823  0.389961  0.500000  1
  Lu  Lu3  1  0.227543  0.000000  0.000000  1
  Lu  Lu4  1  0.772512  0.772420  0.000000  1
  Lu  Lu5  1  0.000092  0.227580  0.000000  1
  Fe  Fe6  1  0.000123  0.000000  0.500000  1
  Bi  Bi7  1  0.333039  0.666275  0.000000  1
  Bi  Bi8  1  0.666766  0.333725  0.000000  1
