# generated using pymatgen
data_K3GdO12
_symmetry_space_group_name_H-M   'P 1'
_cell_length_a   6.82845901
_cell_length_b   6.82845894
_cell_length_c   6.82845900
_cell_angle_alpha   103.29237669
_cell_angle_beta   103.29237655
_cell_angle_gamma   122.69449909
_symmetry_Int_Tables_number   1
_chemical_formula_structural   K3GdO12
_chemical_formula_sum   'K3 Gd1 O12'
_cell_volume   235.13778013
_cell_formula_units_Z   1
loop_
 _symmetry_equiv_pos_site_id
 _symmetry_equiv_pos_as_xyz
  1  'x, y, z'
loop_
 _atom_site_type_symbol
 _atom_site_label
 _atom_site_symmetry_multiplicity
 _atom_site_fract_x
 _atom_site_fract_y
 _atom_site_fract_z
 _atom_site_occupancy
  K  K0  1  0.250001  0.750001  0.500000  1
  K  K1  1  0.250001  0.250001  0.000000  1
  K  K2  1  0.749999  0.749999  0.000000  1
  Gd  Gd3  1  0.750001  0.250001  0.500000  1
  O  O4  1  0.302965  0.994496  0.232429  1
  O  O5  1  0.762066  0.070535  0.767569  1
  O  O6  1  0.197035  0.429464  0.691531  1
  O  O7  1  0.737933  0.505503  0.308468  1
  O  O8  1  0.570535  0.262067  0.767570  1
  O  O9  1  0.494497  0.802965  0.232430  1
  O  O10  1  0.005503  0.237933  0.308468  1
  O  O11  1  0.929464  0.697035  0.691531  1
  O  O12  1  0.693019  0.193019  0.900601  1
  O  O13  1  0.292417  0.792418  0.099399  1
  O  O14  1  0.806982  0.707583  0.500000  1
  O  O15  1  0.207583  0.306982  0.500000  1
