# generated using pymatgen
data_LaPr15Cd4(CoPt)2
_symmetry_space_group_name_H-M   'P 1'
_cell_length_a   9.98424312
_cell_length_b   9.98424365
_cell_length_c   10.00014873
_cell_angle_alpha   59.83110264
_cell_angle_beta   59.83110179
_cell_angle_gamma   60.20126000
_symmetry_Int_Tables_number   1
_chemical_formula_structural   LaPr15Cd4(CoPt)2
_chemical_formula_sum   'La1 Pr15 Cd4 Co2 Pt2'
_cell_volume   704.14346691
_cell_formula_units_Z   1
loop_
 _symmetry_equiv_pos_site_id
 _symmetry_equiv_pos_as_xyz
  1  'x, y, z'
loop_
 _atom_site_type_symbol
 _atom_site_label
 _atom_site_symmetry_multiplicity
 _atom_site_fract_x
 _atom_site_fract_y
 _atom_site_fract_z
 _atom_site_occupancy
  La  La0  1  0.342006  0.342006  0.359291  1
  Pr  Pr1  1  0.345592  0.345592  0.950618  1
  Pr  Pr2  1  0.340807  0.956589  0.350963  1
  Pr  Pr3  1  0.956589  0.340807  0.350963  1
  Pr  Pr4  1  0.820362  0.190268  0.188165  1
  Pr  Pr5  1  0.189460  0.819079  0.800977  1
  Pr  Pr6  1  0.190268  0.820362  0.188165  1
  Pr  Pr7  1  0.819079  0.189460  0.800977  1
  Pr  Pr8  1  0.188529  0.188529  0.812402  1
  Pr  Pr9  1  0.807667  0.807667  0.191033  1
  Pr  Pr10  1  0.937539  0.562900  0.563654  1
  Pr  Pr11  1  0.560628  0.937201  0.938427  1
  Pr  Pr12  1  0.562900  0.937539  0.563654  1
  Pr  Pr13  1  0.937201  0.560628  0.938427  1
  Pr  Pr14  1  0.560210  0.560210  0.941260  1
  Pr  Pr15  1  0.935397  0.935397  0.563585  1
  Cd  Cd16  1  0.579710  0.579710  0.579138  1
  Cd  Cd17  1  0.580069  0.580069  0.261132  1
  Cd  Cd18  1  0.581539  0.259365  0.580144  1
  Cd  Cd19  1  0.259365  0.581539  0.580144  1
  Co  Co20  1  0.142410  0.142410  0.141808  1
  Co  Co21  1  0.143915  0.143915  0.572880  1
  Pt  Pt22  1  0.145547  0.573212  0.141094  1
  Pt  Pt23  1  0.573212  0.145547  0.141094  1
