# generated using pymatgen
data_Y16Sc4(Ir3Ru)3
_symmetry_space_group_name_H-M   'P 1'
_cell_length_a   10.76161400
_cell_length_b   10.76161400
_cell_length_c   6.33774000
_cell_angle_alpha   90.00000000
_cell_angle_beta   90.00000000
_cell_angle_gamma   90.00000000
_symmetry_Int_Tables_number   1
_chemical_formula_structural   Y16Sc4(Ir3Ru)3
_chemical_formula_sum   'Y16 Sc4 Ir9 Ru3'
_cell_volume   733.98847363
_cell_formula_units_Z   1
loop_
 _symmetry_equiv_pos_site_id
 _symmetry_equiv_pos_as_xyz
  1  'x, y, z'
loop_
 _atom_site_type_symbol
 _atom_site_label
 _atom_site_symmetry_multiplicity
 _atom_site_fract_x
 _atom_site_fract_y
 _atom_site_fract_z
 _atom_site_occupancy
  Y  Y0  1  0.289903  0.085571  0.377289  1
  Y  Y1  1  0.289978  0.914623  0.877560  1
  Y  Y2  1  0.710022  0.085377  0.877560  1
  Y  Y3  1  0.710097  0.914429  0.377289  1
  Y  Y4  1  0.585377  0.789978  0.877560  1
  Y  Y5  1  0.585571  0.210097  0.377289  1
  Y  Y6  1  0.414429  0.789903  0.377289  1
  Y  Y7  1  0.414623  0.210022  0.877560  1
  Y  Y8  1  0.211514  0.414018  0.623718  1
  Y  Y9  1  0.211395  0.585981  0.121254  1
  Y  Y10  1  0.788605  0.414019  0.121254  1
  Y  Y11  1  0.788486  0.585982  0.623718  1
  Y  Y12  1  0.914019  0.711395  0.121254  1
  Y  Y13  1  0.914018  0.288486  0.623718  1
  Y  Y14  1  0.085982  0.711514  0.623718  1
  Y  Y15  1  0.085981  0.288605  0.121254  1
  Sc  Sc16  1  0.000000  0.000000  0.500030  1
  Sc  Sc17  1  0.000000  0.000000  0.999796  1
  Sc  Sc18  1  0.500000  0.500000  0.999796  1
  Sc  Sc19  1  0.500000  0.500000  0.500030  1
  Ir  Ir20  1  0.854447  0.145883  0.250044  1
  Ir  Ir21  1  0.854178  0.854171  0.749824  1
  Ir  Ir22  1  0.145822  0.145829  0.749824  1
  Ir  Ir23  1  0.145553  0.854117  0.250044  1
  Ir  Ir24  1  0.645829  0.354178  0.749824  1
  Ir  Ir25  1  0.645883  0.645553  0.250044  1
  Ir  Ir26  1  0.354117  0.354447  0.250044  1
  Ir  Ir27  1  0.354171  0.645822  0.749824  1
  Ir  Ir28  1  0.000000  0.500000  0.375894  1
  Ru  Ru29  1  0.500000  0.000000  0.125232  1
  Ru  Ru30  1  0.500000  0.000000  0.624828  1
  Ru  Ru31  1  0.000000  0.500000  0.875638  1
