# generated using pymatgen
data_Sm5DyHf2(Co4P3)4
_symmetry_space_group_name_H-M   'P 1'
_cell_length_a   3.74399500
_cell_length_b   10.74245205
_cell_length_c   12.48048606
_cell_angle_alpha   89.98882870
_cell_angle_beta   90.00000000
_cell_angle_gamma   90.00000000
_symmetry_Int_Tables_number   1
_chemical_formula_structural   Sm5DyHf2(Co4P3)4
_chemical_formula_sum   'Sm5 Dy1 Hf2 Co16 P12'
_cell_volume   501.96123046
_cell_formula_units_Z   1
loop_
 _symmetry_equiv_pos_site_id
 _symmetry_equiv_pos_as_xyz
  1  'x, y, z'
loop_
 _atom_site_type_symbol
 _atom_site_label
 _atom_site_symmetry_multiplicity
 _atom_site_fract_x
 _atom_site_fract_y
 _atom_site_fract_z
 _atom_site_occupancy
  Sm  Sm0  1  0.000000  0.500177  0.528155  1
  Sm  Sm1  1  0.500000  0.999731  0.471386  1
  Sm  Sm2  1  0.500000  0.178237  0.204921  1
  Sm  Sm3  1  0.000000  0.678854  0.794978  1
  Sm  Sm4  1  0.000000  0.321272  0.795388  1
  Dy  Dy5  1  0.500000  0.821057  0.204239  1
  Hf  Hf6  1  0.500000  0.500580  0.155931  1
  Hf  Hf7  1  0.000000  0.999850  0.844248  1
  Co  Co8  1  0.500000  0.500187  0.703806  1
  Co  Co9  1  0.000000  0.997790  0.295411  1
  Co  Co10  1  0.000000  0.500781  0.987791  1
  Co  Co11  1  0.500000  0.999144  0.013668  1
  Co  Co12  1  0.500000  0.332199  0.994044  1
  Co  Co13  1  0.500000  0.668550  0.994674  1
  Co  Co14  1  0.000000  0.167188  0.006837  1
  Co  Co15  1  0.000000  0.831982  0.007343  1
  Co  Co16  1  0.500000  0.295371  0.432761  1
  Co  Co17  1  0.500000  0.704886  0.431504  1
  Co  Co18  1  0.000000  0.204336  0.567074  1
  Co  Co19  1  0.000000  0.795600  0.566208  1
  Co  Co20  1  0.500000  0.879442  0.702912  1
  Co  Co21  1  0.500000  0.120608  0.703331  1
  Co  Co22  1  0.000000  0.622115  0.295307  1
  Co  Co23  1  0.000000  0.379752  0.296939  1
  P  P24  1  0.500000  0.500409  0.885913  1
  P  P25  1  0.000000  0.998289  0.115691  1
  P  P26  1  0.500000  0.499880  0.358816  1
  P  P27  1  0.000000  0.999946  0.641014  1
  P  P28  1  0.500000  0.307291  0.614695  1
  P  P29  1  0.500000  0.693080  0.613961  1
  P  P30  1  0.000000  0.192420  0.385268  1
  P  P31  1  0.000000  0.807836  0.383155  1
  P  P32  1  0.500000  0.839815  0.895224  1
  P  P33  1  0.500000  0.159825  0.895736  1
  P  P34  1  0.000000  0.661560  0.106678  1
  P  P35  1  0.000000  0.339960  0.104989  1
