# generated using pymatgen
data_Th2Ni2BRh4
_symmetry_space_group_name_H-M   'P 1'
_cell_length_a   5.87390473
_cell_length_b   5.87623513
_cell_length_c   5.87390307
_cell_angle_alpha   59.98685679
_cell_angle_beta   59.00963069
_cell_angle_gamma   59.98686390
_symmetry_Int_Tables_number   1
_chemical_formula_structural   Th2Ni2BRh4
_chemical_formula_sum   'Th2 Ni2 B1 Rh4'
_cell_volume   142.23172974
_cell_formula_units_Z   1
loop_
 _symmetry_equiv_pos_site_id
 _symmetry_equiv_pos_as_xyz
  1  'x, y, z'
loop_
 _atom_site_type_symbol
 _atom_site_label
 _atom_site_symmetry_multiplicity
 _atom_site_fract_x
 _atom_site_fract_y
 _atom_site_fract_z
 _atom_site_occupancy
  Th  Th0  1  0.748742  0.749591  0.752076  1
  Th  Th1  1  0.247924  0.250409  0.251258  1
  Ni  Ni2  1  0.753138  0.754831  0.246862  1
  Ni  Ni3  1  0.753138  0.245169  0.246862  1
  B  B4  1  0.512016  0.500000  0.487984  1
  Rh  Rh5  1  0.242048  0.755344  0.247264  1
  Rh  Rh6  1  0.245129  0.246788  0.754871  1
  Rh  Rh7  1  0.752736  0.244656  0.757952  1
  Rh  Rh8  1  0.245129  0.753212  0.754871  1
