# generated using pymatgen
data_Ti2Al3Ru6W
_symmetry_space_group_name_H-M   'P 1'
_cell_length_a   4.32038800
_cell_length_b   6.12049000
_cell_length_c   12.93579400
_cell_angle_alpha   90.00000000
_cell_angle_beta   89.99739372
_cell_angle_gamma   90.00000000
_symmetry_Int_Tables_number   1
_chemical_formula_structural   Ti2Al3Ru6W
_chemical_formula_sum   'Ti4 Al6 Ru12 W2'
_cell_volume   342.05979768
_cell_formula_units_Z   2
loop_
 _symmetry_equiv_pos_site_id
 _symmetry_equiv_pos_as_xyz
  1  'x, y, z'
loop_
 _atom_site_type_symbol
 _atom_site_label
 _atom_site_symmetry_multiplicity
 _atom_site_fract_x
 _atom_site_fract_y
 _atom_site_fract_z
 _atom_site_occupancy
  Ti  Ti0  1  0.999849  0.499999  0.337167  1
  Ti  Ti1  1  0.499994  0.000000  0.501694  1
  Ti  Ti2  1  0.000146  0.499999  0.664949  1
  Ti  Ti3  1  0.500153  0.000000  0.829581  1
  Al  Al4  1  0.000005  0.000000  0.998165  1
  Al  Al5  1  0.499850  0.499999  0.168511  1
  Al  Al6  1  0.999847  0.000000  0.336336  1
  Al  Al7  1  0.500000  0.499999  0.500957  1
  Al  Al8  1  0.000154  0.000000  0.665676  1
  Al  Al9  1  0.500150  0.499999  0.830378  1
  Ru  Ru10  1  0.500006  0.251900  0.001897  1
  Ru  Ru11  1  0.500006  0.748099  0.001897  1
  Ru  Ru12  1  0.999873  0.248100  0.164785  1
  Ru  Ru13  1  0.999873  0.751900  0.164785  1
  Ru  Ru14  1  0.499833  0.249955  0.331224  1
  Ru  Ru15  1  0.499833  0.750046  0.331224  1
  Ru  Ru16  1  0.999990  0.250591  0.499396  1
  Ru  Ru17  1  0.999990  0.749409  0.499396  1
  Ru  Ru18  1  0.500135  0.249552  0.667261  1
  Ru  Ru19  1  0.500135  0.750449  0.667261  1
  Ru  Ru20  1  0.000165  0.250226  0.835453  1
  Ru  Ru21  1  0.000165  0.749774  0.835453  1
  W  W22  1  0.000003  0.499999  0.996177  1
  W  W23  1  0.499846  0.000000  0.170378  1
