# generated using pymatgen
data_InAgBi2(Ir2O7)2
_symmetry_space_group_name_H-M   'P 1'
_cell_length_a   7.25282411
_cell_length_b   7.19274275
_cell_length_c   7.25282476
_cell_angle_alpha   60.80086285
_cell_angle_beta   61.14795198
_cell_angle_gamma   60.80086517
_symmetry_Int_Tables_number   1
_chemical_formula_structural   InAgBi2(Ir2O7)2
_chemical_formula_sum   'In1 Ag1 Bi2 Ir4 O14'
_cell_volume   273.06329643
_cell_formula_units_Z   1
loop_
 _symmetry_equiv_pos_site_id
 _symmetry_equiv_pos_as_xyz
  1  'x, y, z'
loop_
 _atom_site_type_symbol
 _atom_site_label
 _atom_site_symmetry_multiplicity
 _atom_site_fract_x
 _atom_site_fract_y
 _atom_site_fract_z
 _atom_site_occupancy
  In  In0  1  0.125000  0.625000  0.125000  1
  Ag  Ag1  1  0.125000  0.125000  0.125000  1
  Bi  Bi2  1  0.625000  0.125000  0.125000  1
  Bi  Bi3  1  0.125000  0.125000  0.625000  1
  Ir  Ir4  1  0.125000  0.625000  0.625000  1
  Ir  Ir5  1  0.625000  0.125000  0.625000  1
  Ir  Ir6  1  0.625000  0.625000  0.125000  1
  Ir  Ir7  1  0.625000  0.625000  0.625000  1
  O  O8  1  0.714754  0.704705  0.292615  1
  O  O9  1  0.298863  0.299574  0.693527  1
  O  O10  1  0.708074  0.294205  0.708074  1
  O  O11  1  0.300294  0.679597  0.300294  1
  O  O12  1  0.292615  0.704705  0.714754  1
  O  O13  1  0.693527  0.299574  0.298863  1
  O  O14  1  0.535246  0.545295  0.957385  1
  O  O15  1  0.951137  0.950426  0.556473  1
  O  O16  1  0.541926  0.955795  0.541926  1
  O  O17  1  0.949706  0.570403  0.949706  1
  O  O18  1  0.957385  0.545295  0.535246  1
  O  O19  1  0.556473  0.950426  0.951137  1
  O  O20  1  0.239904  0.260658  0.239904  1
  O  O21  1  0.010096  0.989342  0.010096  1
