# generated using pymatgen
data_La16Ga5Co2Hg
_symmetry_space_group_name_H-M   'P 1'
_cell_length_a   10.68232700
_cell_length_b   10.69743252
_cell_length_c   7.04930311
_cell_angle_alpha   89.90667801
_cell_angle_beta   90.00000000
_cell_angle_gamma   119.95329699
_symmetry_Int_Tables_number   1
_chemical_formula_structural   La16Ga5Co2Hg
_chemical_formula_sum   'La16 Ga5 Co2 Hg1'
_cell_volume   697.95217456
_cell_formula_units_Z   1
loop_
 _symmetry_equiv_pos_site_id
 _symmetry_equiv_pos_as_xyz
  1  'x, y, z'
loop_
 _atom_site_type_symbol
 _atom_site_label
 _atom_site_symmetry_multiplicity
 _atom_site_fract_x
 _atom_site_fract_y
 _atom_site_fract_z
 _atom_site_occupancy
  La  La0  1  0.665224  0.330448  0.182476  1
  La  La1  1  0.001638  0.003276  0.284535  1
  La  La2  1  0.460736  0.921469  0.286134  1
  La  La3  1  0.080665  0.539976  0.286501  1
  La  La4  1  0.459311  0.539976  0.286501  1
  La  La5  1  0.341701  0.170536  0.495039  1
  La  La6  1  0.828835  0.170536  0.495039  1
  La  La7  1  0.828550  0.657099  0.494793  1
  La  La8  1  0.333062  0.666124  0.681987  1
  La  La9  1  0.001321  0.002643  0.781889  1
  La  La10  1  0.539390  0.078779  0.786835  1
  La  La11  1  0.537584  0.459002  0.784564  1
  La  La12  1  0.921419  0.459002  0.784564  1
  La  La13  1  0.174315  0.831046  0.994794  1
  La  La14  1  0.656731  0.831046  0.994794  1
  La  La15  1  0.170989  0.341976  0.994299  1
  Ga  Ga16  1  0.329287  0.164815  0.033041  1
  Ga  Ga17  1  0.835528  0.164815  0.033041  1
  Ga  Ga18  1  0.164371  0.328742  0.533529  1
  Ga  Ga19  1  0.164517  0.835227  0.533065  1
  Ga  Ga20  1  0.670709  0.835227  0.533065  1
  Co  Co21  1  0.333664  0.667330  0.055387  1
  Co  Co22  1  0.666541  0.333080  0.556026  1
  Hg  Hg23  1  0.833915  0.667831  0.034100  1
