# generated using pymatgen
data_Th7Pa(FeSi3)4
_symmetry_space_group_name_H-M   'P 1'
_cell_length_a   8.14484600
_cell_length_b   8.13269868
_cell_length_c   8.28143500
_cell_angle_alpha   90.00000000
_cell_angle_beta   90.00000000
_cell_angle_gamma   119.95067075
_symmetry_Int_Tables_number   1
_chemical_formula_structural   Th7Pa(FeSi3)4
_chemical_formula_sum   'Th7 Pa1 Fe4 Si12'
_cell_volume   475.30179025
_cell_formula_units_Z   1
loop_
 _symmetry_equiv_pos_site_id
 _symmetry_equiv_pos_as_xyz
  1  'x, y, z'
loop_
 _atom_site_type_symbol
 _atom_site_label
 _atom_site_symmetry_multiplicity
 _atom_site_fract_x
 _atom_site_fract_y
 _atom_site_fract_z
 _atom_site_occupancy
  Th  Th0  1  0.000082  0.000041  0.250000  1
  Th  Th1  1  0.000007  0.000004  0.750000  1
  Th  Th2  1  0.500051  0.499928  0.250000  1
  Th  Th3  1  0.500051  0.000123  0.250000  1
  Th  Th4  1  0.999805  0.499902  0.250000  1
  Th  Th5  1  0.500067  0.499940  0.750000  1
  Th  Th6  1  0.500067  0.000127  0.750000  1
  Pa  Pa7  1  0.999465  0.499732  0.750000  1
  Fe  Fe8  1  0.328686  0.664343  0.519712  1
  Fe  Fe9  1  0.671486  0.335742  0.520224  1
  Fe  Fe10  1  0.671486  0.335742  0.979776  1
  Fe  Fe11  1  0.328686  0.664343  0.980288  1
  Si  Si12  1  0.169146  0.827816  0.501022  1
  Si  Si13  1  0.169146  0.341330  0.501022  1
  Si  Si14  1  0.657633  0.828817  0.498778  1
  Si  Si15  1  0.830884  0.172097  0.500888  1
  Si  Si16  1  0.830884  0.658786  0.500888  1
  Si  Si17  1  0.342340  0.171169  0.498795  1
  Si  Si18  1  0.830884  0.172097  0.999112  1
  Si  Si19  1  0.830884  0.658786  0.999112  1
  Si  Si20  1  0.342340  0.171169  0.001205  1
  Si  Si21  1  0.169146  0.827816  0.998978  1
  Si  Si22  1  0.169146  0.341330  0.998978  1
  Si  Si23  1  0.657633  0.828817  0.001222  1
