# generated using pymatgen
data_Y3ThTlInPd4
_symmetry_space_group_name_H-M   'P 1'
_cell_length_a   7.85448490
_cell_length_b   7.85676688
_cell_length_c   3.73950500
_cell_angle_alpha   90.00000000
_cell_angle_beta   90.00000000
_cell_angle_gamma   91.10277475
_symmetry_Int_Tables_number   1
_chemical_formula_structural   Y3ThTlInPd4
_chemical_formula_sum   'Y3 Th1 Tl1 In1 Pd4'
_cell_volume   230.72531526
_cell_formula_units_Z   1
loop_
 _symmetry_equiv_pos_site_id
 _symmetry_equiv_pos_as_xyz
  1  'x, y, z'
loop_
 _atom_site_type_symbol
 _atom_site_label
 _atom_site_symmetry_multiplicity
 _atom_site_fract_x
 _atom_site_fract_y
 _atom_site_fract_z
 _atom_site_occupancy
  Y  Y0  1  0.323199  0.824760  0.500000  1
  Y  Y1  1  0.174209  0.329981  0.500000  1
  Y  Y2  1  0.831708  0.676010  0.500000  1
  Th  Th3  1  0.672057  0.170076  0.500000  1
  Tl  Tl4  1  0.497071  0.506837  0.000000  1
  In  In5  1  0.006590  0.996828  0.000000  1
  Pd  Pd6  1  0.121061  0.624841  0.000000  1
  Pd  Pd7  1  0.870448  0.366916  0.000000  1
  Pd  Pd8  1  0.629202  0.878193  0.000000  1
  Pd  Pd9  1  0.374454  0.125559  0.000000  1
