# generated using pymatgen
data_Ti2Re2Mo3
_symmetry_space_group_name_H-M   'P 1'
_cell_length_a   6.92583702
_cell_length_b   6.92583692
_cell_length_c   6.92583737
_cell_angle_alpha   37.24037805
_cell_angle_beta   37.24038113
_cell_angle_gamma   37.24037942
_symmetry_Int_Tables_number   1
_chemical_formula_structural   Ti2Re2Mo3
_chemical_formula_sum   'Ti2 Re2 Mo3'
_cell_volume   109.05891726
_cell_formula_units_Z   1
loop_
 _symmetry_equiv_pos_site_id
 _symmetry_equiv_pos_as_xyz
  1  'x, y, z'
loop_
 _atom_site_type_symbol
 _atom_site_label
 _atom_site_symmetry_multiplicity
 _atom_site_fract_x
 _atom_site_fract_y
 _atom_site_fract_z
 _atom_site_occupancy
  Ti  Ti0  1  0.193742  0.193742  0.193742  1
  Ti  Ti1  1  0.769645  0.769645  0.769645  1
  Re  Re2  1  0.051205  0.051205  0.051205  1
  Re  Re3  1  0.481978  0.481978  0.481978  1
  Mo  Mo4  1  0.342769  0.342769  0.342769  1
  Mo  Mo5  1  0.622087  0.622087  0.622087  1
  Mo  Mo6  1  0.913575  0.913575  0.913575  1
