# generated using pymatgen
data_Ta7(TiN4)3
_symmetry_space_group_name_H-M   'P 1'
_cell_length_a   5.20545800
_cell_length_b   5.20545812
_cell_length_c   10.20491800
_cell_angle_alpha   90.00000000
_cell_angle_beta   90.00000000
_cell_angle_gamma   119.99999926
_symmetry_Int_Tables_number   1
_chemical_formula_structural   Ta7(TiN4)3
_chemical_formula_sum   'Ta7 Ti3 N12'
_cell_volume   239.47382852
_cell_formula_units_Z   1
loop_
 _symmetry_equiv_pos_site_id
 _symmetry_equiv_pos_as_xyz
  1  'x, y, z'
loop_
 _atom_site_type_symbol
 _atom_site_label
 _atom_site_symmetry_multiplicity
 _atom_site_fract_x
 _atom_site_fract_y
 _atom_site_fract_z
 _atom_site_occupancy
  Ta  Ta0  1  0.678287  0.679814  0.751585  1
  Ta  Ta1  1  0.320186  0.998473  0.751585  1
  Ta  Ta2  1  0.001527  0.321713  0.751585  1
  Ta  Ta3  1  0.320186  0.321713  0.248415  1
  Ta  Ta4  1  0.678287  0.998473  0.248415  1
  Ta  Ta5  1  0.001527  0.679814  0.248415  1
  Ta  Ta6  1  0.666667  0.333333  0.500000  1
  Ti  Ti7  1  0.666667  0.333333  0.000000  1
  Ti  Ti8  1  0.333333  0.666667  0.000000  1
  Ti  Ti9  1  0.333333  0.666667  0.500000  1
  N  N10  1  0.656228  0.657828  0.378947  1
  N  N11  1  0.342172  0.998400  0.378947  1
  N  N12  1  0.001600  0.343772  0.378947  1
  N  N13  1  0.342172  0.343772  0.621053  1
  N  N14  1  0.656228  0.998400  0.621053  1
  N  N15  1  0.001600  0.657828  0.621053  1
  N  N16  1  0.346398  0.346158  0.879528  1
  N  N17  1  0.653842  0.000240  0.879528  1
  N  N18  1  0.999760  0.653602  0.879528  1
  N  N19  1  0.653842  0.653602  0.120472  1
  N  N20  1  0.346398  0.000240  0.120472  1
  N  N21  1  0.999760  0.346158  0.120472  1
