# generated using pymatgen
data_Zr4TaSi4
_symmetry_space_group_name_H-M   'P 1'
_cell_length_a   7.06584100
_cell_length_b   7.06584100
_cell_length_c   12.95501700
_cell_angle_alpha   90.00000000
_cell_angle_beta   90.00000000
_cell_angle_gamma   90.00000000
_symmetry_Int_Tables_number   1
_chemical_formula_structural   Zr4TaSi4
_chemical_formula_sum   'Zr16 Ta4 Si16'
_cell_volume   646.79359132
_cell_formula_units_Z   4
loop_
 _symmetry_equiv_pos_site_id
 _symmetry_equiv_pos_as_xyz
  1  'x, y, z'
loop_
 _atom_site_type_symbol
 _atom_site_label
 _atom_site_symmetry_multiplicity
 _atom_site_fract_x
 _atom_site_fract_y
 _atom_site_fract_z
 _atom_site_occupancy
  Zr  Zr0  1  0.354615  0.502885  0.376205  1
  Zr  Zr1  1  0.854615  0.997115  0.373795  1
  Zr  Zr2  1  0.002885  0.145385  0.126205  1
  Zr  Zr3  1  0.997115  0.854615  0.626205  1
  Zr  Zr4  1  0.645385  0.497115  0.876205  1
  Zr  Zr5  1  0.502885  0.354615  0.623795  1
  Zr  Zr6  1  0.497115  0.645385  0.123795  1
  Zr  Zr7  1  0.145385  0.002885  0.873795  1
  Zr  Zr8  1  0.999755  0.650305  0.034117  1
  Zr  Zr9  1  0.000245  0.349695  0.534117  1
  Zr  Zr10  1  0.650305  0.999755  0.965883  1
  Zr  Zr11  1  0.150305  0.500245  0.784117  1
  Zr  Zr12  1  0.849695  0.499755  0.284117  1
  Zr  Zr13  1  0.500245  0.150305  0.215883  1
  Zr  Zr14  1  0.499755  0.849695  0.715883  1
  Zr  Zr15  1  0.349695  0.000245  0.465883  1
  Ta  Ta16  1  0.675669  0.675669  0.500000  1
  Ta  Ta17  1  0.824331  0.175669  0.750000  1
  Ta  Ta18  1  0.175669  0.824331  0.250000  1
  Ta  Ta19  1  0.324331  0.324331  0.000000  1
  Si  Si20  1  0.049258  0.700033  0.435837  1
  Si  Si21  1  0.950742  0.299967  0.935837  1
  Si  Si22  1  0.700033  0.049258  0.564163  1
  Si  Si23  1  0.200033  0.450742  0.185837  1
  Si  Si24  1  0.799967  0.549258  0.685837  1
  Si  Si25  1  0.450742  0.200033  0.814163  1
  Si  Si26  1  0.549258  0.799967  0.314163  1
  Si  Si27  1  0.299967  0.950742  0.064163  1
  Si  Si28  1  0.852126  0.797942  0.821479  1
  Si  Si29  1  0.147874  0.202058  0.321479  1
  Si  Si30  1  0.797942  0.852126  0.178521  1
  Si  Si31  1  0.297942  0.647874  0.571479  1
  Si  Si32  1  0.702058  0.352126  0.071479  1
  Si  Si33  1  0.647874  0.297942  0.428521  1
  Si  Si34  1  0.352126  0.702058  0.928521  1
  Si  Si35  1  0.202058  0.147874  0.678521  1
