# generated using pymatgen
data_Tm10NiRhPb6
_symmetry_space_group_name_H-M   'P 1'
_cell_length_a   9.07276800
_cell_length_b   9.07276837
_cell_length_c   6.66399000
_cell_angle_alpha   90.00000000
_cell_angle_beta   90.00000000
_cell_angle_gamma   119.99999864
_symmetry_Int_Tables_number   1
_chemical_formula_structural   Tm10NiRhPb6
_chemical_formula_sum   'Tm10 Ni1 Rh1 Pb6'
_cell_volume   475.05577664
_cell_formula_units_Z   1
loop_
 _symmetry_equiv_pos_site_id
 _symmetry_equiv_pos_as_xyz
  1  'x, y, z'
loop_
 _atom_site_type_symbol
 _atom_site_label
 _atom_site_symmetry_multiplicity
 _atom_site_fract_x
 _atom_site_fract_y
 _atom_site_fract_z
 _atom_site_occupancy
  Tm  Tm0  1  0.237459  0.237459  0.749999  1
  Tm  Tm1  1  0.000000  0.762541  0.749999  1
  Tm  Tm2  1  0.237459  0.000000  0.250001  1
  Tm  Tm3  1  0.762541  0.000000  0.749999  1
  Tm  Tm4  1  0.333333  0.666667  0.500000  1
  Tm  Tm5  1  0.666667  0.333333  0.500000  1
  Tm  Tm6  1  0.762541  0.762541  0.250001  1
  Tm  Tm7  1  0.000000  0.237459  0.250001  1
  Tm  Tm8  1  0.333333  0.666667  0.000000  1
  Tm  Tm9  1  0.666667  0.333333  0.000000  1
  Ni  Ni10  1  0.000000  0.000000  0.500000  1
  Rh  Rh11  1  0.000000  0.000000  0.000000  1
  Pb  Pb12  1  0.599294  0.000000  0.250950  1
  Pb  Pb13  1  0.000000  0.599294  0.250950  1
  Pb  Pb14  1  0.599294  0.599294  0.749050  1
  Pb  Pb15  1  0.400706  0.400706  0.250950  1
  Pb  Pb16  1  0.000000  0.400706  0.749050  1
  Pb  Pb17  1  0.400706  0.000000  0.749050  1
