# generated using pymatgen
data_Sm5YNiI10
_symmetry_space_group_name_H-M   'P 1'
_cell_length_a   7.81943978
_cell_length_b   9.84299737
_cell_length_c   9.86186011
_cell_angle_alpha   107.37322529
_cell_angle_beta   96.91897433
_cell_angle_gamma   104.77121108
_symmetry_Int_Tables_number   1
_chemical_formula_structural   Sm5YNiI10
_chemical_formula_sum   'Sm5 Y1 Ni1 I10'
_cell_volume   684.38812238
_cell_formula_units_Z   1
loop_
 _symmetry_equiv_pos_site_id
 _symmetry_equiv_pos_as_xyz
  1  'x, y, z'
loop_
 _atom_site_type_symbol
 _atom_site_label
 _atom_site_symmetry_multiplicity
 _atom_site_fract_x
 _atom_site_fract_y
 _atom_site_fract_z
 _atom_site_occupancy
  Sm  Sm0  1  0.887614  0.960244  0.239302  1
  Sm  Sm1  1  0.116569  0.041372  0.762139  1
  Sm  Sm2  1  0.032700  0.717281  0.915458  1
  Sm  Sm3  1  0.970019  0.283475  0.085988  1
  Sm  Sm4  1  0.655601  0.877143  0.835959  1
  Y  Y5  1  0.340946  0.121533  0.162144  1
  Ni  Ni6  1  0.000123  0.000102  0.999561  1
  I  I7  1  0.646094  0.546800  0.727796  1
  I  I8  1  0.357244  0.447825  0.272182  1
  I  I9  1  0.739970  0.912148  0.538209  1
  I  I10  1  0.264008  0.089474  0.458718  1
  I  I11  1  0.085282  0.370825  0.818140  1
  I  I12  1  0.914358  0.628828  0.181975  1
  I  I13  1  0.453410  0.819631  0.094589  1
  I  I14  1  0.544804  0.186112  0.911758  1
  I  I15  1  0.221408  0.741259  0.651974  1
  I  I16  1  0.769849  0.255947  0.344108  1
