# generated using pymatgen
data_Nd2Y3Ho(RuO7)2
_symmetry_space_group_name_H-M   'P 1'
_cell_length_a   6.45105004
_cell_length_b   6.45683773
_cell_length_c   7.51226300
_cell_angle_alpha   90.00000000
_cell_angle_beta   90.00000000
_cell_angle_gamma   110.17506277
_symmetry_Int_Tables_number   1
_chemical_formula_structural   Nd2Y3Ho(RuO7)2
_chemical_formula_sum   'Nd2 Y3 Ho1 Ru2 O14'
_cell_volume   293.71194858
_cell_formula_units_Z   1
loop_
 _symmetry_equiv_pos_site_id
 _symmetry_equiv_pos_as_xyz
  1  'x, y, z'
loop_
 _atom_site_type_symbol
 _atom_site_label
 _atom_site_symmetry_multiplicity
 _atom_site_fract_x
 _atom_site_fract_y
 _atom_site_fract_z
 _atom_site_occupancy
  Nd  Nd0  1  0.000119  0.999918  0.499601  1
  Nd  Nd1  1  0.000119  0.999918  0.000399  1
  Y  Y2  1  0.481865  0.930751  0.750000  1
  Y  Y3  1  0.518116  0.068950  0.250000  1
  Y  Y4  1  0.930786  0.481736  0.750000  1
  Ho  Ho5  1  0.068500  0.517617  0.250000  1
  Ru  Ru6  1  0.500031  0.500160  0.499556  1
  Ru  Ru7  1  0.500031  0.500160  0.000444  1
  O  O8  1  0.588487  0.587992  0.750000  1
  O  O9  1  0.410453  0.412107  0.250000  1
  O  O10  1  0.839377  0.116945  0.750000  1
  O  O11  1  0.160631  0.881034  0.250000  1
  O  O12  1  0.116498  0.838916  0.750000  1
  O  O13  1  0.883944  0.162892  0.250000  1
  O  O14  1  0.439338  0.182152  0.963547  1
  O  O15  1  0.561172  0.818181  0.463363  1
  O  O16  1  0.181692  0.440394  0.965056  1
  O  O17  1  0.818319  0.559726  0.462018  1
  O  O18  1  0.439338  0.182152  0.536453  1
  O  O19  1  0.561172  0.818181  0.036637  1
  O  O20  1  0.818319  0.559726  0.037982  1
  O  O21  1  0.181692  0.440394  0.534944  1
