# generated using pymatgen
data_LiLaNb4O8
_symmetry_space_group_name_H-M   'P 1'
_cell_length_a   5.14767500
_cell_length_b   5.95877400
_cell_length_c   12.06734000
_cell_angle_alpha   90.00000000
_cell_angle_beta   90.00000000
_cell_angle_gamma   90.00000000
_symmetry_Int_Tables_number   1
_chemical_formula_structural   LiLaNb4O8
_chemical_formula_sum   'Li2 La2 Nb8 O16'
_cell_volume   370.15155925
_cell_formula_units_Z   2
loop_
 _symmetry_equiv_pos_site_id
 _symmetry_equiv_pos_as_xyz
  1  'x, y, z'
loop_
 _atom_site_type_symbol
 _atom_site_label
 _atom_site_symmetry_multiplicity
 _atom_site_fract_x
 _atom_site_fract_y
 _atom_site_fract_z
 _atom_site_occupancy
  Li  Li0  1  0.805154  0.250000  0.501920  1
  Li  Li1  1  0.805154  0.750000  0.998080  1
  La  La2  1  0.319040  0.250000  0.002744  1
  La  La3  1  0.319040  0.750000  0.497256  1
  Nb  Nb4  1  0.145516  0.000000  0.250000  1
  Nb  Nb5  1  0.145516  0.500000  0.250000  1
  Nb  Nb6  1  0.330187  0.250000  0.742014  1
  Nb  Nb7  1  0.330187  0.750000  0.757986  1
  Nb  Nb8  1  0.650132  0.250000  0.251336  1
  Nb  Nb9  1  0.650132  0.750000  0.248664  1
  Nb  Nb10  1  0.831779  0.000000  0.750000  1
  Nb  Nb11  1  0.831779  0.500000  0.750000  1
  O  O12  1  0.989322  0.250000  0.638590  1
  O  O13  1  0.989322  0.750000  0.861410  1
  O  O14  1  0.005138  0.250000  0.855023  1
  O  O15  1  0.005138  0.750000  0.644977  1
  O  O16  1  0.484203  0.500174  0.141015  1
  O  O17  1  0.484203  0.999826  0.141015  1
  O  O18  1  0.484203  0.000174  0.358985  1
  O  O19  1  0.484203  0.499826  0.358985  1
  O  O20  1  0.498675  0.509064  0.640864  1
  O  O21  1  0.498675  0.009064  0.859136  1
  O  O22  1  0.498675  0.490936  0.859136  1
  O  O23  1  0.498675  0.990936  0.640864  1
  O  O24  1  0.978181  0.750000  0.141276  1
  O  O25  1  0.978181  0.250000  0.358724  1
  O  O26  1  0.979796  0.250000  0.141569  1
  O  O27  1  0.979796  0.750000  0.358431  1
