# generated using pymatgen
data_Hf4Sc3Co16CuP12
_symmetry_space_group_name_H-M   'P 1'
_cell_length_a   12.01597102
_cell_length_b   12.02365454
_cell_length_c   3.64150500
_cell_angle_alpha   90.00000000
_cell_angle_beta   90.00000000
_cell_angle_gamma   120.30933787
_symmetry_Int_Tables_number   1
_chemical_formula_structural   Hf4Sc3Co16CuP12
_chemical_formula_sum   'Hf4 Sc3 Co16 Cu1 P12'
_cell_volume   454.19746992
_cell_formula_units_Z   1
loop_
 _symmetry_equiv_pos_site_id
 _symmetry_equiv_pos_as_xyz
  1  'x, y, z'
loop_
 _atom_site_type_symbol
 _atom_site_label
 _atom_site_symmetry_multiplicity
 _atom_site_fract_x
 _atom_site_fract_y
 _atom_site_fract_z
 _atom_site_occupancy
  Hf  Hf0  1  0.815457  0.815392  0.500000  1
  Hf  Hf1  1  0.998830  0.178515  0.500000  1
  Hf  Hf2  1  0.998647  0.555924  0.000000  1
  Hf  Hf3  1  0.179679  0.998953  0.500000  1
  Sc  Sc4  1  0.556678  0.998767  0.000000  1
  Sc  Sc5  1  0.331954  0.667180  0.000000  1
  Sc  Sc6  1  0.667248  0.331207  0.000000  1
  Co  Co7  1  0.629238  0.819410  0.000000  1
  Co  Co8  1  0.373628  0.199463  0.000000  1
  Co  Co9  1  0.998583  0.722285  0.500000  1
  Co  Co10  1  0.287433  0.287716  0.500000  1
  Co  Co11  1  0.873638  0.353254  0.500000  1
  Co  Co12  1  0.721625  0.998799  0.500000  1
  Co  Co13  1  0.820018  0.630314  0.000000  1
  Co  Co14  1  0.175908  0.809027  0.000000  1
  Co  Co15  1  0.352422  0.873368  0.500000  1
  Co  Co16  1  0.126275  0.478857  0.500000  1
  Co  Co17  1  0.641702  0.514198  0.500000  1
  Co  Co18  1  0.003040  0.003900  0.000000  1
  Co  Co19  1  0.515557  0.642183  0.500000  1
  Co  Co20  1  0.478018  0.126097  0.500000  1
  Co  Co21  1  0.200304  0.374709  0.000000  1
  Co  Co22  1  0.808004  0.176917  0.000000  1
  Cu  Cu23  1  0.450631  0.447749  0.000000  1
  P  P24  1  0.004131  0.347661  0.000000  1
  P  P25  1  0.823661  0.515386  0.500000  1
  P  P26  1  0.688666  0.171603  0.500000  1
  P  P27  1  0.179234  0.179253  0.000000  1
  P  P28  1  0.639208  0.639844  0.000000  1
  P  P29  1  0.825084  0.998194  0.000000  1
  P  P30  1  0.515466  0.824857  0.500000  1
  P  P31  1  0.173010  0.690222  0.500000  1
  P  P32  1  0.350789  0.004543  0.000000  1
  P  P33  1  0.484280  0.312584  0.500000  1
  P  P34  1  0.998139  0.826855  0.000000  1
  P  P35  1  0.313814  0.484811  0.500000  1
