# generated using pymatgen
data_HfZr3Nb3Si4W
_symmetry_space_group_name_H-M   'P 1'
_cell_length_a   3.61945100
_cell_length_b   7.02207241
_cell_length_c   8.42751726
_cell_angle_alpha   90.21600665
_cell_angle_beta   90.00000000
_cell_angle_gamma   90.00000000
_symmetry_Int_Tables_number   1
_chemical_formula_structural   HfZr3Nb3Si4W
_chemical_formula_sum   'Hf1 Zr3 Nb3 Si4 W1'
_cell_volume   214.19265251
_cell_formula_units_Z   1
loop_
 _symmetry_equiv_pos_site_id
 _symmetry_equiv_pos_as_xyz
  1  'x, y, z'
loop_
 _atom_site_type_symbol
 _atom_site_label
 _atom_site_symmetry_multiplicity
 _atom_site_fract_x
 _atom_site_fract_y
 _atom_site_fract_z
 _atom_site_occupancy
  Hf  Hf0  1  0.250000  0.042014  0.330703  1
  Zr  Zr1  1  0.250000  0.545478  0.165503  1
  Zr  Zr2  1  0.750000  0.457669  0.833651  1
  Zr  Zr3  1  0.750000  0.957057  0.667367  1
  Nb  Nb4  1  0.250000  0.634213  0.558319  1
  Nb  Nb5  1  0.250000  0.128269  0.941322  1
  Nb  Nb6  1  0.750000  0.368192  0.439830  1
  Si  Si7  1  0.250000  0.755314  0.864633  1
  Si  Si8  1  0.250000  0.254651  0.639734  1
  Si  Si9  1  0.750000  0.241514  0.141179  1
  Si  Si10  1  0.750000  0.747703  0.356979  1
  W  W11  1  0.750000  0.867926  0.060780  1
