# generated using pymatgen
data_LiAcC12
_symmetry_space_group_name_H-M   'P 1'
_cell_length_a   4.32792500
_cell_length_b   4.32792475
_cell_length_c   8.96687300
_cell_angle_alpha   90.00000000
_cell_angle_beta   90.00000000
_cell_angle_gamma   119.99999424
_symmetry_Int_Tables_number   1
_chemical_formula_structural   LiAcC12
_chemical_formula_sum   'Li1 Ac1 C12'
_cell_volume   145.45582009
_cell_formula_units_Z   1
loop_
 _symmetry_equiv_pos_site_id
 _symmetry_equiv_pos_as_xyz
  1  'x, y, z'
loop_
 _atom_site_type_symbol
 _atom_site_label
 _atom_site_symmetry_multiplicity
 _atom_site_fract_x
 _atom_site_fract_y
 _atom_site_fract_z
 _atom_site_occupancy
  Li  Li0  1  0.333333  0.666667  0.250000  1
  Ac  Ac1  1  0.666667  0.333333  0.750000  1
  C  C2  1  0.333740  0.333101  0.464145  1
  C  C3  1  0.666899  0.000640  0.464145  1
  C  C4  1  0.999360  0.666260  0.464145  1
  C  C5  1  0.666899  0.666260  0.464145  1
  C  C6  1  0.999360  0.333101  0.464145  1
  C  C7  1  0.333740  0.000640  0.464145  1
  C  C8  1  0.666899  0.666260  0.035855  1
  C  C9  1  0.333740  0.000640  0.035855  1
  C  C10  1  0.999360  0.333101  0.035855  1
  C  C11  1  0.333740  0.333101  0.035855  1
  C  C12  1  0.999360  0.666260  0.035855  1
  C  C13  1  0.666899  0.000640  0.035855  1
