# generated using pymatgen
data_CeNdGa12
_symmetry_space_group_name_H-M   'P 1'
_cell_length_a   6.03497100
_cell_length_b   6.03497100
_cell_length_c   7.68500800
_cell_angle_alpha   90.00000000
_cell_angle_beta   90.00000000
_cell_angle_gamma   90.00000000
_symmetry_Int_Tables_number   1
_chemical_formula_structural   CeNdGa12
_chemical_formula_sum   'Ce1 Nd1 Ga12'
_cell_volume   279.89471552
_cell_formula_units_Z   1
loop_
 _symmetry_equiv_pos_site_id
 _symmetry_equiv_pos_as_xyz
  1  'x, y, z'
loop_
 _atom_site_type_symbol
 _atom_site_label
 _atom_site_symmetry_multiplicity
 _atom_site_fract_x
 _atom_site_fract_y
 _atom_site_fract_z
 _atom_site_occupancy
  Ce  Ce0  1  0.500000  0.000000  0.000000  1
  Nd  Nd1  1  0.000000  0.500000  0.000000  1
  Ga  Ga2  1  0.682960  0.817040  0.351063  1
  Ga  Ga3  1  0.317040  0.182960  0.351063  1
  Ga  Ga4  1  0.000000  0.000000  0.162172  1
  Ga  Ga5  1  0.000000  0.000000  0.837828  1
  Ga  Ga6  1  0.500000  0.500000  0.837828  1
  Ga  Ga7  1  0.500000  0.500000  0.162172  1
  Ga  Ga8  1  0.184577  0.315423  0.646417  1
  Ga  Ga9  1  0.682960  0.182960  0.648937  1
  Ga  Ga10  1  0.317040  0.817040  0.648937  1
  Ga  Ga11  1  0.184577  0.684577  0.353583  1
  Ga  Ga12  1  0.815423  0.315423  0.353583  1
  Ga  Ga13  1  0.815423  0.684577  0.646417  1
