# generated using pymatgen
data_Er16In6IrRu
_symmetry_space_group_name_H-M   'P 1'
_cell_length_a   10.33598100
_cell_length_b   10.33597928
_cell_length_c   7.00351300
_cell_angle_alpha   90.00000000
_cell_angle_beta   90.00000000
_cell_angle_gamma   119.99999590
_symmetry_Int_Tables_number   1
_chemical_formula_structural   Er16In6IrRu
_chemical_formula_sum   'Er16 In6 Ir1 Ru1'
_cell_volume   647.96257281
_cell_formula_units_Z   1
loop_
 _symmetry_equiv_pos_site_id
 _symmetry_equiv_pos_as_xyz
  1  'x, y, z'
loop_
 _atom_site_type_symbol
 _atom_site_label
 _atom_site_symmetry_multiplicity
 _atom_site_fract_x
 _atom_site_fract_y
 _atom_site_fract_z
 _atom_site_occupancy
  Er  Er0  1  0.532563  0.065125  0.794264  1
  Er  Er1  1  0.934875  0.467437  0.794264  1
  Er  Er2  1  0.532563  0.467437  0.794264  1
  Er  Er3  1  0.467025  0.934050  0.293848  1
  Er  Er4  1  0.065950  0.532975  0.293848  1
  Er  Er5  1  0.467025  0.532975  0.293848  1
  Er  Er6  1  0.823138  0.646276  0.499082  1
  Er  Er7  1  0.353724  0.176862  0.499082  1
  Er  Er8  1  0.823138  0.176862  0.499082  1
  Er  Er9  1  0.177198  0.354397  0.999139  1
  Er  Er10  1  0.645603  0.822802  0.999139  1
  Er  Er11  1  0.177198  0.822802  0.999139  1
  Er  Er12  1  0.666667  0.333333  0.171813  1
  Er  Er13  1  0.333333  0.666667  0.671655  1
  Er  Er14  1  0.000000  0.000000  0.778514  1
  Er  Er15  1  0.000000  0.000000  0.278491  1
  In  In16  1  0.837198  0.674397  0.039620  1
  In  In17  1  0.325603  0.162802  0.039620  1
  In  In18  1  0.837198  0.162802  0.039620  1
  In  In19  1  0.162774  0.325547  0.539531  1
  In  In20  1  0.674453  0.837226  0.539531  1
  In  In21  1  0.162774  0.837226  0.539531  1
  Ir  Ir22  1  0.666667  0.333333  0.569286  1
  Ru  Ru23  1  0.333333  0.666667  0.069692  1
