# generated using pymatgen
data_Zr9Re3MoRh
_symmetry_space_group_name_H-M   'P 1'
_cell_length_a   8.78634300
_cell_length_b   8.78634304
_cell_length_c   8.54397700
_cell_angle_alpha   90.00000000
_cell_angle_beta   90.00000000
_cell_angle_gamma   120.00000362
_symmetry_Int_Tables_number   1
_chemical_formula_structural   Zr9Re3MoRh
_chemical_formula_sum   'Zr18 Re6 Mo2 Rh2'
_cell_volume   571.22472164
_cell_formula_units_Z   2
loop_
 _symmetry_equiv_pos_site_id
 _symmetry_equiv_pos_as_xyz
  1  'x, y, z'
loop_
 _atom_site_type_symbol
 _atom_site_label
 _atom_site_symmetry_multiplicity
 _atom_site_fract_x
 _atom_site_fract_y
 _atom_site_fract_z
 _atom_site_occupancy
  Zr  Zr0  1  0.196597  0.803403  0.445942  1
  Zr  Zr1  1  0.196597  0.393192  0.445942  1
  Zr  Zr2  1  0.606808  0.803403  0.445942  1
  Zr  Zr3  1  0.803403  0.196597  0.554058  1
  Zr  Zr4  1  0.803403  0.606808  0.554058  1
  Zr  Zr5  1  0.393192  0.196597  0.554058  1
  Zr  Zr6  1  0.803403  0.196597  0.945942  1
  Zr  Zr7  1  0.803403  0.606808  0.945942  1
  Zr  Zr8  1  0.393192  0.196597  0.945942  1
  Zr  Zr9  1  0.196597  0.803403  0.054058  1
  Zr  Zr10  1  0.196597  0.393192  0.054058  1
  Zr  Zr11  1  0.606808  0.803403  0.054058  1
  Zr  Zr12  1  0.542802  0.457198  0.250000  1
  Zr  Zr13  1  0.542802  0.085606  0.250000  1
  Zr  Zr14  1  0.914394  0.457198  0.250000  1
  Zr  Zr15  1  0.457198  0.542802  0.750000  1
  Zr  Zr16  1  0.457198  0.914394  0.750000  1
  Zr  Zr17  1  0.085606  0.542802  0.750000  1
  Re  Re18  1  0.891064  0.108936  0.250000  1
  Re  Re19  1  0.891064  0.782127  0.250000  1
  Re  Re20  1  0.217873  0.108936  0.250000  1
  Re  Re21  1  0.108936  0.891064  0.750000  1
  Re  Re22  1  0.108936  0.217873  0.750000  1
  Re  Re23  1  0.782127  0.891064  0.750000  1
  Mo  Mo24  1  0.000000  0.000000  0.500000  1
  Mo  Mo25  1  0.000000  0.000000  0.000000  1
  Rh  Rh26  1  0.333333  0.666667  0.250000  1
  Rh  Rh27  1  0.666667  0.333333  0.750000  1
