# generated using pymatgen
data_Ho2Tm4Al16Os7
_symmetry_space_group_name_H-M   'P 1'
_cell_length_a   8.90899552
_cell_length_b   8.91524179
_cell_length_c   8.91524918
_cell_angle_alpha   59.95370992
_cell_angle_beta   60.02314227
_cell_angle_gamma   60.02323486
_symmetry_Int_Tables_number   1
_chemical_formula_structural   Ho2Tm4Al16Os7
_chemical_formula_sum   'Ho2 Tm4 Al16 Os7'
_cell_volume   500.70302518
_cell_formula_units_Z   1
loop_
 _symmetry_equiv_pos_site_id
 _symmetry_equiv_pos_as_xyz
  1  'x, y, z'
loop_
 _atom_site_type_symbol
 _atom_site_label
 _atom_site_symmetry_multiplicity
 _atom_site_fract_x
 _atom_site_fract_y
 _atom_site_fract_z
 _atom_site_occupancy
  Ho  Ho0  1  0.210946  0.788955  0.211045  1
  Ho  Ho1  1  0.210950  0.211051  0.788949  1
  Tm  Tm2  1  0.211610  0.788293  0.788295  1
  Tm  Tm3  1  0.788198  0.211705  0.211707  1
  Tm  Tm4  1  0.788625  0.211280  0.788720  1
  Tm  Tm5  1  0.788626  0.788719  0.211281  1
  Al  Al6  1  0.832726  0.832927  0.832924  1
  Al  Al7  1  0.832366  0.832767  0.501912  1
  Al  Al8  1  0.502376  0.832409  0.832413  1
  Al  Al9  1  0.832362  0.501912  0.832767  1
  Al  Al10  1  0.167198  0.167587  0.167591  1
  Al  Al11  1  0.167042  0.167233  0.498088  1
  Al  Al12  1  0.167045  0.498088  0.167233  1
  Al  Al13  1  0.498576  0.167076  0.167073  1
  Al  Al14  1  0.620976  0.620811  0.620813  1
  Al  Al15  1  0.621379  0.620754  0.137281  1
  Al  Al16  1  0.137164  0.621158  0.621155  1
  Al  Al17  1  0.621381  0.137281  0.620754  1
  Al  Al18  1  0.379477  0.378845  0.378842  1
  Al  Al19  1  0.379416  0.379246  0.862719  1
  Al  Al20  1  0.379414  0.862719  0.379246  1
  Al  Al21  1  0.862599  0.379187  0.379189  1
  Os  Os22  1  0.500176  0.500001  0.499999  1
  Os  Os23  1  0.999092  0.500000  0.500000  1
  Os  Os24  1  0.500739  0.999998  0.000002  1
  Os  Os25  1  0.500293  0.999627  0.499558  1
  Os  Os26  1  0.500295  0.499556  0.999625  1
  Os  Os27  1  0.999478  0.500442  0.000373  1
  Os  Os28  1  0.999475  0.000375  0.500444  1
