# generated using pymatgen
data_Ga6NiRh7
_symmetry_space_group_name_H-M   'P 1'
_cell_length_a   6.76300629
_cell_length_b   6.76300677
_cell_length_c   6.76300638
_cell_angle_alpha   113.53272691
_cell_angle_beta   113.53272941
_cell_angle_gamma   113.53271150
_symmetry_Int_Tables_number   1
_chemical_formula_structural   Ga6NiRh7
_chemical_formula_sum   'Ga6 Ni1 Rh7'
_cell_volume   194.27202574
_cell_formula_units_Z   1
loop_
 _symmetry_equiv_pos_site_id
 _symmetry_equiv_pos_as_xyz
  1  'x, y, z'
loop_
 _atom_site_type_symbol
 _atom_site_label
 _atom_site_symmetry_multiplicity
 _atom_site_fract_x
 _atom_site_fract_y
 _atom_site_fract_z
 _atom_site_occupancy
  Ga  Ga0  1  0.366164  0.225447  0.948725  1
  Ga  Ga1  1  0.948725  0.366164  0.225447  1
  Ga  Ga2  1  0.225447  0.948725  0.366164  1
  Ga  Ga3  1  0.633836  0.774553  0.051275  1
  Ga  Ga4  1  0.051275  0.633836  0.774553  1
  Ga  Ga5  1  0.774553  0.051275  0.633836  1
  Ni  Ni6  1  0.500000  0.500000  0.500000  1
  Rh  Rh7  1  0.000000  0.000000  0.000000  1
  Rh  Rh8  1  0.864408  0.718193  0.429323  1
  Rh  Rh9  1  0.429323  0.864408  0.718193  1
  Rh  Rh10  1  0.718193  0.429323  0.864408  1
  Rh  Rh11  1  0.135592  0.281807  0.570677  1
  Rh  Rh12  1  0.570677  0.135592  0.281807  1
  Rh  Rh13  1  0.281807  0.570677  0.135592  1
