# generated using pymatgen
data_Sr2FeCo3P4
_symmetry_space_group_name_H-M   'P 1'
_cell_length_a   5.31743900
_cell_length_b   6.47401841
_cell_length_c   5.31939034
_cell_angle_alpha   65.70534835
_cell_angle_beta   90.00004310
_cell_angle_gamma   90.00004430
_symmetry_Int_Tables_number   1
_chemical_formula_structural   Sr2FeCo3P4
_chemical_formula_sum   'Sr2 Fe1 Co3 P4'
_cell_volume   166.90417274
_cell_formula_units_Z   1
loop_
 _symmetry_equiv_pos_site_id
 _symmetry_equiv_pos_as_xyz
  1  'x, y, z'
loop_
 _atom_site_type_symbol
 _atom_site_label
 _atom_site_symmetry_multiplicity
 _atom_site_fract_x
 _atom_site_fract_y
 _atom_site_fract_z
 _atom_site_occupancy
  Sr  Sr0  1  0.998979  0.000001  0.999999  1
  Sr  Sr1  1  0.501035  0.999999  0.500000  1
  Fe  Fe2  1  0.250033  0.500000  0.500002  1
  Co  Co3  1  0.250022  0.499999  0.000000  1
  Co  Co4  1  0.749949  0.500001  0.000000  1
  Co  Co5  1  0.750008  0.499999  0.500000  1
  P  P6  1  0.498119  0.697163  0.152884  1
  P  P7  1  0.001866  0.696934  0.649734  1
  P  P8  1  0.001867  0.303065  0.350265  1
  P  P9  1  0.498121  0.302836  0.847116  1
