# generated using pymatgen
data_Mg3Ni(BrO3)8
_symmetry_space_group_name_H-M   'P 1'
_cell_length_a   5.70561102
_cell_length_b   10.54481066
_cell_length_c   10.58608211
_cell_angle_alpha   119.08861100
_cell_angle_beta   90.06629127
_cell_angle_gamma   90.03954361
_symmetry_Int_Tables_number   1
_chemical_formula_structural   Mg3Ni(BrO3)8
_chemical_formula_sum   'Mg3 Ni1 Br8 O24'
_cell_volume   556.57249474
_cell_formula_units_Z   1
loop_
 _symmetry_equiv_pos_site_id
 _symmetry_equiv_pos_as_xyz
  1  'x, y, z'
loop_
 _atom_site_type_symbol
 _atom_site_label
 _atom_site_symmetry_multiplicity
 _atom_site_fract_x
 _atom_site_fract_y
 _atom_site_fract_z
 _atom_site_occupancy
  Mg  Mg0  1  0.639045  0.237892  0.493458  1
  Mg  Mg1  1  0.138943  0.261908  0.006015  1
  Mg  Mg2  1  0.637344  0.738047  0.994283  1
  Ni  Ni3  1  0.142835  0.761519  0.506404  1
  Br  Br4  1  0.260896  0.417444  0.350256  1
  Br  Br5  1  0.764137  0.585612  0.649809  1
  Br  Br6  1  0.259876  0.914185  0.847260  1
  Br  Br7  1  0.758655  0.085189  0.149554  1
  Br  Br8  1  0.788200  0.083627  0.687564  1
  Br  Br9  1  0.284189  0.913127  0.312598  1
  Br  Br10  1  0.287138  0.413265  0.809412  1
  Br  Br11  1  0.788412  0.587881  0.192805  1
  O  O12  1  0.430104  0.881430  0.957846  1
  O  O13  1  0.931868  0.116877  0.039547  1
  O  O14  1  0.368443  0.803333  0.679538  1
  O  O15  1  0.862174  0.196851  0.317518  1
  O  O16  1  0.365173  0.305845  0.182503  1
  O  O17  1  0.865972  0.696627  0.818341  1
  O  O18  1  0.931221  0.223092  0.824560  1
  O  O19  1  0.427216  0.775404  0.174658  1
  O  O20  1  0.931454  0.930978  0.657913  1
  O  O21  1  0.426982  0.065404  0.342721  1
  O  O22  1  0.353446  0.080504  0.882765  1
  O  O23  1  0.850719  0.919702  0.117377  1
  O  O24  1  0.432332  0.274719  0.673509  1
  O  O25  1  0.935432  0.727922  0.328374  1
  O  O26  1  0.348586  0.393235  0.954809  1
  O  O27  1  0.848260  0.607884  0.047207  1
  O  O28  1  0.430336  0.565713  0.840677  1
  O  O29  1  0.931345  0.435196  0.160606  1
  O  O30  1  0.357468  0.583396  0.382950  1
  O  O31  1  0.853493  0.419582  0.617536  1
  O  O32  1  0.431797  0.384175  0.460319  1
  O  O33  1  0.940513  0.614499  0.538279  1
  O  O34  1  0.851460  0.104974  0.543205  1
  O  O35  1  0.354135  0.892965  0.457824  1
