# generated using pymatgen
data_DyY3(MnSb3)4
_symmetry_space_group_name_H-M   'P 1'
_cell_length_a   6.01421700
_cell_length_b   6.19796400
_cell_length_c   12.79394900
_cell_angle_alpha   89.99858985
_cell_angle_beta   89.99988910
_cell_angle_gamma   89.99990614
_symmetry_Int_Tables_number   1
_chemical_formula_structural   DyY3(MnSb3)4
_chemical_formula_sum   'Dy1 Y3 Mn4 Sb12'
_cell_volume   476.90596927
_cell_formula_units_Z   1
loop_
 _symmetry_equiv_pos_site_id
 _symmetry_equiv_pos_as_xyz
  1  'x, y, z'
loop_
 _atom_site_type_symbol
 _atom_site_label
 _atom_site_symmetry_multiplicity
 _atom_site_fract_x
 _atom_site_fract_y
 _atom_site_fract_z
 _atom_site_occupancy
  Dy  Dy0  1  0.749999  0.994990  0.309055  1
  Y  Y1  1  0.250002  0.504975  0.309061  1
  Y  Y2  1  0.750000  0.495089  0.690890  1
  Y  Y3  1  0.249999  0.004930  0.690909  1
  Mn  Mn4  1  0.000008  0.750007  0.904053  1
  Mn  Mn5  1  0.999962  0.250002  0.096098  1
  Mn  Mn6  1  0.500031  0.249991  0.096051  1
  Mn  Mn7  1  0.500001  0.750000  0.904020  1
  Sb  Sb8  1  0.999902  0.750383  0.502415  1
  Sb  Sb9  1  0.999841  0.249608  0.497227  1
  Sb  Sb10  1  0.500158  0.249608  0.497227  1
  Sb  Sb11  1  0.500097  0.750382  0.502415  1
  Sb  Sb12  1  0.250004  0.602980  0.063651  1
  Sb  Sb13  1  0.749997  0.397037  0.936365  1
  Sb  Sb14  1  0.250003  0.103004  0.936344  1
  Sb  Sb15  1  0.749995  0.896998  0.063807  1
  Sb  Sb16  1  0.250007  0.000123  0.228945  1
  Sb  Sb17  1  0.750005  0.999818  0.771241  1
  Sb  Sb18  1  0.249994  0.500152  0.771265  1
  Sb  Sb19  1  0.749994  0.499924  0.228960  1
