# generated using pymatgen
data_Y4Er2TiAl23Ru8
_symmetry_space_group_name_H-M   'P 1'
_cell_length_a   8.82731582
_cell_length_b   8.82731513
_cell_length_c   9.57373300
_cell_angle_alpha   89.99900108
_cell_angle_beta   90.00099771
_cell_angle_gamma   120.07362532
_symmetry_Int_Tables_number   1
_chemical_formula_structural   Y4Er2TiAl23Ru8
_chemical_formula_sum   'Y4 Er2 Ti1 Al23 Ru8'
_cell_volume   645.57478367
_cell_formula_units_Z   1
loop_
 _symmetry_equiv_pos_site_id
 _symmetry_equiv_pos_as_xyz
  1  'x, y, z'
loop_
 _atom_site_type_symbol
 _atom_site_label
 _atom_site_symmetry_multiplicity
 _atom_site_fract_x
 _atom_site_fract_y
 _atom_site_fract_z
 _atom_site_occupancy
  Y  Y0  1  0.193251  0.386555  0.249941  1
  Y  Y1  1  0.807196  0.614427  0.749199  1
  Y  Y2  1  0.613445  0.806749  0.249941  1
  Y  Y3  1  0.385573  0.192804  0.749199  1
  Er  Er4  1  0.194699  0.805301  0.249376  1
  Er  Er5  1  0.806002  0.193998  0.748957  1
  Ti  Ti6  1  0.333273  0.666727  0.994551  1
  Al  Al7  1  0.666670  0.333330  0.982688  1
  Al  Al8  1  0.666607  0.333393  0.514737  1
  Al  Al9  1  0.333319  0.666681  0.483356  1
  Al  Al10  1  0.161244  0.323120  0.577434  1
  Al  Al11  1  0.838485  0.676070  0.422404  1
  Al  Al12  1  0.676880  0.838756  0.577434  1
  Al  Al13  1  0.837712  0.674928  0.078345  1
  Al  Al14  1  0.323930  0.161515  0.422404  1
  Al  Al15  1  0.158412  0.317683  0.923353  1
  Al  Al16  1  0.161700  0.838300  0.576568  1
  Al  Al17  1  0.325072  0.162288  0.078345  1
  Al  Al18  1  0.838040  0.161960  0.423176  1
  Al  Al19  1  0.682317  0.841588  0.923353  1
  Al  Al20  1  0.837341  0.162659  0.077611  1
  Al  Al21  1  0.158783  0.841217  0.924195  1
  Al  Al22  1  0.561481  0.123246  0.252547  1
  Al  Al23  1  0.440365  0.880466  0.750367  1
  Al  Al24  1  0.876754  0.438519  0.252547  1
  Al  Al25  1  0.119534  0.559635  0.750367  1
  Al  Al26  1  0.561843  0.438157  0.252423  1
  Al  Al27  1  0.439986  0.560014  0.750309  1
  Al  Al28  1  0.001291  0.998709  0.249215  1
  Al  Al29  1  0.998793  0.001207  0.748887  1
  Ru  Ru30  1  0.498179  0.996718  0.002874  1
  Ru  Ru31  1  0.003282  0.501821  0.002874  1
  Ru  Ru32  1  0.499902  0.999469  0.503348  1
  Ru  Ru33  1  0.498458  0.501542  0.002668  1
  Ru  Ru34  1  0.000531  0.500098  0.503348  1
  Ru  Ru35  1  0.499652  0.500348  0.503192  1
  Ru  Ru36  1  0.999927  0.000073  0.999810  1
  Ru  Ru37  1  0.000068  0.999932  0.498656  1
