# generated using pymatgen
data_Sm8Ti(PdPt11)2
_symmetry_space_group_name_H-M   'P 1'
_cell_length_a   8.47015000
_cell_length_b   8.47015000
_cell_length_c   8.49256100
_cell_angle_alpha   90.00000000
_cell_angle_beta   90.00000000
_cell_angle_gamma   90.00000000
_symmetry_Int_Tables_number   1
_chemical_formula_structural   Sm8Ti(PdPt11)2
_chemical_formula_sum   'Sm8 Ti1 Pd2 Pt22'
_cell_volume   609.28554923
_cell_formula_units_Z   1
loop_
 _symmetry_equiv_pos_site_id
 _symmetry_equiv_pos_as_xyz
  1  'x, y, z'
loop_
 _atom_site_type_symbol
 _atom_site_label
 _atom_site_symmetry_multiplicity
 _atom_site_fract_x
 _atom_site_fract_y
 _atom_site_fract_z
 _atom_site_occupancy
  Sm  Sm0  1  0.251225  0.251225  0.251484  1
  Sm  Sm1  1  0.748775  0.748775  0.748516  1
  Sm  Sm2  1  0.748775  0.748775  0.251484  1
  Sm  Sm3  1  0.748775  0.251225  0.748516  1
  Sm  Sm4  1  0.251225  0.251225  0.748516  1
  Sm  Sm5  1  0.251225  0.748775  0.251484  1
  Sm  Sm6  1  0.251225  0.748775  0.748516  1
  Sm  Sm7  1  0.748775  0.251225  0.251484  1
  Ti  Ti8  1  0.000000  0.000000  0.000000  1
  Pd  Pd9  1  0.500000  0.500000  0.255418  1
  Pd  Pd10  1  0.500000  0.500000  0.744582  1
  Pt  Pt11  1  0.265222  0.500000  0.000000  1
  Pt  Pt12  1  0.734778  0.500000  0.000000  1
  Pt  Pt13  1  0.000000  0.264740  0.500000  1
  Pt  Pt14  1  0.500000  0.265222  0.000000  1
  Pt  Pt15  1  0.000000  0.735260  0.500000  1
  Pt  Pt16  1  0.500000  0.734778  0.000000  1
  Pt  Pt17  1  0.500000  0.000000  0.264503  1
  Pt  Pt18  1  0.264740  0.000000  0.500000  1
  Pt  Pt19  1  0.500000  0.000000  0.735497  1
  Pt  Pt20  1  0.735260  0.000000  0.500000  1
  Pt  Pt21  1  0.000000  0.500000  0.264503  1
  Pt  Pt22  1  0.000000  0.500000  0.735497  1
  Pt  Pt23  1  0.255321  0.500000  0.500000  1
  Pt  Pt24  1  0.744679  0.500000  0.500000  1
  Pt  Pt25  1  0.500000  0.255321  0.500000  1
  Pt  Pt26  1  0.500000  0.744679  0.500000  1
  Pt  Pt27  1  0.302184  0.000000  0.000000  1
  Pt  Pt28  1  0.697816  0.000000  0.000000  1
  Pt  Pt29  1  0.000000  0.302184  0.000000  1
  Pt  Pt30  1  0.000000  0.697816  0.000000  1
  Pt  Pt31  1  0.000000  0.000000  0.300806  1
  Pt  Pt32  1  0.000000  0.000000  0.699194  1
