# generated using pymatgen
data_Pa2Ta2TiGe4
_symmetry_space_group_name_H-M   'P 1'
_cell_length_a   7.15176972
_cell_length_b   7.07417897
_cell_length_c   7.18660042
_cell_angle_alpha   69.98826343
_cell_angle_beta   89.97288637
_cell_angle_gamma   90.06096503
_symmetry_Int_Tables_number   1
_chemical_formula_structural   Pa2Ta2TiGe4
_chemical_formula_sum   'Pa4 Ta4 Ti2 Ge8'
_cell_volume   341.63792235
_cell_formula_units_Z   2
loop_
 _symmetry_equiv_pos_site_id
 _symmetry_equiv_pos_as_xyz
  1  'x, y, z'
loop_
 _atom_site_type_symbol
 _atom_site_label
 _atom_site_symmetry_multiplicity
 _atom_site_fract_x
 _atom_site_fract_y
 _atom_site_fract_z
 _atom_site_occupancy
  Pa  Pa0  1  0.669098  0.941849  0.690218  1
  Pa  Pa1  1  0.330902  0.058151  0.309782  1
  Pa  Pa2  1  0.171803  0.558229  0.313305  1
  Pa  Pa3  1  0.828197  0.441771  0.686695  1
  Ta  Ta4  1  0.665243  0.746197  0.251821  1
  Ta  Ta5  1  0.334757  0.253803  0.748179  1
  Ta  Ta6  1  0.000000  0.000000  0.000000  1
  Ta  Ta7  1  0.500000  0.500000  0.000000  1
  Ti  Ti8  1  0.164339  0.754340  0.748052  1
  Ti  Ti9  1  0.835661  0.245660  0.251948  1
  Ge  Ge10  1  0.956160  0.856442  0.414592  1
  Ge  Ge11  1  0.043840  0.143558  0.585408  1
  Ge  Ge12  1  0.450556  0.646774  0.587845  1
  Ge  Ge13  1  0.549444  0.353226  0.412155  1
  Ge  Ge14  1  0.867712  0.632607  0.999217  1
  Ge  Ge15  1  0.132288  0.367393  0.000783  1
  Ge  Ge16  1  0.363751  0.865225  0.996239  1
  Ge  Ge17  1  0.636249  0.134775  0.003761  1
