# generated using pymatgen
data_Er3TmSi4(NiOs)2
_symmetry_space_group_name_H-M   'P 1'
_cell_length_a   4.20807900
_cell_length_b   6.82481648
_cell_length_c   7.17698848
_cell_angle_alpha   91.73647692
_cell_angle_beta   90.00000000
_cell_angle_gamma   90.00000000
_symmetry_Int_Tables_number   1
_chemical_formula_structural   Er3TmSi4(NiOs)2
_chemical_formula_sum   'Er3 Tm1 Si4 Ni2 Os2'
_cell_volume   206.02390989
_cell_formula_units_Z   1
loop_
 _symmetry_equiv_pos_site_id
 _symmetry_equiv_pos_as_xyz
  1  'x, y, z'
loop_
 _atom_site_type_symbol
 _atom_site_label
 _atom_site_symmetry_multiplicity
 _atom_site_fract_x
 _atom_site_fract_y
 _atom_site_fract_z
 _atom_site_occupancy
  Er  Er0  1  0.750000  0.509276  0.818109  1
  Er  Er1  1  0.750000  0.006934  0.700915  1
  Er  Er2  1  0.250000  0.992555  0.298825  1
  Tm  Tm3  1  0.250000  0.489905  0.183429  1
  Si  Si4  1  0.250000  0.802556  0.897293  1
  Si  Si5  1  0.750000  0.196929  0.103113  1
  Si  Si6  1  0.750000  0.701517  0.399156  1
  Si  Si7  1  0.250000  0.298818  0.599833  1
  Ni  Ni8  1  0.750000  0.833987  0.075036  1
  Ni  Ni9  1  0.250000  0.166821  0.925393  1
  Os  Os10  1  0.250000  0.659165  0.569407  1
  Os  Os11  1  0.750000  0.341538  0.429491  1
