# generated using pymatgen
data_Li2Yb3TmPt3
_symmetry_space_group_name_H-M   'P 1'
_cell_length_a   7.26405528
_cell_length_b   7.26405665
_cell_length_c   4.26511600
_cell_angle_alpha   90.00000000
_cell_angle_beta   90.00000000
_cell_angle_gamma   119.85043201
_symmetry_Int_Tables_number   1
_chemical_formula_structural   Li2Yb3TmPt3
_chemical_formula_sum   'Li2 Yb3 Tm1 Pt3'
_cell_volume   195.19667520
_cell_formula_units_Z   1
loop_
 _symmetry_equiv_pos_site_id
 _symmetry_equiv_pos_as_xyz
  1  'x, y, z'
loop_
 _atom_site_type_symbol
 _atom_site_label
 _atom_site_symmetry_multiplicity
 _atom_site_fract_x
 _atom_site_fract_y
 _atom_site_fract_z
 _atom_site_occupancy
  Li  Li0  1  0.750063  0.995628  0.500000  1
  Li  Li1  1  0.995628  0.750063  0.500000  1
  Yb  Yb2  1  0.426630  0.992463  0.000000  1
  Yb  Yb3  1  0.992463  0.426630  0.000000  1
  Yb  Yb4  1  0.602558  0.602558  0.000000  1
  Tm  Tm5  1  0.242550  0.242550  0.500000  1
  Pt  Pt6  1  0.327006  0.658986  0.500000  1
  Pt  Pt7  1  0.658986  0.327006  0.500000  1
  Pt  Pt8  1  0.004118  0.004118  0.000000  1
