# generated using pymatgen
data_Nd2Dy5Y(WO6)4
_symmetry_space_group_name_H-M   'P 1'
_cell_length_a   5.45079600
_cell_length_b   7.77436964
_cell_length_c   11.56261911
_cell_angle_alpha   75.57461597
_cell_angle_beta   90.00000000
_cell_angle_gamma   90.00000000
_symmetry_Int_Tables_number   1
_chemical_formula_structural   Nd2Dy5Y(WO6)4
_chemical_formula_sum   'Nd2 Dy5 Y1 W4 O24'
_cell_volume   474.53560186
_cell_formula_units_Z   1
loop_
 _symmetry_equiv_pos_site_id
 _symmetry_equiv_pos_as_xyz
  1  'x, y, z'
loop_
 _atom_site_type_symbol
 _atom_site_label
 _atom_site_symmetry_multiplicity
 _atom_site_fract_x
 _atom_site_fract_y
 _atom_site_fract_z
 _atom_site_occupancy
  Nd  Nd0  1  0.685210  0.500000  0.750000  1
  Nd  Nd1  1  0.314752  0.500000  0.250000  1
  Dy  Dy2  1  0.259533  0.000000  0.250000  1
  Dy  Dy3  1  0.187529  0.797684  0.576836  1
  Dy  Dy4  1  0.812497  0.797700  0.076898  1
  Dy  Dy5  1  0.187529  0.202316  0.923164  1
  Dy  Dy6  1  0.812497  0.202300  0.423102  1
  Y  Y7  1  0.740653  0.000000  0.750000  1
  W  W8  1  0.253168  0.726799  0.884826  1
  W  W9  1  0.746833  0.726936  0.384778  1
  W  W10  1  0.253168  0.273201  0.615174  1
  W  W11  1  0.746833  0.273064  0.115222  1
  O  O12  1  0.041345  0.940550  0.895934  1
  O  O13  1  0.529942  0.847564  0.930776  1
  O  O14  1  0.959041  0.940627  0.395755  1
  O  O15  1  0.456050  0.792985  0.727903  1
  O  O16  1  0.469885  0.847708  0.430605  1
  O  O17  1  0.986558  0.717559  0.770130  1
  O  O18  1  0.543521  0.793302  0.227910  1
  O  O19  1  0.854670  0.640713  0.545678  1
  O  O20  1  0.351237  0.493076  0.887815  1
  O  O21  1  0.013566  0.717744  0.270115  1
  O  O22  1  0.351237  0.506924  0.612185  1
  O  O23  1  0.854670  0.359287  0.954322  1
  O  O24  1  0.145322  0.640694  0.045699  1
  O  O25  1  0.648764  0.493112  0.387811  1
  O  O26  1  0.986558  0.282441  0.729870  1
  O  O27  1  0.648764  0.506888  0.112189  1
  O  O28  1  0.145322  0.359306  0.454301  1
  O  O29  1  0.456050  0.207015  0.772097  1
  O  O30  1  0.013566  0.282256  0.229885  1
  O  O31  1  0.529942  0.152436  0.569224  1
  O  O32  1  0.543521  0.206698  0.272090  1
  O  O33  1  0.041345  0.059450  0.604066  1
  O  O34  1  0.469885  0.152292  0.069395  1
  O  O35  1  0.959041  0.059373  0.104245  1
