# generated using pymatgen
data_Cs7Rb(CrN2)8
_symmetry_space_group_name_H-M   'P 1'
_cell_length_a   5.81610015
_cell_length_b   8.23168100
_cell_length_c   11.63295030
_cell_angle_alpha   90.00000000
_cell_angle_beta   89.97413149
_cell_angle_gamma   90.00000000
_symmetry_Int_Tables_number   1
_chemical_formula_structural   Cs7Rb(CrN2)8
_chemical_formula_sum   'Cs7 Rb1 Cr8 N16'
_cell_volume   556.94234146
_cell_formula_units_Z   1
loop_
 _symmetry_equiv_pos_site_id
 _symmetry_equiv_pos_as_xyz
  1  'x, y, z'
loop_
 _atom_site_type_symbol
 _atom_site_label
 _atom_site_symmetry_multiplicity
 _atom_site_fract_x
 _atom_site_fract_y
 _atom_site_fract_z
 _atom_site_occupancy
  Cs  Cs0  1  0.750000  0.125648  0.000000  1
  Cs  Cs1  1  0.250000  0.879520  0.500000  1
  Cs  Cs2  1  0.250000  0.874793  0.000000  1
  Cs  Cs3  1  0.741178  0.372739  0.252400  1
  Cs  Cs4  1  0.241189  0.624930  0.250368  1
  Cs  Cs5  1  0.258811  0.624930  0.749632  1
  Cs  Cs6  1  0.758822  0.372739  0.747600  1
  Rb  Rb7  1  0.750000  0.124477  0.500000  1
  Cr  Cr8  1  0.250000  0.375040  0.000000  1
  Cr  Cr9  1  0.750000  0.624936  0.500000  1
  Cr  Cr10  1  0.750000  0.625081  0.000000  1
  Cr  Cr11  1  0.250000  0.374316  0.500000  1
  Cr  Cr12  1  0.243370  0.124907  0.249997  1
  Cr  Cr13  1  0.743460  0.875416  0.250439  1
  Cr  Cr14  1  0.756540  0.875416  0.749561  1
  Cr  Cr15  1  0.256630  0.124907  0.750003  1
  N  N16  1  0.989559  0.003742  0.250928  1
  N  N17  1  0.490445  0.996935  0.250686  1
  N  N18  1  0.009555  0.996935  0.749314  1
  N  N19  1  0.510441  0.003742  0.749072  1
  N  N20  1  0.247808  0.249338  0.375538  1
  N  N21  1  0.747849  0.750236  0.125257  1
  N  N22  1  0.752151  0.750236  0.874743  1
  N  N23  1  0.252192  0.249338  0.624462  1
  N  N24  1  0.752335  0.750854  0.624590  1
  N  N25  1  0.252338  0.249942  0.874914  1
  N  N26  1  0.247662  0.249942  0.125086  1
  N  N27  1  0.747665  0.750854  0.375410  1
  N  N28  1  0.500295  0.499104  0.500027  1
  N  N29  1  0.000073  0.499952  0.999967  1
  N  N30  1  0.499927  0.499952  0.000033  1
  N  N31  1  0.999705  0.499104  0.499973  1
