# generated using pymatgen
data_YbPa(Al5Tc)4
_symmetry_space_group_name_H-M   'P 1'
_cell_length_a   6.90392931
_cell_length_b   6.90392993
_cell_length_c   9.20196400
_cell_angle_alpha   90.00000000
_cell_angle_beta   90.00000000
_cell_angle_gamma   97.27460437
_symmetry_Int_Tables_number   1
_chemical_formula_structural   YbPa(Al5Tc)4
_chemical_formula_sum   'Yb1 Pa1 Al20 Tc4'
_cell_volume   435.07418294
_cell_formula_units_Z   1
loop_
 _symmetry_equiv_pos_site_id
 _symmetry_equiv_pos_as_xyz
  1  'x, y, z'
loop_
 _atom_site_type_symbol
 _atom_site_label
 _atom_site_symmetry_multiplicity
 _atom_site_fract_x
 _atom_site_fract_y
 _atom_site_fract_z
 _atom_site_occupancy
  Yb  Yb0  1  0.374855  0.625145  0.250000  1
  Pa  Pa1  1  0.628670  0.371330  0.750000  1
  Al  Al2  1  0.282414  0.024092  0.750000  1
  Al  Al3  1  0.028897  0.286071  0.250000  1
  Al  Al4  1  0.713929  0.971103  0.250000  1
  Al  Al5  1  0.975908  0.717586  0.750000  1
  Al  Al6  1  0.877462  0.122538  0.950406  1
  Al  Al7  1  0.124477  0.875523  0.037478  1
  Al  Al8  1  0.877462  0.122538  0.549594  1
  Al  Al9  1  0.124477  0.875523  0.462522  1
  Al  Al10  1  0.638748  0.908119  0.750000  1
  Al  Al11  1  0.907574  0.638501  0.250000  1
  Al  Al12  1  0.361499  0.092426  0.250000  1
  Al  Al13  1  0.091881  0.361252  0.750000  1
  Al  Al14  1  0.346743  0.653257  0.900865  1
  Al  Al15  1  0.658180  0.341820  0.100819  1
  Al  Al16  1  0.346743  0.653257  0.599135  1
  Al  Al17  1  0.658180  0.341820  0.399181  1
  Al  Al18  1  0.724452  0.728235  0.001437  1
  Al  Al19  1  0.724452  0.728235  0.498563  1
  Al  Al20  1  0.271765  0.275548  0.001437  1
  Al  Al21  1  0.271765  0.275548  0.498563  1
  Tc  Tc22  1  0.500420  0.005687  0.997233  1
  Tc  Tc23  1  0.994313  0.499580  0.997233  1
  Tc  Tc24  1  0.500420  0.005687  0.502767  1
  Tc  Tc25  1  0.994313  0.499580  0.502767  1
