# generated using pymatgen
data_CsBe2Br5
_symmetry_space_group_name_H-M   'P 1'
_cell_length_a   11.60808345
_cell_length_b   11.60808402
_cell_length_c   11.60808300
_cell_angle_alpha   60.00000007
_cell_angle_beta   59.99999844
_cell_angle_gamma   60.00000059
_symmetry_Int_Tables_number   1
_chemical_formula_structural   CsBe2Br5
_chemical_formula_sum   'Cs4 Be8 Br20'
_cell_volume   1106.02913816
_cell_formula_units_Z   4
loop_
 _symmetry_equiv_pos_site_id
 _symmetry_equiv_pos_as_xyz
  1  'x, y, z'
loop_
 _atom_site_type_symbol
 _atom_site_label
 _atom_site_symmetry_multiplicity
 _atom_site_fract_x
 _atom_site_fract_y
 _atom_site_fract_z
 _atom_site_occupancy
  Cs  Cs0  1  0.125000  0.625000  0.625000  1
  Cs  Cs1  1  0.625000  0.125000  0.625000  1
  Cs  Cs2  1  0.625000  0.625000  0.125000  1
  Cs  Cs3  1  0.625000  0.625000  0.625000  1
  Be  Be4  1  0.018682  0.327105  0.327105  1
  Be  Be5  1  0.327105  0.018682  0.327105  1
  Be  Be6  1  0.327105  0.327105  0.018682  1
  Be  Be7  1  0.327105  0.327105  0.327105  1
  Be  Be8  1  0.231318  0.922895  0.922895  1
  Be  Be9  1  0.922895  0.231318  0.922895  1
  Be  Be10  1  0.922895  0.922895  0.231318  1
  Be  Be11  1  0.922895  0.922895  0.922895  1
  Br  Br12  1  0.093110  0.093110  0.406890  1
  Br  Br13  1  0.406890  0.406890  0.093110  1
  Br  Br14  1  0.093110  0.406890  0.093110  1
  Br  Br15  1  0.406890  0.093110  0.406890  1
  Br  Br16  1  0.406890  0.093110  0.093110  1
  Br  Br17  1  0.093110  0.406890  0.406890  1
  Br  Br18  1  0.156890  0.156890  0.843110  1
  Br  Br19  1  0.843110  0.843110  0.156890  1
  Br  Br20  1  0.156890  0.843110  0.156890  1
  Br  Br21  1  0.843110  0.156890  0.843110  1
  Br  Br22  1  0.843110  0.156890  0.156890  1
  Br  Br23  1  0.156890  0.843110  0.843110  1
  Br  Br24  1  0.791503  0.402832  0.402832  1
  Br  Br25  1  0.402832  0.791503  0.402832  1
  Br  Br26  1  0.402832  0.402832  0.791503  1
  Br  Br27  1  0.402832  0.402832  0.402832  1
  Br  Br28  1  0.458497  0.847168  0.847168  1
  Br  Br29  1  0.847168  0.458497  0.847168  1
  Br  Br30  1  0.847168  0.847168  0.458497  1
  Br  Br31  1  0.847168  0.847168  0.847168  1
