# generated using pymatgen
data_Tb8CdIn3Au8
_symmetry_space_group_name_H-M   'P 1'
_cell_length_a   8.05658500
_cell_length_b   8.05658500
_cell_length_c   7.39040200
_cell_angle_alpha   90.00000000
_cell_angle_beta   90.00000000
_cell_angle_gamma   90.00000000
_symmetry_Int_Tables_number   1
_chemical_formula_structural   Tb8CdIn3Au8
_chemical_formula_sum   'Tb8 Cd1 In3 Au8'
_cell_volume   479.70036540
_cell_formula_units_Z   1
loop_
 _symmetry_equiv_pos_site_id
 _symmetry_equiv_pos_as_xyz
  1  'x, y, z'
loop_
 _atom_site_type_symbol
 _atom_site_label
 _atom_site_symmetry_multiplicity
 _atom_site_fract_x
 _atom_site_fract_y
 _atom_site_fract_z
 _atom_site_occupancy
  Tb  Tb0  1  0.161968  0.163905  0.999664  1
  Tb  Tb1  1  0.838032  0.836095  0.999664  1
  Tb  Tb2  1  0.663905  0.338032  0.500336  1
  Tb  Tb3  1  0.336095  0.661968  0.500336  1
  Tb  Tb4  1  0.678666  0.322480  0.999801  1
  Tb  Tb5  1  0.321334  0.677520  0.999801  1
  Tb  Tb6  1  0.822480  0.821334  0.500199  1
  Tb  Tb7  1  0.177520  0.178666  0.500199  1
  Cd  Cd8  1  0.500000  0.000000  0.250000  1
  In  In9  1  0.500000  0.000000  0.750000  1
  In  In10  1  0.000000  0.500000  0.250000  1
  In  In11  1  0.000000  0.500000  0.750000  1
  Au  Au12  1  0.373480  0.369435  0.235070  1
  Au  Au13  1  0.627449  0.629005  0.765224  1
  Au  Au14  1  0.626520  0.630565  0.235070  1
  Au  Au15  1  0.870995  0.127449  0.734776  1
  Au  Au16  1  0.869435  0.126520  0.264930  1
  Au  Au17  1  0.372551  0.370995  0.765224  1
  Au  Au18  1  0.130565  0.873480  0.264930  1
  Au  Au19  1  0.129005  0.872551  0.734776  1
