# generated using pymatgen
data_Dy3Lu3Al24(RuRh)4
_symmetry_space_group_name_H-M   'P 1'
_cell_length_a   8.81133455
_cell_length_b   8.76553870
_cell_length_c   9.53073400
_cell_angle_alpha   90.00000000
_cell_angle_beta   90.00000000
_cell_angle_gamma   119.82821692
_symmetry_Int_Tables_number   1
_chemical_formula_structural   Dy3Lu3Al24(RuRh)4
_chemical_formula_sum   'Dy3 Lu3 Al24 Ru4 Rh4'
_cell_volume   638.59637156
_cell_formula_units_Z   1
loop_
 _symmetry_equiv_pos_site_id
 _symmetry_equiv_pos_as_xyz
  1  'x, y, z'
loop_
 _atom_site_type_symbol
 _atom_site_label
 _atom_site_symmetry_multiplicity
 _atom_site_fract_x
 _atom_site_fract_y
 _atom_site_fract_z
 _atom_site_occupancy
  Dy  Dy0  1  0.809415  0.196476  0.750000  1
  Dy  Dy1  1  0.809415  0.612939  0.750000  1
  Dy  Dy2  1  0.384262  0.192131  0.750000  1
  Lu  Lu3  1  0.192088  0.800643  0.250000  1
  Lu  Lu4  1  0.192088  0.391444  0.250000  1
  Lu  Lu5  1  0.612128  0.806063  0.250000  1
  Al  Al6  1  0.560300  0.438532  0.250000  1
  Al  Al7  1  0.560300  0.121769  0.250000  1
  Al  Al8  1  0.876218  0.438109  0.250000  1
  Al  Al9  1  0.438470  0.562629  0.750000  1
  Al  Al10  1  0.438470  0.875839  0.750000  1
  Al  Al11  1  0.125504  0.562752  0.750000  1
  Al  Al12  1  0.324116  0.162058  0.419878  1
  Al  Al13  1  0.837892  0.163488  0.420808  1
  Al  Al14  1  0.837892  0.674404  0.420808  1
  Al  Al15  1  0.674691  0.837345  0.576636  1
  Al  Al16  1  0.162696  0.835908  0.575782  1
  Al  Al17  1  0.162696  0.326788  0.575782  1
  Al  Al18  1  0.674691  0.837345  0.923364  1
  Al  Al19  1  0.162696  0.835908  0.924218  1
  Al  Al20  1  0.162696  0.326788  0.924218  1
  Al  Al21  1  0.324116  0.162058  0.080122  1
  Al  Al22  1  0.837892  0.163488  0.079192  1
  Al  Al23  1  0.837892  0.674404  0.079192  1
  Al  Al24  1  0.668383  0.334191  0.523267  1
  Al  Al25  1  0.332121  0.666061  0.472997  1
  Al  Al26  1  0.332121  0.666061  0.027003  1
  Al  Al27  1  0.668383  0.334191  0.976733  1
  Al  Al28  1  0.998663  0.999332  0.250000  1
  Al  Al29  1  0.001570  0.000784  0.750000  1
  Ru  Ru30  1  0.999857  0.999929  0.499973  1
  Ru  Ru31  1  0.999857  0.999929  0.000027  1
  Ru  Ru32  1  0.001214  0.500607  0.498411  1
  Ru  Ru33  1  0.001214  0.500607  0.001589  1
  Rh  Rh34  1  0.499499  0.500338  0.498842  1
  Rh  Rh35  1  0.499499  0.999161  0.498842  1
  Rh  Rh36  1  0.499499  0.500338  0.001158  1
  Rh  Rh37  1  0.499499  0.999161  0.001158  1
