# generated using pymatgen
data_YbPaReB6
_symmetry_space_group_name_H-M   'P 1'
_cell_length_a   3.71566200
_cell_length_b   9.16543800
_cell_length_c   11.42298500
_cell_angle_alpha   90.00000000
_cell_angle_beta   90.00000000
_cell_angle_gamma   90.00000000
_symmetry_Int_Tables_number   1
_chemical_formula_structural   YbPaReB6
_chemical_formula_sum   'Yb4 Pa4 Re4 B24'
_cell_volume   389.01740403
_cell_formula_units_Z   4
loop_
 _symmetry_equiv_pos_site_id
 _symmetry_equiv_pos_as_xyz
  1  'x, y, z'
loop_
 _atom_site_type_symbol
 _atom_site_label
 _atom_site_symmetry_multiplicity
 _atom_site_fract_x
 _atom_site_fract_y
 _atom_site_fract_z
 _atom_site_occupancy
  Yb  Yb0  1  0.000000  0.947739  0.379786  1
  Yb  Yb1  1  0.000000  0.052261  0.620214  1
  Yb  Yb2  1  0.000000  0.447739  0.120214  1
  Yb  Yb3  1  0.000000  0.552261  0.879786  1
  Pa  Pa4  1  0.000000  0.323677  0.411875  1
  Pa  Pa5  1  0.000000  0.676323  0.588125  1
  Pa  Pa6  1  0.000000  0.823677  0.088125  1
  Pa  Pa7  1  0.000000  0.176323  0.911875  1
  Re  Re8  1  0.000000  0.638894  0.322067  1
  Re  Re9  1  0.000000  0.361106  0.677933  1
  Re  Re10  1  0.000000  0.138894  0.177933  1
  Re  Re11  1  0.000000  0.861106  0.822067  1
  B  B12  1  0.500000  0.552950  0.432287  1
  B  B13  1  0.500000  0.447050  0.567713  1
  B  B14  1  0.500000  0.052950  0.067713  1
  B  B15  1  0.500000  0.947050  0.932287  1
  B  B16  1  0.500000  0.747579  0.421315  1
  B  B17  1  0.500000  0.252421  0.578685  1
  B  B18  1  0.500000  0.247579  0.078685  1
  B  B19  1  0.500000  0.752421  0.921315  1
  B  B20  1  0.500000  0.793928  0.268072  1
  B  B21  1  0.500000  0.206072  0.731928  1
  B  B22  1  0.500000  0.293928  0.231928  1
  B  B23  1  0.500000  0.706072  0.768072  1
  B  B24  1  0.500000  0.634584  0.186434  1
  B  B25  1  0.500000  0.365416  0.813566  1
  B  B26  1  0.500000  0.134584  0.313566  1
  B  B27  1  0.500000  0.865416  0.686434  1
  B  B28  1  0.500000  0.983557  0.214474  1
  B  B29  1  0.500000  0.016443  0.785526  1
  B  B30  1  0.500000  0.483557  0.285526  1
  B  B31  1  0.500000  0.516443  0.714474  1
  B  B32  1  0.500000  0.623638  0.034506  1
  B  B33  1  0.500000  0.376362  0.965494  1
  B  B34  1  0.500000  0.123638  0.465494  1
  B  B35  1  0.500000  0.876362  0.534506  1
