# generated using pymatgen
data_Tm16In2Hg2Pt3Rh
_symmetry_space_group_name_H-M   'P 1'
_cell_length_a   9.53127112
_cell_length_b   9.53895413
_cell_length_c   9.53856183
_cell_angle_alpha   60.00546345
_cell_angle_beta   60.02528304
_cell_angle_gamma   60.02664423
_symmetry_Int_Tables_number   1
_chemical_formula_structural   Tm16In2Hg2Pt3Rh
_chemical_formula_sum   'Tm16 In2 Hg2 Pt3 Rh1'
_cell_volume   613.49037174
_cell_formula_units_Z   1
loop_
 _symmetry_equiv_pos_site_id
 _symmetry_equiv_pos_as_xyz
  1  'x, y, z'
loop_
 _atom_site_type_symbol
 _atom_site_label
 _atom_site_symmetry_multiplicity
 _atom_site_fract_x
 _atom_site_fract_y
 _atom_site_fract_z
 _atom_site_occupancy
  Tm  Tm0  1  0.060765  0.065560  0.437819  1
  Tm  Tm1  1  0.435856  0.065560  0.437819  1
  Tm  Tm2  1  0.060953  0.436897  0.065930  1
  Tm  Tm3  1  0.054625  0.645200  0.649048  1
  Tm  Tm4  1  0.436221  0.436897  0.065930  1
  Tm  Tm5  1  0.645407  0.065703  0.643485  1
  Tm  Tm6  1  0.190482  0.809917  0.190552  1
  Tm  Tm7  1  0.186927  0.192258  0.811067  1
  Tm  Tm8  1  0.809050  0.809917  0.190552  1
  Tm  Tm9  1  0.436537  0.062965  0.063960  1
  Tm  Tm10  1  0.810900  0.191991  0.186208  1
  Tm  Tm11  1  0.063961  0.435244  0.436835  1
  Tm  Tm12  1  0.809750  0.192258  0.811067  1
  Tm  Tm13  1  0.191340  0.808504  0.808816  1
  Tm  Tm14  1  0.648441  0.642490  0.060629  1
  Tm  Tm15  1  0.651128  0.645200  0.649048  1
  In  In16  1  0.418008  0.747730  0.416253  1
  In  In17  1  0.417607  0.417193  0.747591  1
  Hg  Hg18  1  0.411902  0.413325  0.412753  1
  Hg  Hg19  1  0.762020  0.413325  0.412753  1
  Pt  Pt20  1  0.855823  0.858341  0.430012  1
  Pt  Pt21  1  0.854812  0.857464  0.856851  1
  Pt  Pt22  1  0.430873  0.857464  0.856851  1
  Rh  Rh23  1  0.856614  0.428599  0.858173  1
