# generated using pymatgen
data_CaEu3(CuH6)2
_symmetry_space_group_name_H-M   'P 1'
_cell_length_a   7.08264645
_cell_length_b   7.08264458
_cell_length_c   5.26999100
_cell_angle_alpha   90.00034397
_cell_angle_beta   90.00034411
_cell_angle_gamma   136.34281807
_symmetry_Int_Tables_number   1
_chemical_formula_structural   CaEu3(CuH6)2
_chemical_formula_sum   'Ca1 Eu3 Cu2 H12'
_cell_volume   182.50095432
_cell_formula_units_Z   1
loop_
 _symmetry_equiv_pos_site_id
 _symmetry_equiv_pos_as_xyz
  1  'x, y, z'
loop_
 _atom_site_type_symbol
 _atom_site_label
 _atom_site_symmetry_multiplicity
 _atom_site_fract_x
 _atom_site_fract_y
 _atom_site_fract_z
 _atom_site_occupancy
  Ca  Ca0  1  0.146370  0.853630  0.500000  1
  Eu  Eu1  1  0.643338  0.356662  0.000000  1
  Eu  Eu2  1  0.855407  0.144593  0.500000  1
  Eu  Eu3  1  0.354485  0.645515  0.000000  1
  Cu  Cu4  1  0.501113  0.498887  0.500000  1
  Cu  Cu5  1  0.000993  0.999007  0.000000  1
  H  H6  1  0.000187  0.501469  0.748536  1
  H  H7  1  0.498531  0.999813  0.251464  1
  H  H8  1  0.000223  0.501505  0.251469  1
  H  H9  1  0.498495  0.999777  0.748531  1
  H  H10  1  0.375510  0.624490  0.500000  1
  H  H11  1  0.874801  0.125199  0.000000  1
  H  H12  1  0.625956  0.374044  0.500000  1
  H  H13  1  0.126123  0.873877  0.000000  1
  H  H14  1  0.251265  0.252033  0.750986  1
  H  H15  1  0.747967  0.748735  0.249014  1
  H  H16  1  0.250395  0.251158  0.248394  1
  H  H17  1  0.748842  0.749605  0.751606  1
