# generated using pymatgen
data_Ba5Tc2N7
_symmetry_space_group_name_H-M   'P 1'
_cell_length_a   6.81165450
_cell_length_b   9.67700698
_cell_length_c   9.78848747
_cell_angle_alpha   114.32087007
_cell_angle_beta   98.28596500
_cell_angle_gamma   90.44302218
_symmetry_Int_Tables_number   1
_chemical_formula_structural   Ba5Tc2N7
_chemical_formula_sum   'Ba10 Tc4 N14'
_cell_volume   580.21084765
_cell_formula_units_Z   2
loop_
 _symmetry_equiv_pos_site_id
 _symmetry_equiv_pos_as_xyz
  1  'x, y, z'
loop_
 _atom_site_type_symbol
 _atom_site_label
 _atom_site_symmetry_multiplicity
 _atom_site_fract_x
 _atom_site_fract_y
 _atom_site_fract_z
 _atom_site_occupancy
  Ba  Ba0  1  0.860770  0.589480  0.333692  1
  Ba  Ba1  1  0.268740  0.980492  0.564729  1
  Ba  Ba2  1  0.702523  0.409738  0.848898  1
  Ba  Ba3  1  0.297477  0.590262  0.151102  1
  Ba  Ba4  1  0.402564  0.790813  0.908937  1
  Ba  Ba5  1  0.597436  0.209187  0.091063  1
  Ba  Ba6  1  0.139230  0.410520  0.666308  1
  Ba  Ba7  1  0.886383  0.841655  0.760916  1
  Ba  Ba8  1  0.113617  0.158345  0.239084  1
  Ba  Ba9  1  0.731260  0.019508  0.435271  1
  Tc  Tc10  1  0.574755  0.367065  0.478388  1
  Tc  Tc11  1  0.425245  0.632935  0.521612  1
  Tc  Tc12  1  0.121720  0.218870  0.911867  1
  Tc  Tc13  1  0.878280  0.781130  0.088133  1
  N  N14  1  0.548678  0.552953  0.665308  1
  N  N15  1  0.451322  0.447047  0.334692  1
  N  N16  1  0.179554  0.700736  0.575078  1
  N  N17  1  0.820446  0.299264  0.424922  1
  N  N18  1  0.426675  0.207380  0.482932  1
  N  N19  1  0.573325  0.792620  0.517068  1
  N  N20  1  0.958550  0.149214  0.724865  1
  N  N21  1  0.041450  0.850786  0.275135  1
  N  N22  1  0.221718  0.057174  0.949647  1
  N  N23  1  0.778282  0.942826  0.050353  1
  N  N24  1  0.341350  0.330548  0.907331  1
  N  N25  1  0.990092  0.341031  0.065931  1
  N  N26  1  0.009908  0.658969  0.934069  1
  N  N27  1  0.658650  0.669452  0.092669  1
