# generated using pymatgen
data_LiDy14Lu2In3Rh4
_symmetry_space_group_name_H-M   'P 1'
_cell_length_a   9.61492709
_cell_length_b   9.63357274
_cell_length_c   9.63875068
_cell_angle_alpha   60.01776612
_cell_angle_beta   60.14888369
_cell_angle_gamma   59.93582130
_symmetry_Int_Tables_number   1
_chemical_formula_structural   LiDy14Lu2In3Rh4
_chemical_formula_sum   'Li1 Dy14 Lu2 In3 Rh4'
_cell_volume   631.78919825
_cell_formula_units_Z   1
loop_
 _symmetry_equiv_pos_site_id
 _symmetry_equiv_pos_as_xyz
  1  'x, y, z'
loop_
 _atom_site_type_symbol
 _atom_site_label
 _atom_site_symmetry_multiplicity
 _atom_site_fract_x
 _atom_site_fract_y
 _atom_site_fract_z
 _atom_site_occupancy
  Li  Li0  1  0.928760  0.928365  0.214509  1
  Dy  Dy1  1  0.314812  0.686093  0.313001  1
  Dy  Dy2  1  0.935362  0.938126  0.561891  1
  Dy  Dy3  1  0.148137  0.150485  0.550891  1
  Dy  Dy4  1  0.562160  0.939264  0.559314  1
  Dy  Dy5  1  0.150818  0.154119  0.151174  1
  Dy  Dy6  1  0.310772  0.307997  0.691578  1
  Dy  Dy7  1  0.935362  0.564620  0.561891  1
  Dy  Dy8  1  0.563038  0.563102  0.938262  1
  Dy  Dy9  1  0.563038  0.935598  0.938262  1
  Dy  Dy10  1  0.934763  0.564215  0.936808  1
  Dy  Dy11  1  0.150818  0.543889  0.151174  1
  Dy  Dy12  1  0.310772  0.689652  0.691578  1
  Dy  Dy13  1  0.689569  0.309967  0.690498  1
  Dy  Dy14  1  0.549585  0.150906  0.148601  1
  Lu  Lu15  1  0.686804  0.313674  0.313787  1
  Lu  Lu16  1  0.686804  0.685735  0.313787  1
  In  In17  1  0.245532  0.916076  0.922315  1
  In  In18  1  0.916674  0.246280  0.921455  1
  In  In19  1  0.916674  0.915590  0.921455  1
  Rh  Rh20  1  0.359883  0.354487  0.359998  1
  Rh  Rh21  1  0.922875  0.358724  0.359677  1
  Rh  Rh22  1  0.357102  0.357400  0.928101  1
  Rh  Rh23  1  0.359883  0.925634  0.359998  1
