# generated using pymatgen
data_LiEr16Cd2Co4Hg
_symmetry_space_group_name_H-M   'P 1'
_cell_length_a   9.41281755
_cell_length_b   9.41281710
_cell_length_c   9.42533670
_cell_angle_alpha   60.01938899
_cell_angle_beta   60.01939131
_cell_angle_gamma   59.93206267
_symmetry_Int_Tables_number   1
_chemical_formula_structural   LiEr16Cd2Co4Hg
_chemical_formula_sum   'Li1 Er16 Cd2 Co4 Hg1'
_cell_volume   590.37063671
_cell_formula_units_Z   1
loop_
 _symmetry_equiv_pos_site_id
 _symmetry_equiv_pos_as_xyz
  1  'x, y, z'
loop_
 _atom_site_type_symbol
 _atom_site_label
 _atom_site_symmetry_multiplicity
 _atom_site_fract_x
 _atom_site_fract_y
 _atom_site_fract_z
 _atom_site_occupancy
  Li  Li0  1  0.821718  0.821718  0.538070  1
  Er  Er1  1  0.438629  0.438629  0.059958  1
  Er  Er2  1  0.594966  0.594966  0.595669  1
  Er  Er3  1  0.186782  0.813135  0.812442  1
  Er  Er4  1  0.062983  0.062983  0.435449  1
  Er  Er5  1  0.438925  0.060957  0.059620  1
  Er  Er6  1  0.813135  0.186782  0.812442  1
  Er  Er7  1  0.435354  0.063207  0.436238  1
  Er  Er8  1  0.595483  0.212637  0.597664  1
  Er  Er9  1  0.811488  0.811488  0.187961  1
  Er  Er10  1  0.212637  0.595483  0.597664  1
  Er  Er11  1  0.811029  0.188596  0.189081  1
  Er  Er12  1  0.063207  0.435354  0.436238  1
  Er  Er13  1  0.188596  0.811029  0.189081  1
  Er  Er14  1  0.598288  0.598288  0.206429  1
  Er  Er15  1  0.187077  0.187077  0.813037  1
  Er  Er16  1  0.060957  0.438925  0.059620  1
  Cd  Cd17  1  0.508971  0.831119  0.827194  1
  Cd  Cd18  1  0.831119  0.508971  0.827194  1
  Co  Co19  1  0.392306  0.392306  0.388143  1
  Co  Co20  1  0.827148  0.392073  0.388094  1
  Co  Co21  1  0.392073  0.827148  0.388094  1
  Co  Co22  1  0.391380  0.391380  0.826646  1
  Hg  Hg23  1  0.835754  0.835754  0.827971  1
