# generated using pymatgen
data_Y6Cd23Pb
_symmetry_space_group_name_H-M   'P 1'
_cell_length_a   10.00797647
_cell_length_b   10.00797590
_cell_length_c   10.00797600
_cell_angle_alpha   59.99999967
_cell_angle_beta   60.00000156
_cell_angle_gamma   59.99999915
_symmetry_Int_Tables_number   1
_chemical_formula_structural   Y6Cd23Pb
_chemical_formula_sum   'Y6 Cd23 Pb1'
_cell_volume   708.80012448
_cell_formula_units_Z   1
loop_
 _symmetry_equiv_pos_site_id
 _symmetry_equiv_pos_as_xyz
  1  'x, y, z'
loop_
 _atom_site_type_symbol
 _atom_site_label
 _atom_site_symmetry_multiplicity
 _atom_site_fract_x
 _atom_site_fract_y
 _atom_site_fract_z
 _atom_site_occupancy
  Y  Y0  1  0.780581  0.780581  0.219419  1
  Y  Y1  1  0.219419  0.780581  0.219419  1
  Y  Y2  1  0.780581  0.219419  0.219419  1
  Y  Y3  1  0.219419  0.219419  0.780581  1
  Y  Y4  1  0.780581  0.219419  0.780581  1
  Y  Y5  1  0.219419  0.780581  0.780581  1
  Cd  Cd6  1  0.843306  0.843306  0.470084  1
  Cd  Cd7  1  0.843306  0.470084  0.843306  1
  Cd  Cd8  1  0.470084  0.843306  0.843306  1
  Cd  Cd9  1  0.843306  0.843306  0.843306  1
  Cd  Cd10  1  0.156694  0.156694  0.529916  1
  Cd  Cd11  1  0.156694  0.529916  0.156694  1
  Cd  Cd12  1  0.529916  0.156694  0.156694  1
  Cd  Cd13  1  0.156694  0.156694  0.156694  1
  Cd  Cd14  1  0.625438  0.625438  0.123688  1
  Cd  Cd15  1  0.625438  0.123688  0.625438  1
  Cd  Cd16  1  0.123688  0.625438  0.625438  1
  Cd  Cd17  1  0.625438  0.625438  0.625438  1
  Cd  Cd18  1  0.374562  0.374562  0.876312  1
  Cd  Cd19  1  0.374562  0.876312  0.374562  1
  Cd  Cd20  1  0.876312  0.374562  0.374562  1
  Cd  Cd21  1  0.374562  0.374562  0.374562  1
  Cd  Cd22  1  0.000000  0.000000  0.500000  1
  Cd  Cd23  1  0.500000  0.000000  0.500000  1
  Cd  Cd24  1  0.000000  0.500000  0.500000  1
  Cd  Cd25  1  0.500000  0.500000  0.000000  1
  Cd  Cd26  1  0.000000  0.500000  0.000000  1
  Cd  Cd27  1  0.500000  0.000000  0.000000  1
  Cd  Cd28  1  0.500000  0.500000  0.500000  1
  Pb  Pb29  1  0.000000  0.000000  0.000000  1
