# generated using pymatgen
data_Tm8Si15BW12
_symmetry_space_group_name_H-M   'P 1'
_cell_length_a   6.66352500
_cell_length_b   6.84148254
_cell_length_c   12.78547500
_cell_angle_alpha   90.00000000
_cell_angle_beta   90.00000000
_cell_angle_gamma   89.40207310
_symmetry_Int_Tables_number   1
_chemical_formula_structural   Tm8Si15BW12
_chemical_formula_sum   'Tm8 Si15 B1 W12'
_cell_volume   582.83748086
_cell_formula_units_Z   1
loop_
 _symmetry_equiv_pos_site_id
 _symmetry_equiv_pos_as_xyz
  1  'x, y, z'
loop_
 _atom_site_type_symbol
 _atom_site_label
 _atom_site_symmetry_multiplicity
 _atom_site_fract_x
 _atom_site_fract_y
 _atom_site_fract_z
 _atom_site_occupancy
  Tm  Tm0  1  0.498181  0.661067  0.597516  1
  Tm  Tm1  1  0.996246  0.829415  0.904685  1
  Tm  Tm2  1  0.504586  0.331800  0.091884  1
  Tm  Tm3  1  0.006017  0.168594  0.407894  1
  Tm  Tm4  1  0.504586  0.331800  0.408116  1
  Tm  Tm5  1  0.006017  0.168594  0.092106  1
  Tm  Tm6  1  0.498181  0.661067  0.902484  1
  Tm  Tm7  1  0.996246  0.829415  0.595315  1
  Si  Si8  1  0.663723  0.961389  0.457189  1
  Si  Si9  1  0.164990  0.541688  0.044359  1
  Si  Si10  1  0.334400  0.037507  0.954397  1
  Si  Si11  1  0.840410  0.456242  0.546151  1
  Si  Si12  1  0.334400  0.037507  0.545603  1
  Si  Si13  1  0.840410  0.456242  0.953849  1
  Si  Si14  1  0.663723  0.961389  0.042811  1
  Si  Si15  1  0.164990  0.541688  0.455641  1
  Si  Si16  1  0.960356  0.128803  0.750000  1
  Si  Si17  1  0.535184  0.624910  0.250000  1
  Si  Si18  1  0.035165  0.872732  0.250000  1
  Si  Si19  1  0.698532  0.870762  0.750000  1
  Si  Si20  1  0.203548  0.630959  0.750000  1
  Si  Si21  1  0.302277  0.136517  0.250000  1
  Si  Si22  1  0.802218  0.362036  0.250000  1
  B  B23  1  0.459091  0.366753  0.750000  1
  W  W24  1  0.651674  0.178864  0.629637  1
  W  W25  1  0.179809  0.337714  0.871863  1
  W  W26  1  0.333992  0.835285  0.124953  1
  W  W27  1  0.829888  0.662565  0.376107  1
  W  W28  1  0.333992  0.835285  0.375047  1
  W  W29  1  0.829888  0.662565  0.123893  1
  W  W30  1  0.651674  0.178864  0.870363  1
  W  W31  1  0.179809  0.337714  0.628137  1
  W  W32  1  0.831595  0.496208  0.750000  1
  W  W33  1  0.333243  0.005176  0.750000  1
  W  W34  1  0.164596  0.499642  0.250000  1
  W  W35  1  0.666361  0.001242  0.250000  1
