# generated using pymatgen
data_V13Pd3
_symmetry_space_group_name_H-M   'P 1'
_cell_length_a   4.80966300
_cell_length_b   4.80734500
_cell_length_c   9.59365200
_cell_angle_alpha   90.00000000
_cell_angle_beta   90.00000000
_cell_angle_gamma   90.00000000
_symmetry_Int_Tables_number   1
_chemical_formula_structural   V13Pd3
_chemical_formula_sum   'V13 Pd3'
_cell_volume   221.82163339
_cell_formula_units_Z   1
loop_
 _symmetry_equiv_pos_site_id
 _symmetry_equiv_pos_as_xyz
  1  'x, y, z'
loop_
 _atom_site_type_symbol
 _atom_site_label
 _atom_site_symmetry_multiplicity
 _atom_site_fract_x
 _atom_site_fract_y
 _atom_site_fract_z
 _atom_site_occupancy
  V  V0  1  0.500000  0.500000  0.500000  1
  V  V1  1  0.500000  0.000000  0.625214  1
  V  V2  1  0.500000  0.000000  0.122169  1
  V  V3  1  0.746720  0.500000  0.255787  1
  V  V4  1  0.746720  0.500000  0.744213  1
  V  V5  1  0.000000  0.744700  0.500000  1
  V  V6  1  0.000000  0.751664  0.000000  1
  V  V7  1  0.500000  0.000000  0.374786  1
  V  V8  1  0.500000  0.000000  0.877831  1
  V  V9  1  0.253280  0.500000  0.255787  1
  V  V10  1  0.253280  0.500000  0.744213  1
  V  V11  1  0.000000  0.255300  0.500000  1
  V  V12  1  0.000000  0.248336  0.000000  1
  Pd  Pd13  1  0.500000  0.500000  0.000000  1
  Pd  Pd14  1  0.000000  0.000000  0.249005  1
  Pd  Pd15  1  0.000000  0.000000  0.750995  1
