# generated using pymatgen
data_Hf8Fe8Si13Ge
_symmetry_space_group_name_H-M   'P 1'
_cell_length_a   5.02181842
_cell_length_b   9.51226776
_cell_length_c   9.51226822
_cell_angle_alpha   86.00452132
_cell_angle_beta   74.69451905
_cell_angle_gamma   74.69451260
_symmetry_Int_Tables_number   1
_chemical_formula_structural   Hf8Fe8Si13Ge
_chemical_formula_sum   'Hf8 Fe8 Si13 Ge1'
_cell_volume   422.72952623
_cell_formula_units_Z   1
loop_
 _symmetry_equiv_pos_site_id
 _symmetry_equiv_pos_as_xyz
  1  'x, y, z'
loop_
 _atom_site_type_symbol
 _atom_site_label
 _atom_site_symmetry_multiplicity
 _atom_site_fract_x
 _atom_site_fract_y
 _atom_site_fract_z
 _atom_site_occupancy
  Hf  Hf0  1  0.137231  0.000000  0.722510  1
  Hf  Hf1  1  0.859741  0.000000  0.277490  1
  Hf  Hf2  1  0.859741  0.277490  0.000000  1
  Hf  Hf3  1  0.137231  0.722510  0.000000  1
  Hf  Hf4  1  0.501816  0.197443  0.802557  1
  Hf  Hf5  1  0.501816  0.802557  0.197443  1
  Hf  Hf6  1  0.304373  0.197443  0.197443  1
  Hf  Hf7  1  0.699259  0.802557  0.802557  1
  Fe  Fe8  1  0.398333  0.499898  0.203327  1
  Fe  Fe9  1  0.101559  0.500102  0.796673  1
  Fe  Fe10  1  0.101559  0.796673  0.500102  1
  Fe  Fe11  1  0.398333  0.203327  0.499898  1
  Fe  Fe12  1  0.601661  0.796673  0.499898  1
  Fe  Fe13  1  0.898231  0.203327  0.500102  1
  Fe  Fe14  1  0.898231  0.500102  0.203327  1
  Fe  Fe15  1  0.601661  0.499898  0.796673  1
  Si  Si16  1  0.290115  0.000000  0.418628  1
  Si  Si17  1  0.708743  0.000000  0.581372  1
  Si  Si18  1  0.708743  0.581372  0.000000  1
  Si  Si19  1  0.290115  0.418628  0.000000  1
  Si  Si20  1  0.000489  0.299082  0.700918  1
  Si  Si21  1  0.000489  0.700918  0.299082  1
  Si  Si22  1  0.701407  0.299082  0.299082  1
  Si  Si23  1  0.299571  0.700918  0.700918  1
  Si  Si24  1  0.499927  0.408720  0.591280  1
  Si  Si25  1  0.499927  0.591280  0.408720  1
  Si  Si26  1  0.091206  0.408720  0.408720  1
  Si  Si27  1  0.908647  0.591280  0.591280  1
  Si  Si28  1  0.749679  0.000000  0.000000  1
  Ge  Ge29  1  0.250167  0.000000  0.000000  1
