# generated using pymatgen
data_CaRu2F12
_symmetry_space_group_name_H-M   'P 1'
_cell_length_a   11.70258244
_cell_length_b   5.81032296
_cell_length_c   5.86271440
_cell_angle_alpha   57.76681224
_cell_angle_beta   57.56240970
_cell_angle_gamma   57.37207095
_symmetry_Int_Tables_number   1
_chemical_formula_structural   CaRu2F12
_chemical_formula_sum   'Ca1 Ru2 F12'
_cell_volume   266.10683719
_cell_formula_units_Z   1
loop_
 _symmetry_equiv_pos_site_id
 _symmetry_equiv_pos_as_xyz
  1  'x, y, z'
loop_
 _atom_site_type_symbol
 _atom_site_label
 _atom_site_symmetry_multiplicity
 _atom_site_fract_x
 _atom_site_fract_y
 _atom_site_fract_z
 _atom_site_occupancy
  Ca  Ca0  1  0.750000  0.500000  0.500000  1
  Ru  Ru1  1  0.007312  0.992442  0.996682  1
  Ru  Ru2  1  0.492688  0.007558  0.003318  1
  F  F3  1  0.159981  0.126821  0.777864  1
  F  F4  1  0.660441  0.131002  0.776698  1
  F  F5  1  0.061487  0.781620  0.318821  1
  F  F6  1  0.565796  0.774972  0.320801  1
  F  F7  1  0.110657  0.676040  0.873902  1
  F  F8  1  0.613124  0.674860  0.870654  1
  F  F9  1  0.438513  0.218380  0.681179  1
  F  F10  1  0.934204  0.225028  0.679199  1
  F  F11  1  0.340019  0.873179  0.222136  1
  F  F12  1  0.839559  0.868998  0.223302  1
  F  F13  1  0.389343  0.323960  0.126098  1
  F  F14  1  0.886876  0.325140  0.129346  1
