# generated using pymatgen
data_Dy3Tm9GaCo4Sn
_symmetry_space_group_name_H-M   'P 1'
_cell_length_a   8.24489875
_cell_length_b   8.23233275
_cell_length_c   8.23233224
_cell_angle_alpha   112.00492813
_cell_angle_beta   109.35985415
_cell_angle_gamma   107.02929300
_symmetry_Int_Tables_number   1
_chemical_formula_structural   Dy3Tm9GaCo4Sn
_chemical_formula_sum   'Dy3 Tm9 Ga1 Co4 Sn1'
_cell_volume   429.63329668
_cell_formula_units_Z   1
loop_
 _symmetry_equiv_pos_site_id
 _symmetry_equiv_pos_as_xyz
  1  'x, y, z'
loop_
 _atom_site_type_symbol
 _atom_site_label
 _atom_site_symmetry_multiplicity
 _atom_site_fract_x
 _atom_site_fract_y
 _atom_site_fract_z
 _atom_site_occupancy
  Dy  Dy0  1  0.567667  0.268401  0.299265  1
  Dy  Dy1  1  0.180262  0.219120  0.400196  1
  Dy  Dy2  1  0.180262  0.780065  0.961144  1
  Tm  Tm3  1  0.675411  0.488416  0.815026  1
  Tm  Tm4  1  0.675411  0.860385  0.186995  1
  Tm  Tm5  1  0.968221  0.265558  0.702663  1
  Tm  Tm6  1  0.031330  0.732508  0.298822  1
  Tm  Tm7  1  0.324328  0.138077  0.812736  1
  Tm  Tm8  1  0.324328  0.511592  0.186250  1
  Tm  Tm9  1  0.819090  0.218984  0.037208  1
  Tm  Tm10  1  0.819090  0.781881  0.600106  1
  Tm  Tm11  1  0.437393  0.734145  0.703250  1
  Ga  Ga12  1  0.002467  0.501759  0.500708  1
  Co  Co13  1  0.882550  0.884412  0.998138  1
  Co  Co14  1  0.341996  0.499632  0.842364  1
  Co  Co15  1  0.659159  0.500594  0.158566  1
  Co  Co16  1  0.110935  0.115086  0.995850  1
  Sn  Sn17  1  0.500099  0.999387  0.500712  1
