# generated using pymatgen
data_NdHo2Ga6(Ni2Pd)3
_symmetry_space_group_name_H-M   'P 1'
_cell_length_a   4.17254900
_cell_length_b   8.95541132
_cell_length_c   8.96354464
_cell_angle_alpha   119.96998946
_cell_angle_beta   90.00000000
_cell_angle_gamma   90.00000000
_symmetry_Int_Tables_number   1
_chemical_formula_structural   NdHo2Ga6(Ni2Pd)3
_chemical_formula_sum   'Nd1 Ho2 Ga6 Ni6 Pd3'
_cell_volume   290.15406169
_cell_formula_units_Z   1
loop_
 _symmetry_equiv_pos_site_id
 _symmetry_equiv_pos_as_xyz
  1  'x, y, z'
loop_
 _atom_site_type_symbol
 _atom_site_label
 _atom_site_symmetry_multiplicity
 _atom_site_fract_x
 _atom_site_fract_y
 _atom_site_fract_z
 _atom_site_occupancy
  Nd  Nd0  1  0.000000  0.999920  0.000000  1
  Ho  Ho1  1  0.500000  0.333161  0.666495  1
  Ho  Ho2  1  0.500000  0.666667  0.333505  1
  Ga  Ga3  1  0.000000  0.536639  0.000000  1
  Ga  Ga4  1  0.000000  0.463598  0.463354  1
  Ga  Ga5  1  0.000000  0.000243  0.536646  1
  Ga  Ga6  1  0.500000  0.288219  0.000000  1
  Ga  Ga7  1  0.500000  0.711605  0.711748  1
  Ga  Ga8  1  0.500000  0.999856  0.288252  1
  Ni  Ni9  1  0.000000  0.166468  0.391659  1
  Ni  Ni10  1  0.000000  0.225635  0.833494  1
  Ni  Ni11  1  0.000000  0.607513  0.774269  1
  Ni  Ni12  1  0.000000  0.774810  0.608341  1
  Ni  Ni13  1  0.000000  0.392141  0.166506  1
  Ni  Ni14  1  0.000000  0.833244  0.225731  1
  Pd  Pd15  1  0.500000  0.712718  0.000000  1
  Pd  Pd16  1  0.500000  0.287459  0.287454  1
  Pd  Pd17  1  0.500000  0.000005  0.712546  1
