# generated using pymatgen
data_TmCd4In(BiO6)2
_symmetry_space_group_name_H-M   'P 1'
_cell_length_a   6.64448258
_cell_length_b   6.69860888
_cell_length_c   6.69533700
_cell_angle_alpha   90.46962885
_cell_angle_beta   90.37138060
_cell_angle_gamma   90.68630944
_symmetry_Int_Tables_number   1
_chemical_formula_structural   TmCd4In(BiO6)2
_chemical_formula_sum   'Tm1 Cd4 In1 Bi2 O12'
_cell_volume   297.96350871
_cell_formula_units_Z   1
loop_
 _symmetry_equiv_pos_site_id
 _symmetry_equiv_pos_as_xyz
  1  'x, y, z'
loop_
 _atom_site_type_symbol
 _atom_site_label
 _atom_site_symmetry_multiplicity
 _atom_site_fract_x
 _atom_site_fract_y
 _atom_site_fract_z
 _atom_site_occupancy
  Tm  Tm0  1  0.057623  0.748152  0.563696  1
  Cd  Cd1  1  0.560697  0.048368  0.747252  1
  Cd  Cd2  1  0.947637  0.250199  0.439439  1
  Cd  Cd3  1  0.252218  0.435357  0.948470  1
  Cd  Cd4  1  0.438409  0.956805  0.252433  1
  In  In5  1  0.748500  0.565917  0.055344  1
  Bi  Bi6  1  0.505778  0.500783  0.501467  1
  Bi  Bi7  1  0.996039  0.002842  0.003056  1
  O  O8  1  0.026228  0.690009  0.903375  1
  O  O9  1  0.693670  0.894230  0.040187  1
  O  O10  1  0.915707  0.025034  0.693809  1
  O  O11  1  0.943692  0.307967  0.092707  1
  O  O12  1  0.300431  0.092909  0.961491  1
  O  O13  1  0.084426  0.950705  0.304217  1
  O  O14  1  0.811081  0.585720  0.408859  1
  O  O15  1  0.581404  0.432900  0.806463  1
  O  O16  1  0.402002  0.799686  0.564154  1
  O  O17  1  0.196744  0.439629  0.579261  1
  O  O18  1  0.448567  0.571972  0.193685  1
  O  O19  1  0.589150  0.200816  0.440638  1
