# generated using pymatgen
data_Sr4HoEr(OsO6)2
_symmetry_space_group_name_H-M   'P 1'
_cell_length_a   5.81828754
_cell_length_b   5.86499501
_cell_length_c   10.07912802
_cell_angle_alpha   90.00596399
_cell_angle_beta   125.01929996
_cell_angle_gamma   89.99697370
_symmetry_Int_Tables_number   1
_chemical_formula_structural   Sr4HoEr(OsO6)2
_chemical_formula_sum   'Sr4 Ho1 Er1 Os2 O12'
_cell_volume   281.67469618
_cell_formula_units_Z   1
loop_
 _symmetry_equiv_pos_site_id
 _symmetry_equiv_pos_as_xyz
  1  'x, y, z'
loop_
 _atom_site_type_symbol
 _atom_site_label
 _atom_site_symmetry_multiplicity
 _atom_site_fract_x
 _atom_site_fract_y
 _atom_site_fract_z
 _atom_site_occupancy
  Sr  Sr0  1  0.257856  0.034233  0.751049  1
  Sr  Sr1  1  0.257388  0.465642  0.250596  1
  Sr  Sr2  1  0.742144  0.965767  0.248951  1
  Sr  Sr3  1  0.742612  0.534358  0.749404  1
  Ho  Ho4  1  0.000000  0.500000  0.500000  1
  Er  Er5  1  0.000000  0.000000  0.000000  1
  Os  Os6  1  0.500000  0.000000  0.500000  1
  Os  Os7  1  0.500000  0.500000  0.000000  1
  O  O8  1  0.193139  0.482868  0.764834  1
  O  O9  1  0.192678  0.017072  0.264081  1
  O  O10  1  0.806861  0.517132  0.235166  1
  O  O11  1  0.807322  0.982928  0.735919  1
  O  O12  1  0.734586  0.199507  0.462643  1
  O  O13  1  0.735144  0.299646  0.962841  1
  O  O14  1  0.265414  0.800493  0.537357  1
  O  O15  1  0.264856  0.700354  0.037159  1
  O  O16  1  0.658715  0.726644  0.461952  1
  O  O17  1  0.659766  0.773694  0.962124  1
  O  O18  1  0.341285  0.273356  0.538048  1
  O  O19  1  0.340234  0.226306  0.037876  1
