# generated using pymatgen
data_HoVGa4Mo
_symmetry_space_group_name_H-M   'P 1'
_cell_length_a   5.38558515
_cell_length_b   5.38558460
_cell_length_c   5.38558496
_cell_angle_alpha   104.02740403
_cell_angle_beta   104.02739989
_cell_angle_gamma   121.01269885
_symmetry_Int_Tables_number   1
_chemical_formula_structural   HoVGa4Mo
_chemical_formula_sum   'Ho1 V1 Ga4 Mo1'
_cell_volume   116.52803242
_cell_formula_units_Z   1
loop_
 _symmetry_equiv_pos_site_id
 _symmetry_equiv_pos_as_xyz
  1  'x, y, z'
loop_
 _atom_site_type_symbol
 _atom_site_label
 _atom_site_symmetry_multiplicity
 _atom_site_fract_x
 _atom_site_fract_y
 _atom_site_fract_z
 _atom_site_occupancy
  Ho  Ho0  1  0.000000  0.000000  0.000000  1
  V  V1  1  0.750000  0.250000  0.500000  1
  Ga  Ga2  1  0.304981  0.304981  0.609961  1
  Ga  Ga3  1  0.695019  0.695019  0.390039  1
  Ga  Ga4  1  0.695019  0.304981  0.000000  1
  Ga  Ga5  1  0.304981  0.695019  0.000000  1
  Mo  Mo6  1  0.250000  0.750000  0.500000  1
