# generated using pymatgen
data_Tm5Co3Ni(P4Ru5)3
_symmetry_space_group_name_H-M   'P 1'
_cell_length_a   12.41718100
_cell_length_b   12.41717972
_cell_length_c   3.84746600
_cell_angle_alpha   90.00000000
_cell_angle_beta   90.00000000
_cell_angle_gamma   120.00000075
_symmetry_Int_Tables_number   1
_chemical_formula_structural   Tm5Co3Ni(P4Ru5)3
_chemical_formula_sum   'Tm5 Co3 Ni1 P12 Ru15'
_cell_volume   513.74948285
_cell_formula_units_Z   1
loop_
 _symmetry_equiv_pos_site_id
 _symmetry_equiv_pos_as_xyz
  1  'x, y, z'
loop_
 _atom_site_type_symbol
 _atom_site_label
 _atom_site_symmetry_multiplicity
 _atom_site_fract_x
 _atom_site_fract_y
 _atom_site_fract_z
 _atom_site_occupancy
  Tm  Tm0  1  0.666667  0.333333  0.000000  1
  Tm  Tm1  1  0.333333  0.666667  0.000000  1
  Tm  Tm2  1  0.183533  0.183533  0.500000  1
  Tm  Tm3  1  0.816467  0.000000  0.500000  1
  Tm  Tm4  1  0.000000  0.816467  0.500000  1
  Co  Co5  1  0.720408  0.720408  0.500000  1
  Co  Co6  1  0.279592  0.000000  0.500000  1
  Co  Co7  1  0.000000  0.279592  0.500000  1
  Ni  Ni8  1  0.000000  0.000000  0.000000  1
  P  P9  1  0.369277  0.369277  0.000000  1
  P  P10  1  0.630723  0.000000  0.000000  1
  P  P11  1  0.000000  0.630723  0.000000  1
  P  P12  1  0.836914  0.311484  0.500000  1
  P  P13  1  0.688516  0.525430  0.500000  1
  P  P14  1  0.474570  0.163086  0.500000  1
  P  P15  1  0.311484  0.836914  0.500000  1
  P  P16  1  0.525430  0.688516  0.500000  1
  P  P17  1  0.163086  0.474570  0.500000  1
  P  P18  1  0.822133  0.822133  0.000000  1
  P  P19  1  0.177867  0.000000  0.000000  1
  P  P20  1  0.000000  0.177867  0.000000  1
  Ru  Ru21  1  0.821838  0.192394  0.000000  1
  Ru  Ru22  1  0.807606  0.629443  0.000000  1
  Ru  Ru23  1  0.370557  0.178162  0.000000  1
  Ru  Ru24  1  0.192394  0.821838  0.000000  1
  Ru  Ru25  1  0.629443  0.807606  0.000000  1
  Ru  Ru26  1  0.178162  0.370557  0.000000  1
  Ru  Ru27  1  0.556438  0.556438  0.000000  1
  Ru  Ru28  1  0.443562  0.000000  0.000000  1
  Ru  Ru29  1  0.000000  0.443562  0.000000  1
  Ru  Ru30  1  0.638801  0.127721  0.500000  1
  Ru  Ru31  1  0.872279  0.511081  0.500000  1
  Ru  Ru32  1  0.488919  0.361199  0.500000  1
  Ru  Ru33  1  0.127721  0.638801  0.500000  1
  Ru  Ru34  1  0.511081  0.872279  0.500000  1
  Ru  Ru35  1  0.361199  0.488919  0.500000  1
