# generated using pymatgen
data_Tb4Al3GaNi3Ru
_symmetry_space_group_name_H-M   'P 1'
_cell_length_a   4.19699900
_cell_length_b   6.79549374
_cell_length_c   7.79475203
_cell_angle_alpha   89.87479788
_cell_angle_beta   90.00000000
_cell_angle_gamma   90.00000000
_symmetry_Int_Tables_number   1
_chemical_formula_structural   Tb4Al3GaNi3Ru
_chemical_formula_sum   'Tb4 Al3 Ga1 Ni3 Ru1'
_cell_volume   222.31110092
_cell_formula_units_Z   1
loop_
 _symmetry_equiv_pos_site_id
 _symmetry_equiv_pos_as_xyz
  1  'x, y, z'
loop_
 _atom_site_type_symbol
 _atom_site_label
 _atom_site_symmetry_multiplicity
 _atom_site_fract_x
 _atom_site_fract_y
 _atom_site_fract_z
 _atom_site_occupancy
  Tb  Tb0  1  0.250000  0.037473  0.822277  1
  Tb  Tb1  1  0.250000  0.533051  0.681758  1
  Tb  Tb2  1  0.750000  0.966254  0.176930  1
  Tb  Tb3  1  0.750000  0.465475  0.320041  1
  Al  Al4  1  0.250000  0.139249  0.440674  1
  Al  Al5  1  0.250000  0.640580  0.055414  1
  Al  Al6  1  0.750000  0.862996  0.561923  1
  Ga  Ga7  1  0.750000  0.358663  0.940213  1
  Ni  Ni8  1  0.250000  0.277027  0.123576  1
  Ni  Ni9  1  0.750000  0.227108  0.624105  1
  Ni  Ni10  1  0.750000  0.728880  0.875739  1
  Ru  Ru11  1  0.250000  0.763244  0.377348  1
