# generated using pymatgen
data_Nb12Al8Ni3WC4
_symmetry_space_group_name_H-M   'P 1'
_cell_length_a   8.33928604
_cell_length_b   8.27948770
_cell_length_c   8.27948800
_cell_angle_alpha   60.00000679
_cell_angle_beta   60.23692874
_cell_angle_gamma   60.23692945
_symmetry_Int_Tables_number   1
_chemical_formula_structural   Nb12Al8Ni3WC4
_chemical_formula_sum   'Nb12 Al8 Ni3 W1 C4'
_cell_volume   405.66438556
_cell_formula_units_Z   1
loop_
 _symmetry_equiv_pos_site_id
 _symmetry_equiv_pos_as_xyz
  1  'x, y, z'
loop_
 _atom_site_type_symbol
 _atom_site_label
 _atom_site_symmetry_multiplicity
 _atom_site_fract_x
 _atom_site_fract_y
 _atom_site_fract_z
 _atom_site_occupancy
  Nb  Nb0  1  0.814829  0.812857  0.186157  1
  Nb  Nb1  1  0.179555  0.201940  0.809252  1
  Nb  Nb2  1  0.814829  0.186157  0.812857  1
  Nb  Nb3  1  0.179555  0.809252  0.201940  1
  Nb  Nb4  1  0.179555  0.809252  0.809252  1
  Nb  Nb5  1  0.814829  0.186157  0.186157  1
  Nb  Nb6  1  0.435171  0.437143  0.063843  1
  Nb  Nb7  1  0.070445  0.048060  0.440748  1
  Nb  Nb8  1  0.435171  0.063843  0.437143  1
  Nb  Nb9  1  0.070445  0.440748  0.048060  1
  Nb  Nb10  1  0.070445  0.440748  0.440748  1
  Nb  Nb11  1  0.435171  0.063843  0.063843  1
  Al  Al12  1  0.758136  0.413955  0.413955  1
  Al  Al13  1  0.432523  0.746077  0.410700  1
  Al  Al14  1  0.432523  0.410700  0.746077  1
  Al  Al15  1  0.432523  0.410700  0.410700  1
  Al  Al16  1  0.491864  0.836045  0.836045  1
  Al  Al17  1  0.817477  0.503923  0.839300  1
  Al  Al18  1  0.817477  0.839300  0.503923  1
  Al  Al19  1  0.817477  0.839300  0.839300  1
  Ni  Ni20  1  0.625000  0.125000  0.625000  1
  Ni  Ni21  1  0.625000  0.625000  0.125000  1
  Ni  Ni22  1  0.625000  0.625000  0.625000  1
  W  W23  1  0.125000  0.625000  0.625000  1
  C  C24  1  0.625000  0.125000  0.125000  1
  C  C25  1  0.125000  0.625000  0.125000  1
  C  C26  1  0.125000  0.125000  0.625000  1
  C  C27  1  0.125000  0.125000  0.125000  1
