# generated using pymatgen
data_NaTb3Se4
_symmetry_space_group_name_H-M   'P 1'
_cell_length_a   7.13618019
_cell_length_b   7.13617987
_cell_length_c   4.11687200
_cell_angle_alpha   90.00000000
_cell_angle_beta   90.00000000
_cell_angle_gamma   109.24853189
_symmetry_Int_Tables_number   1
_chemical_formula_structural   NaTb3Se4
_chemical_formula_sum   'Na1 Tb3 Se4'
_cell_volume   197.93189972
_cell_formula_units_Z   1
loop_
 _symmetry_equiv_pos_site_id
 _symmetry_equiv_pos_as_xyz
  1  'x, y, z'
loop_
 _atom_site_type_symbol
 _atom_site_label
 _atom_site_symmetry_multiplicity
 _atom_site_fract_x
 _atom_site_fract_y
 _atom_site_fract_z
 _atom_site_occupancy
  Na  Na0  1  0.500000  0.500000  0.000000  1
  Tb  Tb1  1  0.500000  0.000000  0.500000  1
  Tb  Tb2  1  0.000000  0.500000  0.500000  1
  Tb  Tb3  1  0.000000  0.000000  0.000000  1
  Se  Se4  1  0.249530  0.750470  0.000000  1
  Se  Se5  1  0.750470  0.249530  0.000000  1
  Se  Se6  1  0.752370  0.752370  0.500000  1
  Se  Se7  1  0.247630  0.247630  0.500000  1
