# generated using pymatgen
data_Th(Al3Ni)3
_symmetry_space_group_name_H-M   'P 1'
_cell_length_a   10.12263220
_cell_length_b   10.12263101
_cell_length_c   10.12258738
_cell_angle_alpha   42.56230019
_cell_angle_beta   42.56130738
_cell_angle_gamma   42.56258753
_symmetry_Int_Tables_number   1
_chemical_formula_structural   Th(Al3Ni)3
_chemical_formula_sum   'Th2 Al18 Ni6'
_cell_volume   429.73892003
_cell_formula_units_Z   2
loop_
 _symmetry_equiv_pos_site_id
 _symmetry_equiv_pos_as_xyz
  1  'x, y, z'
loop_
 _atom_site_type_symbol
 _atom_site_label
 _atom_site_symmetry_multiplicity
 _atom_site_fract_x
 _atom_site_fract_y
 _atom_site_fract_z
 _atom_site_occupancy
  Th  Th0  1  0.166835  0.166844  0.166846  1
  Th  Th1  1  0.833162  0.833149  0.833163  1
  Al  Al2  1  0.050407  0.050420  0.050438  1
  Al  Al3  1  0.702906  0.499999  0.297091  1
  Al  Al4  1  0.665300  0.334709  0.000004  1
  Al  Al5  1  0.104331  0.429830  0.755660  1
  Al  Al6  1  0.429800  0.755627  0.104391  1
  Al  Al7  1  0.385283  0.385309  0.385257  1
  Al  Al8  1  0.334706  0.000000  0.665288  1
  Al  Al9  1  0.614737  0.614701  0.614713  1
  Al  Al10  1  0.244332  0.570172  0.895668  1
  Al  Al11  1  0.570234  0.895626  0.244317  1
  Al  Al12  1  0.500009  0.297115  0.702889  1
  Al  Al13  1  0.755688  0.104370  0.429761  1
  Al  Al14  1  0.949566  0.949572  0.949591  1
  Al  Al15  1  0.297108  0.702889  0.499989  1
  Al  Al16  1  0.999995  0.665294  0.334701  1
  Al  Al17  1  0.716664  0.716619  0.716637  1
  Al  Al18  1  0.283357  0.283376  0.283344  1
  Al  Al19  1  0.895612  0.244364  0.570198  1
  Ni  Ni20  1  0.240349  0.922568  0.581473  1
  Ni  Ni21  1  0.922559  0.581470  0.240364  1
  Ni  Ni22  1  0.759625  0.418529  0.077450  1
  Ni  Ni23  1  0.077423  0.759657  0.418535  1
  Ni  Ni24  1  0.418533  0.077432  0.759664  1
  Ni  Ni25  1  0.581479  0.240360  0.922567  1
