# generated using pymatgen
data_YbTa8MoN12
_symmetry_space_group_name_H-M   'P 1'
_cell_length_a   5.25428405
_cell_length_b   5.24937430
_cell_length_c   10.55600500
_cell_angle_alpha   90.05771738
_cell_angle_beta   90.00776406
_cell_angle_gamma   120.06047789
_symmetry_Int_Tables_number   1
_chemical_formula_structural   YbTa8MoN12
_chemical_formula_sum   'Yb1 Ta8 Mo1 N12'
_cell_volume   251.99155070
_cell_formula_units_Z   1
loop_
 _symmetry_equiv_pos_site_id
 _symmetry_equiv_pos_as_xyz
  1  'x, y, z'
loop_
 _atom_site_type_symbol
 _atom_site_label
 _atom_site_symmetry_multiplicity
 _atom_site_fract_x
 _atom_site_fract_y
 _atom_site_fract_z
 _atom_site_occupancy
  Yb  Yb0  1  0.667384  0.335633  0.998744  1
  Ta  Ta1  1  0.324169  0.000917  0.747200  1
  Ta  Ta2  1  0.995724  0.321537  0.747053  1
  Ta  Ta3  1  0.326365  0.322818  0.254552  1
  Ta  Ta4  1  0.677820  0.004303  0.254344  1
  Ta  Ta5  1  0.996567  0.674124  0.254279  1
  Ta  Ta6  1  0.333706  0.667145  0.002966  1
  Ta  Ta7  1  0.334626  0.667382  0.495521  1
  Ta  Ta8  1  0.667299  0.335606  0.498451  1
  Mo  Mo9  1  0.673972  0.671355  0.744048  1
  N  N10  1  0.663967  0.664314  0.383274  1
  N  N11  1  0.338660  0.000957  0.382282  1
  N  N12  1  0.000730  0.338923  0.382273  1
  N  N13  1  0.338338  0.339750  0.618518  1
  N  N14  1  0.654467  0.002289  0.619233  1
  N  N15  1  0.002988  0.655770  0.619791  1
  N  N16  1  0.330250  0.348794  0.867559  1
  N  N17  1  0.647398  0.981461  0.867532  1
  N  N18  1  0.023636  0.665573  0.868115  1
  N  N19  1  0.647583  0.666585  0.131467  1
  N  N20  1  0.335003  0.981253  0.131373  1
  N  N21  1  0.019349  0.353513  0.131426  1
