# generated using pymatgen
data_ZrSc3B4(MoRu5)2
_symmetry_space_group_name_H-M   'P 1'
_cell_length_a   9.44077730
_cell_length_b   9.44077703
_cell_length_c   3.07014100
_cell_angle_alpha   90.00000000
_cell_angle_beta   90.00000000
_cell_angle_gamma   90.21875034
_symmetry_Int_Tables_number   1
_chemical_formula_structural   ZrSc3B4(MoRu5)2
_chemical_formula_sum   'Zr1 Sc3 B4 Mo2 Ru10'
_cell_volume   273.63437244
_cell_formula_units_Z   1
loop_
 _symmetry_equiv_pos_site_id
 _symmetry_equiv_pos_as_xyz
  1  'x, y, z'
loop_
 _atom_site_type_symbol
 _atom_site_label
 _atom_site_symmetry_multiplicity
 _atom_site_fract_x
 _atom_site_fract_y
 _atom_site_fract_z
 _atom_site_occupancy
  Zr  Zr0  1  0.825407  0.174593  0.000000  1
  Sc  Sc1  1  0.176022  0.823978  0.000000  1
  Sc  Sc2  1  0.325315  0.325799  0.000000  1
  Sc  Sc3  1  0.674201  0.674685  0.000000  1
  B  B4  1  0.620900  0.379100  0.000000  1
  B  B5  1  0.380056  0.619944  0.000000  1
  B  B6  1  0.121746  0.122688  0.000000  1
  B  B7  1  0.877312  0.878254  0.000000  1
  Mo  Mo8  1  0.495977  0.998493  0.000000  1
  Mo  Mo9  1  0.001507  0.504023  0.000000  1
  Ru  Ru10  1  0.500842  0.499158  0.500000  1
  Ru  Ru11  1  0.000283  0.999717  0.500000  1
  Ru  Ru12  1  0.572189  0.215253  0.500000  1
  Ru  Ru13  1  0.430196  0.783138  0.500000  1
  Ru  Ru14  1  0.068697  0.283978  0.500000  1
  Ru  Ru15  1  0.928345  0.716623  0.500000  1
  Ru  Ru16  1  0.283377  0.071655  0.500000  1
  Ru  Ru17  1  0.716022  0.931303  0.500000  1
  Ru  Ru18  1  0.216862  0.569804  0.500000  1
  Ru  Ru19  1  0.784747  0.427811  0.500000  1
