# generated using pymatgen
data_CoSbRuF12
_symmetry_space_group_name_H-M   'P 1'
_cell_length_a   5.34969688
_cell_length_b   5.65122506
_cell_length_c   9.33017700
_cell_angle_alpha   73.87228205
_cell_angle_beta   88.64910653
_cell_angle_gamma   62.35440487
_symmetry_Int_Tables_number   1
_chemical_formula_structural   CoSbRuF12
_chemical_formula_sum   'Co1 Sb1 Ru1 F12'
_cell_volume   238.19114784
_cell_formula_units_Z   1
loop_
 _symmetry_equiv_pos_site_id
 _symmetry_equiv_pos_as_xyz
  1  'x, y, z'
loop_
 _atom_site_type_symbol
 _atom_site_label
 _atom_site_symmetry_multiplicity
 _atom_site_fract_x
 _atom_site_fract_y
 _atom_site_fract_z
 _atom_site_occupancy
  Co  Co0  1  0.499152  0.502378  0.498572  1
  Sb  Sb1  1  0.220693  0.002964  0.749349  1
  Ru  Ru2  1  0.777937  0.994243  0.255007  1
  F  F3  1  0.951621  0.218250  0.202005  1
  F  F4  1  0.045673  0.772165  0.790578  1
  F  F5  1  0.999833  0.763112  0.144677  1
  F  F6  1  0.452839  0.779113  0.619970  1
  F  F7  1  0.549132  0.230305  0.379156  1
  F  F8  1  0.935816  0.248358  0.569326  1
  F  F9  1  0.073637  0.750363  0.429376  1
  F  F10  1  0.397705  0.243864  0.670296  1
  F  F11  1  0.603438  0.750704  0.330338  1
  F  F12  1  0.516754  0.781932  0.909198  1
  F  F13  1  0.490654  0.215630  0.096583  1
  F  F14  1  0.985116  0.246620  0.855568  1
