# generated using pymatgen
data_LiAc8La11Pb16
_symmetry_space_group_name_H-M   'P 1'
_cell_length_a   8.65881100
_cell_length_b   8.75964504
_cell_length_c   16.69014400
_cell_angle_alpha   90.00000000
_cell_angle_beta   90.00000000
_cell_angle_gamma   90.32857632
_symmetry_Int_Tables_number   1
_chemical_formula_structural   LiAc8La11Pb16
_chemical_formula_sum   'Li1 Ac8 La11 Pb16'
_cell_volume   1265.89507565
_cell_formula_units_Z   1
loop_
 _symmetry_equiv_pos_site_id
 _symmetry_equiv_pos_as_xyz
  1  'x, y, z'
loop_
 _atom_site_type_symbol
 _atom_site_label
 _atom_site_symmetry_multiplicity
 _atom_site_fract_x
 _atom_site_fract_y
 _atom_site_fract_z
 _atom_site_occupancy
  Li  Li0  1  0.290452  0.004054  0.250000  1
  Ac  Ac1  1  0.518338  0.319699  0.903953  1
  Ac  Ac2  1  0.019605  0.179246  0.597281  1
  Ac  Ac3  1  0.479688  0.688411  0.400596  1
  Ac  Ac4  1  0.987914  0.823555  0.098597  1
  Ac  Ac5  1  0.479688  0.688411  0.099404  1
  Ac  Ac6  1  0.987914  0.823555  0.401403  1
  Ac  Ac7  1  0.518338  0.319699  0.596047  1
  Ac  Ac8  1  0.019605  0.179246  0.902719  1
  La  La9  1  0.367193  0.841444  0.881259  1
  La  La10  1  0.865963  0.655835  0.618032  1
  La  La11  1  0.625759  0.155046  0.378455  1
  La  La12  1  0.132365  0.336919  0.121580  1
  La  La13  1  0.625759  0.155046  0.121545  1
  La  La14  1  0.132365  0.336919  0.378420  1
  La  La15  1  0.367193  0.841444  0.618741  1
  La  La16  1  0.865963  0.655835  0.881968  1
  La  La17  1  0.202775  0.501840  0.750000  1
  La  La18  1  0.701558  0.996402  0.750000  1
  La  La19  1  0.799755  0.498365  0.250000  1
  Pb  Pb20  1  0.293795  0.044322  0.042154  1
  Pb  Pb21  1  0.793434  0.460026  0.453624  1
  Pb  Pb22  1  0.706728  0.958240  0.542554  1
  Pb  Pb23  1  0.205428  0.538979  0.957098  1
  Pb  Pb24  1  0.706728  0.958240  0.957446  1
  Pb  Pb25  1  0.205428  0.538979  0.542902  1
  Pb  Pb26  1  0.293795  0.044322  0.457846  1
  Pb  Pb27  1  0.793434  0.460026  0.046376  1
  Pb  Pb28  1  0.565325  0.626435  0.750000  1
  Pb  Pb29  1  0.066765  0.874330  0.750000  1
  Pb  Pb30  1  0.430470  0.377542  0.250000  1
  Pb  Pb31  1  0.938134  0.116241  0.250000  1
  Pb  Pb32  1  0.325904  0.141204  0.750000  1
  Pb  Pb33  1  0.828063  0.355549  0.750000  1
  Pb  Pb34  1  0.679772  0.860991  0.250000  1
  Pb  Pb35  1  0.178604  0.643611  0.250000  1
