# generated using pymatgen
data_Sr7La(Yb3Pt4)4
_symmetry_space_group_name_H-M   'P 1'
_cell_length_a   7.64571456
_cell_length_b   7.79535183
_cell_length_c   14.82148803
_cell_angle_alpha   89.80846833
_cell_angle_beta   89.90272942
_cell_angle_gamma   90.11450675
_symmetry_Int_Tables_number   1
_chemical_formula_structural   Sr7La(Yb3Pt4)4
_chemical_formula_sum   'Sr7 La1 Yb12 Pt16'
_cell_volume   883.36804404
_cell_formula_units_Z   1
loop_
 _symmetry_equiv_pos_site_id
 _symmetry_equiv_pos_as_xyz
  1  'x, y, z'
loop_
 _atom_site_type_symbol
 _atom_site_label
 _atom_site_symmetry_multiplicity
 _atom_site_fract_x
 _atom_site_fract_y
 _atom_site_fract_z
 _atom_site_occupancy
  Sr  Sr0  1  0.001217  0.175136  0.596016  1
  Sr  Sr1  1  0.498133  0.675438  0.403474  1
  Sr  Sr2  1  0.997920  0.824910  0.097091  1
  Sr  Sr3  1  0.497932  0.675686  0.097218  1
  Sr  Sr4  1  0.998307  0.824381  0.403412  1
  Sr  Sr5  1  0.502372  0.325125  0.596152  1
  Sr  Sr6  1  0.001551  0.174123  0.903689  1
  La  La7  1  0.498370  0.319901  0.900337  1
  Yb  Yb8  1  0.339378  0.832018  0.877337  1
  Yb  Yb9  1  0.839187  0.667524  0.622625  1
  Yb  Yb10  1  0.661037  0.167067  0.376853  1
  Yb  Yb11  1  0.160997  0.333152  0.123384  1
  Yb  Yb12  1  0.661349  0.167109  0.123817  1
  Yb  Yb13  1  0.160742  0.332851  0.377323  1
  Yb  Yb14  1  0.338517  0.832262  0.622755  1
  Yb  Yb15  1  0.839753  0.668053  0.876788  1
  Yb  Yb16  1  0.176397  0.499120  0.749139  1
  Yb  Yb17  1  0.679615  0.000919  0.749207  1
  Yb  Yb18  1  0.822519  0.501987  0.250482  1
  Yb  Yb19  1  0.322071  0.998414  0.250708  1
  Pt  Pt20  1  0.335310  0.045574  0.040255  1
  Pt  Pt21  1  0.834915  0.460989  0.457474  1
  Pt  Pt22  1  0.664255  0.960984  0.542963  1
  Pt  Pt23  1  0.174662  0.530442  0.956038  1
  Pt  Pt24  1  0.663284  0.969780  0.954986  1
  Pt  Pt25  1  0.164595  0.538312  0.543174  1
  Pt  Pt26  1  0.334867  0.039378  0.457564  1
  Pt  Pt27  1  0.830182  0.459913  0.038698  1
  Pt  Pt28  1  0.542936  0.625317  0.752372  1
  Pt  Pt29  1  0.047701  0.871649  0.749604  1
  Pt  Pt30  1  0.454392  0.371074  0.250286  1
  Pt  Pt31  1  0.954968  0.129203  0.250309  1
  Pt  Pt32  1  0.308429  0.130478  0.755860  1
  Pt  Pt33  1  0.798098  0.371876  0.753113  1
  Pt  Pt34  1  0.697146  0.874308  0.249872  1
  Pt  Pt35  1  0.196897  0.625547  0.249623  1
