# generated using pymatgen
data_RbNa(SiAs)6
_symmetry_space_group_name_H-M   'P 1'
_cell_length_a   3.69773500
_cell_length_b   10.15969141
_cell_length_c   19.29543933
_cell_angle_alpha   86.92052951
_cell_angle_beta   90.00000000
_cell_angle_gamma   90.00000000
_symmetry_Int_Tables_number   1
_chemical_formula_structural   RbNa(SiAs)6
_chemical_formula_sum   'Rb2 Na2 Si12 As12'
_cell_volume   723.84135275
_cell_formula_units_Z   2
loop_
 _symmetry_equiv_pos_site_id
 _symmetry_equiv_pos_as_xyz
  1  'x, y, z'
loop_
 _atom_site_type_symbol
 _atom_site_label
 _atom_site_symmetry_multiplicity
 _atom_site_fract_x
 _atom_site_fract_y
 _atom_site_fract_z
 _atom_site_occupancy
  Rb  Rb0  1  0.000000  0.310998  0.301067  1
  Rb  Rb1  1  0.000000  0.689002  0.698933  1
  Na  Na2  1  0.000000  0.175489  0.801533  1
  Na  Na3  1  0.000000  0.824511  0.198467  1
  Si  Si4  1  0.500000  0.401228  0.033986  1
  Si  Si5  1  0.500000  0.598772  0.966014  1
  Si  Si6  1  0.500000  0.088367  0.537053  1
  Si  Si7  1  0.500000  0.911633  0.462947  1
  Si  Si8  1  0.000000  0.110884  0.013059  1
  Si  Si9  1  0.000000  0.889116  0.986941  1
  Si  Si10  1  0.000000  0.388243  0.519471  1
  Si  Si11  1  0.000000  0.611757  0.480529  1
  Si  Si12  1  0.000000  0.160823  0.130128  1
  Si  Si13  1  0.000000  0.839177  0.869872  1
  Si  Si14  1  0.000000  0.309790  0.637598  1
  Si  Si15  1  0.000000  0.690210  0.362402  1
  As  As16  1  0.500000  0.083657  0.197287  1
  As  As17  1  0.500000  0.916343  0.802713  1
  As  As18  1  0.500000  0.372484  0.705098  1
  As  As19  1  0.500000  0.627516  0.294902  1
  As  As20  1  0.500000  0.287940  0.462748  1
  As  As21  1  0.500000  0.712060  0.537252  1
  As  As22  1  0.500000  0.221990  0.955108  1
  As  As23  1  0.500000  0.778010  0.044892  1
  As  As24  1  0.000000  0.400132  0.113048  1
  As  As25  1  0.000000  0.599868  0.886952  1
  As  As26  1  0.000000  0.073976  0.616554  1
  As  As27  1  0.000000  0.926024  0.383446  1
