# generated using pymatgen
data_Th2Al3(Ga2Ir)3
_symmetry_space_group_name_H-M   'P 1'
_cell_length_a   7.70086496
_cell_length_b   7.70234014
_cell_length_c   9.51985593
_cell_angle_alpha   90.18776945
_cell_angle_beta   89.92113973
_cell_angle_gamma   119.69189684
_symmetry_Int_Tables_number   1
_chemical_formula_structural   Th2Al3(Ga2Ir)3
_chemical_formula_sum   'Th4 Al6 Ga12 Ir6'
_cell_volume   490.52465089
_cell_formula_units_Z   2
loop_
 _symmetry_equiv_pos_site_id
 _symmetry_equiv_pos_as_xyz
  1  'x, y, z'
loop_
 _atom_site_type_symbol
 _atom_site_label
 _atom_site_symmetry_multiplicity
 _atom_site_fract_x
 _atom_site_fract_y
 _atom_site_fract_z
 _atom_site_occupancy
  Th  Th0  1  0.997622  0.667433  0.251301  1
  Th  Th1  1  0.002378  0.332567  0.748699  1
  Th  Th2  1  0.671092  0.998629  0.255716  1
  Th  Th3  1  0.328908  0.001371  0.744284  1
  Al  Al4  1  0.663306  0.994764  0.929245  1
  Al  Al5  1  0.336694  0.005236  0.070755  1
  Al  Al6  1  0.335239  0.335521  0.549429  1
  Al  Al7  1  0.664761  0.664479  0.450571  1
  Al  Al8  1  0.665578  0.665226  0.051865  1
  Al  Al9  1  0.334422  0.334774  0.948135  1
  Ga  Ga10  1  0.133056  0.129821  0.249031  1
  Ga  Ga11  1  0.866944  0.870179  0.750969  1
  Ga  Ga12  1  0.001760  0.332941  0.076173  1
  Ga  Ga13  1  0.998240  0.667059  0.923827  1
  Ga  Ga14  1  0.994424  0.664444  0.577704  1
  Ga  Ga15  1  0.334730  0.003803  0.418922  1
  Ga  Ga16  1  0.005576  0.335556  0.422296  1
  Ga  Ga17  1  0.665270  0.996197  0.581078  1
  Ga  Ga18  1  0.347803  0.548075  0.249578  1
  Ga  Ga19  1  0.652197  0.451925  0.750422  1
  Ga  Ga20  1  0.546499  0.346562  0.248723  1
  Ga  Ga21  1  0.453501  0.653438  0.751277  1
  Ir  Ir22  1  0.667580  0.324842  0.998877  1
  Ir  Ir23  1  0.332420  0.675158  0.001123  1
  Ir  Ir24  1  0.330201  0.669219  0.500667  1
  Ir  Ir25  1  0.669799  0.330781  0.499333  1
  Ir  Ir26  1  0.000000  0.000000  0.000000  1
  Ir  Ir27  1  0.000000  0.000000  0.500000  1
