# generated using pymatgen
data_Dy5Er2FeBr12
_symmetry_space_group_name_H-M   'P 1'
_cell_length_a   9.15319136
_cell_length_b   9.25899313
_cell_length_c   9.22796751
_cell_angle_alpha   106.99100961
_cell_angle_beta   106.93413374
_cell_angle_gamma   106.74881698
_symmetry_Int_Tables_number   1
_chemical_formula_structural   Dy5Er2FeBr12
_chemical_formula_sum   'Dy5 Er2 Fe1 Br12'
_cell_volume   653.22930950
_cell_formula_units_Z   1
loop_
 _symmetry_equiv_pos_site_id
 _symmetry_equiv_pos_as_xyz
  1  'x, y, z'
loop_
 _atom_site_type_symbol
 _atom_site_label
 _atom_site_symmetry_multiplicity
 _atom_site_fract_x
 _atom_site_fract_y
 _atom_site_fract_z
 _atom_site_occupancy
  Dy  Dy0  1  0.902056  0.978945  0.696060  1
  Dy  Dy1  1  0.707558  0.906394  0.979261  1
  Dy  Dy2  1  0.980812  0.695407  0.900799  1
  Dy  Dy3  1  0.098288  0.020535  0.303938  1
  Dy  Dy4  1  0.292974  0.094546  0.021183  1
  Er  Er5  1  0.019180  0.301039  0.098102  1
  Er  Er6  1  0.499447  0.500659  0.499950  1
  Fe  Fe7  1  0.000219  0.999553  0.999893  1
  Br  Br8  1  0.830541  0.613427  0.535241  1
  Br  Br9  1  0.536859  0.830333  0.614568  1
  Br  Br10  1  0.615283  0.540426  0.830439  1
  Br  Br11  1  0.167693  0.386586  0.462674  1
  Br  Br12  1  0.463183  0.171092  0.385737  1
  Br  Br13  1  0.382559  0.459954  0.169018  1
  Br  Br14  1  0.928870  0.321574  0.781052  1
  Br  Br15  1  0.777219  0.927508  0.318621  1
  Br  Br16  1  0.323332  0.781319  0.932090  1
  Br  Br17  1  0.070800  0.676179  0.220165  1
  Br  Br18  1  0.223363  0.073340  0.681880  1
  Br  Br19  1  0.679765  0.221185  0.069326  1
