# generated using pymatgen
data_Nb12Co8ReMo3N4
_symmetry_space_group_name_H-M   'P 1'
_cell_length_a   8.17038726
_cell_length_b   8.17038767
_cell_length_c   8.17038778
_cell_angle_alpha   59.79931890
_cell_angle_beta   59.79931616
_cell_angle_gamma   59.79931728
_symmetry_Int_Tables_number   1
_chemical_formula_structural   Nb12Co8ReMo3N4
_chemical_formula_sum   'Nb12 Co8 Re1 Mo3 N4'
_cell_volume   383.91046203
_cell_formula_units_Z   1
loop_
 _symmetry_equiv_pos_site_id
 _symmetry_equiv_pos_as_xyz
  1  'x, y, z'
loop_
 _atom_site_type_symbol
 _atom_site_label
 _atom_site_symmetry_multiplicity
 _atom_site_fract_x
 _atom_site_fract_y
 _atom_site_fract_z
 _atom_site_occupancy
  Nb  Nb0  1  0.808533  0.808533  0.192758  1
  Nb  Nb1  1  0.189598  0.189598  0.810224  1
  Nb  Nb2  1  0.808533  0.192758  0.808533  1
  Nb  Nb3  1  0.189598  0.810224  0.189598  1
  Nb  Nb4  1  0.192758  0.808533  0.808533  1
  Nb  Nb5  1  0.810224  0.189598  0.189598  1
  Nb  Nb6  1  0.441467  0.441467  0.057242  1
  Nb  Nb7  1  0.060402  0.060402  0.439776  1
  Nb  Nb8  1  0.441467  0.057242  0.441467  1
  Nb  Nb9  1  0.060402  0.439776  0.060402  1
  Nb  Nb10  1  0.057242  0.441467  0.441467  1
  Nb  Nb11  1  0.439776  0.060402  0.060402  1
  Co  Co12  1  0.729801  0.423949  0.423949  1
  Co  Co13  1  0.423949  0.729801  0.423949  1
  Co  Co14  1  0.423949  0.423949  0.729801  1
  Co  Co15  1  0.422986  0.422986  0.422986  1
  Co  Co16  1  0.520199  0.826051  0.826051  1
  Co  Co17  1  0.826051  0.520199  0.826051  1
  Co  Co18  1  0.826051  0.826051  0.520199  1
  Co  Co19  1  0.827014  0.827014  0.827014  1
  Re  Re20  1  0.625000  0.625000  0.625000  1
  Mo  Mo21  1  0.125000  0.625000  0.625000  1
  Mo  Mo22  1  0.625000  0.125000  0.625000  1
  Mo  Mo23  1  0.625000  0.625000  0.125000  1
  N  N24  1  0.625000  0.125000  0.125000  1
  N  N25  1  0.125000  0.625000  0.125000  1
  N  N26  1  0.125000  0.125000  0.625000  1
  N  N27  1  0.125000  0.125000  0.125000  1
