# generated using pymatgen
data_Ba2PaSe6
_symmetry_space_group_name_H-M   'P 1'
_cell_length_a   5.70115100
_cell_length_b   5.70115100
_cell_length_c   16.38905600
_cell_angle_alpha   90.00000000
_cell_angle_beta   90.00000000
_cell_angle_gamma   90.00000000
_symmetry_Int_Tables_number   1
_chemical_formula_structural   Ba2PaSe6
_chemical_formula_sum   'Ba4 Pa2 Se12'
_cell_volume   532.69549851
_cell_formula_units_Z   2
loop_
 _symmetry_equiv_pos_site_id
 _symmetry_equiv_pos_as_xyz
  1  'x, y, z'
loop_
 _atom_site_type_symbol
 _atom_site_label
 _atom_site_symmetry_multiplicity
 _atom_site_fract_x
 _atom_site_fract_y
 _atom_site_fract_z
 _atom_site_occupancy
  Ba  Ba0  1  0.000000  0.000000  0.140920  1
  Ba  Ba1  1  0.500000  0.500000  0.640920  1
  Ba  Ba2  1  0.500000  0.500000  0.359080  1
  Ba  Ba3  1  0.000000  0.000000  0.859080  1
  Pa  Pa4  1  0.000000  0.000000  0.500000  1
  Pa  Pa5  1  0.500000  0.500000  0.000000  1
  Se  Se6  1  0.268192  0.500000  0.161746  1
  Se  Se7  1  0.731808  0.500000  0.161746  1
  Se  Se8  1  0.000000  0.768192  0.661746  1
  Se  Se9  1  0.000000  0.231808  0.661746  1
  Se  Se10  1  0.231808  0.000000  0.338254  1
  Se  Se11  1  0.768192  0.000000  0.338254  1
  Se  Se12  1  0.500000  0.731808  0.838254  1
  Se  Se13  1  0.500000  0.268192  0.838254  1
  Se  Se14  1  0.000000  0.500000  0.971580  1
  Se  Se15  1  0.000000  0.500000  0.471580  1
  Se  Se16  1  0.500000  0.000000  0.528420  1
  Se  Se17  1  0.500000  0.000000  0.028420  1
