# generated using pymatgen
data_Ti3Ga3PtRh2
_symmetry_space_group_name_H-M   'P 1'
_cell_length_a   7.37425400
_cell_length_b   7.37425374
_cell_length_c   2.90833600
_cell_angle_alpha   90.00000000
_cell_angle_beta   90.00000000
_cell_angle_gamma   119.99999339
_symmetry_Int_Tables_number   1
_chemical_formula_structural   Ti3Ga3PtRh2
_chemical_formula_sum   'Ti3 Ga3 Pt1 Rh2'
_cell_volume   136.96557007
_cell_formula_units_Z   1
loop_
 _symmetry_equiv_pos_site_id
 _symmetry_equiv_pos_as_xyz
  1  'x, y, z'
loop_
 _atom_site_type_symbol
 _atom_site_label
 _atom_site_symmetry_multiplicity
 _atom_site_fract_x
 _atom_site_fract_y
 _atom_site_fract_z
 _atom_site_occupancy
  Ti  Ti0  1  0.993587  0.366227  0.500000  1
  Ti  Ti1  1  0.633773  0.627360  0.500000  1
  Ti  Ti2  1  0.372640  0.006413  0.500000  1
  Ga  Ga3  1  0.999514  0.705920  0.000000  1
  Ga  Ga4  1  0.294080  0.293594  0.000000  1
  Ga  Ga5  1  0.706406  0.000486  0.000000  1
  Pt  Pt6  1  0.333333  0.666667  0.000000  1
  Rh  Rh7  1  0.666667  0.333333  0.000000  1
  Rh  Rh8  1  0.000000  0.000000  0.500000  1
