# generated using pymatgen
data_Dy3Ho3ScVO12
_symmetry_space_group_name_H-M   'P 1'
_cell_length_a   6.55998214
_cell_length_b   6.55998264
_cell_length_c   6.55998230
_cell_angle_alpha   92.78702632
_cell_angle_beta   92.78703421
_cell_angle_gamma   92.78703814
_symmetry_Int_Tables_number   1
_chemical_formula_structural   Dy3Ho3ScVO12
_chemical_formula_sum   'Dy3 Ho3 Sc1 V1 O12'
_cell_volume   281.26264496
_cell_formula_units_Z   1
loop_
 _symmetry_equiv_pos_site_id
 _symmetry_equiv_pos_as_xyz
  1  'x, y, z'
loop_
 _atom_site_type_symbol
 _atom_site_label
 _atom_site_symmetry_multiplicity
 _atom_site_fract_x
 _atom_site_fract_y
 _atom_site_fract_z
 _atom_site_occupancy
  Dy  Dy0  1  0.743326  0.926999  0.435266  1
  Dy  Dy1  1  0.926999  0.435266  0.743326  1
  Dy  Dy2  1  0.435266  0.743326  0.926999  1
  Ho  Ho3  1  0.257096  0.073351  0.564611  1
  Ho  Ho4  1  0.073351  0.564611  0.257096  1
  Ho  Ho5  1  0.564611  0.257096  0.073351  1
  Sc  Sc6  1  0.000673  0.000673  0.000673  1
  V  V7  1  0.499637  0.499637  0.499637  1
  O  O8  1  0.588652  0.459532  0.801474  1
  O  O9  1  0.459532  0.801474  0.588652  1
  O  O10  1  0.801474  0.588652  0.459532  1
  O  O11  1  0.410100  0.538218  0.198212  1
  O  O12  1  0.538218  0.198212  0.410100  1
  O  O13  1  0.198212  0.410100  0.538218  1
  O  O14  1  0.069981  0.915156  0.308540  1
  O  O15  1  0.915156  0.308540  0.069981  1
  O  O16  1  0.692490  0.932635  0.084052  1
  O  O17  1  0.084052  0.692490  0.932635  1
  O  O18  1  0.932635  0.084052  0.692490  1
  O  O19  1  0.308540  0.069981  0.915156  1
