# generated using pymatgen
data_LiPr6Co16TcP12
_symmetry_space_group_name_H-M   'P 1'
_cell_length_a   3.79523500
_cell_length_b   10.73073400
_cell_length_c   12.48133900
_cell_angle_alpha   90.00000000
_cell_angle_beta   90.00000000
_cell_angle_gamma   90.00000000
_symmetry_Int_Tables_number   1
_chemical_formula_structural   LiPr6Co16TcP12
_chemical_formula_sum   'Li1 Pr6 Co16 Tc1 P12'
_cell_volume   508.31073417
_cell_formula_units_Z   1
loop_
 _symmetry_equiv_pos_site_id
 _symmetry_equiv_pos_as_xyz
  1  'x, y, z'
loop_
 _atom_site_type_symbol
 _atom_site_label
 _atom_site_symmetry_multiplicity
 _atom_site_fract_x
 _atom_site_fract_y
 _atom_site_fract_z
 _atom_site_occupancy
  Li  Li0  1  0.000000  0.000000  0.850628  1
  Pr  Pr1  1  0.000000  0.500000  0.523068  1
  Pr  Pr2  1  0.500000  0.000000  0.478129  1
  Pr  Pr3  1  0.500000  0.817855  0.206310  1
  Pr  Pr4  1  0.500000  0.182145  0.206310  1
  Pr  Pr5  1  0.000000  0.681893  0.793588  1
  Pr  Pr6  1  0.000000  0.318107  0.793588  1
  Co  Co7  1  0.500000  0.500000  0.705278  1
  Co  Co8  1  0.000000  0.000000  0.293688  1
  Co  Co9  1  0.000000  0.500000  0.990313  1
  Co  Co10  1  0.500000  0.000000  0.013081  1
  Co  Co11  1  0.500000  0.334580  0.995007  1
  Co  Co12  1  0.500000  0.665420  0.995007  1
  Co  Co13  1  0.000000  0.169189  0.004576  1
  Co  Co14  1  0.000000  0.830811  0.004576  1
  Co  Co15  1  0.500000  0.298001  0.428609  1
  Co  Co16  1  0.500000  0.701999  0.428609  1
  Co  Co17  1  0.000000  0.204654  0.567749  1
  Co  Co18  1  0.000000  0.795346  0.567749  1
  Co  Co19  1  0.500000  0.879937  0.706116  1
  Co  Co20  1  0.500000  0.120063  0.706116  1
  Co  Co21  1  0.000000  0.617572  0.290394  1
  Co  Co22  1  0.000000  0.382428  0.290394  1
  Tc  Tc23  1  0.500000  0.500000  0.156278  1
  P  P24  1  0.500000  0.500000  0.886820  1
  P  P25  1  0.000000  0.000000  0.110994  1
  P  P26  1  0.500000  0.500000  0.343991  1
  P  P27  1  0.000000  0.000000  0.659570  1
  P  P28  1  0.500000  0.305044  0.612679  1
  P  P29  1  0.500000  0.694956  0.612679  1
  P  P30  1  0.000000  0.194958  0.385625  1
  P  P31  1  0.000000  0.805042  0.385625  1
  P  P32  1  0.500000  0.845228  0.898071  1
  P  P33  1  0.500000  0.154772  0.898071  1
  P  P34  1  0.000000  0.652490  0.105357  1
  P  P35  1  0.000000  0.347510  0.105357  1
