# generated using pymatgen
data_Ca3Nd(Bi2O7)2
_symmetry_space_group_name_H-M   'P 1'
_cell_length_a   7.85478097
_cell_length_b   7.82835619
_cell_length_c   7.82835600
_cell_angle_alpha   60.00000082
_cell_angle_beta   60.11122421
_cell_angle_gamma   60.11122477
_symmetry_Int_Tables_number   1
_chemical_formula_structural   Ca3Nd(Bi2O7)2
_chemical_formula_sum   'Ca3 Nd1 Bi4 O14'
_cell_volume   340.94812361
_cell_formula_units_Z   1
loop_
 _symmetry_equiv_pos_site_id
 _symmetry_equiv_pos_as_xyz
  1  'x, y, z'
loop_
 _atom_site_type_symbol
 _atom_site_label
 _atom_site_symmetry_multiplicity
 _atom_site_fract_x
 _atom_site_fract_y
 _atom_site_fract_z
 _atom_site_occupancy
  Ca  Ca0  1  0.000000  0.000000  0.000000  1
  Ca  Ca1  1  0.000000  0.000000  0.500001  1
  Ca  Ca2  1  0.000000  0.499999  0.500001  1
  Nd  Nd3  1  0.499999  0.000000  0.500001  1
  Bi  Bi4  1  0.500000  0.000000  0.000000  1
  Bi  Bi5  1  0.500001  0.499999  0.000000  1
  Bi  Bi6  1  0.000000  0.500000  0.000000  1
  Bi  Bi7  1  0.500000  0.499999  0.500001  1
  O  O8  1  0.579996  0.166174  0.087652  1
  O  O9  1  0.169385  0.167101  0.081757  1
  O  O10  1  0.169384  0.581758  0.081757  1
  O  O11  1  0.420005  0.412350  0.333824  1
  O  O12  1  0.830615  0.418243  0.332899  1
  O  O13  1  0.420004  0.833824  0.333825  1
  O  O14  1  0.866275  0.877909  0.377908  1
  O  O15  1  0.133725  0.122092  0.622092  1
  O  O16  1  0.579995  0.166176  0.666176  1
  O  O17  1  0.579995  0.587650  0.666176  1
  O  O18  1  0.169385  0.581755  0.667104  1
  O  O19  1  0.830616  0.418243  0.918243  1
  O  O20  1  0.420006  0.833824  0.912348  1
  O  O21  1  0.830615  0.832899  0.918243  1
