# generated using pymatgen
data_Sc4Co17(CuP4)3
_symmetry_space_group_name_H-M   'P 1'
_cell_length_a   3.61238200
_cell_length_b   10.12317246
_cell_length_c   11.74844198
_cell_angle_alpha   89.74900347
_cell_angle_beta   90.00000000
_cell_angle_gamma   90.00000000
_symmetry_Int_Tables_number   1
_chemical_formula_structural   Sc4Co17(CuP4)3
_chemical_formula_sum   'Sc4 Co17 Cu3 P12'
_cell_volume   429.62190292
_cell_formula_units_Z   1
loop_
 _symmetry_equiv_pos_site_id
 _symmetry_equiv_pos_as_xyz
  1  'x, y, z'
loop_
 _atom_site_type_symbol
 _atom_site_label
 _atom_site_symmetry_multiplicity
 _atom_site_fract_x
 _atom_site_fract_y
 _atom_site_fract_z
 _atom_site_occupancy
  Sc  Sc0  1  0.250000  0.577356  0.701738  1
  Sc  Sc1  1  0.250000  0.922733  0.204039  1
  Sc  Sc2  1  0.750000  0.421704  0.299998  1
  Sc  Sc3  1  0.750000  0.078520  0.794174  1
  Co  Co4  1  0.750000  0.215302  0.506429  1
  Co  Co5  1  0.250000  0.407094  0.483868  1
  Co  Co6  1  0.250000  0.094172  0.982784  1
  Co  Co7  1  0.750000  0.592642  0.518712  1
  Co  Co8  1  0.750000  0.906965  0.018327  1
  Co  Co9  1  0.250000  0.225439  0.177459  1
  Co  Co10  1  0.250000  0.276614  0.671717  1
  Co  Co11  1  0.750000  0.775975  0.826522  1
  Co  Co12  1  0.750000  0.722861  0.326007  1
  Co  Co13  1  0.250000  0.881219  0.701289  1
  Co  Co14  1  0.250000  0.621322  0.200052  1
  Co  Co15  1  0.750000  0.119957  0.299461  1
  Co  Co16  1  0.750000  0.377563  0.797787  1
  Co  Co17  1  0.250000  0.461555  0.932019  1
  Co  Co18  1  0.250000  0.035552  0.430996  1
  Co  Co19  1  0.750000  0.537185  0.066821  1
  Co  Co20  1  0.750000  0.963111  0.567347  1
  Cu  Cu21  1  0.250000  0.712371  0.990446  1
  Cu  Cu22  1  0.250000  0.786392  0.492523  1
  Cu  Cu23  1  0.750000  0.287736  0.009690  1
  P  P24  1  0.250000  0.425793  0.119448  1
  P  P25  1  0.250000  0.077959  0.613441  1
  P  P26  1  0.750000  0.573467  0.880313  1
  P  P27  1  0.750000  0.923840  0.381869  1
  P  P28  1  0.250000  0.262198  0.858894  1
  P  P29  1  0.250000  0.235962  0.366871  1
  P  P30  1  0.750000  0.736926  0.140333  1
  P  P31  1  0.750000  0.763697  0.640242  1
  P  P32  1  0.250000  0.597489  0.389376  1
  P  P33  1  0.250000  0.904478  0.889561  1
  P  P34  1  0.750000  0.399526  0.607871  1
  P  P35  1  0.750000  0.097324  0.111577  1
