# generated using pymatgen
data_Tb3Gd(B4W)4
_symmetry_space_group_name_H-M   'P 1'
_cell_length_a   3.64109200
_cell_length_b   6.05311209
_cell_length_c   11.70404198
_cell_angle_alpha   90.01340566
_cell_angle_beta   90.00000000
_cell_angle_gamma   90.00000000
_symmetry_Int_Tables_number   1
_chemical_formula_structural   Tb3Gd(B4W)4
_chemical_formula_sum   'Tb3 Gd1 B16 W4'
_cell_volume   257.95635270
_cell_formula_units_Z   1
loop_
 _symmetry_equiv_pos_site_id
 _symmetry_equiv_pos_as_xyz
  1  'x, y, z'
loop_
 _atom_site_type_symbol
 _atom_site_label
 _atom_site_symmetry_multiplicity
 _atom_site_fract_x
 _atom_site_fract_y
 _atom_site_fract_z
 _atom_site_occupancy
  Tb  Tb0  1  0.500000  0.373521  0.149660  1
  Tb  Tb1  1  0.500000  0.626448  0.850227  1
  Tb  Tb2  1  0.500000  0.126605  0.649857  1
  Gd  Gd3  1  0.500000  0.873585  0.350090  1
  B  B4  1  0.000000  0.113677  0.047095  1
  B  B5  1  0.000000  0.886274  0.952769  1
  B  B6  1  0.000000  0.386296  0.547267  1
  B  B7  1  0.000000  0.613582  0.452918  1
  B  B8  1  0.000000  0.134169  0.467974  1
  B  B9  1  0.000000  0.865935  0.532161  1
  B  B10  1  0.000000  0.366026  0.967956  1
  B  B11  1  0.000000  0.633906  0.032091  1
  B  B12  1  0.000000  0.024078  0.192743  1
  B  B13  1  0.000000  0.975940  0.807062  1
  B  B14  1  0.000000  0.475894  0.693023  1
  B  B15  1  0.000000  0.524055  0.307081  1
  B  B16  1  0.000000  0.214119  0.313651  1
  B  B17  1  0.000000  0.786086  0.686421  1
  B  B18  1  0.000000  0.286067  0.813659  1
  B  B19  1  0.000000  0.713952  0.186211  1
  W  W20  1  0.500000  0.369475  0.415616  1
  W  W21  1  0.500000  0.630356  0.584626  1
  W  W22  1  0.500000  0.130377  0.915540  1
  W  W23  1  0.500000  0.869577  0.084305  1
