# generated using pymatgen
data_Th2Fe11CoP7
_symmetry_space_group_name_H-M   'P 1'
_cell_length_a   9.07470291
_cell_length_b   9.06266495
_cell_length_c   3.69334800
_cell_angle_alpha   90.00000000
_cell_angle_beta   90.00000000
_cell_angle_gamma   119.97992291
_symmetry_Int_Tables_number   1
_chemical_formula_structural   Th2Fe11CoP7
_chemical_formula_sum   'Th2 Fe11 Co1 P7'
_cell_volume   263.10374438
_cell_formula_units_Z   1
loop_
 _symmetry_equiv_pos_site_id
 _symmetry_equiv_pos_as_xyz
  1  'x, y, z'
loop_
 _atom_site_type_symbol
 _atom_site_label
 _atom_site_symmetry_multiplicity
 _atom_site_fract_x
 _atom_site_fract_y
 _atom_site_fract_z
 _atom_site_occupancy
  Th  Th0  1  0.999454  0.000195  0.000000  1
  Th  Th1  1  0.333707  0.666770  0.500000  1
  Fe  Fe2  1  0.299441  0.904300  0.000000  1
  Fe  Fe3  1  0.604290  0.699652  0.000000  1
  Fe  Fe4  1  0.815654  0.604141  0.000000  1
  Fe  Fe5  1  0.787974  0.183522  0.000000  1
  Fe  Fe6  1  0.394665  0.210735  0.000000  1
  Fe  Fe7  1  0.048234  0.767550  0.500000  1
  Fe  Fe8  1  0.717824  0.950658  0.500000  1
  Fe  Fe9  1  0.232422  0.282245  0.500000  1
  Fe  Fe10  1  0.888832  0.435634  0.500000  1
  Fe  Fe11  1  0.549751  0.117281  0.500000  1
  Fe  Fe12  1  0.566296  0.449354  0.500000  1
  Co  Co13  1  0.096741  0.396275  0.000000  1
  P  P14  1  0.069138  0.636253  0.000000  1
  P  P15  1  0.564821  0.930261  0.000000  1
  P  P16  1  0.367894  0.435347  0.000000  1
  P  P17  1  0.769247  0.726498  0.500000  1
  P  P18  1  0.954352  0.227848  0.500000  1
  P  P19  1  0.272763  0.042625  0.500000  1
  P  P20  1  0.666497  0.332854  0.000000  1
