# generated using pymatgen
data_PaTi2O6
_symmetry_space_group_name_H-M   'P 1'
_cell_length_a   3.77462079
_cell_length_b   5.38562030
_cell_length_c   6.43153117
_cell_angle_alpha   96.74945809
_cell_angle_beta   107.06439479
_cell_angle_gamma   110.51392116
_symmetry_Int_Tables_number   1
_chemical_formula_structural   PaTi2O6
_chemical_formula_sum   'Pa1 Ti2 O6'
_cell_volume   113.46182853
_cell_formula_units_Z   1
loop_
 _symmetry_equiv_pos_site_id
 _symmetry_equiv_pos_as_xyz
  1  'x, y, z'
loop_
 _atom_site_type_symbol
 _atom_site_label
 _atom_site_symmetry_multiplicity
 _atom_site_fract_x
 _atom_site_fract_y
 _atom_site_fract_z
 _atom_site_occupancy
  Pa  Pa0  1  0.000000  0.000000  0.000000  1
  Ti  Ti1  1  0.569570  0.744689  0.394449  1
  Ti  Ti2  1  0.430431  0.255312  0.605551  1
  O  O3  1  0.445687  0.801493  0.089880  1
  O  O4  1  0.326036  0.352670  0.299403  1
  O  O5  1  0.121384  0.851567  0.391204  1
  O  O6  1  0.878615  0.148431  0.608795  1
  O  O7  1  0.673964  0.647331  0.700597  1
  O  O8  1  0.554315  0.198510  0.910120  1
