# generated using pymatgen
data_Cr12Si3As
_symmetry_space_group_name_H-M   'P 1'
_cell_length_a   4.53373900
_cell_length_b   4.52834100
_cell_length_c   9.05920300
_cell_angle_alpha   90.00000000
_cell_angle_beta   90.00000000
_cell_angle_gamma   90.00000000
_symmetry_Int_Tables_number   1
_chemical_formula_structural   Cr12Si3As
_chemical_formula_sum   'Cr12 Si3 As1'
_cell_volume   185.98830208
_cell_formula_units_Z   1
loop_
 _symmetry_equiv_pos_site_id
 _symmetry_equiv_pos_as_xyz
  1  'x, y, z'
loop_
 _atom_site_type_symbol
 _atom_site_label
 _atom_site_symmetry_multiplicity
 _atom_site_fract_x
 _atom_site_fract_y
 _atom_site_fract_z
 _atom_site_occupancy
  Cr  Cr0  1  0.000000  0.500000  0.127844  1
  Cr  Cr1  1  0.000000  0.500000  0.625285  1
  Cr  Cr2  1  0.500000  0.247247  0.747209  1
  Cr  Cr3  1  0.500000  0.247247  0.252791  1
  Cr  Cr4  1  0.753220  0.000000  0.000000  1
  Cr  Cr5  1  0.750631  0.000000  0.500000  1
  Cr  Cr6  1  0.000000  0.500000  0.872156  1
  Cr  Cr7  1  0.000000  0.500000  0.374715  1
  Cr  Cr8  1  0.500000  0.752753  0.747209  1
  Cr  Cr9  1  0.500000  0.752753  0.252791  1
  Cr  Cr10  1  0.246780  0.000000  0.000000  1
  Cr  Cr11  1  0.249369  0.000000  0.500000  1
  Si  Si12  1  0.500000  0.500000  0.500000  1
  Si  Si13  1  0.000000  0.000000  0.749313  1
  Si  Si14  1  0.000000  0.000000  0.250687  1
  As  As15  1  0.500000  0.500000  0.000000  1
