# generated using pymatgen
data_Nd12Ge11AsPt12
_symmetry_space_group_name_H-M   'P 1'
_cell_length_a   4.49016500
_cell_length_b   7.63712903
_cell_length_c   22.12143900
_cell_angle_alpha   89.99534859
_cell_angle_beta   90.00000000
_cell_angle_gamma   90.00000000
_symmetry_Int_Tables_number   1
_chemical_formula_structural   Nd12Ge11AsPt12
_chemical_formula_sum   'Nd12 Ge11 As1 Pt12'
_cell_volume   758.58770786
_cell_formula_units_Z   1
loop_
 _symmetry_equiv_pos_site_id
 _symmetry_equiv_pos_as_xyz
  1  'x, y, z'
loop_
 _atom_site_type_symbol
 _atom_site_label
 _atom_site_symmetry_multiplicity
 _atom_site_fract_x
 _atom_site_fract_y
 _atom_site_fract_z
 _atom_site_occupancy
  Nd  Nd0  1  0.250000  0.707942  0.333318  1
  Nd  Nd1  1  0.750000  0.291862  0.666205  1
  Nd  Nd2  1  0.750000  0.208022  0.167204  1
  Nd  Nd3  1  0.250000  0.787763  0.832127  1
  Nd  Nd4  1  0.250000  0.791009  0.166682  1
  Nd  Nd5  1  0.750000  0.213905  0.833118  1
  Nd  Nd6  1  0.750000  0.290843  0.333625  1
  Nd  Nd7  1  0.250000  0.713402  0.665844  1
  Nd  Nd8  1  0.250000  0.709246  0.002026  1
  Nd  Nd9  1  0.750000  0.288551  0.999938  1
  Nd  Nd10  1  0.750000  0.211756  0.498191  1
  Nd  Nd11  1  0.250000  0.791250  0.502066  1
  Ge  Ge12  1  0.250000  0.087411  0.068021  1
  Ge  Ge13  1  0.750000  0.912055  0.931086  1
  Ge  Ge14  1  0.750000  0.588923  0.433437  1
  Ge  Ge15  1  0.250000  0.412992  0.571272  1
  Ge  Ge16  1  0.250000  0.086751  0.268916  1
  Ge  Ge17  1  0.750000  0.914255  0.732302  1
  Ge  Ge18  1  0.750000  0.587060  0.231229  1
  Ge  Ge19  1  0.250000  0.413274  0.760014  1
  Ge  Ge20  1  0.250000  0.086333  0.396167  1
  Ge  Ge21  1  0.750000  0.913065  0.603463  1
  Ge  Ge22  1  0.750000  0.586593  0.103362  1
  As  As23  1  0.250000  0.408138  0.900557  1
  Pt  Pt24  1  0.250000  0.420696  0.237554  1
  Pt  Pt25  1  0.750000  0.579527  0.763417  1
  Pt  Pt26  1  0.750000  0.919804  0.262867  1
  Pt  Pt27  1  0.250000  0.080889  0.738030  1
  Pt  Pt28  1  0.250000  0.417886  0.432344  1
  Pt  Pt29  1  0.750000  0.582214  0.563050  1
  Pt  Pt30  1  0.750000  0.917577  0.066657  1
  Pt  Pt31  1  0.250000  0.075624  0.935966  1
  Pt  Pt32  1  0.250000  0.419524  0.094815  1
  Pt  Pt33  1  0.750000  0.583336  0.905695  1
  Pt  Pt34  1  0.750000  0.919930  0.405599  1
  Pt  Pt35  1  0.250000  0.080594  0.593834  1
