# generated using pymatgen
data_DyTmLu2(Co5P3)4
_symmetry_space_group_name_H-M   'P 1'
_cell_length_a   3.63293600
_cell_length_b   10.24538185
_cell_length_c   11.69829433
_cell_angle_alpha   89.99023628
_cell_angle_beta   90.00000000
_cell_angle_gamma   90.00000000
_symmetry_Int_Tables_number   1
_chemical_formula_structural   DyTmLu2(Co5P3)4
_chemical_formula_sum   'Dy1 Tm1 Lu2 Co20 P12'
_cell_volume   435.42006083
_cell_formula_units_Z   1
loop_
 _symmetry_equiv_pos_site_id
 _symmetry_equiv_pos_as_xyz
  1  'x, y, z'
loop_
 _atom_site_type_symbol
 _atom_site_label
 _atom_site_symmetry_multiplicity
 _atom_site_fract_x
 _atom_site_fract_y
 _atom_site_fract_z
 _atom_site_occupancy
  Dy  Dy0  1  0.750000  0.082797  0.796955  1
  Tm  Tm1  1  0.750000  0.417449  0.297342  1
  Lu  Lu2  1  0.250000  0.582599  0.702573  1
  Lu  Lu3  1  0.250000  0.917255  0.202433  1
  Co  Co4  1  0.250000  0.717171  0.992901  1
  Co  Co5  1  0.250000  0.782421  0.492018  1
  Co  Co6  1  0.750000  0.282859  0.008301  1
  Co  Co7  1  0.750000  0.217382  0.508058  1
  Co  Co8  1  0.250000  0.407449  0.487510  1
  Co  Co9  1  0.250000  0.092335  0.988951  1
  Co  Co10  1  0.750000  0.592724  0.513311  1
  Co  Co11  1  0.750000  0.906713  0.013700  1
  Co  Co12  1  0.250000  0.221663  0.177043  1
  Co  Co13  1  0.250000  0.279359  0.676532  1
  Co  Co14  1  0.750000  0.778121  0.823285  1
  Co  Co15  1  0.750000  0.721479  0.323225  1
  Co  Co16  1  0.250000  0.881624  0.698358  1
  Co  Co17  1  0.250000  0.617254  0.199280  1
  Co  Co18  1  0.750000  0.116706  0.300367  1
  Co  Co19  1  0.750000  0.384257  0.800753  1
  Co  Co20  1  0.250000  0.468837  0.931278  1
  Co  Co21  1  0.250000  0.031804  0.430041  1
  Co  Co22  1  0.750000  0.532854  0.068706  1
  Co  Co23  1  0.750000  0.966626  0.567330  1
  P  P24  1  0.250000  0.418755  0.112646  1
  P  P25  1  0.250000  0.081460  0.610986  1
  P  P26  1  0.750000  0.581778  0.886971  1
  P  P27  1  0.750000  0.918363  0.386124  1
  P  P28  1  0.250000  0.270775  0.871053  1
  P  P29  1  0.250000  0.230650  0.370284  1
  P  P30  1  0.750000  0.730918  0.130431  1
  P  P31  1  0.750000  0.768782  0.630110  1
  P  P32  1  0.250000  0.600922  0.391031  1
  P  P33  1  0.250000  0.897893  0.891361  1
  P  P34  1  0.750000  0.399481  0.609392  1
  P  P35  1  0.750000  0.100488  0.109364  1
