# generated using pymatgen
data_Th10Bi3Pb5
_symmetry_space_group_name_H-M   'P 1'
_cell_length_a   9.81796495
_cell_length_b   9.81264725
_cell_length_c   6.67235026
_cell_angle_alpha   89.92952102
_cell_angle_beta   90.03521565
_cell_angle_gamma   119.98208502
_symmetry_Int_Tables_number   1
_chemical_formula_structural   Th10Bi3Pb5
_chemical_formula_sum   'Th10 Bi3 Pb5'
_cell_volume   556.79480537
_cell_formula_units_Z   1
loop_
 _symmetry_equiv_pos_site_id
 _symmetry_equiv_pos_as_xyz
  1  'x, y, z'
loop_
 _atom_site_type_symbol
 _atom_site_label
 _atom_site_symmetry_multiplicity
 _atom_site_fract_x
 _atom_site_fract_y
 _atom_site_fract_z
 _atom_site_occupancy
  Th  Th0  1  0.667080  0.333729  0.500520  1
  Th  Th1  1  0.332920  0.666650  0.500520  1
  Th  Th2  1  0.332977  0.666573  0.999541  1
  Th  Th3  1  0.667023  0.333595  0.999541  1
  Th  Th4  1  0.715038  0.714844  0.249364  1
  Th  Th5  1  0.284962  0.999806  0.249364  1
  Th  Th6  1  0.000000  0.284776  0.249047  1
  Th  Th7  1  0.285053  0.284703  0.750733  1
  Th  Th8  1  0.714947  0.999650  0.750733  1
  Th  Th9  1  0.000000  0.714894  0.750754  1
  Bi  Bi10  1  0.000000  0.000118  0.499748  1
  Bi  Bi11  1  0.378514  0.378639  0.249894  1
  Bi  Bi12  1  0.621486  0.000125  0.249894  1
  Pb  Pb13  1  0.000000  0.000171  0.000069  1
  Pb  Pb14  1  0.000000  0.621813  0.249956  1
  Pb  Pb15  1  0.622361  0.621883  0.750101  1
  Pb  Pb16  1  0.377639  0.999522  0.750101  1
  Pb  Pb17  1  0.000000  0.378512  0.750119  1
