# generated using pymatgen
data_Th3TcSn3Rh2
_symmetry_space_group_name_H-M   'P 1'
_cell_length_a   7.56717900
_cell_length_b   7.56717990
_cell_length_c   4.15574000
_cell_angle_alpha   90.00000000
_cell_angle_beta   90.00000000
_cell_angle_gamma   120.00000044
_symmetry_Int_Tables_number   1
_chemical_formula_structural   Th3TcSn3Rh2
_chemical_formula_sum   'Th3 Tc1 Sn3 Rh2'
_cell_volume   206.08532356
_cell_formula_units_Z   1
loop_
 _symmetry_equiv_pos_site_id
 _symmetry_equiv_pos_as_xyz
  1  'x, y, z'
loop_
 _atom_site_type_symbol
 _atom_site_label
 _atom_site_symmetry_multiplicity
 _atom_site_fract_x
 _atom_site_fract_y
 _atom_site_fract_z
 _atom_site_occupancy
  Th  Th0  1  0.415731  0.410886  0.500000  1
  Th  Th1  1  0.589114  0.004845  0.500000  1
  Th  Th2  1  0.995155  0.584269  0.500000  1
  Tc  Tc3  1  0.666667  0.333333  0.000000  1
  Sn  Sn4  1  0.750172  0.748162  0.000000  1
  Sn  Sn5  1  0.251838  0.002010  0.000000  1
  Sn  Sn6  1  0.997990  0.249828  0.000000  1
  Rh  Rh7  1  0.333333  0.666667  0.000000  1
  Rh  Rh8  1  0.000000  0.000000  0.500000  1
