# generated using pymatgen
data_TmSc3Al18RePd5
_symmetry_space_group_name_H-M   'P 1'
_cell_length_a   7.55984652
_cell_length_b   7.55609352
_cell_length_c   9.35766807
_cell_angle_alpha   89.73280155
_cell_angle_beta   89.73161016
_cell_angle_gamma   119.32722287
_symmetry_Int_Tables_number   1
_chemical_formula_structural   TmSc3Al18RePd5
_chemical_formula_sum   'Tm1 Sc3 Al18 Re1 Pd5'
_cell_volume   466.00917475
_cell_formula_units_Z   1
loop_
 _symmetry_equiv_pos_site_id
 _symmetry_equiv_pos_as_xyz
  1  'x, y, z'
loop_
 _atom_site_type_symbol
 _atom_site_label
 _atom_site_symmetry_multiplicity
 _atom_site_fract_x
 _atom_site_fract_y
 _atom_site_fract_z
 _atom_site_occupancy
  Tm  Tm0  1  0.324635  0.004423  0.752583  1
  Sc  Sc1  1  0.994943  0.675742  0.247383  1
  Sc  Sc2  1  0.003910  0.323352  0.752983  1
  Sc  Sc3  1  0.677108  0.996282  0.246911  1
  Al  Al4  1  0.128379  0.129684  0.248868  1
  Al  Al5  1  0.868011  0.869021  0.752055  1
  Al  Al6  1  0.996103  0.331369  0.078141  1
  Al  Al7  1  0.999853  0.665271  0.925935  1
  Al  Al8  1  0.999045  0.659127  0.578152  1
  Al  Al9  1  0.338228  0.997617  0.414855  1
  Al  Al10  1  0.997179  0.337754  0.417862  1
  Al  Al11  1  0.665738  0.001832  0.577916  1
  Al  Al12  1  0.671077  0.003100  0.925219  1
  Al  Al13  1  0.331663  0.996253  0.082027  1
  Al  Al14  1  0.330771  0.333565  0.557518  1
  Al  Al15  1  0.670392  0.670513  0.436309  1
  Al  Al16  1  0.671925  0.672063  0.061000  1
  Al  Al17  1  0.327942  0.330455  0.945001  1
  Al  Al18  1  0.342261  0.554727  0.249301  1
  Al  Al19  1  0.659197  0.449837  0.750478  1
  Al  Al20  1  0.555085  0.343262  0.249159  1
  Al  Al21  1  0.446560  0.655967  0.750539  1
  Re  Re22  1  0.000339  0.999640  0.000418  1
  Pd  Pd23  1  0.671457  0.326528  0.999508  1
  Pd  Pd24  1  0.327644  0.672780  0.999920  1
  Pd  Pd25  1  0.327986  0.673172  0.499876  1
  Pd  Pd26  1  0.671347  0.326823  0.500032  1
  Pd  Pd27  1  0.001220  0.999843  0.500047  1
