# generated using pymatgen
data_Ba4CePdO8
_symmetry_space_group_name_H-M   'P 1'
_cell_length_a   7.44054169
_cell_length_b   7.44054152
_cell_length_c   5.99031900
_cell_angle_alpha   90.00000000
_cell_angle_beta   90.00000000
_cell_angle_gamma   132.29977383
_symmetry_Int_Tables_number   1
_chemical_formula_structural   Ba4CePdO8
_chemical_formula_sum   'Ba4 Ce1 Pd1 O8'
_cell_volume   245.28769943
_cell_formula_units_Z   1
loop_
 _symmetry_equiv_pos_site_id
 _symmetry_equiv_pos_as_xyz
  1  'x, y, z'
loop_
 _atom_site_type_symbol
 _atom_site_label
 _atom_site_symmetry_multiplicity
 _atom_site_fract_x
 _atom_site_fract_y
 _atom_site_fract_z
 _atom_site_occupancy
  Ba  Ba0  1  0.356588  0.643412  0.000000  1
  Ba  Ba1  1  0.851988  0.148012  0.500000  1
  Ba  Ba2  1  0.148012  0.851988  0.500000  1
  Ba  Ba3  1  0.643412  0.356588  0.000000  1
  Ce  Ce4  1  0.000000  0.000000  0.000000  1
  Pd  Pd5  1  0.500000  0.500000  0.500000  1
  O  O6  1  0.259638  0.259638  0.738120  1
  O  O7  1  0.740362  0.740362  0.261880  1
  O  O8  1  0.740362  0.740362  0.738120  1
  O  O9  1  0.259638  0.259638  0.261880  1
  O  O10  1  0.163731  0.836269  0.000000  1
  O  O11  1  0.655809  0.344191  0.500000  1
  O  O12  1  0.344191  0.655809  0.500000  1
  O  O13  1  0.836269  0.163731  0.000000  1
