# generated using pymatgen
data_SrCa2Ga2GeRh6
_symmetry_space_group_name_H-M   'P 1'
_cell_length_a   5.65104600
_cell_length_b   5.65104616
_cell_length_c   15.64698300
_cell_angle_alpha   90.00000000
_cell_angle_beta   90.00000000
_cell_angle_gamma   120.00001078
_symmetry_Int_Tables_number   1
_chemical_formula_structural   SrCa2Ga2GeRh6
_chemical_formula_sum   'Sr2 Ca4 Ga4 Ge2 Rh12'
_cell_volume   432.73188096
_cell_formula_units_Z   2
loop_
 _symmetry_equiv_pos_site_id
 _symmetry_equiv_pos_as_xyz
  1  'x, y, z'
loop_
 _atom_site_type_symbol
 _atom_site_label
 _atom_site_symmetry_multiplicity
 _atom_site_fract_x
 _atom_site_fract_y
 _atom_site_fract_z
 _atom_site_occupancy
  Sr  Sr0  1  0.333333  0.666667  0.750000  1
  Sr  Sr1  1  0.666667  0.333333  0.250000  1
  Ca  Ca2  1  0.333333  0.666667  0.539651  1
  Ca  Ca3  1  0.666667  0.333333  0.460349  1
  Ca  Ca4  1  0.666667  0.333333  0.039651  1
  Ca  Ca5  1  0.333333  0.666667  0.960349  1
  Ga  Ga6  1  0.000000  0.000000  0.250000  1
  Ga  Ga7  1  0.000000  0.000000  0.750000  1
  Ga  Ga8  1  0.000000  0.000000  0.000000  1
  Ga  Ga9  1  0.000000  0.000000  0.500000  1
  Ge  Ge10  1  0.333333  0.666667  0.250000  1
  Ge  Ge11  1  0.666667  0.333333  0.750000  1
  Rh  Rh12  1  0.167821  0.335641  0.127719  1
  Rh  Rh13  1  0.832179  0.664359  0.872281  1
  Rh  Rh14  1  0.664359  0.832179  0.127719  1
  Rh  Rh15  1  0.832179  0.664359  0.627719  1
  Rh  Rh16  1  0.335641  0.167821  0.872281  1
  Rh  Rh17  1  0.167821  0.335641  0.372281  1
  Rh  Rh18  1  0.167821  0.832179  0.127719  1
  Rh  Rh19  1  0.335641  0.167821  0.627719  1
  Rh  Rh20  1  0.832179  0.167821  0.872281  1
  Rh  Rh21  1  0.664359  0.832179  0.372281  1
  Rh  Rh22  1  0.832179  0.167821  0.627719  1
  Rh  Rh23  1  0.167821  0.832179  0.372281  1
