# generated using pymatgen
data_Dy7Ho3Tl7InNi4
_symmetry_space_group_name_H-M   'P 1'
_cell_length_a   3.55522900
_cell_length_b   8.05041248
_cell_length_c   17.94932253
_cell_angle_alpha   89.99601026
_cell_angle_beta   90.00000000
_cell_angle_gamma   90.00000000
_symmetry_Int_Tables_number   1
_chemical_formula_structural   Dy7Ho3Tl7InNi4
_chemical_formula_sum   'Dy7 Ho3 Tl7 In1 Ni4'
_cell_volume   513.72863401
_cell_formula_units_Z   1
loop_
 _symmetry_equiv_pos_site_id
 _symmetry_equiv_pos_as_xyz
  1  'x, y, z'
loop_
 _atom_site_type_symbol
 _atom_site_label
 _atom_site_symmetry_multiplicity
 _atom_site_fract_x
 _atom_site_fract_y
 _atom_site_fract_z
 _atom_site_occupancy
  Dy  Dy0  1  0.500000  0.756860  0.718986  1
  Dy  Dy1  1  0.500000  0.256875  0.781452  1
  Dy  Dy2  1  0.500000  0.499099  0.000888  1
  Dy  Dy3  1  0.500000  0.742428  0.218579  1
  Dy  Dy4  1  0.500000  0.243325  0.280439  1
  Dy  Dy5  1  0.500000  0.999948  0.500029  1
  Dy  Dy6  1  0.500000  0.616488  0.409301  1
  Ho  Ho7  1  0.500000  0.383869  0.590323  1
  Ho  Ho8  1  0.500000  0.883448  0.910212  1
  Ho  Ho9  1  0.500000  0.116957  0.090116  1
  Tl  Tl10  1  0.000000  0.796153  0.066444  1
  Tl  Tl11  1  0.000000  0.922045  0.346967  1
  Tl  Tl12  1  0.000000  0.079614  0.652723  1
  Tl  Tl13  1  0.000000  0.579593  0.847912  1
  Tl  Tl14  1  0.000000  0.702275  0.565770  1
  Tl  Tl15  1  0.000000  0.202037  0.934544  1
  Tl  Tl16  1  0.000000  0.297547  0.434373  1
  In  In17  1  0.000000  0.420374  0.152841  1
  Ni  Ni18  1  0.000000  0.973891  0.803511  1
  Ni  Ni19  1  0.000000  0.524162  0.301132  1
  Ni  Ni20  1  0.000000  0.474440  0.696931  1
  Ni  Ni21  1  0.000000  0.028574  0.196527  1
