# generated using pymatgen
data_Tb4Tc2B16MoW
_symmetry_space_group_name_H-M   'P 1'
_cell_length_a   6.01214503
_cell_length_b   11.63548875
_cell_length_c   3.61932300
_cell_angle_alpha   90.00000000
_cell_angle_beta   90.00000000
_cell_angle_gamma   89.91271630
_symmetry_Int_Tables_number   1
_chemical_formula_structural   Tb4Tc2B16MoW
_chemical_formula_sum   'Tb4 Tc2 B16 Mo1 W1'
_cell_volume   253.18671735
_cell_formula_units_Z   1
loop_
 _symmetry_equiv_pos_site_id
 _symmetry_equiv_pos_as_xyz
  1  'x, y, z'
loop_
 _atom_site_type_symbol
 _atom_site_label
 _atom_site_symmetry_multiplicity
 _atom_site_fract_x
 _atom_site_fract_y
 _atom_site_fract_z
 _atom_site_occupancy
  Tb  Tb0  1  0.626770  0.348295  0.000000  1
  Tb  Tb1  1  0.372893  0.651640  0.000000  1
  Tb  Tb2  1  0.127528  0.148727  0.000000  1
  Tb  Tb3  1  0.872615  0.851449  0.000000  1
  Tc  Tc4  1  0.633864  0.086472  0.000000  1
  Tc  Tc5  1  0.366188  0.913414  0.000000  1
  B  B6  1  0.784357  0.183997  0.500000  1
  B  B7  1  0.215747  0.816160  0.500000  1
  B  B8  1  0.288254  0.313044  0.500000  1
  B  B9  1  0.711313  0.687302  0.500000  1
  B  B10  1  0.863120  0.031066  0.500000  1
  B  B11  1  0.137051  0.968926  0.500000  1
  B  B12  1  0.366571  0.467355  0.500000  1
  B  B13  1  0.632978  0.532378  0.500000  1
  B  B14  1  0.885668  0.452570  0.500000  1
  B  B15  1  0.114828  0.547101  0.500000  1
  B  B16  1  0.387243  0.046714  0.500000  1
  B  B17  1  0.612550  0.953158  0.500000  1
  B  B18  1  0.975590  0.305879  0.500000  1
  B  B19  1  0.024957  0.694207  0.500000  1
  B  B20  1  0.476784  0.190816  0.500000  1
  B  B21  1  0.522992  0.809315  0.500000  1
  Mo  Mo22  1  0.129684  0.414889  0.000000  1
  W  W23  1  0.870456  0.585125  0.000000  1
