# generated using pymatgen
data_NdTm(Ni5Sn)2
_symmetry_space_group_name_H-M   'P 1'
_cell_length_a   4.86459800
_cell_length_b   4.86462005
_cell_length_c   19.60071800
_cell_angle_alpha   90.00000000
_cell_angle_beta   90.00000000
_cell_angle_gamma   120.00139084
_symmetry_Int_Tables_number   1
_chemical_formula_structural   NdTm(Ni5Sn)2
_chemical_formula_sum   'Nd2 Tm2 Ni20 Sn4'
_cell_volume   401.69128344
_cell_formula_units_Z   2
loop_
 _symmetry_equiv_pos_site_id
 _symmetry_equiv_pos_as_xyz
  1  'x, y, z'
loop_
 _atom_site_type_symbol
 _atom_site_label
 _atom_site_symmetry_multiplicity
 _atom_site_fract_x
 _atom_site_fract_y
 _atom_site_fract_z
 _atom_site_occupancy
  Nd  Nd0  1  0.000000  0.000000  0.500000  1
  Nd  Nd1  1  0.000000  0.000000  0.000000  1
  Tm  Tm2  1  0.333335  0.666667  0.250000  1
  Tm  Tm3  1  0.666665  0.333333  0.750000  1
  Ni  Ni4  1  0.000005  0.000001  0.250000  1
  Ni  Ni5  1  0.999995  0.999999  0.750000  1
  Ni  Ni6  1  0.333341  0.666661  0.750000  1
  Ni  Ni7  1  0.666659  0.333339  0.250000  1
  Ni  Ni8  1  0.333334  0.666664  0.956702  1
  Ni  Ni9  1  0.666666  0.333336  0.043298  1
  Ni  Ni10  1  0.666666  0.333336  0.456702  1
  Ni  Ni11  1  0.333334  0.666664  0.543298  1
  Ni  Ni12  1  0.833707  0.166300  0.352658  1
  Ni  Ni13  1  0.833703  0.667409  0.352658  1
  Ni  Ni14  1  0.332602  0.166301  0.352658  1
  Ni  Ni15  1  0.166293  0.833700  0.647342  1
  Ni  Ni16  1  0.166297  0.332591  0.647342  1
  Ni  Ni17  1  0.667398  0.833699  0.647342  1
  Ni  Ni18  1  0.166293  0.833700  0.852658  1
  Ni  Ni19  1  0.166297  0.332591  0.852658  1
  Ni  Ni20  1  0.667398  0.833699  0.852658  1
  Ni  Ni21  1  0.833707  0.166300  0.147342  1
  Ni  Ni22  1  0.833703  0.667409  0.147342  1
  Ni  Ni23  1  0.332602  0.166301  0.147342  1
  Sn  Sn24  1  0.333334  0.666668  0.411492  1
  Sn  Sn25  1  0.666666  0.333332  0.588508  1
  Sn  Sn26  1  0.666666  0.333332  0.911492  1
  Sn  Sn27  1  0.333334  0.666668  0.088508  1
