# generated using pymatgen
data_TbPa3(SnPd2)2
_symmetry_space_group_name_H-M   'P 1'
_cell_length_a   7.74923089
_cell_length_b   7.74923075
_cell_length_c   3.72265800
_cell_angle_alpha   90.00000000
_cell_angle_beta   90.00000000
_cell_angle_gamma   90.53510186
_symmetry_Int_Tables_number   1
_chemical_formula_structural   TbPa3(SnPd2)2
_chemical_formula_sum   'Tb1 Pa3 Sn2 Pd4'
_cell_volume   223.53801689
_cell_formula_units_Z   1
loop_
 _symmetry_equiv_pos_site_id
 _symmetry_equiv_pos_as_xyz
  1  'x, y, z'
loop_
 _atom_site_type_symbol
 _atom_site_label
 _atom_site_symmetry_multiplicity
 _atom_site_fract_x
 _atom_site_fract_y
 _atom_site_fract_z
 _atom_site_occupancy
  Tb  Tb0  1  0.824226  0.675774  0.500000  1
  Pa  Pa1  1  0.675501  0.175057  0.500000  1
  Pa  Pa2  1  0.324943  0.824499  0.500000  1
  Pa  Pa3  1  0.173595  0.326405  0.500000  1
  Sn  Sn4  1  0.996278  0.993516  0.000000  1
  Sn  Sn5  1  0.506484  0.503722  0.000000  1
  Pd  Pd6  1  0.136427  0.623065  0.000000  1
  Pd  Pd7  1  0.876935  0.363573  0.000000  1
  Pd  Pd8  1  0.618244  0.881756  0.000000  1
  Pd  Pd9  1  0.367366  0.132634  0.000000  1
