# generated using pymatgen
data_Hf3Zn5Ir
_symmetry_space_group_name_H-M   'P 1'
_cell_length_a   7.24379400
_cell_length_b   7.24379533
_cell_length_c   3.40274800
_cell_angle_alpha   90.00000000
_cell_angle_beta   90.00000000
_cell_angle_gamma   120.00001221
_symmetry_Int_Tables_number   1
_chemical_formula_structural   Hf3Zn5Ir
_chemical_formula_sum   'Hf3 Zn5 Ir1'
_cell_volume   154.62959832
_cell_formula_units_Z   1
loop_
 _symmetry_equiv_pos_site_id
 _symmetry_equiv_pos_as_xyz
  1  'x, y, z'
loop_
 _atom_site_type_symbol
 _atom_site_label
 _atom_site_symmetry_multiplicity
 _atom_site_fract_x
 _atom_site_fract_y
 _atom_site_fract_z
 _atom_site_occupancy
  Hf  Hf0  1  0.020867  0.406299  0.500000  1
  Hf  Hf1  1  0.593701  0.614568  0.500000  1
  Hf  Hf2  1  0.385432  0.979133  0.500000  1
  Zn  Zn3  1  0.986089  0.722593  0.000000  1
  Zn  Zn4  1  0.277407  0.263497  0.000000  1
  Zn  Zn5  1  0.736503  0.013911  0.000000  1
  Zn  Zn6  1  0.666667  0.333333  0.000000  1
  Zn  Zn7  1  0.000000  0.000000  0.500000  1
  Ir  Ir8  1  0.333333  0.666667  0.000000  1
