# generated using pymatgen
data_Y4Tm8CuNi4Bi
_symmetry_space_group_name_H-M   'P 1'
_cell_length_a   8.27175733
_cell_length_b   8.27175640
_cell_length_c   8.27175600
_cell_angle_alpha   110.09793269
_cell_angle_beta   111.14396498
_cell_angle_gamma   107.19721114
_symmetry_Int_Tables_number   1
_chemical_formula_structural   Y4Tm8CuNi4Bi
_chemical_formula_sum   'Y4 Tm8 Cu1 Ni4 Bi1'
_cell_volume   435.13373675
_cell_formula_units_Z   1
loop_
 _symmetry_equiv_pos_site_id
 _symmetry_equiv_pos_as_xyz
  1  'x, y, z'
loop_
 _atom_site_type_symbol
 _atom_site_label
 _atom_site_symmetry_multiplicity
 _atom_site_fract_x
 _atom_site_fract_y
 _atom_site_fract_z
 _atom_site_occupancy
  Y  Y0  1  0.290863  0.181381  0.472245  1
  Y  Y1  1  0.709137  0.818619  0.527755  1
  Y  Y2  1  0.290863  0.818619  0.109481  1
  Y  Y3  1  0.709137  0.181381  0.890519  1
  Tm  Tm4  1  0.628471  0.320111  0.308358  1
  Tm  Tm5  1  0.371529  0.679889  0.691642  1
  Tm  Tm6  1  0.011753  0.320111  0.691642  1
  Tm  Tm7  1  0.988247  0.679889  0.308358  1
  Tm  Tm8  1  0.214441  0.412816  0.198378  1
  Tm  Tm9  1  0.785559  0.587184  0.801622  1
  Tm  Tm10  1  0.214441  0.016063  0.801622  1
  Tm  Tm11  1  0.785559  0.983937  0.198378  1
  Cu  Cu12  1  0.000000  0.000000  0.000000  1
  Ni  Ni13  1  0.000000  0.364357  0.364357  1
  Ni  Ni14  1  0.000000  0.635643  0.635643  1
  Ni  Ni15  1  0.373793  0.873793  0.500000  1
  Ni  Ni16  1  0.626207  0.126207  0.500000  1
  Bi  Bi17  1  0.500000  0.500000  0.000000  1
