# generated using pymatgen
data_SrAc3(MgAu)4
_symmetry_space_group_name_H-M   'P 1'
_cell_length_a   4.64322400
_cell_length_b   7.68699781
_cell_length_c   9.18648100
_cell_angle_alpha   90.48005450
_cell_angle_beta   90.00000000
_cell_angle_gamma   90.00000000
_symmetry_Int_Tables_number   1
_chemical_formula_structural   SrAc3(MgAu)4
_chemical_formula_sum   'Sr1 Ac3 Mg4 Au4'
_cell_volume   327.87653003
_cell_formula_units_Z   1
loop_
 _symmetry_equiv_pos_site_id
 _symmetry_equiv_pos_as_xyz
  1  'x, y, z'
loop_
 _atom_site_type_symbol
 _atom_site_label
 _atom_site_symmetry_multiplicity
 _atom_site_fract_x
 _atom_site_fract_y
 _atom_site_fract_z
 _atom_site_occupancy
  Sr  Sr0  1  0.250000  0.033902  0.816717  1
  Ac  Ac1  1  0.750000  0.965927  0.180370  1
  Ac  Ac2  1  0.750000  0.464969  0.316362  1
  Ac  Ac3  1  0.250000  0.537218  0.682570  1
  Mg  Mg4  1  0.250000  0.637342  0.054837  1
  Mg  Mg5  1  0.250000  0.137041  0.446755  1
  Mg  Mg6  1  0.750000  0.866001  0.558182  1
  Mg  Mg7  1  0.750000  0.358456  0.941679  1
  Au  Au8  1  0.250000  0.267912  0.118335  1
  Au  Au9  1  0.250000  0.768328  0.384629  1
  Au  Au10  1  0.750000  0.236083  0.615984  1
  Au  Au11  1  0.750000  0.726820  0.883581  1
