# generated using pymatgen
data_LiY16In3Rh4
_symmetry_space_group_name_H-M   'P 1'
_cell_length_a   9.67274088
_cell_length_b   9.67274105
_cell_length_c   9.70191590
_cell_angle_alpha   60.09942486
_cell_angle_beta   60.09942439
_cell_angle_gamma   60.00000199
_symmetry_Int_Tables_number   1
_chemical_formula_structural   LiY16In3Rh4
_chemical_formula_sum   'Li1 Y16 In3 Rh4'
_cell_volume   642.82484897
_cell_formula_units_Z   1
loop_
 _symmetry_equiv_pos_site_id
 _symmetry_equiv_pos_as_xyz
  1  'x, y, z'
loop_
 _atom_site_type_symbol
 _atom_site_label
 _atom_site_symmetry_multiplicity
 _atom_site_fract_x
 _atom_site_fract_y
 _atom_site_fract_z
 _atom_site_occupancy
  Li  Li0  1  0.928904  0.928904  0.213289  1
  Y  Y1  1  0.686023  0.313039  0.314914  1
  Y  Y2  1  0.686023  0.686023  0.314914  1
  Y  Y3  1  0.313039  0.686023  0.314914  1
  Y  Y4  1  0.936755  0.936755  0.562450  1
  Y  Y5  1  0.148431  0.148431  0.554707  1
  Y  Y6  1  0.564040  0.936755  0.562450  1
  Y  Y7  1  0.151005  0.151005  0.148583  1
  Y  Y8  1  0.309698  0.309698  0.690930  1
  Y  Y9  1  0.936755  0.564040  0.562450  1
  Y  Y10  1  0.562705  0.562705  0.936684  1
  Y  Y11  1  0.562705  0.937907  0.936684  1
  Y  Y12  1  0.937907  0.562705  0.936684  1
  Y  Y13  1  0.151005  0.549408  0.148583  1
  Y  Y14  1  0.309698  0.689674  0.690930  1
  Y  Y15  1  0.689674  0.309698  0.690930  1
  Y  Y16  1  0.549408  0.151005  0.148583  1
  In  In17  1  0.247370  0.915618  0.921395  1
  In  In18  1  0.915618  0.247370  0.921395  1
  In  In19  1  0.915618  0.915618  0.921395  1
  Rh  Rh20  1  0.357089  0.357089  0.358544  1
  Rh  Rh21  1  0.927279  0.357089  0.358544  1
  Rh  Rh22  1  0.356164  0.356164  0.931510  1
  Rh  Rh23  1  0.357089  0.927279  0.358544  1
