# generated using pymatgen
data_Tm5Mg2Zr(Ni4P3)4
_symmetry_space_group_name_H-M   'P 1'
_cell_length_a   12.24700816
_cell_length_b   12.24360938
_cell_length_c   3.76854900
_cell_angle_alpha   90.00000000
_cell_angle_beta   90.00000000
_cell_angle_gamma   119.99082348
_symmetry_Int_Tables_number   1
_chemical_formula_structural   Tm5Mg2Zr(Ni4P3)4
_chemical_formula_sum   'Tm5 Mg2 Zr1 Ni16 P12'
_cell_volume   489.42305312
_cell_formula_units_Z   1
loop_
 _symmetry_equiv_pos_site_id
 _symmetry_equiv_pos_as_xyz
  1  'x, y, z'
loop_
 _atom_site_type_symbol
 _atom_site_label
 _atom_site_symmetry_multiplicity
 _atom_site_fract_x
 _atom_site_fract_y
 _atom_site_fract_z
 _atom_site_occupancy
  Tm  Tm0  1  0.185991  0.184698  0.500000  1
  Tm  Tm1  1  0.814009  0.998707  0.500000  1
  Tm  Tm2  1  0.000000  0.817536  0.500000  1
  Tm  Tm3  1  0.334870  0.666890  0.000000  1
  Tm  Tm4  1  0.665130  0.332019  0.000000  1
  Mg  Mg5  1  0.562075  0.562590  0.000000  1
  Mg  Mg6  1  0.437925  0.000515  0.000000  1
  Zr  Zr7  1  0.000000  0.438999  0.000000  1
  Ni  Ni8  1  0.720006  0.719294  0.500000  1
  Ni  Ni9  1  0.279994  0.999288  0.500000  1
  Ni  Ni10  1  0.000000  0.273015  0.500000  1
  Ni  Ni11  1  0.185440  0.375789  0.000000  1
  Ni  Ni12  1  0.621848  0.805917  0.000000  1
  Ni  Ni13  1  0.195151  0.815567  0.000000  1
  Ni  Ni14  1  0.804849  0.620416  0.000000  1
  Ni  Ni15  1  0.814560  0.190349  0.000000  1
  Ni  Ni16  1  0.378152  0.184069  0.000000  1
  Ni  Ni17  1  0.363633  0.487174  0.500000  1
  Ni  Ni18  1  0.517226  0.879305  0.500000  1
  Ni  Ni19  1  0.124798  0.641912  0.500000  1
  Ni  Ni20  1  0.875202  0.517112  0.500000  1
  Ni  Ni21  1  0.636367  0.123539  0.500000  1
  Ni  Ni22  1  0.482774  0.362077  0.500000  1
  Ni  Ni23  1  0.000000  0.999473  0.000000  1
  P  P24  1  0.822381  0.823032  0.000000  1
  P  P25  1  0.177619  0.000651  0.000000  1
  P  P26  1  0.000000  0.176395  0.000000  1
  P  P27  1  0.172607  0.477894  0.500000  1
  P  P28  1  0.523155  0.695481  0.500000  1
  P  P29  1  0.307942  0.828382  0.500000  1
  P  P30  1  0.692058  0.520440  0.500000  1
  P  P31  1  0.827393  0.305287  0.500000  1
  P  P32  1  0.476845  0.172327  0.500000  1
  P  P33  1  0.357660  0.356950  0.000000  1
  P  P34  1  0.642340  0.999289  0.000000  1
  P  P35  1  0.000000  0.647621  0.000000  1
