# generated using pymatgen
data_Y3Al12(OsRu)2
_symmetry_space_group_name_H-M   'P 1'
_cell_length_a   8.82317500
_cell_length_b   8.80101753
_cell_length_c   9.60429700
_cell_angle_alpha   90.00000000
_cell_angle_beta   90.00000000
_cell_angle_gamma   120.08331287
_symmetry_Int_Tables_number   1
_chemical_formula_structural   Y3Al12(OsRu)2
_chemical_formula_sum   'Y6 Al24 Os4 Ru4'
_cell_volume   645.34029480
_cell_formula_units_Z   2
loop_
 _symmetry_equiv_pos_site_id
 _symmetry_equiv_pos_as_xyz
  1  'x, y, z'
loop_
 _atom_site_type_symbol
 _atom_site_label
 _atom_site_symmetry_multiplicity
 _atom_site_fract_x
 _atom_site_fract_y
 _atom_site_fract_z
 _atom_site_occupancy
  Y  Y0  1  0.194055  0.388109  0.250000  1
  Y  Y1  1  0.805945  0.611891  0.750000  1
  Y  Y2  1  0.613745  0.804603  0.250000  1
  Y  Y3  1  0.386255  0.195397  0.750000  1
  Y  Y4  1  0.190858  0.804603  0.250000  1
  Y  Y5  1  0.809142  0.195397  0.750000  1
  Al  Al6  1  0.333717  0.667434  0.016566  1
  Al  Al7  1  0.666283  0.332566  0.983434  1
  Al  Al8  1  0.666283  0.332566  0.516566  1
  Al  Al9  1  0.333717  0.667434  0.483434  1
  Al  Al10  1  0.163391  0.326783  0.575334  1
  Al  Al11  1  0.836609  0.673217  0.424666  1
  Al  Al12  1  0.674166  0.837014  0.575780  1
  Al  Al13  1  0.836609  0.673217  0.075334  1
  Al  Al14  1  0.325834  0.162986  0.424220  1
  Al  Al15  1  0.163391  0.326783  0.924666  1
  Al  Al16  1  0.162848  0.837014  0.575780  1
  Al  Al17  1  0.325834  0.162986  0.075780  1
  Al  Al18  1  0.837152  0.162986  0.424220  1
  Al  Al19  1  0.674166  0.837014  0.924220  1
  Al  Al20  1  0.837152  0.162986  0.075780  1
  Al  Al21  1  0.162848  0.837014  0.924220  1
  Al  Al22  1  0.560580  0.121161  0.250000  1
  Al  Al23  1  0.439420  0.878839  0.750000  1
  Al  Al24  1  0.875845  0.437550  0.250000  1
  Al  Al25  1  0.124155  0.562450  0.750000  1
  Al  Al26  1  0.561705  0.437550  0.250000  1
  Al  Al27  1  0.438295  0.562450  0.750000  1
  Al  Al28  1  0.000126  0.000253  0.250000  1
  Al  Al29  1  0.999874  0.999747  0.750000  1
  Os  Os30  1  0.000000  0.500000  0.000000  1
  Os  Os31  1  0.500000  0.500000  0.000000  1
  Os  Os32  1  0.000000  0.500000  0.500000  1
  Os  Os33  1  0.500000  0.500000  0.500000  1
  Ru  Ru34  1  0.500000  0.000000  0.000000  1
  Ru  Ru35  1  0.500000  0.000000  0.500000  1
  Ru  Ru36  1  0.000000  0.000000  0.000000  1
  Ru  Ru37  1  0.000000  0.000000  0.500000  1
