# generated using pymatgen
data_Ce3Al8(ReSi)4
_symmetry_space_group_name_H-M   'P 1'
_cell_length_a   8.82200200
_cell_length_b   8.81221434
_cell_length_c   9.54749200
_cell_angle_alpha   90.00000000
_cell_angle_beta   90.00000000
_cell_angle_gamma   119.96331539
_symmetry_Int_Tables_number   1
_chemical_formula_structural   Ce3Al8(ReSi)4
_chemical_formula_sum   'Ce6 Al16 Re8 Si8'
_cell_volume   643.03196251
_cell_formula_units_Z   2
loop_
 _symmetry_equiv_pos_site_id
 _symmetry_equiv_pos_as_xyz
  1  'x, y, z'
loop_
 _atom_site_type_symbol
 _atom_site_label
 _atom_site_symmetry_multiplicity
 _atom_site_fract_x
 _atom_site_fract_y
 _atom_site_fract_z
 _atom_site_occupancy
  Ce  Ce0  1  0.805415  0.614179  0.750000  1
  Ce  Ce1  1  0.194585  0.808764  0.250000  1
  Ce  Ce2  1  0.611839  0.807598  0.250000  1
  Ce  Ce3  1  0.388161  0.195758  0.750000  1
  Ce  Ce4  1  0.806845  0.193011  0.750000  1
  Ce  Ce5  1  0.193155  0.386168  0.250000  1
  Al  Al6  1  0.164226  0.330185  0.578132  1
  Al  Al7  1  0.668740  0.835814  0.577696  1
  Al  Al8  1  0.166578  0.834643  0.577462  1
  Al  Al9  1  0.835774  0.165959  0.078132  1
  Al  Al10  1  0.835774  0.165959  0.421868  1
  Al  Al11  1  0.833422  0.668065  0.077462  1
  Al  Al12  1  0.331260  0.167075  0.077696  1
  Al  Al13  1  0.668740  0.835814  0.922304  1
  Al  Al14  1  0.164226  0.330185  0.921868  1
  Al  Al15  1  0.833422  0.668065  0.422538  1
  Al  Al16  1  0.130728  0.562698  0.750000  1
  Al  Al17  1  0.869272  0.431970  0.250000  1
  Al  Al18  1  0.560657  0.432738  0.250000  1
  Al  Al19  1  0.439343  0.872080  0.750000  1
  Al  Al20  1  0.166578  0.834643  0.922538  1
  Al  Al21  1  0.331260  0.167075  0.422304  1
  Re  Re22  1  0.000000  0.999639  0.500000  1
  Re  Re23  1  0.000000  0.999639  0.000000  1
  Re  Re24  1  0.500183  0.999926  0.494171  1
  Re  Re25  1  0.499817  0.499742  0.994171  1
  Re  Re26  1  0.000000  0.499684  0.000000  1
  Re  Re27  1  0.000000  0.499684  0.500000  1
  Re  Re28  1  0.499817  0.499742  0.505829  1
  Re  Re29  1  0.500183  0.999926  0.005829  1
  Si  Si30  1  0.331980  0.666303  0.465622  1
  Si  Si31  1  0.668020  0.334324  0.965622  1
  Si  Si32  1  0.668020  0.334324  0.534378  1
  Si  Si33  1  0.331980  0.666303  0.034378  1
  Si  Si34  1  0.999322  0.000480  0.250000  1
  Si  Si35  1  0.000678  0.001158  0.750000  1
  Si  Si36  1  0.562170  0.126426  0.250000  1
  Si  Si37  1  0.437830  0.564256  0.750000  1
