# generated using pymatgen
data_DyScMn3Si7Pt9
_symmetry_space_group_name_H-M   'P 1'
_cell_length_a   9.91814300
_cell_length_b   9.91814133
_cell_length_c   3.86624000
_cell_angle_alpha   90.00000000
_cell_angle_beta   90.00000000
_cell_angle_gamma   119.99999825
_symmetry_Int_Tables_number   1
_chemical_formula_structural   DyScMn3Si7Pt9
_chemical_formula_sum   'Dy1 Sc1 Mn3 Si7 Pt9'
_cell_volume   329.36701752
_cell_formula_units_Z   1
loop_
 _symmetry_equiv_pos_site_id
 _symmetry_equiv_pos_as_xyz
  1  'x, y, z'
loop_
 _atom_site_type_symbol
 _atom_site_label
 _atom_site_symmetry_multiplicity
 _atom_site_fract_x
 _atom_site_fract_y
 _atom_site_fract_z
 _atom_site_occupancy
  Dy  Dy0  1  0.333333  0.666667  0.500000  1
  Sc  Sc1  1  0.000000  0.000000  0.000000  1
  Mn  Mn2  1  0.883691  0.455619  0.500000  1
  Mn  Mn3  1  0.571928  0.116309  0.500000  1
  Mn  Mn4  1  0.544381  0.428072  0.500000  1
  Si  Si5  1  0.252516  0.208436  0.500000  1
  Si  Si6  1  0.791564  0.044081  0.500000  1
  Si  Si7  1  0.955919  0.747484  0.500000  1
  Si  Si8  1  0.553687  0.634631  0.000000  1
  Si  Si9  1  0.365369  0.919055  0.000000  1
  Si  Si10  1  0.080945  0.446313  0.000000  1
  Si  Si11  1  0.666667  0.333333  0.000000  1
  Pt  Pt12  1  0.221098  0.946590  0.500000  1
  Pt  Pt13  1  0.053410  0.274509  0.500000  1
  Pt  Pt14  1  0.725491  0.778902  0.500000  1
  Pt  Pt15  1  0.306358  0.409620  0.000000  1
  Pt  Pt16  1  0.590380  0.896738  0.000000  1
  Pt  Pt17  1  0.103262  0.693642  0.000000  1
  Pt  Pt18  1  0.393796  0.178261  0.000000  1
  Pt  Pt19  1  0.821739  0.215536  0.000000  1
  Pt  Pt20  1  0.784464  0.606204  0.000000  1
