# generated using pymatgen
data_Yb5Bi3Pt
_symmetry_space_group_name_H-M   'P 1'
_cell_length_a   7.13051900
_cell_length_b   9.31650542
_cell_length_c   9.32426991
_cell_angle_alpha   119.97245838
_cell_angle_beta   89.99990556
_cell_angle_gamma   90.00018643
_symmetry_Int_Tables_number   1
_chemical_formula_structural   Yb5Bi3Pt
_chemical_formula_sum   'Yb10 Bi6 Pt2'
_cell_volume   536.58695764
_cell_formula_units_Z   2
loop_
 _symmetry_equiv_pos_site_id
 _symmetry_equiv_pos_as_xyz
  1  'x, y, z'
loop_
 _atom_site_type_symbol
 _atom_site_label
 _atom_site_symmetry_multiplicity
 _atom_site_fract_x
 _atom_site_fract_y
 _atom_site_fract_z
 _atom_site_occupancy
  Yb  Yb0  1  0.499980  0.333311  0.666625  1
  Yb  Yb1  1  0.499980  0.666684  0.333375  1
  Yb  Yb2  1  0.000024  0.666682  0.333371  1
  Yb  Yb3  1  0.000024  0.333311  0.666629  1
  Yb  Yb4  1  0.749996  0.235924  0.000000  1
  Yb  Yb5  1  0.750002  0.764049  0.764064  1
  Yb  Yb6  1  0.750002  0.999985  0.235936  1
  Yb  Yb7  1  0.249991  0.764144  0.000000  1
  Yb  Yb8  1  0.249992  0.235884  0.235859  1
  Yb  Yb9  1  0.249992  0.000026  0.764141  1
  Bi  Bi10  1  0.749986  0.597094  0.000000  1
  Bi  Bi11  1  0.750002  0.402868  0.402869  1
  Bi  Bi12  1  0.750002  0.999999  0.597131  1
  Bi  Bi13  1  0.250015  0.402940  0.000000  1
  Bi  Bi14  1  0.250006  0.597093  0.597084  1
  Bi  Bi15  1  0.250006  0.000008  0.402916  1
  Pt  Pt16  1  0.500052  0.999996  0.000000  1
  Pt  Pt17  1  0.999951  0.999999  0.000000  1
