# generated using pymatgen
data_Tm12Mn2In2Tc
_symmetry_space_group_name_H-M   'P 1'
_cell_length_a   8.27367017
_cell_length_b   8.27366990
_cell_length_c   8.27367078
_cell_angle_alpha   108.60458795
_cell_angle_beta   108.60459952
_cell_angle_gamma   111.21874555
_symmetry_Int_Tables_number   1
_chemical_formula_structural   Tm12Mn2In2Tc
_chemical_formula_sum   'Tm12 Mn2 In2 Tc1'
_cell_volume   435.68091293
_cell_formula_units_Z   1
loop_
 _symmetry_equiv_pos_site_id
 _symmetry_equiv_pos_as_xyz
  1  'x, y, z'
loop_
 _atom_site_type_symbol
 _atom_site_label
 _atom_site_symmetry_multiplicity
 _atom_site_fract_x
 _atom_site_fract_y
 _atom_site_fract_z
 _atom_site_occupancy
  Tm  Tm0  1  0.192949  0.431531  0.238582  1
  Tm  Tm1  1  0.807051  0.568469  0.761418  1
  Tm  Tm2  1  0.192949  0.954368  0.761418  1
  Tm  Tm3  1  0.954368  0.192949  0.761418  1
  Tm  Tm4  1  0.807051  0.045632  0.238582  1
  Tm  Tm5  1  0.045632  0.807051  0.238582  1
  Tm  Tm6  1  0.431531  0.192949  0.238582  1
  Tm  Tm7  1  0.568469  0.807051  0.761418  1
  Tm  Tm8  1  0.307225  0.307225  0.614450  1
  Tm  Tm9  1  0.692775  0.692775  0.385550  1
  Tm  Tm10  1  0.692775  0.307225  0.000000  1
  Tm  Tm11  1  0.307225  0.692775  0.000000  1
  Mn  Mn12  1  0.384986  0.384986  0.000000  1
  Mn  Mn13  1  0.615014  0.615014  0.000000  1
  In  In14  1  0.000000  0.500000  0.500000  1
  In  In15  1  0.500000  0.000000  0.500000  1
  Tc  Tc16  1  0.000000  0.000000  0.000000  1
