# generated using pymatgen
data_Tb6PrCo4Sn23Ir2
_symmetry_space_group_name_H-M   'P 1'
_cell_length_a   9.80044627
_cell_length_b   9.80044538
_cell_length_c   10.06355422
_cell_angle_alpha   90.17144950
_cell_angle_beta   89.82854790
_cell_angle_gamma   120.06029659
_symmetry_Int_Tables_number   1
_chemical_formula_structural   Tb6PrCo4Sn23Ir2
_chemical_formula_sum   'Tb6 Pr1 Co4 Sn23 Ir2'
_cell_volume   836.57889278
_cell_formula_units_Z   1
loop_
 _symmetry_equiv_pos_site_id
 _symmetry_equiv_pos_as_xyz
  1  'x, y, z'
loop_
 _atom_site_type_symbol
 _atom_site_label
 _atom_site_symmetry_multiplicity
 _atom_site_fract_x
 _atom_site_fract_y
 _atom_site_fract_z
 _atom_site_occupancy
  Tb  Tb0  1  0.478714  0.521286  0.306343  1
  Tb  Tb1  1  0.521286  0.478714  0.693657  1
  Tb  Tb2  1  0.478903  0.957206  0.306121  1
  Tb  Tb3  1  0.521097  0.042794  0.693879  1
  Tb  Tb4  1  0.042794  0.521097  0.306121  1
  Tb  Tb5  1  0.957206  0.478903  0.693879  1
  Pr  Pr6  1  0.000000  0.000000  0.000000  1
  Co  Co7  1  0.830834  0.663475  0.197925  1
  Co  Co8  1  0.169166  0.336525  0.802075  1
  Co  Co9  1  0.336525  0.169166  0.197925  1
  Co  Co10  1  0.663475  0.830834  0.802075  1
  Sn  Sn11  1  0.351821  0.004383  0.005613  1
  Sn  Sn12  1  0.648179  0.995617  0.994387  1
  Sn  Sn13  1  0.004383  0.351821  0.994387  1
  Sn  Sn14  1  0.995617  0.648179  0.005613  1
  Sn  Sn15  1  0.653030  0.653030  0.000000  1
  Sn  Sn16  1  0.346970  0.346970  0.000000  1
  Sn  Sn17  1  0.335756  0.664244  0.819421  1
  Sn  Sn18  1  0.664244  0.335756  0.180579  1
  Sn  Sn19  1  0.000000  0.000000  0.500000  1
  Sn  Sn20  1  0.779585  0.220415  0.456808  1
  Sn  Sn21  1  0.220415  0.779585  0.543192  1
  Sn  Sn22  1  0.781194  0.562087  0.451024  1
  Sn  Sn23  1  0.218806  0.437913  0.548976  1
  Sn  Sn24  1  0.437913  0.218806  0.451024  1
  Sn  Sn25  1  0.562087  0.781194  0.548976  1
  Sn  Sn26  1  0.333703  0.666297  0.116396  1
  Sn  Sn27  1  0.666297  0.333703  0.883604  1
  Sn  Sn28  1  0.117425  0.882575  0.274992  1
  Sn  Sn29  1  0.882575  0.117425  0.725008  1
  Sn  Sn30  1  0.124173  0.237419  0.279194  1
  Sn  Sn31  1  0.875827  0.762581  0.720806  1
  Sn  Sn32  1  0.762581  0.875827  0.279194  1
  Sn  Sn33  1  0.237419  0.124173  0.720806  1
  Ir  Ir34  1  0.831396  0.168604  0.197574  1
  Ir  Ir35  1  0.168604  0.831396  0.802426  1
