# generated using pymatgen
data_VGa3(NiPt2)4
_symmetry_space_group_name_H-M   'P 1'
_cell_length_a   3.90737100
_cell_length_b   3.90737100
_cell_length_c   14.71926700
_cell_angle_alpha   90.00000000
_cell_angle_beta   90.00000000
_cell_angle_gamma   90.00000000
_symmetry_Int_Tables_number   1
_chemical_formula_structural   VGa3(NiPt2)4
_chemical_formula_sum   'V1 Ga3 Ni4 Pt8'
_cell_volume   224.72711738
_cell_formula_units_Z   1
loop_
 _symmetry_equiv_pos_site_id
 _symmetry_equiv_pos_as_xyz
  1  'x, y, z'
loop_
 _atom_site_type_symbol
 _atom_site_label
 _atom_site_symmetry_multiplicity
 _atom_site_fract_x
 _atom_site_fract_y
 _atom_site_fract_z
 _atom_site_occupancy
  V  V0  1  0.000000  0.000000  0.000000  1
  Ga  Ga1  1  0.000000  0.000000  0.253006  1
  Ga  Ga2  1  0.000000  0.000000  0.500000  1
  Ga  Ga3  1  0.000000  0.000000  0.746994  1
  Ni  Ni4  1  0.500000  0.500000  0.000000  1
  Ni  Ni5  1  0.500000  0.500000  0.248888  1
  Ni  Ni6  1  0.500000  0.500000  0.500000  1
  Ni  Ni7  1  0.500000  0.500000  0.751112  1
  Pt  Pt8  1  0.500000  0.000000  0.121508  1
  Pt  Pt9  1  0.500000  0.000000  0.375412  1
  Pt  Pt10  1  0.500000  0.000000  0.624588  1
  Pt  Pt11  1  0.500000  0.000000  0.878492  1
  Pt  Pt12  1  0.000000  0.500000  0.121508  1
  Pt  Pt13  1  0.000000  0.500000  0.375412  1
  Pt  Pt14  1  0.000000  0.500000  0.624588  1
  Pt  Pt15  1  0.000000  0.500000  0.878492  1
