# generated using pymatgen
data_Nd5Y3(Sc3Sn4)4
_symmetry_space_group_name_H-M   'P 1'
_cell_length_a   7.77172563
_cell_length_b   7.99590769
_cell_length_c   14.95496000
_cell_angle_alpha   90.01843002
_cell_angle_beta   89.71428390
_cell_angle_gamma   90.10450117
_symmetry_Int_Tables_number   1
_chemical_formula_structural   Nd5Y3(Sc3Sn4)4
_chemical_formula_sum   'Nd5 Y3 Sc12 Sn16'
_cell_volume   929.31798925
_cell_formula_units_Z   1
loop_
 _symmetry_equiv_pos_site_id
 _symmetry_equiv_pos_as_xyz
  1  'x, y, z'
loop_
 _atom_site_type_symbol
 _atom_site_label
 _atom_site_symmetry_multiplicity
 _atom_site_fract_x
 _atom_site_fract_y
 _atom_site_fract_z
 _atom_site_occupancy
  Nd  Nd0  1  0.994260  0.173432  0.095946  1
  Nd  Nd1  1  0.006483  0.826086  0.903568  1
  Nd  Nd2  1  0.505191  0.672934  0.905697  1
  Nd  Nd3  1  0.005628  0.824949  0.592208  1
  Nd  Nd4  1  0.494716  0.325714  0.095988  1
  Y  Y5  1  0.992342  0.177868  0.405928  1
  Y  Y6  1  0.489771  0.324229  0.405290  1
  Y  Y7  1  0.508846  0.675562  0.593204  1
  Sc  Sc8  1  0.170242  0.495960  0.747992  1
  Sc  Sc9  1  0.830176  0.504198  0.252122  1
  Sc  Sc10  1  0.330899  0.995512  0.251672  1
  Sc  Sc11  1  0.669805  0.005500  0.748384  1
  Sc  Sc12  1  0.340773  0.162806  0.626322  1
  Sc  Sc13  1  0.659136  0.837387  0.373413  1
  Sc  Sc14  1  0.159620  0.659902  0.374528  1
  Sc  Sc15  1  0.662035  0.839044  0.129442  1
  Sc  Sc16  1  0.841676  0.338761  0.624967  1
  Sc  Sc17  1  0.339246  0.161297  0.871452  1
  Sc  Sc18  1  0.837713  0.338016  0.872247  1
  Sc  Sc19  1  0.161529  0.661864  0.129042  1
  Sn  Sn20  1  0.032419  0.130210  0.748494  1
  Sn  Sn21  1  0.968734  0.872224  0.252620  1
  Sn  Sn22  1  0.467258  0.627271  0.251146  1
  Sn  Sn23  1  0.533050  0.372450  0.748610  1
  Sn  Sn24  1  0.313264  0.853006  0.747266  1
  Sn  Sn25  1  0.689529  0.147274  0.253847  1
  Sn  Sn26  1  0.188630  0.352807  0.253409  1
  Sn  Sn27  1  0.808718  0.644619  0.747882  1
  Sn  Sn28  1  0.186082  0.455158  0.541883  1
  Sn  Sn29  1  0.813331  0.540627  0.456586  1
  Sn  Sn30  1  0.320698  0.958978  0.456019  1
  Sn  Sn31  1  0.825166  0.545245  0.043931  1
  Sn  Sn32  1  0.677614  0.045385  0.541449  1
  Sn  Sn33  1  0.174675  0.454765  0.956982  1
  Sn  Sn34  1  0.676109  0.043679  0.957028  1
  Sn  Sn35  1  0.324634  0.955281  0.043437  1
