# generated using pymatgen
data_Lu8NbGe16Mo11
_symmetry_space_group_name_H-M   'P 1'
_cell_length_a   6.87268811
_cell_length_b   7.02710687
_cell_length_c   13.07188800
_cell_angle_alpha   90.00000000
_cell_angle_beta   90.00000000
_cell_angle_gamma   90.09955324
_symmetry_Int_Tables_number   1
_chemical_formula_structural   Lu8NbGe16Mo11
_chemical_formula_sum   'Lu8 Nb1 Ge16 Mo11'
_cell_volume   631.30736533
_cell_formula_units_Z   1
loop_
 _symmetry_equiv_pos_site_id
 _symmetry_equiv_pos_as_xyz
  1  'x, y, z'
loop_
 _atom_site_type_symbol
 _atom_site_label
 _atom_site_symmetry_multiplicity
 _atom_site_fract_x
 _atom_site_fract_y
 _atom_site_fract_z
 _atom_site_occupancy
  Lu  Lu0  1  0.490565  0.327742  0.091657  1
  Lu  Lu1  1  0.988260  0.171995  0.408634  1
  Lu  Lu2  1  0.511653  0.671930  0.591531  1
  Lu  Lu3  1  0.011327  0.828988  0.908780  1
  Lu  Lu4  1  0.511653  0.671930  0.908469  1
  Lu  Lu5  1  0.011327  0.828988  0.591220  1
  Lu  Lu6  1  0.490565  0.327742  0.408343  1
  Lu  Lu7  1  0.988260  0.171995  0.091366  1
  Nb  Nb8  1  0.837430  0.508674  0.250000  1
  Ge  Ge9  1  0.811153  0.649778  0.750000  1
  Ge  Ge10  1  0.310452  0.851423  0.750000  1
  Ge  Ge11  1  0.194074  0.348814  0.250000  1
  Ge  Ge12  1  0.689539  0.144868  0.250000  1
  Ge  Ge13  1  0.527564  0.370998  0.750000  1
  Ge  Ge14  1  0.029030  0.129119  0.750000  1
  Ge  Ge15  1  0.467679  0.629185  0.250000  1
  Ge  Ge16  1  0.972479  0.874724  0.250000  1
  Ge  Ge17  1  0.672335  0.045172  0.547696  1
  Ge  Ge18  1  0.172460  0.454924  0.952371  1
  Ge  Ge19  1  0.326402  0.955282  0.047428  1
  Ge  Ge20  1  0.826807  0.544380  0.455251  1
  Ge  Ge21  1  0.326402  0.955282  0.452572  1
  Ge  Ge22  1  0.826807  0.544380  0.044749  1
  Ge  Ge23  1  0.672335  0.045172  0.952304  1
  Ge  Ge24  1  0.172460  0.454924  0.547629  1
  Mo  Mo25  1  0.666373  0.004229  0.750000  1
  Mo  Mo26  1  0.165173  0.495304  0.750000  1
  Mo  Mo27  1  0.333746  0.993891  0.250000  1
  Mo  Mo28  1  0.828404  0.345960  0.628088  1
  Mo  Mo29  1  0.328997  0.154581  0.873232  1
  Mo  Mo30  1  0.170557  0.654037  0.125845  1
  Mo  Mo31  1  0.669886  0.844505  0.374478  1
  Mo  Mo32  1  0.170557  0.654037  0.374155  1
  Mo  Mo33  1  0.669886  0.844505  0.125522  1
  Mo  Mo34  1  0.828404  0.345960  0.871912  1
  Mo  Mo35  1  0.328997  0.154581  0.626768  1
