# generated using pymatgen
data_Zr6Al17Rh7
_symmetry_space_group_name_H-M   'P 1'
_cell_length_a   8.80990208
_cell_length_b   8.80990187
_cell_length_c   8.80990229
_cell_angle_alpha   119.97942373
_cell_angle_beta   119.97277543
_cell_angle_gamma   90.04139937
_symmetry_Int_Tables_number   1
_chemical_formula_structural   Zr6Al17Rh7
_chemical_formula_sum   'Zr6 Al17 Rh7'
_cell_volume   483.67650679
_cell_formula_units_Z   1
loop_
 _symmetry_equiv_pos_site_id
 _symmetry_equiv_pos_as_xyz
  1  'x, y, z'
loop_
 _atom_site_type_symbol
 _atom_site_label
 _atom_site_symmetry_multiplicity
 _atom_site_fract_x
 _atom_site_fract_y
 _atom_site_fract_z
 _atom_site_occupancy
  Zr  Zr0  1  0.788674  0.287992  0.075626  1
  Zr  Zr1  1  0.212366  0.287992  0.499318  1
  Zr  Zr2  1  0.210878  0.710878  0.500000  1
  Zr  Zr3  1  0.212366  0.713049  0.924374  1
  Zr  Zr4  1  0.788674  0.713049  0.500682  1
  Zr  Zr5  1  0.786323  0.286323  0.500000  1
  Al  Al6  1  0.378303  0.121629  0.743326  1
  Al  Al7  1  0.378303  0.634977  0.256674  1
  Al  Al8  1  0.998286  0.498286  0.500000  1
  Al  Al9  1  0.159092  0.341302  0.182209  1
  Al  Al10  1  0.159092  0.976884  0.817791  1
  Al  Al11  1  0.158184  0.342145  0.816038  1
  Al  Al12  1  0.526106  0.342145  0.183962  1
  Al  Al13  1  0.841538  0.658388  0.816851  1
  Al  Al14  1  0.841538  0.024687  0.183149  1
  Al  Al15  1  0.841244  0.658669  0.182577  1
  Al  Al16  1  0.476092  0.658669  0.817423  1
  Al  Al17  1  0.377888  0.121839  0.256048  1
  Al  Al18  1  0.865792  0.121839  0.743952  1
  Al  Al19  1  0.621467  0.877400  0.255932  1
  Al  Al20  1  0.621467  0.365535  0.744068  1
  Al  Al21  1  0.620937  0.878025  0.742912  1
  Al  Al22  1  0.135113  0.878025  0.257088  1
  Rh  Rh23  1  0.000139  0.000072  0.500146  1
  Rh  Rh24  1  0.499926  0.000072  0.999933  1
  Rh  Rh25  1  0.499855  0.499855  0.000000  1
  Rh  Rh26  1  0.499926  0.499993  0.499854  1
  Rh  Rh27  1  0.000139  0.499993  0.000067  1
  Rh  Rh28  1  0.000038  0.000038  0.000000  1
  Rh  Rh29  1  0.500247  0.000247  0.500000  1
