# generated using pymatgen
data_Yb5Pr4ScPt8
_symmetry_space_group_name_H-M   'P 1'
_cell_length_a   7.56166085
_cell_length_b   7.73249800
_cell_length_c   14.45705442
_cell_angle_alpha   90.00000000
_cell_angle_beta   90.16858074
_cell_angle_gamma   90.00000000
_symmetry_Int_Tables_number   1
_chemical_formula_structural   Yb5Pr4ScPt8
_chemical_formula_sum   'Yb10 Pr8 Sc2 Pt16'
_cell_volume   845.30793752
_cell_formula_units_Z   2
loop_
 _symmetry_equiv_pos_site_id
 _symmetry_equiv_pos_as_xyz
  1  'x, y, z'
loop_
 _atom_site_type_symbol
 _atom_site_label
 _atom_site_symmetry_multiplicity
 _atom_site_fract_x
 _atom_site_fract_y
 _atom_site_fract_z
 _atom_site_occupancy
  Yb  Yb0  1  0.332809  0.167704  0.624306  1
  Yb  Yb1  1  0.666834  0.833020  0.373848  1
  Yb  Yb2  1  0.666976  0.005005  0.750420  1
  Yb  Yb3  1  0.166834  0.666980  0.373848  1
  Yb  Yb4  1  0.832422  0.334425  0.879888  1
  Yb  Yb5  1  0.832809  0.332296  0.624306  1
  Yb  Yb6  1  0.833157  0.504172  0.248744  1
  Yb  Yb7  1  0.333157  0.995828  0.248744  1
  Yb  Yb8  1  0.332422  0.165575  0.879888  1
  Yb  Yb9  1  0.166976  0.494995  0.750420  1
  Pr  Pr10  1  0.008733  0.181501  0.401183  1
  Pr  Pr11  1  0.508733  0.318499  0.401183  1
  Pr  Pr12  1  0.492030  0.679486  0.904300  1
  Pr  Pr13  1  0.490944  0.678840  0.597350  1
  Pr  Pr14  1  0.990944  0.821160  0.597350  1
  Pr  Pr15  1  0.992030  0.820514  0.904300  1
  Pr  Pr16  1  0.508731  0.324362  0.097724  1
  Pr  Pr17  1  0.008731  0.175638  0.097724  1
  Sc  Sc18  1  0.167217  0.668516  0.124900  1
  Sc  Sc19  1  0.667217  0.831484  0.124900  1
  Pt  Pt20  1  0.293326  0.856737  0.750347  1
  Pt  Pt21  1  0.463960  0.627894  0.237543  1
  Pt  Pt22  1  0.034473  0.116692  0.752103  1
  Pt  Pt23  1  0.534473  0.383308  0.752103  1
  Pt  Pt24  1  0.174007  0.465957  0.538243  1
  Pt  Pt25  1  0.963960  0.872106  0.237543  1
  Pt  Pt26  1  0.707709  0.136509  0.246751  1
  Pt  Pt27  1  0.827956  0.554767  0.043514  1
  Pt  Pt28  1  0.327956  0.945233  0.043514  1
  Pt  Pt29  1  0.174649  0.470637  0.969288  1
  Pt  Pt30  1  0.674007  0.034043  0.538243  1
  Pt  Pt31  1  0.324066  0.966587  0.459547  1
  Pt  Pt32  1  0.824066  0.533413  0.459547  1
  Pt  Pt33  1  0.793326  0.643263  0.750347  1
  Pt  Pt34  1  0.207709  0.363491  0.246751  1
  Pt  Pt35  1  0.674649  0.029363  0.969288  1
