# generated using pymatgen
data_Y2Sc2ReB12Os
_symmetry_space_group_name_H-M   'P 1'
_cell_length_a   3.58158200
_cell_length_b   8.99293203
_cell_length_c   11.39394700
_cell_angle_alpha   90.05982613
_cell_angle_beta   90.00000000
_cell_angle_gamma   90.00000000
_symmetry_Int_Tables_number   1
_chemical_formula_structural   Y2Sc2ReB12Os
_chemical_formula_sum   'Y4 Sc4 Re2 B24 Os2'
_cell_volume   366.98656721
_cell_formula_units_Z   2
loop_
 _symmetry_equiv_pos_site_id
 _symmetry_equiv_pos_as_xyz
  1  'x, y, z'
loop_
 _atom_site_type_symbol
 _atom_site_label
 _atom_site_symmetry_multiplicity
 _atom_site_fract_x
 _atom_site_fract_y
 _atom_site_fract_z
 _atom_site_occupancy
  Y  Y0  1  0.000000  0.318918  0.413207  1
  Y  Y1  1  0.000000  0.681082  0.586793  1
  Y  Y2  1  0.000000  0.822448  0.085427  1
  Y  Y3  1  0.000000  0.177552  0.914573  1
  Sc  Sc4  1  0.000000  0.945295  0.371694  1
  Sc  Sc5  1  0.000000  0.054705  0.628306  1
  Sc  Sc6  1  0.000000  0.443149  0.128159  1
  Sc  Sc7  1  0.000000  0.556851  0.871841  1
  Re  Re8  1  0.000000  0.140224  0.182037  1
  Re  Re9  1  0.000000  0.859776  0.817963  1
  B  B10  1  0.500000  0.554807  0.432576  1
  B  B11  1  0.500000  0.445193  0.567424  1
  B  B12  1  0.500000  0.054160  0.067466  1
  B  B13  1  0.500000  0.945840  0.932534  1
  B  B14  1  0.500000  0.753366  0.418062  1
  B  B15  1  0.500000  0.246634  0.581938  1
  B  B16  1  0.500000  0.253542  0.081653  1
  B  B17  1  0.500000  0.746458  0.918347  1
  B  B18  1  0.500000  0.793486  0.265457  1
  B  B19  1  0.500000  0.206514  0.734543  1
  B  B20  1  0.500000  0.294543  0.235050  1
  B  B21  1  0.500000  0.705457  0.764950  1
  B  B22  1  0.500000  0.628482  0.183520  1
  B  B23  1  0.500000  0.371518  0.816480  1
  B  B24  1  0.500000  0.128751  0.317115  1
  B  B25  1  0.500000  0.871249  0.682885  1
  B  B26  1  0.500000  0.981155  0.214634  1
  B  B27  1  0.500000  0.018845  0.785366  1
  B  B28  1  0.500000  0.481578  0.286063  1
  B  B29  1  0.500000  0.518422  0.713937  1
  B  B30  1  0.500000  0.596952  0.026483  1
  B  B31  1  0.500000  0.403048  0.973517  1
  B  B32  1  0.500000  0.097541  0.473756  1
  B  B33  1  0.500000  0.902459  0.526244  1
  Os  Os34  1  0.000000  0.639656  0.318930  1
  Os  Os35  1  0.000000  0.360344  0.681070  1
