# generated using pymatgen
data_NaAgF5
_symmetry_space_group_name_H-M   'P 1'
_cell_length_a   10.12784600
_cell_length_b   5.70960547
_cell_length_c   8.32581360
_cell_angle_alpha   69.03830278
_cell_angle_beta   90.00000000
_cell_angle_gamma   90.00000000
_symmetry_Int_Tables_number   1
_chemical_formula_structural   NaAgF5
_chemical_formula_sum   'Na4 Ag4 F20'
_cell_volume   449.58617315
_cell_formula_units_Z   4
loop_
 _symmetry_equiv_pos_site_id
 _symmetry_equiv_pos_as_xyz
  1  'x, y, z'
loop_
 _atom_site_type_symbol
 _atom_site_label
 _atom_site_symmetry_multiplicity
 _atom_site_fract_x
 _atom_site_fract_y
 _atom_site_fract_z
 _atom_site_occupancy
  Na  Na0  1  0.009959  0.516362  0.744816  1
  Na  Na1  1  0.509959  0.483638  0.755184  1
  Na  Na2  1  0.990041  0.483638  0.255184  1
  Na  Na3  1  0.490041  0.516362  0.244816  1
  Ag  Ag4  1  0.752571  0.123875  0.595037  1
  Ag  Ag5  1  0.252571  0.876125  0.904963  1
  Ag  Ag6  1  0.247429  0.876125  0.404963  1
  Ag  Ag7  1  0.747429  0.123875  0.095037  1
  F  F8  1  0.879075  0.401824  0.540793  1
  F  F9  1  0.379075  0.598176  0.959207  1
  F  F10  1  0.120925  0.598176  0.459207  1
  F  F11  1  0.620925  0.401824  0.040793  1
  F  F12  1  0.607188  0.365627  0.518228  1
  F  F13  1  0.107188  0.634373  0.981772  1
  F  F14  1  0.392812  0.634373  0.481772  1
  F  F15  1  0.892812  0.365627  0.018228  1
  F  F16  1  0.399584  0.108535  0.825132  1
  F  F17  1  0.899584  0.891465  0.674868  1
  F  F18  1  0.600416  0.891465  0.174868  1
  F  F19  1  0.100416  0.108535  0.325132  1
  F  F20  1  0.128554  0.151829  0.857306  1
  F  F21  1  0.628554  0.848171  0.642694  1
  F  F22  1  0.871446  0.848171  0.142694  1
  F  F23  1  0.371446  0.151829  0.357306  1
  F  F24  1  0.723179  0.142897  0.839997  1
  F  F25  1  0.223179  0.857103  0.660003  1
  F  F26  1  0.276821  0.857103  0.160003  1
  F  F27  1  0.776821  0.142897  0.339997  1
