# generated using pymatgen
data_Li3Ca5Ag3
_symmetry_space_group_name_H-M   'P 1'
_cell_length_a   16.21773406
_cell_length_b   16.21773430
_cell_length_c   4.23012100
_cell_angle_alpha   90.00000000
_cell_angle_beta   90.00000000
_cell_angle_gamma   163.98658638
_symmetry_Int_Tables_number   1
_chemical_formula_structural   Li3Ca5Ag3
_chemical_formula_sum   'Li3 Ca5 Ag3'
_cell_volume   306.92031962
_cell_formula_units_Z   1
loop_
 _symmetry_equiv_pos_site_id
 _symmetry_equiv_pos_as_xyz
  1  'x, y, z'
loop_
 _atom_site_type_symbol
 _atom_site_label
 _atom_site_symmetry_multiplicity
 _atom_site_fract_x
 _atom_site_fract_y
 _atom_site_fract_z
 _atom_site_occupancy
  Li  Li0  1  0.726142  0.273856  0.000000  1
  Li  Li1  1  0.914707  0.085292  0.500001  1
  Li  Li2  1  0.540647  0.459351  0.500001  1
  Ca  Ca3  1  0.999740  0.000260  0.000000  1
  Ca  Ca4  1  0.616966  0.383032  0.000000  1
  Ca  Ca5  1  0.381159  0.618839  0.000000  1
  Ca  Ca6  1  0.804972  0.195026  0.500001  1
  Ca  Ca7  1  0.193746  0.806252  0.500001  1
  Ag  Ag8  1  0.275488  0.724510  0.000000  1
  Ag  Ag9  1  0.458028  0.541970  0.500001  1
  Ag  Ag10  1  0.088399  0.911600  0.500001  1
