# generated using pymatgen
data_Er8GePd7Pt17
_symmetry_space_group_name_H-M   'P 1'
_cell_length_a   8.31731406
_cell_length_b   8.32215300
_cell_length_c   8.33677906
_cell_angle_alpha   90.00383827
_cell_angle_beta   89.98647257
_cell_angle_gamma   89.99929778
_symmetry_Int_Tables_number   1
_chemical_formula_structural   Er8GePd7Pt17
_chemical_formula_sum   'Er8 Ge1 Pd7 Pt17'
_cell_volume   577.05482378
_cell_formula_units_Z   1
loop_
 _symmetry_equiv_pos_site_id
 _symmetry_equiv_pos_as_xyz
  1  'x, y, z'
loop_
 _atom_site_type_symbol
 _atom_site_label
 _atom_site_symmetry_multiplicity
 _atom_site_fract_x
 _atom_site_fract_y
 _atom_site_fract_z
 _atom_site_occupancy
  Er  Er0  1  0.253033  0.253021  0.253259  1
  Er  Er1  1  0.746706  0.746486  0.746651  1
  Er  Er2  1  0.746641  0.746710  0.253379  1
  Er  Er3  1  0.747033  0.253501  0.746894  1
  Er  Er4  1  0.252969  0.253181  0.746776  1
  Er  Er5  1  0.253344  0.746955  0.253474  1
  Er  Er6  1  0.253296  0.746818  0.746551  1
  Er  Er7  1  0.746958  0.253269  0.253155  1
  Ge  Ge8  1  0.000141  0.000261  0.000114  1
  Pd  Pd9  1  0.500104  0.999976  0.739866  1
  Pd  Pd10  1  0.740379  0.999973  0.500055  1
  Pd  Pd11  1  0.999968  0.500048  0.259856  1
  Pd  Pd12  1  0.999958  0.500058  0.740230  1
  Pd  Pd13  1  0.000010  0.710701  0.999965  1
  Pd  Pd14  1  0.999795  0.999824  0.289925  1
  Pd  Pd15  1  0.999836  0.999840  0.710072  1
  Pt  Pt16  1  0.259427  0.499821  0.999997  1
  Pt  Pt17  1  0.740627  0.499836  0.999974  1
  Pt  Pt18  1  0.000111  0.259707  0.500035  1
  Pt  Pt19  1  0.500003  0.259521  0.000030  1
  Pt  Pt20  1  0.000131  0.740134  0.500032  1
  Pt  Pt21  1  0.500002  0.740117  0.000029  1
  Pt  Pt22  1  0.500059  0.999982  0.260217  1
  Pt  Pt23  1  0.259555  0.999961  0.499992  1
  Pt  Pt24  1  0.252580  0.500049  0.500059  1
  Pt  Pt25  1  0.747392  0.500044  0.500057  1
  Pt  Pt26  1  0.499936  0.252872  0.499883  1
  Pt  Pt27  1  0.499930  0.747197  0.499882  1
  Pt  Pt28  1  0.500053  0.500052  0.252991  1
  Pt  Pt29  1  0.500040  0.500032  0.746935  1
  Pt  Pt30  1  0.289210  0.999757  0.999833  1
  Pt  Pt31  1  0.710774  0.999785  0.999872  1
  Pt  Pt32  1  0.999999  0.290511  0.999962  1
