# generated using pymatgen
data_Tb6Al24NiRu7
_symmetry_space_group_name_H-M   'P 1'
_cell_length_a   8.81422600
_cell_length_b   8.81512309
_cell_length_c   9.55447699
_cell_angle_alpha   90.25662942
_cell_angle_beta   90.00000000
_cell_angle_gamma   119.99663362
_symmetry_Int_Tables_number   1
_chemical_formula_structural   Tb6Al24NiRu7
_chemical_formula_sum   'Tb6 Al24 Ni1 Ru7'
_cell_volume   642.92310952
_cell_formula_units_Z   1
loop_
 _symmetry_equiv_pos_site_id
 _symmetry_equiv_pos_as_xyz
  1  'x, y, z'
loop_
 _atom_site_type_symbol
 _atom_site_label
 _atom_site_symmetry_multiplicity
 _atom_site_fract_x
 _atom_site_fract_y
 _atom_site_fract_z
 _atom_site_occupancy
  Tb  Tb0  1  0.384143  0.192485  0.249816  1
  Tb  Tb1  1  0.808342  0.192485  0.249816  1
  Tb  Tb2  1  0.806327  0.612655  0.250235  1
  Tb  Tb3  1  0.615857  0.807515  0.750184  1
  Tb  Tb4  1  0.191658  0.807515  0.750184  1
  Tb  Tb5  1  0.193673  0.387345  0.749765  1
  Al  Al6  1  0.440032  0.880065  0.252502  1
  Al  Al7  1  0.123101  0.561538  0.250674  1
  Al  Al8  1  0.438437  0.561538  0.250674  1
  Al  Al9  1  0.559968  0.119935  0.747498  1
  Al  Al10  1  0.876899  0.438462  0.749326  1
  Al  Al11  1  0.561563  0.438462  0.749326  1
  Al  Al12  1  0.162282  0.835989  0.423106  1
  Al  Al13  1  0.163151  0.326303  0.422568  1
  Al  Al14  1  0.673706  0.835989  0.423106  1
  Al  Al15  1  0.837718  0.164011  0.576894  1
  Al  Al16  1  0.836849  0.673697  0.577432  1
  Al  Al17  1  0.326294  0.164011  0.576894  1
  Al  Al18  1  0.836472  0.162732  0.923524  1
  Al  Al19  1  0.836888  0.673775  0.922899  1
  Al  Al20  1  0.326261  0.162732  0.923524  1
  Al  Al21  1  0.163528  0.837268  0.076476  1
  Al  Al22  1  0.163112  0.326225  0.077101  1
  Al  Al23  1  0.673739  0.837268  0.076476  1
  Al  Al24  1  0.334615  0.669231  0.515544  1
  Al  Al25  1  0.665385  0.330769  0.484456  1
  Al  Al26  1  0.666392  0.332782  0.016069  1
  Al  Al27  1  0.333608  0.667218  0.983931  1
  Al  Al28  1  0.000204  0.000408  0.249957  1
  Al  Al29  1  0.999796  0.999592  0.750043  1
  Ni  Ni30  1  0.500000  0.000000  0.500000  1
  Ru  Ru31  1  0.000000  0.000000  0.500000  1
  Ru  Ru32  1  0.000000  0.000000  0.000000  1
  Ru  Ru33  1  0.000000  0.500000  0.500000  1
  Ru  Ru34  1  0.500000  0.500000  0.500000  1
  Ru  Ru35  1  0.500000  0.000000  0.000000  1
  Ru  Ru36  1  0.000000  0.500000  0.000000  1
  Ru  Ru37  1  0.500000  0.500000  0.000000  1
