# generated using pymatgen
data_Zn22CoNiRu
_symmetry_space_group_name_H-M   'P 1'
_cell_length_a   7.72549539
_cell_length_b   7.72549589
_cell_length_c   7.73508074
_cell_angle_alpha   72.00249941
_cell_angle_beta   72.00249721
_cell_angle_gamma   57.80894317
_symmetry_Int_Tables_number   1
_chemical_formula_structural   Zn22CoNiRu
_chemical_formula_sum   'Zn22 Co1 Ni1 Ru1'
_cell_volume   365.54497436
_cell_formula_units_Z   1
loop_
 _symmetry_equiv_pos_site_id
 _symmetry_equiv_pos_as_xyz
  1  'x, y, z'
loop_
 _atom_site_type_symbol
 _atom_site_label
 _atom_site_symmetry_multiplicity
 _atom_site_fract_x
 _atom_site_fract_y
 _atom_site_fract_z
 _atom_site_occupancy
  Zn  Zn0  1  0.349661  0.738041  0.309343  1
  Zn  Zn1  1  0.650856  0.261682  0.690158  1
  Zn  Zn2  1  0.261682  0.650856  0.690158  1
  Zn  Zn3  1  0.738041  0.349661  0.309343  1
  Zn  Zn4  1  0.676148  0.324637  0.000168  1
  Zn  Zn5  1  0.324637  0.676148  0.000168  1
  Zn  Zn6  1  0.827842  0.827842  0.788614  1
  Zn  Zn7  1  0.171712  0.171712  0.211579  1
  Zn  Zn8  1  0.976546  0.976546  0.173850  1
  Zn  Zn9  1  0.023127  0.023127  0.826892  1
  Zn  Zn10  1  0.353026  0.353026  0.271939  1
  Zn  Zn11  1  0.647215  0.647215  0.728579  1
  Zn  Zn12  1  0.687410  0.687410  0.373296  1
  Zn  Zn13  1  0.312671  0.312671  0.625850  1
  Zn  Zn14  1  0.658763  0.024970  0.461884  1
  Zn  Zn15  1  0.340647  0.975641  0.538329  1
  Zn  Zn16  1  0.975641  0.340647  0.538329  1
  Zn  Zn17  1  0.024970  0.658763  0.461884  1
  Zn  Zn18  1  0.614984  0.999085  0.099624  1
  Zn  Zn19  1  0.385611  0.000117  0.900321  1
  Zn  Zn20  1  0.000117  0.385611  0.900321  1
  Zn  Zn21  1  0.999085  0.614984  0.099624  1
  Co  Co22  1  0.657313  0.657313  0.054331  1
  Ni  Ni23  1  0.342095  0.342095  0.945693  1
  Ru  Ru24  1  0.000199  0.000199  0.499722  1
