# generated using pymatgen
data_LaPr(AlAu)2
_symmetry_space_group_name_H-M   'P 1'
_cell_length_a   4.66757200
_cell_length_b   7.66455800
_cell_length_c   7.79011300
_cell_angle_alpha   90.00000000
_cell_angle_beta   90.00000000
_cell_angle_gamma   90.00000000
_symmetry_Int_Tables_number   1
_chemical_formula_structural   LaPr(AlAu)2
_chemical_formula_sum   'La2 Pr2 Al4 Au4'
_cell_volume   278.69032904
_cell_formula_units_Z   2
loop_
 _symmetry_equiv_pos_site_id
 _symmetry_equiv_pos_as_xyz
  1  'x, y, z'
loop_
 _atom_site_type_symbol
 _atom_site_label
 _atom_site_symmetry_multiplicity
 _atom_site_fract_x
 _atom_site_fract_y
 _atom_site_fract_z
 _atom_site_occupancy
  La  La0  1  0.250000  0.011257  0.306646  1
  La  La1  1  0.250000  0.511257  0.193354  1
  Pr  Pr2  1  0.750000  0.987558  0.696530  1
  Pr  Pr3  1  0.750000  0.487558  0.803470  1
  Al  Al4  1  0.250000  0.175003  0.913908  1
  Al  Al5  1  0.250000  0.675003  0.586092  1
  Al  Al6  1  0.750000  0.825002  0.081134  1
  Al  Al7  1  0.750000  0.325002  0.418866  1
  Au  Au8  1  0.250000  0.305043  0.591475  1
  Au  Au9  1  0.250000  0.805043  0.908525  1
  Au  Au10  1  0.750000  0.696137  0.411191  1
  Au  Au11  1  0.750000  0.196137  0.088809  1
