# generated using pymatgen
data_Hf3Zr6In14Co6Tc
_symmetry_space_group_name_H-M   'P 1'
_cell_length_a   9.44274744
_cell_length_b   9.46276707
_cell_length_c   9.44894278
_cell_angle_alpha   60.11451383
_cell_angle_beta   60.02167972
_cell_angle_gamma   60.06995624
_symmetry_Int_Tables_number   1
_chemical_formula_structural   Hf3Zr6In14Co6Tc
_chemical_formula_sum   'Hf3 Zr6 In14 Co6 Tc1'
_cell_volume   597.94326277
_cell_formula_units_Z   1
loop_
 _symmetry_equiv_pos_site_id
 _symmetry_equiv_pos_as_xyz
  1  'x, y, z'
loop_
 _atom_site_type_symbol
 _atom_site_label
 _atom_site_symmetry_multiplicity
 _atom_site_fract_x
 _atom_site_fract_y
 _atom_site_fract_z
 _atom_site_occupancy
  Hf  Hf0  1  0.119274  0.642503  0.118949  1
  Hf  Hf1  1  0.359361  0.879448  0.879956  1
  Hf  Hf2  1  0.881234  0.879448  0.879956  1
  Zr  Zr3  1  0.633497  0.121531  0.122461  1
  Zr  Zr4  1  0.500506  0.499001  0.499987  1
  Zr  Zr5  1  0.878786  0.876940  0.365488  1
  Zr  Zr6  1  0.122512  0.121531  0.122461  1
  Zr  Zr7  1  0.878854  0.364782  0.877509  1
  Zr  Zr8  1  0.122255  0.121032  0.634458  1
  In  In9  1  0.501036  0.841347  0.156581  1
  In  In10  1  0.500637  0.840020  0.500658  1
  In  In11  1  0.500319  0.157307  0.500063  1
  In  In12  1  0.499815  0.499567  0.841791  1
  In  In13  1  0.159991  0.499192  0.499219  1
  In  In14  1  0.842311  0.157307  0.500063  1
  In  In15  1  0.158685  0.840020  0.500658  1
  In  In16  1  0.500546  0.156450  0.842458  1
  In  In17  1  0.158827  0.499567  0.841791  1
  In  In18  1  0.500121  0.499854  0.158006  1
  In  In19  1  0.841597  0.499192  0.499219  1
  In  In20  1  0.842020  0.499854  0.158006  1
  In  In21  1  0.247551  0.256538  0.248361  1
  In  In22  1  0.747152  0.752536  0.753159  1
  Co  Co23  1  0.778544  0.776466  0.221798  1
  Co  Co24  1  0.223192  0.776466  0.221798  1
  Co  Co25  1  0.222683  0.776429  0.778204  1
  Co  Co26  1  0.223286  0.221642  0.777172  1
  Co  Co27  1  0.777899  0.221642  0.777172  1
  Co  Co28  1  0.777455  0.222440  0.222651  1
  Tc  Tc29  1  0.000053  0.999947  0.999947  1
