# generated using pymatgen
data_Cs2NdEu3(CuSe4)2
_symmetry_space_group_name_H-M   'P 1'
_cell_length_a   4.35350900
_cell_length_b   7.85934768
_cell_length_c   14.80402961
_cell_angle_alpha   89.59053266
_cell_angle_beta   90.00000000
_cell_angle_gamma   106.07907201
_symmetry_Int_Tables_number   1
_chemical_formula_structural   Cs2NdEu3(CuSe4)2
_chemical_formula_sum   'Cs2 Nd1 Eu3 Cu2 Se8'
_cell_volume   486.70208630
_cell_formula_units_Z   1
loop_
 _symmetry_equiv_pos_site_id
 _symmetry_equiv_pos_as_xyz
  1  'x, y, z'
loop_
 _atom_site_type_symbol
 _atom_site_label
 _atom_site_symmetry_multiplicity
 _atom_site_fract_x
 _atom_site_fract_y
 _atom_site_fract_z
 _atom_site_occupancy
  Cs  Cs0  1  0.104873  0.209746  0.252284  1
  Cs  Cs1  1  0.894898  0.789798  0.746761  1
  Nd  Nd2  1  0.633705  0.267412  0.942911  1
  Eu  Eu3  1  0.367234  0.734467  0.055929  1
  Eu  Eu4  1  0.368136  0.736271  0.445311  1
  Eu  Eu5  1  0.631756  0.263516  0.556034  1
  Cu  Cu6  1  0.831766  0.663533  0.249497  1
  Cu  Cu7  1  0.166792  0.333583  0.750683  1
  Se  Se8  1  0.003823  0.007645  0.999256  1
  Se  Se9  1  0.743891  0.487783  0.109973  1
  Se  Se10  1  0.413856  0.827711  0.249007  1
  Se  Se11  1  0.746509  0.493019  0.389593  1
  Se  Se12  1  0.999843  0.999685  0.500618  1
  Se  Se13  1  0.253202  0.506404  0.611065  1
  Se  Se14  1  0.583293  0.166587  0.752151  1
  Se  Se15  1  0.256419  0.512837  0.888927  1
