# generated using pymatgen
data_AcEu3(InPt)4
_symmetry_space_group_name_H-M   'P 1'
_cell_length_a   4.51625800
_cell_length_b   7.57436579
_cell_length_c   8.66608372
_cell_angle_alpha   89.83653917
_cell_angle_beta   90.00000000
_cell_angle_gamma   90.00000000
_symmetry_Int_Tables_number   1
_chemical_formula_structural   AcEu3(InPt)4
_chemical_formula_sum   'Ac1 Eu3 In4 Pt4'
_cell_volume   296.44636646
_cell_formula_units_Z   1
loop_
 _symmetry_equiv_pos_site_id
 _symmetry_equiv_pos_as_xyz
  1  'x, y, z'
loop_
 _atom_site_type_symbol
 _atom_site_label
 _atom_site_symmetry_multiplicity
 _atom_site_fract_x
 _atom_site_fract_y
 _atom_site_fract_z
 _atom_site_occupancy
  Ac  Ac0  1  0.750000  0.467268  0.823488  1
  Eu  Eu1  1  0.250000  0.034179  0.321571  1
  Eu  Eu2  1  0.750000  0.966860  0.676664  1
  Eu  Eu3  1  0.250000  0.534923  0.185152  1
  In  In4  1  0.250000  0.651175  0.558918  1
  In  In5  1  0.250000  0.136410  0.938566  1
  In  In6  1  0.750000  0.353246  0.431784  1
  In  In7  1  0.750000  0.856887  0.066933  1
  Pt  Pt8  1  0.250000  0.764123  0.874016  1
  Pt  Pt9  1  0.250000  0.267483  0.624476  1
  Pt  Pt10  1  0.750000  0.734006  0.375748  1
  Pt  Pt11  1  0.750000  0.233439  0.122684  1
