# generated using pymatgen
data_La8Er12CdSn15
_symmetry_space_group_name_H-M   'P 1'
_cell_length_a   8.07830800
_cell_length_b   8.31371595
_cell_length_c   15.58818300
_cell_angle_alpha   90.00000000
_cell_angle_beta   90.00000000
_cell_angle_gamma   90.12553273
_symmetry_Int_Tables_number   1
_chemical_formula_structural   La8Er12CdSn15
_chemical_formula_sum   'La8 Er12 Cd1 Sn15'
_cell_volume   1046.91167497
_cell_formula_units_Z   1
loop_
 _symmetry_equiv_pos_site_id
 _symmetry_equiv_pos_as_xyz
  1  'x, y, z'
loop_
 _atom_site_type_symbol
 _atom_site_label
 _atom_site_symmetry_multiplicity
 _atom_site_fract_x
 _atom_site_fract_y
 _atom_site_fract_z
 _atom_site_occupancy
  La  La0  1  0.509036  0.314916  0.908580  1
  La  La1  1  0.010946  0.178267  0.596888  1
  La  La2  1  0.490313  0.678496  0.403807  1
  La  La3  1  0.987803  0.823633  0.097214  1
  La  La4  1  0.490313  0.678496  0.096193  1
  La  La5  1  0.987803  0.823633  0.402786  1
  La  La6  1  0.509036  0.314916  0.591420  1
  La  La7  1  0.010946  0.178267  0.903112  1
  Er  Er8  1  0.352361  0.838774  0.877667  1
  Er  Er9  1  0.853172  0.664920  0.623436  1
  Er  Er10  1  0.647724  0.162453  0.376365  1
  Er  Er11  1  0.147814  0.336124  0.125567  1
  Er  Er12  1  0.647724  0.162453  0.123635  1
  Er  Er13  1  0.147814  0.336124  0.374433  1
  Er  Er14  1  0.352361  0.838774  0.622333  1
  Er  Er15  1  0.853172  0.664920  0.876564  1
  Er  Er16  1  0.187834  0.506381  0.750000  1
  Er  Er17  1  0.689108  0.997899  0.750000  1
  Er  Er18  1  0.812843  0.498225  0.250000  1
  Er  Er19  1  0.312392  0.001006  0.250000  1
  Cd  Cd20  1  0.550962  0.621448  0.750000  1
  Sn  Sn21  1  0.307321  0.042028  0.042852  1
  Sn  Sn22  1  0.815508  0.457588  0.458477  1
  Sn  Sn23  1  0.692052  0.957373  0.542978  1
  Sn  Sn24  1  0.188912  0.540330  0.956877  1
  Sn  Sn25  1  0.692052  0.957373  0.957022  1
  Sn  Sn26  1  0.188912  0.540330  0.543123  1
  Sn  Sn27  1  0.307321  0.042028  0.457148  1
  Sn  Sn28  1  0.815508  0.457588  0.041523  1
  Sn  Sn29  1  0.052924  0.876378  0.750000  1
  Sn  Sn30  1  0.451707  0.372693  0.250000  1
  Sn  Sn31  1  0.948491  0.126124  0.250000  1
  Sn  Sn32  1  0.318827  0.142682  0.750000  1
  Sn  Sn33  1  0.808190  0.366380  0.750000  1
  Sn  Sn34  1  0.679012  0.858613  0.250000  1
  Sn  Sn35  1  0.181787  0.642365  0.250000  1
