# generated using pymatgen
data_Hf3Al2CoC
_symmetry_space_group_name_H-M   'P 1'
_cell_length_a   8.49944277
_cell_length_b   8.49979265
_cell_length_c   8.49941501
_cell_angle_alpha   59.99670883
_cell_angle_beta   59.99615286
_cell_angle_gamma   59.99654363
_symmetry_Int_Tables_number   1
_chemical_formula_structural   Hf3Al2CoC
_chemical_formula_sum   'Hf12 Al8 Co4 C4'
_cell_volume   434.14824223
_cell_formula_units_Z   4
loop_
 _symmetry_equiv_pos_site_id
 _symmetry_equiv_pos_as_xyz
  1  'x, y, z'
loop_
 _atom_site_type_symbol
 _atom_site_label
 _atom_site_symmetry_multiplicity
 _atom_site_fract_x
 _atom_site_fract_y
 _atom_site_fract_z
 _atom_site_occupancy
  Hf  Hf0  1  0.553093  0.946924  0.553092  1
  Hf  Hf1  1  0.303059  0.696898  0.696947  1
  Hf  Hf2  1  0.696940  0.303080  0.303081  1
  Hf  Hf3  1  0.303063  0.696931  0.303068  1
  Hf  Hf4  1  0.696944  0.696898  0.303063  1
  Hf  Hf5  1  0.303078  0.303083  0.696940  1
  Hf  Hf6  1  0.553056  0.553102  0.946937  1
  Hf  Hf7  1  0.946941  0.553102  0.553053  1
  Hf  Hf8  1  0.553060  0.946920  0.946919  1
  Hf  Hf9  1  0.946922  0.946917  0.553060  1
  Hf  Hf10  1  0.696907  0.303076  0.696908  1
  Hf  Hf11  1  0.946937  0.553069  0.946932  1
  Al  Al12  1  0.920528  0.920613  0.920528  1
  Al  Al13  1  0.011763  0.329376  0.329460  1
  Al  Al14  1  0.329458  0.011684  0.329459  1
  Al  Al15  1  0.329463  0.329373  0.011766  1
  Al  Al16  1  0.920542  0.238316  0.920541  1
  Al  Al17  1  0.920537  0.920627  0.238234  1
  Al  Al18  1  0.238237  0.920624  0.920540  1
  Al  Al19  1  0.329472  0.329387  0.329472  1
  Co  Co20  1  0.125000  0.125000  0.125000  1
  Co  Co21  1  0.625000  0.125000  0.125000  1
  Co  Co22  1  0.125000  0.625000  0.125000  1
  Co  Co23  1  0.125000  0.125000  0.625000  1
  C  C24  1  0.625000  0.625000  0.625000  1
  C  C25  1  0.125000  0.625000  0.625000  1
  C  C26  1  0.625000  0.125000  0.625000  1
  C  C27  1  0.625000  0.625000  0.125000  1
