# generated using pymatgen
data_TbHo2Hg5
_symmetry_space_group_name_H-M   'P 1'
_cell_length_a   6.38041286
_cell_length_b   6.38041221
_cell_length_c   10.16441200
_cell_angle_alpha   90.00000000
_cell_angle_beta   90.00000000
_cell_angle_gamma   105.30909061
_symmetry_Int_Tables_number   1
_chemical_formula_structural   TbHo2Hg5
_chemical_formula_sum   'Tb2 Ho4 Hg10'
_cell_volume   399.10669090
_cell_formula_units_Z   2
loop_
 _symmetry_equiv_pos_site_id
 _symmetry_equiv_pos_as_xyz
  1  'x, y, z'
loop_
 _atom_site_type_symbol
 _atom_site_label
 _atom_site_symmetry_multiplicity
 _atom_site_fract_x
 _atom_site_fract_y
 _atom_site_fract_z
 _atom_site_occupancy
  Tb  Tb0  1  0.213044  0.786956  0.500000  1
  Tb  Tb1  1  0.213044  0.786956  0.000000  1
  Ho  Ho2  1  0.572590  0.570883  0.250000  1
  Ho  Ho3  1  0.429117  0.427410  0.750000  1
  Ho  Ho4  1  0.786457  0.213543  0.500000  1
  Ho  Ho5  1  0.786457  0.213543  0.000000  1
  Hg  Hg6  1  0.973833  0.974234  0.250000  1
  Hg  Hg7  1  0.025766  0.026167  0.750000  1
  Hg  Hg8  1  0.293401  0.293840  0.030037  1
  Hg  Hg9  1  0.706160  0.706599  0.969963  1
  Hg  Hg10  1  0.293401  0.293840  0.469963  1
  Hg  Hg11  1  0.706160  0.706599  0.530037  1
  Hg  Hg12  1  0.482385  0.040163  0.250000  1
  Hg  Hg13  1  0.959837  0.517615  0.750000  1
  Hg  Hg14  1  0.520108  0.961759  0.750000  1
  Hg  Hg15  1  0.038241  0.479892  0.250000  1
