# generated using pymatgen
data_PdOF8
_symmetry_space_group_name_H-M   'P 1'
_cell_length_a   5.84619600
_cell_length_b   6.93454951
_cell_length_c   10.29895668
_cell_angle_alpha   48.81706720
_cell_angle_beta   90.00000000
_cell_angle_gamma   90.00000000
_symmetry_Int_Tables_number   1
_chemical_formula_structural   PdOF8
_chemical_formula_sum   'Pd2 O2 F16'
_cell_volume   314.23565925
_cell_formula_units_Z   2
loop_
 _symmetry_equiv_pos_site_id
 _symmetry_equiv_pos_as_xyz
  1  'x, y, z'
loop_
 _atom_site_type_symbol
 _atom_site_label
 _atom_site_symmetry_multiplicity
 _atom_site_fract_x
 _atom_site_fract_y
 _atom_site_fract_z
 _atom_site_occupancy
  Pd  Pd0  1  0.486641  0.000000  0.250000  1
  Pd  Pd1  1  0.513359  0.000000  0.750000  1
  O  O2  1  0.881903  0.500000  0.750000  1
  O  O3  1  0.118097  0.500000  0.250000  1
  F  F4  1  0.026824  0.382996  0.711710  1
  F  F5  1  0.514272  0.313188  0.705609  1
  F  F6  1  0.280838  0.128575  0.581211  1
  F  F7  1  0.742014  0.130989  0.579039  1
  F  F8  1  0.973176  0.382996  0.211710  1
  F  F9  1  0.485728  0.313188  0.205609  1
  F  F10  1  0.257986  0.869011  0.420961  1
  F  F11  1  0.719162  0.871425  0.418789  1
  F  F12  1  0.257986  0.130989  0.079039  1
  F  F13  1  0.719162  0.128575  0.081211  1
  F  F14  1  0.485728  0.686812  0.294391  1
  F  F15  1  0.973176  0.617004  0.288290  1
  F  F16  1  0.280838  0.871425  0.918789  1
  F  F17  1  0.742014  0.869011  0.920961  1
  F  F18  1  0.514272  0.686812  0.794391  1
  F  F19  1  0.026824  0.617004  0.788290  1
