# generated using pymatgen
data_Zr10Bi6As
_symmetry_space_group_name_H-M   'P 1'
_cell_length_a   5.97426100
_cell_length_b   8.74561448
_cell_length_c   8.74687103
_cell_angle_alpha   119.99526157
_cell_angle_beta   90.00015181
_cell_angle_gamma   89.99970170
_symmetry_Int_Tables_number   1
_chemical_formula_structural   Zr10Bi6As
_chemical_formula_sum   'Zr10 Bi6 As1'
_cell_volume   395.80257036
_cell_formula_units_Z   1
loop_
 _symmetry_equiv_pos_site_id
 _symmetry_equiv_pos_as_xyz
  1  'x, y, z'
loop_
 _atom_site_type_symbol
 _atom_site_label
 _atom_site_symmetry_multiplicity
 _atom_site_fract_x
 _atom_site_fract_y
 _atom_site_fract_z
 _atom_site_occupancy
  Zr  Zr0  1  0.500002  0.333331  0.666660  1
  Zr  Zr1  1  0.500002  0.666671  0.333340  1
  Zr  Zr2  1  0.000001  0.666689  0.333376  1
  Zr  Zr3  1  0.000001  0.333313  0.666624  1
  Zr  Zr4  1  0.769235  0.252072  0.000000  1
  Zr  Zr5  1  0.769217  0.747861  0.747902  1
  Zr  Zr6  1  0.769217  0.999959  0.252098  1
  Zr  Zr7  1  0.230771  0.747928  0.000000  1
  Zr  Zr8  1  0.230777  0.252138  0.252101  1
  Zr  Zr9  1  0.230777  0.000037  0.747899  1
  Bi  Bi10  1  0.748829  0.607829  0.000000  1
  Bi  Bi11  1  0.748828  0.392126  0.392184  1
  Bi  Bi12  1  0.748828  0.999943  0.607816  1
  Bi  Bi13  1  0.251174  0.392171  0.000000  1
  Bi  Bi14  1  0.251171  0.607873  0.607816  1
  Bi  Bi15  1  0.251171  0.000058  0.392184  1
  As  As16  1  0.500001  0.000002  0.000000  1
