# generated using pymatgen
data_Ce4VTc3H20
_symmetry_space_group_name_H-M   'P 1'
_cell_length_a   4.50570125
_cell_length_b   4.71144814
_cell_length_c   11.74050600
_cell_angle_alpha   89.79693570
_cell_angle_beta   88.99056726
_cell_angle_gamma   89.94995060
_symmetry_Int_Tables_number   1
_chemical_formula_structural   Ce4VTc3H20
_chemical_formula_sum   'Ce4 V1 Tc3 H20'
_cell_volume   249.19157073
_cell_formula_units_Z   1
loop_
 _symmetry_equiv_pos_site_id
 _symmetry_equiv_pos_as_xyz
  1  'x, y, z'
loop_
 _atom_site_type_symbol
 _atom_site_label
 _atom_site_symmetry_multiplicity
 _atom_site_fract_x
 _atom_site_fract_y
 _atom_site_fract_z
 _atom_site_occupancy
  Ce  Ce0  1  0.277032  0.249653  0.650225  1
  Ce  Ce1  1  0.755925  0.250795  0.353469  1
  Ce  Ce2  1  0.225429  0.749964  0.140038  1
  Ce  Ce3  1  0.735175  0.750319  0.855141  1
  V  V4  1  0.743252  0.751313  0.569495  1
  Tc  Tc5  1  0.296780  0.246826  0.911471  1
  Tc  Tc6  1  0.789810  0.253563  0.088575  1
  Tc  Tc7  1  0.187591  0.747602  0.420590  1
  H  H8  1  0.491317  0.522960  0.500209  1
  H  H9  1  0.998687  0.011023  0.507768  1
  H  H10  1  0.008217  0.482738  0.994148  1
  H  H11  1  0.510709  0.017516  0.003931  1
  H  H12  1  0.195656  0.981004  0.816731  1
  H  H13  1  0.680339  0.518015  0.184059  1
  H  H14  1  0.302133  0.000042  0.320223  1
  H  H15  1  0.815045  0.506876  0.678639  1
  H  H16  1  0.180974  0.505949  0.815542  1
  H  H17  1  0.667002  0.995244  0.185186  1
  H  H18  1  0.294316  0.491921  0.320946  1
  H  H19  1  0.813477  0.996229  0.678122  1
  H  H20  1  0.604696  0.251993  0.822948  1
  H  H21  1  0.090878  0.248558  0.176472  1
  H  H22  1  0.895852  0.751569  0.328413  1
  H  H23  1  0.441869  0.749996  0.671152  1
  H  H24  1  0.004997  0.019431  0.994384  1
  H  H25  1  0.506842  0.481318  0.003421  1
  H  H26  1  0.491462  0.980015  0.500518  1
  H  H27  1  0.994538  0.487568  0.508187  1
