# generated using pymatgen
data_Dy3YSc3AlPt4
_symmetry_space_group_name_H-M   'P 1'
_cell_length_a   4.52750300
_cell_length_b   7.04560913
_cell_length_c   8.30202804
_cell_angle_alpha   86.90490243
_cell_angle_beta   90.00000000
_cell_angle_gamma   90.00000000
_symmetry_Int_Tables_number   1
_chemical_formula_structural   Dy3YSc3AlPt4
_chemical_formula_sum   'Dy3 Y1 Sc3 Al1 Pt4'
_cell_volume   264.44022496
_cell_formula_units_Z   1
loop_
 _symmetry_equiv_pos_site_id
 _symmetry_equiv_pos_as_xyz
  1  'x, y, z'
loop_
 _atom_site_type_symbol
 _atom_site_label
 _atom_site_symmetry_multiplicity
 _atom_site_fract_x
 _atom_site_fract_y
 _atom_site_fract_z
 _atom_site_occupancy
  Dy  Dy0  1  0.750000  0.522627  0.815214  1
  Dy  Dy1  1  0.750000  0.040582  0.671950  1
  Dy  Dy2  1  0.250000  0.986861  0.340775  1
  Y  Y3  1  0.250000  0.468806  0.184153  1
  Sc  Sc4  1  0.250000  0.864561  0.928152  1
  Sc  Sc5  1  0.750000  0.132881  0.070278  1
  Sc  Sc6  1  0.750000  0.637475  0.435769  1
  Al  Al7  1  0.250000  0.359850  0.568076  1
  Pt  Pt8  1  0.250000  0.728910  0.614429  1
  Pt  Pt9  1  0.750000  0.262935  0.383604  1
  Pt  Pt10  1  0.750000  0.748987  0.100163  1
  Pt  Pt11  1  0.250000  0.245526  0.887436  1
