# generated using pymatgen
data_YTh7(Si3Os)4
_symmetry_space_group_name_H-M   'P 1'
_cell_length_a   8.27530100
_cell_length_b   8.27530085
_cell_length_c   8.29411500
_cell_angle_alpha   90.00000000
_cell_angle_beta   90.00000000
_cell_angle_gamma   119.99999662
_symmetry_Int_Tables_number   1
_chemical_formula_structural   YTh7(Si3Os)4
_chemical_formula_sum   'Y1 Th7 Si12 Os4'
_cell_volume   491.89033571
_cell_formula_units_Z   1
loop_
 _symmetry_equiv_pos_site_id
 _symmetry_equiv_pos_as_xyz
  1  'x, y, z'
loop_
 _atom_site_type_symbol
 _atom_site_label
 _atom_site_symmetry_multiplicity
 _atom_site_fract_x
 _atom_site_fract_y
 _atom_site_fract_z
 _atom_site_occupancy
  Y  Y0  1  0.000000  0.000000  0.750000  1
  Th  Th1  1  0.500371  0.000741  0.250000  1
  Th  Th2  1  0.499588  0.999176  0.750000  1
  Th  Th3  1  0.999259  0.499629  0.250000  1
  Th  Th4  1  0.000824  0.500412  0.750000  1
  Th  Th5  1  0.500371  0.499629  0.250000  1
  Th  Th6  1  0.499588  0.500412  0.750000  1
  Th  Th7  1  0.000000  0.000000  0.250000  1
  Si  Si8  1  0.165447  0.330894  0.000020  1
  Si  Si9  1  0.834587  0.669174  0.999578  1
  Si  Si10  1  0.669106  0.834553  0.000020  1
  Si  Si11  1  0.834587  0.669174  0.500422  1
  Si  Si12  1  0.330826  0.165413  0.999578  1
  Si  Si13  1  0.165447  0.330894  0.499980  1
  Si  Si14  1  0.165447  0.834553  0.000020  1
  Si  Si15  1  0.330826  0.165413  0.500422  1
  Si  Si16  1  0.834587  0.165413  0.999578  1
  Si  Si17  1  0.669106  0.834553  0.499980  1
  Si  Si18  1  0.834587  0.165413  0.500422  1
  Si  Si19  1  0.165447  0.834553  0.499980  1
  Os  Os20  1  0.333333  0.666667  0.995494  1
  Os  Os21  1  0.666667  0.333333  0.994989  1
  Os  Os22  1  0.666667  0.333333  0.505011  1
  Os  Os23  1  0.333333  0.666667  0.504506  1
