# generated using pymatgen
data_Li2Eu3Er(ZnPt2)2
_symmetry_space_group_name_H-M   'P 1'
_cell_length_a   4.18589800
_cell_length_b   7.21202007
_cell_length_c   8.34981973
_cell_angle_alpha   90.47991467
_cell_angle_beta   90.00000000
_cell_angle_gamma   90.00000000
_symmetry_Int_Tables_number   1
_chemical_formula_structural   Li2Eu3Er(ZnPt2)2
_chemical_formula_sum   'Li2 Eu3 Er1 Zn2 Pt4'
_cell_volume   252.06203175
_cell_formula_units_Z   1
loop_
 _symmetry_equiv_pos_site_id
 _symmetry_equiv_pos_as_xyz
  1  'x, y, z'
loop_
 _atom_site_type_symbol
 _atom_site_label
 _atom_site_symmetry_multiplicity
 _atom_site_fract_x
 _atom_site_fract_y
 _atom_site_fract_z
 _atom_site_occupancy
  Li  Li0  1  0.250000  0.632988  0.560746  1
  Li  Li1  1  0.250000  0.130070  0.938535  1
  Eu  Eu2  1  0.250000  0.039508  0.317158  1
  Eu  Eu3  1  0.250000  0.532727  0.182535  1
  Eu  Eu4  1  0.750000  0.966236  0.687799  1
  Er  Er5  1  0.750000  0.461772  0.818335  1
  Zn  Zn6  1  0.750000  0.372484  0.442863  1
  Zn  Zn7  1  0.750000  0.861589  0.060874  1
  Pt  Pt8  1  0.250000  0.278767  0.628006  1
  Pt  Pt9  1  0.250000  0.745500  0.879302  1
  Pt  Pt10  1  0.750000  0.739681  0.374404  1
  Pt  Pt11  1  0.750000  0.238680  0.109442  1
