# generated using pymatgen
data_ErPa(Al5Fe)4
_symmetry_space_group_name_H-M   'P 1'
_cell_length_a   6.75027847
_cell_length_b   6.75027864
_cell_length_c   8.96453400
_cell_angle_alpha   90.00000000
_cell_angle_beta   90.00000000
_cell_angle_gamma   97.62092785
_symmetry_Int_Tables_number   1
_chemical_formula_structural   ErPa(Al5Fe)4
_chemical_formula_sum   'Er1 Pa1 Al20 Fe4'
_cell_volume   404.87225359
_cell_formula_units_Z   1
loop_
 _symmetry_equiv_pos_site_id
 _symmetry_equiv_pos_as_xyz
  1  'x, y, z'
loop_
 _atom_site_type_symbol
 _atom_site_label
 _atom_site_symmetry_multiplicity
 _atom_site_fract_x
 _atom_site_fract_y
 _atom_site_fract_z
 _atom_site_occupancy
  Er  Er0  1  0.128205  0.871795  0.250000  1
  Pa  Pa1  1  0.874416  0.125584  0.750000  1
  Al  Al2  1  0.624485  0.375515  0.549613  1
  Al  Al3  1  0.373849  0.626151  0.451226  1
  Al  Al4  1  0.373849  0.626151  0.048774  1
  Al  Al5  1  0.624485  0.375515  0.950387  1
  Al  Al6  1  0.226623  0.225226  0.498970  1
  Al  Al7  1  0.774774  0.773377  0.498970  1
  Al  Al8  1  0.774774  0.773377  0.001030  1
  Al  Al9  1  0.226623  0.225226  0.001030  1
  Al  Al10  1  0.842077  0.157923  0.099046  1
  Al  Al11  1  0.156981  0.843019  0.902530  1
  Al  Al12  1  0.156981  0.843019  0.597470  1
  Al  Al13  1  0.842077  0.157923  0.400954  1
  Al  Al14  1  0.864987  0.589552  0.750000  1
  Al  Al15  1  0.135533  0.416047  0.250000  1
  Al  Al16  1  0.410448  0.135013  0.750000  1
  Al  Al17  1  0.583953  0.864467  0.250000  1
  Al  Al18  1  0.220917  0.479397  0.750000  1
  Al  Al19  1  0.779459  0.521803  0.250000  1
  Al  Al20  1  0.520603  0.779083  0.750000  1
  Al  Al21  1  0.478197  0.220541  0.250000  1
  Fe  Fe22  1  0.998767  0.495915  0.501986  1
  Fe  Fe23  1  0.998767  0.495915  0.998014  1
  Fe  Fe24  1  0.504085  0.001233  0.998014  1
  Fe  Fe25  1  0.504085  0.001233  0.501986  1
