# generated using pymatgen
data_Ac2ZnCu3
_symmetry_space_group_name_H-M   'P 1'
_cell_length_a   3.99223500
_cell_length_b   4.45290600
_cell_length_c   7.79493000
_cell_angle_alpha   90.00000000
_cell_angle_beta   90.00000000
_cell_angle_gamma   90.00000000
_symmetry_Int_Tables_number   1
_chemical_formula_structural   Ac2ZnCu3
_chemical_formula_sum   'Ac2 Zn1 Cu3'
_cell_volume   138.57083841
_cell_formula_units_Z   1
loop_
 _symmetry_equiv_pos_site_id
 _symmetry_equiv_pos_as_xyz
  1  'x, y, z'
loop_
 _atom_site_type_symbol
 _atom_site_label
 _atom_site_symmetry_multiplicity
 _atom_site_fract_x
 _atom_site_fract_y
 _atom_site_fract_z
 _atom_site_occupancy
  Ac  Ac0  1  0.000000  0.500000  0.991019  1
  Ac  Ac1  1  0.000000  0.000000  0.510550  1
  Zn  Zn2  1  0.500000  0.500000  0.332683  1
  Cu  Cu3  1  0.500000  0.000000  0.835801  1
  Cu  Cu4  1  0.500000  0.000000  0.164107  1
  Cu  Cu5  1  0.500000  0.500000  0.665842  1
