# generated using pymatgen
data_LiDy16Tl(InIr2)2
_symmetry_space_group_name_H-M   'P 1'
_cell_length_a   9.67405985
_cell_length_b   9.67405947
_cell_length_c   9.67351213
_cell_angle_alpha   59.93158118
_cell_angle_beta   59.93158288
_cell_angle_gamma   59.88152382
_symmetry_Int_Tables_number   1
_chemical_formula_structural   LiDy16Tl(InIr2)2
_chemical_formula_sum   'Li1 Dy16 Tl1 In2 Ir4'
_cell_volume   638.92112181
_cell_formula_units_Z   1
loop_
 _symmetry_equiv_pos_site_id
 _symmetry_equiv_pos_as_xyz
  1  'x, y, z'
loop_
 _atom_site_type_symbol
 _atom_site_label
 _atom_site_symmetry_multiplicity
 _atom_site_fract_x
 _atom_site_fract_y
 _atom_site_fract_z
 _atom_site_occupancy
  Li  Li0  1  0.821047  0.821047  0.820768  1
  Dy  Dy1  1  0.599278  0.599278  0.600143  1
  Dy  Dy2  1  0.598981  0.598981  0.204453  1
  Dy  Dy3  1  0.598595  0.204899  0.599227  1
  Dy  Dy4  1  0.204899  0.598595  0.599227  1
  Dy  Dy5  1  0.058420  0.441273  0.442509  1
  Dy  Dy6  1  0.436686  0.061572  0.061850  1
  Dy  Dy7  1  0.441273  0.058420  0.442509  1
  Dy  Dy8  1  0.061572  0.436686  0.061850  1
  Dy  Dy9  1  0.442143  0.442143  0.058226  1
  Dy  Dy10  1  0.062312  0.062312  0.436846  1
  Dy  Dy11  1  0.189649  0.811069  0.811224  1
  Dy  Dy12  1  0.809583  0.190757  0.190101  1
  Dy  Dy13  1  0.811069  0.189649  0.811224  1
  Dy  Dy14  1  0.190757  0.809583  0.190101  1
  Dy  Dy15  1  0.810608  0.810608  0.189316  1
  Dy  Dy16  1  0.190071  0.190071  0.810125  1
  Tl  Tl17  1  0.835129  0.835129  0.499086  1
  In  In18  1  0.832477  0.502468  0.833976  1
  In  In19  1  0.502468  0.832477  0.833976  1
  Ir  Ir20  1  0.392359  0.392359  0.392344  1
  Ir  Ir21  1  0.392250  0.392250  0.826201  1
  Ir  Ir22  1  0.392489  0.825886  0.392360  1
  Ir  Ir23  1  0.825886  0.392489  0.392360  1
