# generated using pymatgen
data_Sm8Nb11Si16Tc
_symmetry_space_group_name_H-M   'P 1'
_cell_length_a   6.92126346
_cell_length_b   7.17424327
_cell_length_c   13.51204600
_cell_angle_alpha   90.00000000
_cell_angle_beta   90.00000000
_cell_angle_gamma   90.03655745
_symmetry_Int_Tables_number   1
_chemical_formula_structural   Sm8Nb11Si16Tc
_chemical_formula_sum   'Sm8 Nb11 Si16 Tc1'
_cell_volume   670.93818066
_cell_formula_units_Z   1
loop_
 _symmetry_equiv_pos_site_id
 _symmetry_equiv_pos_as_xyz
  1  'x, y, z'
loop_
 _atom_site_type_symbol
 _atom_site_label
 _atom_site_symmetry_multiplicity
 _atom_site_fract_x
 _atom_site_fract_y
 _atom_site_fract_z
 _atom_site_occupancy
  Sm  Sm0  1  0.503391  0.670575  0.596408  1
  Sm  Sm1  1  0.002646  0.829937  0.903798  1
  Sm  Sm2  1  0.495466  0.329507  0.095738  1
  Sm  Sm3  1  0.995925  0.170580  0.404162  1
  Sm  Sm4  1  0.495466  0.329507  0.404262  1
  Sm  Sm5  1  0.995925  0.170580  0.095838  1
  Sm  Sm6  1  0.503391  0.670575  0.903592  1
  Sm  Sm7  1  0.002646  0.829937  0.596202  1
  Nb  Nb8  1  0.664043  0.173027  0.626878  1
  Nb  Nb9  1  0.165892  0.327070  0.872821  1
  Nb  Nb10  1  0.336749  0.825285  0.126164  1
  Nb  Nb11  1  0.836411  0.674550  0.374801  1
  Nb  Nb12  1  0.336749  0.825285  0.373836  1
  Nb  Nb13  1  0.836411  0.674550  0.125199  1
  Nb  Nb14  1  0.664043  0.173027  0.873122  1
  Nb  Nb15  1  0.165892  0.327070  0.627179  1
  Nb  Nb16  1  0.337607  0.011211  0.750000  1
  Nb  Nb17  1  0.161895  0.510951  0.250000  1
  Nb  Nb18  1  0.662234  0.989776  0.250000  1
  Si  Si19  1  0.660310  0.960721  0.458043  1
  Si  Si20  1  0.160608  0.539726  0.041425  1
  Si  Si21  1  0.339823  0.038597  0.957696  1
  Si  Si22  1  0.841091  0.459181  0.544444  1
  Si  Si23  1  0.339823  0.038597  0.542304  1
  Si  Si24  1  0.841091  0.459181  0.955556  1
  Si  Si25  1  0.660310  0.960721  0.041957  1
  Si  Si26  1  0.160608  0.539726  0.458575  1
  Si  Si27  1  0.466891  0.374861  0.750000  1
  Si  Si28  1  0.957729  0.131143  0.750000  1
  Si  Si29  1  0.540340  0.626005  0.250000  1
  Si  Si30  1  0.039523  0.874355  0.250000  1
  Si  Si31  1  0.700960  0.878345  0.750000  1
  Si  Si32  1  0.195805  0.618473  0.750000  1
  Si  Si33  1  0.296118  0.120811  0.250000  1
  Si  Si34  1  0.796165  0.379669  0.250000  1
  Tc  Tc35  1  0.840024  0.486886  0.750000  1
