# generated using pymatgen
data_Lu14Sc6(Bi3Sb)3
_symmetry_space_group_name_H-M   'P 1'
_cell_length_a   7.92195025
_cell_length_b   9.22270653
_cell_length_c   11.65645906
_cell_angle_alpha   89.87601869
_cell_angle_beta   90.05813209
_cell_angle_gamma   89.94355963
_symmetry_Int_Tables_number   1
_chemical_formula_structural   Lu14Sc6(Bi3Sb)3
_chemical_formula_sum   'Lu14 Sc6 Bi9 Sb3'
_cell_volume   851.63929316
_cell_formula_units_Z   1
loop_
 _symmetry_equiv_pos_site_id
 _symmetry_equiv_pos_as_xyz
  1  'x, y, z'
loop_
 _atom_site_type_symbol
 _atom_site_label
 _atom_site_symmetry_multiplicity
 _atom_site_fract_x
 _atom_site_fract_y
 _atom_site_fract_z
 _atom_site_occupancy
  Lu  Lu0  1  0.352778  0.247923  0.283542  1
  Lu  Lu1  1  0.647575  0.751991  0.715618  1
  Lu  Lu2  1  0.145837  0.749821  0.786266  1
  Lu  Lu3  1  0.852953  0.250414  0.216911  1
  Lu  Lu4  1  0.187720  0.249987  0.779655  1
  Lu  Lu5  1  0.817409  0.750408  0.217091  1
  Lu  Lu6  1  0.317758  0.751617  0.281127  1
  Lu  Lu7  1  0.680140  0.248821  0.716455  1
  Lu  Lu8  1  0.309050  0.934112  0.558125  1
  Lu  Lu9  1  0.810321  0.568716  0.942671  1
  Lu  Lu10  1  0.690607  0.065480  0.442180  1
  Lu  Lu11  1  0.191315  0.437549  0.058693  1
  Lu  Lu12  1  0.690321  0.434391  0.442313  1
  Lu  Lu13  1  0.309285  0.566158  0.558221  1
  Sc  Sc14  1  0.024865  0.249937  0.511735  1
  Sc  Sc15  1  0.974451  0.750123  0.488197  1
  Sc  Sc16  1  0.474958  0.751691  0.012052  1
  Sc  Sc17  1  0.519977  0.248223  0.988897  1
  Sc  Sc18  1  0.192966  0.064243  0.058939  1
  Sc  Sc19  1  0.808802  0.928789  0.942581  1
  Bi  Bi20  1  0.901317  0.241959  0.956724  1
  Bi  Bi21  1  0.065856  0.003784  0.327799  1
  Bi  Bi22  1  0.934121  0.996151  0.672398  1
  Bi  Bi23  1  0.435239  0.995556  0.831371  1
  Bi  Bi24  1  0.933917  0.503007  0.671278  1
  Bi  Bi25  1  0.565886  0.003972  0.168905  1
  Bi  Bi26  1  0.066220  0.497144  0.329175  1
  Bi  Bi27  1  0.565857  0.496136  0.170491  1
  Bi  Bi28  1  0.435366  0.504339  0.829863  1
  Sb  Sb29  1  0.398196  0.250364  0.541098  1
  Sb  Sb30  1  0.600230  0.749737  0.457667  1
  Sb  Sb31  1  0.098704  0.757460  0.041964  1
