# generated using pymatgen
data_SrNp7(Si3Pt)4
_symmetry_space_group_name_H-M   'P 1'
_cell_length_a   8.16802400
_cell_length_b   8.16802502
_cell_length_c   8.29828800
_cell_angle_alpha   90.00000000
_cell_angle_beta   90.00000000
_cell_angle_gamma   119.93876396
_symmetry_Int_Tables_number   1
_chemical_formula_structural   SrNp7(Si3Pt)4
_chemical_formula_sum   'Sr1 Np7 Si12 Pt4'
_cell_volume   479.75648370
_cell_formula_units_Z   1
loop_
 _symmetry_equiv_pos_site_id
 _symmetry_equiv_pos_as_xyz
  1  'x, y, z'
loop_
 _atom_site_type_symbol
 _atom_site_label
 _atom_site_symmetry_multiplicity
 _atom_site_fract_x
 _atom_site_fract_y
 _atom_site_fract_z
 _atom_site_occupancy
  Sr  Sr0  1  0.499764  0.500236  0.250000  1
  Np  Np1  1  0.000069  0.999931  0.250000  1
  Np  Np2  1  0.000039  0.999961  0.750000  1
  Np  Np3  1  0.000299  0.500226  0.250000  1
  Np  Np4  1  0.500183  0.000360  0.750000  1
  Np  Np5  1  0.499774  0.999701  0.250000  1
  Np  Np6  1  0.500192  0.499808  0.750000  1
  Np  Np7  1  0.999640  0.499817  0.750000  1
  Si  Si8  1  0.163108  0.328403  0.989857  1
  Si  Si9  1  0.671597  0.836892  0.989857  1
  Si  Si10  1  0.163108  0.328403  0.510143  1
  Si  Si11  1  0.328407  0.163139  0.990442  1
  Si  Si12  1  0.163600  0.836400  0.000559  1
  Si  Si13  1  0.671597  0.836892  0.510143  1
  Si  Si14  1  0.836861  0.671593  0.990442  1
  Si  Si15  1  0.328407  0.163139  0.509558  1
  Si  Si16  1  0.163600  0.836400  0.499441  1
  Si  Si17  1  0.836861  0.671593  0.509558  1
  Si  Si18  1  0.836427  0.163573  0.001318  1
  Si  Si19  1  0.836427  0.163573  0.498682  1
  Pt  Pt20  1  0.332139  0.667861  0.998203  1
  Pt  Pt21  1  0.332139  0.667861  0.501797  1
  Pt  Pt22  1  0.667881  0.332119  0.998733  1
  Pt  Pt23  1  0.667881  0.332119  0.501267  1
