# generated using pymatgen
data_NdTmThGa2
_symmetry_space_group_name_H-M   'P 1'
_cell_length_a   7.77473400
_cell_length_b   7.75642900
_cell_length_c   4.45753700
_cell_angle_alpha   90.00000000
_cell_angle_beta   90.00000000
_cell_angle_gamma   90.00000000
_symmetry_Int_Tables_number   1
_chemical_formula_structural   NdTmThGa2
_chemical_formula_sum   'Nd2 Tm2 Th2 Ga4'
_cell_volume   268.80807913
_cell_formula_units_Z   2
loop_
 _symmetry_equiv_pos_site_id
 _symmetry_equiv_pos_as_xyz
  1  'x, y, z'
loop_
 _atom_site_type_symbol
 _atom_site_label
 _atom_site_symmetry_multiplicity
 _atom_site_fract_x
 _atom_site_fract_y
 _atom_site_fract_z
 _atom_site_occupancy
  Nd  Nd0  1  0.173767  0.325338  0.500000  1
  Nd  Nd1  1  0.326233  0.825338  0.500000  1
  Tm  Tm2  1  0.497397  0.499423  0.000000  1
  Tm  Tm3  1  0.002603  0.999423  0.000000  1
  Th  Th4  1  0.674993  0.173844  0.500000  1
  Th  Th5  1  0.825007  0.673844  0.500000  1
  Ga  Ga6  1  0.623124  0.879594  0.000000  1
  Ga  Ga7  1  0.876876  0.379594  0.000000  1
  Ga  Ga8  1  0.117493  0.621800  0.000000  1
  Ga  Ga9  1  0.382507  0.121800  0.000000  1
