# generated using pymatgen
data_Er3Tm3NiI10
_symmetry_space_group_name_H-M   'P 1'
_cell_length_a   7.63289436
_cell_length_b   9.59243825
_cell_length_c   9.61888941
_cell_angle_alpha   107.08111507
_cell_angle_beta   96.89037409
_cell_angle_gamma   104.58593924
_symmetry_Int_Tables_number   1
_chemical_formula_structural   Er3Tm3NiI10
_chemical_formula_sum   'Er3 Tm3 Ni1 I10'
_cell_volume   637.03556694
_cell_formula_units_Z   1
loop_
 _symmetry_equiv_pos_site_id
 _symmetry_equiv_pos_as_xyz
  1  'x, y, z'
loop_
 _atom_site_type_symbol
 _atom_site_label
 _atom_site_symmetry_multiplicity
 _atom_site_fract_x
 _atom_site_fract_y
 _atom_site_fract_z
 _atom_site_occupancy
  Er  Er0  1  0.030019  0.721978  0.916980  1
  Er  Er1  1  0.889193  0.960502  0.234626  1
  Er  Er2  1  0.111091  0.039618  0.765373  1
  Tm  Tm3  1  0.335895  0.119476  0.159094  1
  Tm  Tm4  1  0.663578  0.880819  0.840701  1
  Tm  Tm5  1  0.970242  0.276364  0.082735  1
  Ni  Ni6  1  0.000361  0.000026  0.000151  1
  I  I7  1  0.351206  0.450171  0.272041  1
  I  I8  1  0.647184  0.549843  0.727453  1
  I  I9  1  0.773609  0.256920  0.343670  1
  I  I10  1  0.227189  0.743691  0.655695  1
  I  I11  1  0.546221  0.184995  0.907205  1
  I  I12  1  0.454265  0.815681  0.093384  1
  I  I13  1  0.740771  0.912326  0.537107  1
  I  I14  1  0.259325  0.088166  0.462925  1
  I  I15  1  0.914900  0.626299  0.180561  1
  I  I16  1  0.084952  0.373126  0.820300  1
