# generated using pymatgen
data_Ho5Er11In4Ru3Rh
_symmetry_space_group_name_H-M   'P 1'
_cell_length_a   9.59094372
_cell_length_b   9.58980299
_cell_length_c   9.58998319
_cell_angle_alpha   59.82175089
_cell_angle_beta   59.82314000
_cell_angle_gamma   59.85280114
_symmetry_Int_Tables_number   1
_chemical_formula_structural   Ho5Er11In4Ru3Rh
_chemical_formula_sum   'Ho5 Er11 In4 Ru3 Rh1'
_cell_volume   621.32704272
_cell_formula_units_Z   1
loop_
 _symmetry_equiv_pos_site_id
 _symmetry_equiv_pos_as_xyz
  1  'x, y, z'
loop_
 _atom_site_type_symbol
 _atom_site_label
 _atom_site_symmetry_multiplicity
 _atom_site_fract_x
 _atom_site_fract_y
 _atom_site_fract_z
 _atom_site_occupancy
  Ho  Ho0  1  0.191480  0.191665  0.810773  1
  Ho  Ho1  1  0.439083  0.059869  0.060036  1
  Ho  Ho2  1  0.440916  0.059478  0.440744  1
  Ho  Ho3  1  0.059793  0.439202  0.060083  1
  Ho  Ho4  1  0.650624  0.045813  0.650348  1
  Er  Er5  1  0.193161  0.808736  0.809061  1
  Er  Er6  1  0.059881  0.059867  0.439133  1
  Er  Er7  1  0.810638  0.191759  0.191671  1
  Er  Er8  1  0.809159  0.808876  0.193248  1
  Er  Er9  1  0.650602  0.650463  0.045696  1
  Er  Er10  1  0.650840  0.650628  0.650711  1
  Er  Er11  1  0.059110  0.441272  0.440890  1
  Er  Er12  1  0.045523  0.650569  0.650475  1
  Er  Er13  1  0.808836  0.193286  0.808973  1
  Er  Er14  1  0.441159  0.441333  0.059076  1
  Er  Er15  1  0.191699  0.810522  0.191877  1
  In  In16  1  0.417232  0.747934  0.417356  1
  In  In17  1  0.417429  0.417525  0.747749  1
  In  In18  1  0.748123  0.417304  0.417325  1
  In  In19  1  0.417201  0.417431  0.417332  1
  Ru  Ru20  1  0.858092  0.421326  0.858311  1
  Ru  Ru21  1  0.858530  0.858033  0.421101  1
  Ru  Ru22  1  0.421138  0.857846  0.858573  1
  Rh  Rh23  1  0.859751  0.859263  0.859455  1
