# generated using pymatgen
data_Eu3YCo19P12Ru
_symmetry_space_group_name_H-M   'P 1'
_cell_length_a   3.67273300
_cell_length_b   10.39879555
_cell_length_c   11.85698847
_cell_angle_alpha   89.75823390
_cell_angle_beta   90.00000000
_cell_angle_gamma   90.00000000
_symmetry_Int_Tables_number   1
_chemical_formula_structural   Eu3YCo19P12Ru
_chemical_formula_sum   'Eu3 Y1 Co19 P12 Ru1'
_cell_volume   452.83806736
_cell_formula_units_Z   1
loop_
 _symmetry_equiv_pos_site_id
 _symmetry_equiv_pos_as_xyz
  1  'x, y, z'
loop_
 _atom_site_type_symbol
 _atom_site_label
 _atom_site_symmetry_multiplicity
 _atom_site_fract_x
 _atom_site_fract_y
 _atom_site_fract_z
 _atom_site_occupancy
  Eu  Eu0  1  0.250000  0.915362  0.203688  1
  Eu  Eu1  1  0.750000  0.084118  0.797311  1
  Eu  Eu2  1  0.250000  0.582697  0.702612  1
  Y  Y3  1  0.750000  0.414972  0.295216  1
  Co  Co4  1  0.750000  0.214565  0.510105  1
  Co  Co5  1  0.750000  0.286652  0.011010  1
  Co  Co6  1  0.250000  0.713817  0.991723  1
  Co  Co7  1  0.250000  0.094497  0.991191  1
  Co  Co8  1  0.750000  0.905457  0.010587  1
  Co  Co9  1  0.750000  0.590093  0.507066  1
  Co  Co10  1  0.250000  0.404940  0.485325  1
  Co  Co11  1  0.250000  0.281546  0.674577  1
  Co  Co12  1  0.750000  0.717791  0.323061  1
  Co  Co13  1  0.750000  0.779161  0.826301  1
  Co  Co14  1  0.250000  0.222652  0.175872  1
  Co  Co15  1  0.250000  0.614659  0.198163  1
  Co  Co16  1  0.750000  0.381685  0.803413  1
  Co  Co17  1  0.750000  0.121101  0.301878  1
  Co  Co18  1  0.250000  0.883435  0.700356  1
  Co  Co19  1  0.250000  0.037320  0.433396  1
  Co  Co20  1  0.750000  0.967083  0.566507  1
  Co  Co21  1  0.750000  0.532369  0.068156  1
  Co  Co22  1  0.250000  0.466907  0.934262  1
  P  P23  1  0.250000  0.082403  0.611871  1
  P  P24  1  0.750000  0.921242  0.387265  1
  P  P25  1  0.750000  0.580177  0.889235  1
  P  P26  1  0.250000  0.418743  0.111873  1
  P  P27  1  0.250000  0.229802  0.367973  1
  P  P28  1  0.750000  0.773728  0.634367  1
  P  P29  1  0.750000  0.726930  0.129697  1
  P  P30  1  0.250000  0.273199  0.869431  1
  P  P31  1  0.250000  0.896732  0.893950  1
  P  P32  1  0.750000  0.103545  0.107745  1
  P  P33  1  0.750000  0.395818  0.607744  1
  P  P34  1  0.250000  0.597045  0.389175  1
  Ru  Ru35  1  0.250000  0.787758  0.487904  1
