# generated using pymatgen
data_Dy5Tc2C7
_symmetry_space_group_name_H-M   'P 1'
_cell_length_a   8.30759599
_cell_length_b   8.30759539
_cell_length_c   3.45532200
_cell_angle_alpha   90.00000000
_cell_angle_beta   90.00000000
_cell_angle_gamma   122.50919988
_symmetry_Int_Tables_number   1
_chemical_formula_structural   Dy5Tc2C7
_chemical_formula_sum   'Dy5 Tc2 C7'
_cell_volume   201.10551872
_cell_formula_units_Z   1
loop_
 _symmetry_equiv_pos_site_id
 _symmetry_equiv_pos_as_xyz
  1  'x, y, z'
loop_
 _atom_site_type_symbol
 _atom_site_label
 _atom_site_symmetry_multiplicity
 _atom_site_fract_x
 _atom_site_fract_y
 _atom_site_fract_z
 _atom_site_occupancy
  Dy  Dy0  1  0.500000  0.500000  0.000000  1
  Dy  Dy1  1  0.075459  0.336223  0.500000  1
  Dy  Dy2  1  0.924541  0.663777  0.500000  1
  Dy  Dy3  1  0.663777  0.924541  0.500000  1
  Dy  Dy4  1  0.336223  0.075459  0.500000  1
  Tc  Tc5  1  0.712835  0.287165  0.000000  1
  Tc  Tc6  1  0.287165  0.712835  0.000000  1
  C  C7  1  0.626540  0.373460  0.500000  1
  C  C8  1  0.373460  0.626540  0.500000  1
  C  C9  1  0.000000  0.000000  0.000000  1
  C  C10  1  0.169546  0.169546  0.000000  1
  C  C11  1  0.830454  0.830454  0.000000  1
  C  C12  1  0.000000  0.500000  0.000000  1
  C  C13  1  0.500000  0.000000  0.000000  1
