# generated using pymatgen
data_Ta12Mn7V5N4
_symmetry_space_group_name_H-M   'P 1'
_cell_length_a   8.11187678
_cell_length_b   8.11241895
_cell_length_c   8.11841313
_cell_angle_alpha   59.98671565
_cell_angle_beta   59.99289867
_cell_angle_gamma   59.96947951
_symmetry_Int_Tables_number   1
_chemical_formula_structural   Ta12Mn7V5N4
_chemical_formula_sum   'Ta12 Mn7 V5 N4'
_cell_volume   377.62496107
_cell_formula_units_Z   1
loop_
 _symmetry_equiv_pos_site_id
 _symmetry_equiv_pos_as_xyz
  1  'x, y, z'
loop_
 _atom_site_type_symbol
 _atom_site_label
 _atom_site_symmetry_multiplicity
 _atom_site_fract_x
 _atom_site_fract_y
 _atom_site_fract_z
 _atom_site_occupancy
  Ta  Ta0  1  0.807162  0.805995  0.193422  1
  Ta  Ta1  1  0.193413  0.193289  0.806643  1
  Ta  Ta2  1  0.807184  0.193411  0.805995  1
  Ta  Ta3  1  0.193431  0.806629  0.193312  1
  Ta  Ta4  1  0.193417  0.806651  0.806637  1
  Ta  Ta5  1  0.807167  0.193420  0.193416  1
  Ta  Ta6  1  0.443372  0.442796  0.056927  1
  Ta  Ta7  1  0.057005  0.057061  0.442970  1
  Ta  Ta8  1  0.443369  0.056924  0.442777  1
  Ta  Ta9  1  0.056966  0.442976  0.057087  1
  Ta  Ta10  1  0.056990  0.442971  0.442967  1
  Ta  Ta11  1  0.443367  0.056913  0.056939  1
  Mn  Mn12  1  0.418143  0.742464  0.419705  1
  Mn  Mn13  1  0.418147  0.419698  0.742468  1
  Mn  Mn14  1  0.418138  0.419703  0.419706  1
  Mn  Mn15  1  0.510282  0.829907  0.829894  1
  Mn  Mn16  1  0.831019  0.510951  0.829018  1
  Mn  Mn17  1  0.831012  0.829001  0.510938  1
  Mn  Mn18  1  0.831027  0.828998  0.829022  1
  V  V19  1  0.129609  0.623476  0.623447  1
  V  V20  1  0.623110  0.121111  0.627878  1
  V  V21  1  0.623092  0.627885  0.121153  1
  V  V22  1  0.623111  0.627898  0.627861  1
  V  V23  1  0.737390  0.420892  0.420856  1
  N  N24  1  0.624199  0.125267  0.125268  1
  N  N25  1  0.126296  0.624967  0.124369  1
  N  N26  1  0.126293  0.124376  0.624959  1
  N  N27  1  0.126294  0.124373  0.124370  1
