# generated using pymatgen
data_Yb(InI4)2
_symmetry_space_group_name_H-M   'P 1'
_cell_length_a   8.41765000
_cell_length_b   8.64903363
_cell_length_c   15.87229000
_cell_angle_alpha   87.73913707
_cell_angle_beta   90.00000000
_cell_angle_gamma   90.00000000
_symmetry_Int_Tables_number   1
_chemical_formula_structural   Yb(InI4)2
_chemical_formula_sum   'Yb2 In4 I16'
_cell_volume   1154.67521036
_cell_formula_units_Z   2
loop_
 _symmetry_equiv_pos_site_id
 _symmetry_equiv_pos_as_xyz
  1  'x, y, z'
loop_
 _atom_site_type_symbol
 _atom_site_label
 _atom_site_symmetry_multiplicity
 _atom_site_fract_x
 _atom_site_fract_y
 _atom_site_fract_z
 _atom_site_occupancy
  Yb  Yb0  1  0.754549  0.073628  0.811342  1
  Yb  Yb1  1  0.245451  0.073628  0.311342  1
  In  In2  1  0.934414  0.222640  0.577985  1
  In  In3  1  0.065586  0.222640  0.077985  1
  In  In4  1  0.572093  0.638086  0.776321  1
  In  In5  1  0.427907  0.638086  0.276321  1
  I  I6  1  0.411697  0.612189  0.631061  1
  I  I7  1  0.588303  0.612189  0.131061  1
  I  I8  1  0.885542  0.743506  0.760808  1
  I  I9  1  0.114458  0.743506  0.260808  1
  I  I10  1  0.939192  0.494796  0.490259  1
  I  I11  1  0.060808  0.494796  0.990259  1
  I  I12  1  0.909062  0.989265  0.992755  1
  I  I13  1  0.090938  0.989265  0.492755  1
  I  I14  1  0.629369  0.119758  0.623254  1
  I  I15  1  0.370631  0.119758  0.123254  1
  I  I16  1  0.566627  0.365814  0.878555  1
  I  I17  1  0.433373  0.365814  0.378555  1
  I  I18  1  0.449279  0.880042  0.869814  1
  I  I19  1  0.550721  0.880042  0.369814  1
  I  I20  1  0.931565  0.227678  0.240047  1
  I  I21  1  0.068435  0.227678  0.740047  1
