# generated using pymatgen
data_Tm2Al9Os2Au
_symmetry_space_group_name_H-M   'P 1'
_cell_length_a   7.62676800
_cell_length_b   7.62676837
_cell_length_c   9.52785900
_cell_angle_alpha   90.00000000
_cell_angle_beta   90.00000000
_cell_angle_gamma   119.39470371
_symmetry_Int_Tables_number   1
_chemical_formula_structural   Tm2Al9Os2Au
_chemical_formula_sum   'Tm4 Al18 Os4 Au2'
_cell_volume   482.86283950
_cell_formula_units_Z   2
loop_
 _symmetry_equiv_pos_site_id
 _symmetry_equiv_pos_as_xyz
  1  'x, y, z'
loop_
 _atom_site_type_symbol
 _atom_site_label
 _atom_site_symmetry_multiplicity
 _atom_site_fract_x
 _atom_site_fract_y
 _atom_site_fract_z
 _atom_site_occupancy
  Tm  Tm0  1  0.998162  0.674574  0.250000  1
  Tm  Tm1  1  0.001838  0.325426  0.750000  1
  Tm  Tm2  1  0.674574  0.998162  0.250000  1
  Tm  Tm3  1  0.325426  0.001838  0.750000  1
  Al  Al4  1  0.141592  0.141592  0.250000  1
  Al  Al5  1  0.858408  0.858408  0.750000  1
  Al  Al6  1  0.002359  0.346623  0.076079  1
  Al  Al7  1  0.997641  0.653377  0.923921  1
  Al  Al8  1  0.997641  0.653377  0.576079  1
  Al  Al9  1  0.346623  0.002359  0.423921  1
  Al  Al10  1  0.002359  0.346623  0.423921  1
  Al  Al11  1  0.653377  0.997641  0.576079  1
  Al  Al12  1  0.653377  0.997641  0.923921  1
  Al  Al13  1  0.346623  0.002359  0.076079  1
  Al  Al14  1  0.343436  0.343436  0.553938  1
  Al  Al15  1  0.656564  0.656565  0.446062  1
  Al  Al16  1  0.656564  0.656565  0.053938  1
  Al  Al17  1  0.343436  0.343436  0.946062  1
  Al  Al18  1  0.337549  0.554178  0.250000  1
  Al  Al19  1  0.662451  0.445822  0.750000  1
  Al  Al20  1  0.554178  0.337549  0.250000  1
  Al  Al21  1  0.445822  0.662451  0.750000  1
  Os  Os22  1  0.672482  0.327518  0.000000  1
  Os  Os23  1  0.327518  0.672482  0.000000  1
  Os  Os24  1  0.327518  0.672482  0.500000  1
  Os  Os25  1  0.672482  0.327518  0.500000  1
  Au  Au26  1  0.000000  0.000000  0.000000  1
  Au  Au27  1  0.000000  0.000000  0.500000  1
