# generated using pymatgen
data_La2Ga3PRh6
_symmetry_space_group_name_H-M   'P 1'
_cell_length_a   6.79886070
_cell_length_b   6.82651330
_cell_length_c   6.79885961
_cell_angle_alpha   130.41917071
_cell_angle_beta   113.38921761
_cell_angle_gamma   87.26064227
_symmetry_Int_Tables_number   1
_chemical_formula_structural   La2Ga3PRh6
_chemical_formula_sum   'La2 Ga3 P1 Rh6'
_cell_volume   210.34324795
_cell_formula_units_Z   1
loop_
 _symmetry_equiv_pos_site_id
 _symmetry_equiv_pos_as_xyz
  1  'x, y, z'
loop_
 _atom_site_type_symbol
 _atom_site_label
 _atom_site_symmetry_multiplicity
 _atom_site_fract_x
 _atom_site_fract_y
 _atom_site_fract_z
 _atom_site_occupancy
  La  La0  1  0.751663  0.030381  0.278717  1
  La  La1  1  0.246884  0.957598  0.710714  1
  Ga  Ga2  1  0.561471  0.350092  0.788621  1
  Ga  Ga3  1  0.412617  0.627426  0.214807  1
  Ga  Ga4  1  0.106721  0.323171  0.216450  1
  P  P5  1  0.922227  0.703273  0.781046  1
  Rh  Rh6  1  0.211602  0.501590  0.715762  1
  Rh  Rh7  1  0.745706  0.995722  0.743208  1
  Rh  Rh8  1  0.785828  0.501590  0.289988  1
  Rh  Rh9  1  0.252514  0.995722  0.250016  1
  Rh  Rh10  1  0.530762  0.506717  0.534712  1
  Rh  Rh11  1  0.972004  0.506717  0.975955  1
