# generated using pymatgen
data_Ho9LuIn8IrPt3
_symmetry_space_group_name_H-M   'P 1'
_cell_length_a   3.61383800
_cell_length_b   8.11450703
_cell_length_c   18.17040072
_cell_angle_alpha   90.02135105
_cell_angle_beta   90.00000000
_cell_angle_gamma   90.00000000
_symmetry_Int_Tables_number   1
_chemical_formula_structural   Ho9LuIn8IrPt3
_chemical_formula_sum   'Ho9 Lu1 In8 Ir1 Pt3'
_cell_volume   532.83813103
_cell_formula_units_Z   1
loop_
 _symmetry_equiv_pos_site_id
 _symmetry_equiv_pos_as_xyz
  1  'x, y, z'
loop_
 _atom_site_type_symbol
 _atom_site_label
 _atom_site_symmetry_multiplicity
 _atom_site_fract_x
 _atom_site_fract_y
 _atom_site_fract_z
 _atom_site_occupancy
  Ho  Ho0  1  0.000000  0.883975  0.584637  1
  Ho  Ho1  1  0.000000  0.383992  0.915557  1
  Ho  Ho2  1  0.000000  0.616063  0.086333  1
  Ho  Ho3  1  0.000000  0.234385  0.222806  1
  Ho  Ho4  1  0.000000  0.758907  0.779674  1
  Ho  Ho5  1  0.000000  0.258265  0.721286  1
  Ho  Ho6  1  0.000000  0.751004  0.278628  1
  Ho  Ho7  1  0.000000  0.999983  0.000156  1
  Ho  Ho8  1  0.000000  0.500553  0.499140  1
  Lu  Lu9  1  0.000000  0.113255  0.411104  1
  In  In10  1  0.500000  0.422582  0.351362  1
  In  In11  1  0.500000  0.576956  0.648586  1
  In  In12  1  0.500000  0.076726  0.851831  1
  In  In13  1  0.500000  0.927092  0.148532  1
  In  In14  1  0.500000  0.291290  0.067168  1
  In  In15  1  0.500000  0.708306  0.933771  1
  In  In16  1  0.500000  0.208994  0.566034  1
  In  In17  1  0.500000  0.793581  0.431462  1
  Ir  Ir18  1  0.500000  0.020697  0.304882  1
  Pt  Pt19  1  0.500000  0.976407  0.696341  1
  Pt  Pt20  1  0.500000  0.476681  0.803865  1
  Pt  Pt21  1  0.500000  0.520304  0.196846  1
