# generated using pymatgen
data_CaNdSm5OsBr12
_symmetry_space_group_name_H-M   'P 1'
_cell_length_a   9.46375616
_cell_length_b   9.56855326
_cell_length_c   9.46324852
_cell_angle_alpha   106.96457373
_cell_angle_beta   106.73444453
_cell_angle_gamma   107.26566609
_symmetry_Int_Tables_number   1
_chemical_formula_structural   CaNdSm5OsBr12
_chemical_formula_sum   'Ca1 Nd1 Sm5 Os1 Br12'
_cell_volume   713.88436437
_cell_formula_units_Z   1
loop_
 _symmetry_equiv_pos_site_id
 _symmetry_equiv_pos_as_xyz
  1  'x, y, z'
loop_
 _atom_site_type_symbol
 _atom_site_label
 _atom_site_symmetry_multiplicity
 _atom_site_fract_x
 _atom_site_fract_y
 _atom_site_fract_z
 _atom_site_occupancy
  Ca  Ca0  1  0.499677  0.500124  0.500388  1
  Nd  Nd1  1  0.313150  0.103193  0.024521  1
  Sm  Sm2  1  0.027127  0.320381  0.107150  1
  Sm  Sm3  1  0.102414  0.024848  0.308583  1
  Sm  Sm4  1  0.895849  0.974776  0.690618  1
  Sm  Sm5  1  0.973474  0.679549  0.892825  1
  Sm  Sm6  1  0.690681  0.897276  0.975114  1
  Os  Os7  1  0.000588  0.000008  0.999522  1
  Br  Br8  1  0.686662  0.219562  0.070443  1
  Br  Br9  1  0.378141  0.458701  0.164838  1
  Br  Br10  1  0.069825  0.683846  0.220487  1
  Br  Br11  1  0.780082  0.931056  0.316325  1
  Br  Br12  1  0.455710  0.165207  0.382277  1
  Br  Br13  1  0.160511  0.374914  0.453521  1
  Br  Br14  1  0.838751  0.624920  0.546280  1
  Br  Br15  1  0.544375  0.835930  0.623314  1
  Br  Br16  1  0.215925  0.067340  0.677854  1
  Br  Br17  1  0.929675  0.316036  0.779272  1
  Br  Br18  1  0.621936  0.546294  0.838027  1
  Br  Br19  1  0.315451  0.776042  0.928646  1
