# generated using pymatgen
data_Cs2Eu(SiO3)3
_symmetry_space_group_name_H-M   'P 1'
_cell_length_a   7.50545900
_cell_length_b   7.50545724
_cell_length_c   11.00359300
_cell_angle_alpha   90.00000000
_cell_angle_beta   90.00000000
_cell_angle_gamma   119.99999452
_symmetry_Int_Tables_number   1
_chemical_formula_structural   Cs2Eu(SiO3)3
_chemical_formula_sum   'Cs4 Eu2 Si6 O18'
_cell_volume   536.80875002
_cell_formula_units_Z   2
loop_
 _symmetry_equiv_pos_site_id
 _symmetry_equiv_pos_as_xyz
  1  'x, y, z'
loop_
 _atom_site_type_symbol
 _atom_site_label
 _atom_site_symmetry_multiplicity
 _atom_site_fract_x
 _atom_site_fract_y
 _atom_site_fract_z
 _atom_site_occupancy
  Cs  Cs0  1  0.333333  0.666667  0.436685  1
  Cs  Cs1  1  0.666667  0.333333  0.936685  1
  Cs  Cs2  1  0.666667  0.333333  0.563315  1
  Cs  Cs3  1  0.333333  0.666667  0.063315  1
  Eu  Eu4  1  0.000000  0.000000  0.500000  1
  Eu  Eu5  1  0.000000  0.000000  0.000000  1
  Si  Si6  1  0.602471  0.753841  0.750000  1
  Si  Si7  1  0.848630  0.602471  0.250000  1
  Si  Si8  1  0.753841  0.151370  0.250000  1
  Si  Si9  1  0.246159  0.848630  0.750000  1
  Si  Si10  1  0.151370  0.397529  0.750000  1
  Si  Si11  1  0.397529  0.246159  0.250000  1
  O  O12  1  0.273332  0.214380  0.375846  1
  O  O13  1  0.058953  0.273332  0.875846  1
  O  O14  1  0.214380  0.941047  0.875846  1
  O  O15  1  0.785620  0.058953  0.375846  1
  O  O16  1  0.941047  0.726668  0.375846  1
  O  O17  1  0.726668  0.785620  0.875846  1
  O  O18  1  0.726668  0.785620  0.624154  1
  O  O19  1  0.941047  0.726668  0.124154  1
  O  O20  1  0.785620  0.058953  0.124154  1
  O  O21  1  0.214380  0.941047  0.624154  1
  O  O22  1  0.058953  0.273332  0.624154  1
  O  O23  1  0.273332  0.214380  0.124154  1
  O  O24  1  0.509012  0.100952  0.250000  1
  O  O25  1  0.408059  0.509012  0.750000  1
  O  O26  1  0.100952  0.591941  0.750000  1
  O  O27  1  0.899048  0.408059  0.250000  1
  O  O28  1  0.591941  0.490988  0.250000  1
  O  O29  1  0.490988  0.899048  0.750000  1
