# generated using pymatgen
data_Dy3Cd(Mo2O7)2
_symmetry_space_group_name_H-M   'P 1'
_cell_length_a   7.36881699
_cell_length_b   7.38725525
_cell_length_c   7.36881800
_cell_angle_alpha   60.08253568
_cell_angle_beta   60.00000446
_cell_angle_gamma   60.08252903
_symmetry_Int_Tables_number   1
_chemical_formula_structural   Dy3Cd(Mo2O7)2
_chemical_formula_sum   'Dy3 Cd1 Mo4 O14'
_cell_volume   283.99086480
_cell_formula_units_Z   1
loop_
 _symmetry_equiv_pos_site_id
 _symmetry_equiv_pos_as_xyz
  1  'x, y, z'
loop_
 _atom_site_type_symbol
 _atom_site_label
 _atom_site_symmetry_multiplicity
 _atom_site_fract_x
 _atom_site_fract_y
 _atom_site_fract_z
 _atom_site_occupancy
  Dy  Dy0  1  0.625000  0.125000  0.125000  1
  Dy  Dy1  1  0.125000  0.125000  0.625000  1
  Dy  Dy2  1  0.125000  0.125000  0.125000  1
  Cd  Cd3  1  0.125000  0.625000  0.125000  1
  Mo  Mo4  1  0.125000  0.625000  0.625000  1
  Mo  Mo5  1  0.625000  0.125000  0.625000  1
  Mo  Mo6  1  0.625000  0.625000  0.125000  1
  Mo  Mo7  1  0.625000  0.625000  0.625000  1
  O  O8  1  0.691057  0.726096  0.291423  1
  O  O9  1  0.297258  0.283379  0.709682  1
  O  O10  1  0.709682  0.283379  0.709682  1
  O  O11  1  0.291423  0.726096  0.291423  1
  O  O12  1  0.291423  0.726096  0.691057  1
  O  O13  1  0.709682  0.283379  0.297258  1
  O  O14  1  0.558943  0.523904  0.958577  1
  O  O15  1  0.952742  0.966621  0.540318  1
  O  O16  1  0.540318  0.966621  0.540318  1
  O  O17  1  0.958577  0.523904  0.958577  1
  O  O18  1  0.958577  0.523904  0.558943  1
  O  O19  1  0.540318  0.966621  0.952742  1
  O  O20  1  0.250337  0.248989  0.250337  1
  O  O21  1  0.999663  0.001011  0.999663  1
