# generated using pymatgen
data_Yb3Pr17Ir11Ru
_symmetry_space_group_name_H-M   'P 1'
_cell_length_a   11.28620420
_cell_length_b   11.28787920
_cell_length_c   6.54283900
_cell_angle_alpha   90.00000000
_cell_angle_beta   90.00000000
_cell_angle_gamma   90.02139129
_symmetry_Int_Tables_number   1
_chemical_formula_structural   Yb3Pr17Ir11Ru
_chemical_formula_sum   'Yb3 Pr17 Ir11 Ru1'
_cell_volume   833.54002740
_cell_formula_units_Z   1
loop_
 _symmetry_equiv_pos_site_id
 _symmetry_equiv_pos_as_xyz
  1  'x, y, z'
loop_
 _atom_site_type_symbol
 _atom_site_label
 _atom_site_symmetry_multiplicity
 _atom_site_fract_x
 _atom_site_fract_y
 _atom_site_fract_z
 _atom_site_occupancy
  Yb  Yb0  1  0.000000  0.000000  0.499888  1
  Yb  Yb1  1  0.000000  0.000000  0.999578  1
  Yb  Yb2  1  0.500000  0.500000  0.999819  1
  Pr  Pr3  1  0.288436  0.088024  0.382845  1
  Pr  Pr4  1  0.289241  0.912974  0.884596  1
  Pr  Pr5  1  0.710759  0.087026  0.884596  1
  Pr  Pr6  1  0.711564  0.911976  0.382845  1
  Pr  Pr7  1  0.587965  0.790215  0.884698  1
  Pr  Pr8  1  0.589028  0.207259  0.382623  1
  Pr  Pr9  1  0.410972  0.792741  0.382623  1
  Pr  Pr10  1  0.412035  0.209785  0.884698  1
  Pr  Pr11  1  0.208704  0.409961  0.616359  1
  Pr  Pr12  1  0.211420  0.588579  0.116325  1
  Pr  Pr13  1  0.788580  0.411421  0.116325  1
  Pr  Pr14  1  0.791296  0.590039  0.616359  1
  Pr  Pr15  1  0.912353  0.712418  0.116356  1
  Pr  Pr16  1  0.911250  0.286835  0.616003  1
  Pr  Pr17  1  0.088750  0.713165  0.616003  1
  Pr  Pr18  1  0.087647  0.287582  0.116356  1
  Pr  Pr19  1  0.500000  0.500000  0.499976  1
  Ir  Ir20  1  0.846000  0.154689  0.249494  1
  Ir  Ir21  1  0.845974  0.845405  0.750588  1
  Ir  Ir22  1  0.154026  0.154595  0.750588  1
  Ir  Ir23  1  0.154000  0.845311  0.249494  1
  Ir  Ir24  1  0.654544  0.346539  0.748761  1
  Ir  Ir25  1  0.654215  0.654007  0.251453  1
  Ir  Ir26  1  0.345785  0.345993  0.251453  1
  Ir  Ir27  1  0.345456  0.653461  0.748761  1
  Ir  Ir28  1  0.500000  0.000000  0.616583  1
  Ir  Ir29  1  0.000000  0.500000  0.886348  1
  Ir  Ir30  1  0.000000  0.500000  0.384870  1
  Ru  Ru31  1  0.500000  0.000000  0.112738  1
