# generated using pymatgen
data_Ho6Tm14CoBi8Ru3
_symmetry_space_group_name_H-M   'P 1'
_cell_length_a   7.90258975
_cell_length_b   8.95217300
_cell_length_c   12.33501027
_cell_angle_alpha   90.00000000
_cell_angle_beta   89.77464652
_cell_angle_gamma   90.00000000
_symmetry_Int_Tables_number   1
_chemical_formula_structural   Ho6Tm14CoBi8Ru3
_chemical_formula_sum   'Ho6 Tm14 Co1 Bi8 Ru3'
_cell_volume   872.63787677
_cell_formula_units_Z   1
loop_
 _symmetry_equiv_pos_site_id
 _symmetry_equiv_pos_as_xyz
  1  'x, y, z'
loop_
 _atom_site_type_symbol
 _atom_site_label
 _atom_site_symmetry_multiplicity
 _atom_site_fract_x
 _atom_site_fract_y
 _atom_site_fract_z
 _atom_site_occupancy
  Ho  Ho0  1  0.657250  0.250000  0.292764  1
  Ho  Ho1  1  0.842576  0.250000  0.791581  1
  Ho  Ho2  1  0.120575  0.250000  0.191687  1
  Ho  Ho3  1  0.378847  0.250000  0.691191  1
  Ho  Ho4  1  0.946254  0.250000  0.503249  1
  Ho  Ho5  1  0.554695  0.250000  0.003753  1
  Tm  Tm6  1  0.344019  0.750000  0.701342  1
  Tm  Tm7  1  0.156472  0.750000  0.206066  1
  Tm  Tm8  1  0.880515  0.750000  0.807782  1
  Tm  Tm9  1  0.615345  0.750000  0.314007  1
  Tm  Tm10  1  0.674511  0.547048  0.564134  1
  Tm  Tm11  1  0.327930  0.463640  0.437372  1
  Tm  Tm12  1  0.173341  0.458603  0.935663  1
  Tm  Tm13  1  0.327930  0.036360  0.437372  1
  Tm  Tm14  1  0.825346  0.545189  0.064701  1
  Tm  Tm15  1  0.674511  0.952952  0.564134  1
  Tm  Tm16  1  0.825346  0.954811  0.064701  1
  Tm  Tm17  1  0.173341  0.041397  0.935663  1
  Tm  Tm18  1  0.057346  0.750000  0.497018  1
  Tm  Tm19  1  0.443006  0.750000  0.995685  1
  Co  Co20  1  0.428433  0.750000  0.491446  1
  Bi  Bi21  1  0.569197  0.509542  0.827119  1
  Bi  Bi22  1  0.430345  0.494014  0.172749  1
  Bi  Bi23  1  0.070303  0.493209  0.671901  1
  Bi  Bi24  1  0.430345  0.005986  0.172749  1
  Bi  Bi25  1  0.930472  0.509669  0.328181  1
  Bi  Bi26  1  0.569197  0.990458  0.827119  1
  Bi  Bi27  1  0.930472  0.990331  0.328181  1
  Bi  Bi28  1  0.070303  0.006791  0.671901  1
  Ru  Ru29  1  0.073984  0.750000  0.989483  1
  Ru  Ru30  1  0.926074  0.250000  0.009791  1
  Ru  Ru31  1  0.571719  0.250000  0.509516  1
