# generated using pymatgen
data_Ta3Al3V2B
_symmetry_space_group_name_H-M   'P 1'
_cell_length_a   7.74833100
_cell_length_b   7.74833170
_cell_length_c   5.11131300
_cell_angle_alpha   90.00000000
_cell_angle_beta   90.00000000
_cell_angle_gamma   120.00000129
_symmetry_Int_Tables_number   1
_chemical_formula_structural   Ta3Al3V2B
_chemical_formula_sum   'Ta6 Al6 V4 B2'
_cell_volume   265.75379298
_cell_formula_units_Z   2
loop_
 _symmetry_equiv_pos_site_id
 _symmetry_equiv_pos_as_xyz
  1  'x, y, z'
loop_
 _atom_site_type_symbol
 _atom_site_label
 _atom_site_symmetry_multiplicity
 _atom_site_fract_x
 _atom_site_fract_y
 _atom_site_fract_z
 _atom_site_occupancy
  Ta  Ta0  1  0.757393  0.757393  0.750000  1
  Ta  Ta1  1  0.242607  0.000000  0.750000  1
  Ta  Ta2  1  0.000000  0.242607  0.750000  1
  Ta  Ta3  1  0.242607  0.242607  0.250000  1
  Ta  Ta4  1  0.757393  0.000000  0.250000  1
  Ta  Ta5  1  0.000000  0.757393  0.250000  1
  Al  Al6  1  0.408857  0.408857  0.750000  1
  Al  Al7  1  0.591143  0.000000  0.750000  1
  Al  Al8  1  0.000000  0.591143  0.750000  1
  Al  Al9  1  0.591143  0.591143  0.250000  1
  Al  Al10  1  0.408857  0.000000  0.250000  1
  Al  Al11  1  0.000000  0.408857  0.250000  1
  V  V12  1  0.666667  0.333333  0.000000  1
  V  V13  1  0.333333  0.666667  0.000000  1
  V  V14  1  0.333333  0.666667  0.500000  1
  V  V15  1  0.666667  0.333333  0.500000  1
  B  B16  1  0.000000  0.000000  0.000000  1
  B  B17  1  0.000000  0.000000  0.500000  1
