# generated using pymatgen
data_La3Ho(Er3Pt4)2
_symmetry_space_group_name_H-M   'P 1'
_cell_length_a   7.62745700
_cell_length_b   7.67532405
_cell_length_c   14.66765610
_cell_angle_alpha   90.01334390
_cell_angle_beta   90.00000000
_cell_angle_gamma   90.00000000
_symmetry_Int_Tables_number   1
_chemical_formula_structural   La3Ho(Er3Pt4)2
_chemical_formula_sum   'La6 Ho2 Er12 Pt16'
_cell_volume   858.69156241
_cell_formula_units_Z   2
loop_
 _symmetry_equiv_pos_site_id
 _symmetry_equiv_pos_as_xyz
  1  'x, y, z'
loop_
 _atom_site_type_symbol
 _atom_site_label
 _atom_site_symmetry_multiplicity
 _atom_site_fract_x
 _atom_site_fract_y
 _atom_site_fract_z
 _atom_site_occupancy
  La  La0  1  0.503333  0.679064  0.595116  1
  La  La1  1  0.003333  0.820936  0.904884  1
  La  La2  1  0.496673  0.327124  0.093542  1
  La  La3  1  0.996673  0.172876  0.406458  1
  La  La4  1  0.496294  0.323873  0.403832  1
  La  La5  1  0.996294  0.176127  0.096168  1
  Ho  Ho6  1  0.504325  0.677694  0.899379  1
  Ho  Ho7  1  0.004325  0.822306  0.600621  1
  Er  Er8  1  0.660400  0.165675  0.623288  1
  Er  Er9  1  0.160400  0.334325  0.876712  1
  Er  Er10  1  0.345477  0.830061  0.120342  1
  Er  Er11  1  0.845477  0.669939  0.379658  1
  Er  Er12  1  0.340074  0.835404  0.376723  1
  Er  Er13  1  0.840074  0.664596  0.123277  1
  Er  Er14  1  0.659452  0.166421  0.875449  1
  Er  Er15  1  0.159452  0.333579  0.624551  1
  Er  Er16  1  0.821954  0.506296  0.750036  1
  Er  Er17  1  0.321954  0.993704  0.749964  1
  Er  Er18  1  0.176592  0.495183  0.250395  1
  Er  Er19  1  0.676592  0.004817  0.249605  1
  Pt  Pt20  1  0.676324  0.962580  0.457405  1
  Pt  Pt21  1  0.176324  0.537420  0.042595  1
  Pt  Pt22  1  0.329292  0.029606  0.952235  1
  Pt  Pt23  1  0.829292  0.470394  0.547765  1
  Pt  Pt24  1  0.313983  0.031047  0.546299  1
  Pt  Pt25  1  0.813983  0.468953  0.953701  1
  Pt  Pt26  1  0.676430  0.958743  0.041946  1
  Pt  Pt27  1  0.176430  0.541257  0.458054  1
  Pt  Pt28  1  0.455825  0.376998  0.751079  1
  Pt  Pt29  1  0.955825  0.123002  0.748921  1
  Pt  Pt30  1  0.545714  0.629466  0.251148  1
  Pt  Pt31  1  0.045714  0.870534  0.248852  1
  Pt  Pt32  1  0.687891  0.860409  0.750753  1
  Pt  Pt33  1  0.187891  0.639591  0.749247  1
  Pt  Pt34  1  0.309968  0.136320  0.249136  1
  Pt  Pt35  1  0.809968  0.363680  0.250864  1
