# generated using pymatgen
data_Lu6Sc4AlPb5
_symmetry_space_group_name_H-M   'P 1'
_cell_length_a   6.29121100
_cell_length_b   8.68990837
_cell_length_c   8.73328539
_cell_angle_alpha   119.83582773
_cell_angle_beta   90.00049020
_cell_angle_gamma   89.99900947
_symmetry_Int_Tables_number   1
_chemical_formula_structural   Lu6Sc4AlPb5
_chemical_formula_sum   'Lu6 Sc4 Al1 Pb5'
_cell_volume   414.16540063
_cell_formula_units_Z   1
loop_
 _symmetry_equiv_pos_site_id
 _symmetry_equiv_pos_as_xyz
  1  'x, y, z'
loop_
 _atom_site_type_symbol
 _atom_site_label
 _atom_site_symmetry_multiplicity
 _atom_site_fract_x
 _atom_site_fract_y
 _atom_site_fract_z
 _atom_site_occupancy
  Lu  Lu0  1  0.750042  0.238871  0.000000  1
  Lu  Lu1  1  0.750058  0.759979  0.772300  1
  Lu  Lu2  1  0.750058  0.987680  0.227700  1
  Lu  Lu3  1  0.250116  0.765361  0.000000  1
  Lu  Lu4  1  0.249931  0.235212  0.234631  1
  Lu  Lu5  1  0.249931  0.000580  0.765369  1
  Sc  Sc6  1  0.504379  0.341491  0.675474  1
  Sc  Sc7  1  0.504379  0.666017  0.324526  1
  Sc  Sc8  1  0.995618  0.665803  0.324167  1
  Sc  Sc9  1  0.995618  0.341636  0.675833  1
  Al  Al10  1  0.749823  0.596502  0.000000  1
  Pb  Pb11  1  0.749927  0.395972  0.397620  1
  Pb  Pb12  1  0.749927  0.998353  0.602380  1
  Pb  Pb13  1  0.250411  0.402011  0.000000  1
  Pb  Pb14  1  0.249891  0.601201  0.597868  1
  Pb  Pb15  1  0.249891  0.003332  0.402132  1
