# generated using pymatgen
data_Ca8DyErIr4
_symmetry_space_group_name_H-M   'P 1'
_cell_length_a   6.62055674
_cell_length_b   7.40264287
_cell_length_c   8.66398494
_cell_angle_alpha   97.45095931
_cell_angle_beta   112.46218165
_cell_angle_gamma   89.99999532
_symmetry_Int_Tables_number   1
_chemical_formula_structural   Ca8DyErIr4
_chemical_formula_sum   'Ca8 Dy1 Er1 Ir4'
_cell_volume   388.52102909
_cell_formula_units_Z   1
loop_
 _symmetry_equiv_pos_site_id
 _symmetry_equiv_pos_as_xyz
  1  'x, y, z'
loop_
 _atom_site_type_symbol
 _atom_site_label
 _atom_site_symmetry_multiplicity
 _atom_site_fract_x
 _atom_site_fract_y
 _atom_site_fract_z
 _atom_site_occupancy
  Ca  Ca0  1  0.803826  0.081282  0.826179  1
  Ca  Ca1  1  0.977648  0.418718  0.173821  1
  Ca  Ca2  1  0.196137  0.919295  0.174174  1
  Ca  Ca3  1  0.021962  0.580705  0.825826  1
  Ca  Ca4  1  0.204436  0.181905  0.564532  1
  Ca  Ca5  1  0.639903  0.318095  0.435468  1
  Ca  Ca6  1  0.795855  0.818419  0.435859  1
  Ca  Ca7  1  0.359997  0.681581  0.564141  1
  Dy  Dy8  1  0.561685  0.750000  0.000000  1
  Er  Er9  1  0.438929  0.250000  0.000000  1
  Ir  Ir10  1  0.597274  0.426402  0.791451  1
  Ir  Ir11  1  0.805822  0.073598  0.208549  1
  Ir  Ir12  1  0.402428  0.571849  0.208331  1
  Ir  Ir13  1  0.194098  0.928151  0.791669  1
