# generated using pymatgen
data_Zr12Be3Zn(Ir2N)4
_symmetry_space_group_name_H-M   'P 1'
_cell_length_a   8.45892019
_cell_length_b   8.49409201
_cell_length_c   8.45891500
_cell_angle_alpha   60.13688309
_cell_angle_beta   60.00001664
_cell_angle_gamma   60.13693893
_symmetry_Int_Tables_number   1
_chemical_formula_structural   Zr12Be3Zn(Ir2N)4
_chemical_formula_sum   'Zr12 Be3 Zn1 Ir8 N4'
_cell_volume   430.65277118
_cell_formula_units_Z   1
loop_
 _symmetry_equiv_pos_site_id
 _symmetry_equiv_pos_as_xyz
  1  'x, y, z'
loop_
 _atom_site_type_symbol
 _atom_site_label
 _atom_site_symmetry_multiplicity
 _atom_site_fract_x
 _atom_site_fract_y
 _atom_site_fract_z
 _atom_site_occupancy
  Zr  Zr0  1  0.805463  0.196156  0.192917  1
  Zr  Zr1  1  0.194853  0.805207  0.194854  1
  Zr  Zr2  1  0.805086  0.805206  0.194854  1
  Zr  Zr3  1  0.194854  0.805207  0.805086  1
  Zr  Zr4  1  0.805463  0.196156  0.805464  1
  Zr  Zr5  1  0.192917  0.196156  0.805464  1
  Zr  Zr6  1  0.444537  0.053844  0.057083  1
  Zr  Zr7  1  0.055147  0.444793  0.055146  1
  Zr  Zr8  1  0.444914  0.444794  0.055146  1
  Zr  Zr9  1  0.055146  0.444793  0.444914  1
  Zr  Zr10  1  0.444537  0.053844  0.444536  1
  Zr  Zr11  1  0.057083  0.053844  0.444536  1
  Be  Be12  1  0.625000  0.625000  0.125000  1
  Be  Be13  1  0.625000  0.625000  0.625000  1
  Be  Be14  1  0.125000  0.625000  0.625000  1
  Zn  Zn15  1  0.625000  0.125000  0.625000  1
  Ir  Ir16  1  0.412716  0.425873  0.748697  1
  Ir  Ir17  1  0.412715  0.425873  0.412714  1
  Ir  Ir18  1  0.748697  0.425874  0.412715  1
  Ir  Ir19  1  0.417167  0.748500  0.417167  1
  Ir  Ir20  1  0.837284  0.824127  0.501303  1
  Ir  Ir21  1  0.837285  0.824127  0.837286  1
  Ir  Ir22  1  0.501303  0.824126  0.837285  1
  Ir  Ir23  1  0.832833  0.501500  0.832833  1
  N  N24  1  0.125000  0.125000  0.625000  1
  N  N25  1  0.125000  0.125000  0.125000  1
  N  N26  1  0.625000  0.125000  0.125000  1
  N  N27  1  0.125000  0.625000  0.125000  1
