# generated using pymatgen
data_Ba4La7CeSe16
_symmetry_space_group_name_H-M   'P 1'
_cell_length_a   4.42753600
_cell_length_b   13.09360897
_cell_length_c   15.78258539
_cell_angle_alpha   89.96786736
_cell_angle_beta   90.00000000
_cell_angle_gamma   90.00000000
_symmetry_Int_Tables_number   1
_chemical_formula_structural   Ba4La7CeSe16
_chemical_formula_sum   'Ba4 La7 Ce1 Se16'
_cell_volume   914.95460476
_cell_formula_units_Z   1
loop_
 _symmetry_equiv_pos_site_id
 _symmetry_equiv_pos_as_xyz
  1  'x, y, z'
loop_
 _atom_site_type_symbol
 _atom_site_label
 _atom_site_symmetry_multiplicity
 _atom_site_fract_x
 _atom_site_fract_y
 _atom_site_fract_z
 _atom_site_occupancy
  Ba  Ba0  1  0.250000  0.755116  0.340503  1
  Ba  Ba1  1  0.250000  0.255713  0.160462  1
  Ba  Ba2  1  0.750000  0.243743  0.659005  1
  Ba  Ba3  1  0.750000  0.744025  0.840104  1
  La  La4  1  0.250000  0.425210  0.391521  1
  La  La5  1  0.250000  0.927383  0.109932  1
  La  La6  1  0.750000  0.572910  0.609748  1
  La  La7  1  0.750000  0.073266  0.890376  1
  La  La8  1  0.250000  0.420107  0.897275  1
  La  La9  1  0.250000  0.921430  0.601873  1
  La  La10  1  0.750000  0.579352  0.103274  1
  Ce  Ce11  1  0.750000  0.079567  0.396900  1
  Se  Se12  1  0.250000  0.208515  0.820124  1
  Se  Se13  1  0.250000  0.709373  0.678357  1
  Se  Se14  1  0.750000  0.791627  0.179829  1
  Se  Se15  1  0.750000  0.289469  0.321800  1
  Se  Se16  1  0.250000  0.132580  0.520609  1
  Se  Se17  1  0.250000  0.631873  0.976805  1
  Se  Se18  1  0.750000  0.870121  0.474952  1
  Se  Se19  1  0.750000  0.367848  0.023643  1
  Se  Se20  1  0.250000  0.519150  0.217546  1
  Se  Se21  1  0.250000  0.021941  0.284338  1
  Se  Se22  1  0.750000  0.480236  0.783456  1
  Se  Se23  1  0.750000  0.980792  0.716016  1
  Se  Se24  1  0.250000  0.418293  0.580907  1
  Se  Se25  1  0.250000  0.918714  0.920262  1
  Se  Se26  1  0.750000  0.580238  0.420431  1
  Se  Se27  1  0.750000  0.081406  0.079950  1
