# generated using pymatgen
data_Mn3V2Si2Ir
_symmetry_space_group_name_H-M   'P 1'
_cell_length_a   4.05959900
_cell_length_b   4.05959775
_cell_length_c   7.05634254
_cell_angle_alpha   73.28231133
_cell_angle_beta   90.00000000
_cell_angle_gamma   119.99998572
_symmetry_Int_Tables_number   1
_chemical_formula_structural   Mn3V2Si2Ir
_chemical_formula_sum   'Mn3 V2 Si2 Ir1'
_cell_volume   94.99296153
_cell_formula_units_Z   1
loop_
 _symmetry_equiv_pos_site_id
 _symmetry_equiv_pos_as_xyz
  1  'x, y, z'
loop_
 _atom_site_type_symbol
 _atom_site_label
 _atom_site_symmetry_multiplicity
 _atom_site_fract_x
 _atom_site_fract_y
 _atom_site_fract_z
 _atom_site_occupancy
  Mn  Mn0  1  0.498707  0.997414  0.503879  1
  Mn  Mn1  1  0.249789  0.499578  0.250633  1
  Mn  Mn2  1  0.749581  0.499163  0.751256  1
  V  V3  1  0.871138  0.742276  0.386587  1
  V  V4  1  0.382223  0.764444  0.853333  1
  Si  Si5  1  0.619940  0.239881  0.140179  1
  Si  Si6  1  0.128857  0.257713  0.613429  1
  Ir  Ir7  1  0.999766  0.999532  0.000703  1
