# generated using pymatgen
data_Gd10Dy7Y3Sn16
_symmetry_space_group_name_H-M   'P 1'
_cell_length_a   8.05724806
_cell_length_b   8.20407314
_cell_length_c   15.51208600
_cell_angle_alpha   90.00828281
_cell_angle_beta   89.99317336
_cell_angle_gamma   89.99347111
_symmetry_Int_Tables_number   1
_chemical_formula_structural   Gd10Dy7Y3Sn16
_chemical_formula_sum   'Gd10 Dy7 Y3 Sn16'
_cell_volume   1025.38379875
_cell_formula_units_Z   1
loop_
 _symmetry_equiv_pos_site_id
 _symmetry_equiv_pos_as_xyz
  1  'x, y, z'
loop_
 _atom_site_type_symbol
 _atom_site_label
 _atom_site_symmetry_multiplicity
 _atom_site_fract_x
 _atom_site_fract_y
 _atom_site_fract_z
 _atom_site_occupancy
  Gd  Gd0  1  0.365295  0.836917  0.620364  1
  Gd  Gd1  1  0.865565  0.662349  0.879122  1
  Gd  Gd2  1  0.518319  0.319543  0.904430  1
  Gd  Gd3  1  0.017598  0.180575  0.594748  1
  Gd  Gd4  1  0.481846  0.679638  0.403233  1
  Gd  Gd5  1  0.981312  0.820467  0.098120  1
  Gd  Gd6  1  0.482116  0.679625  0.097104  1
  Gd  Gd7  1  0.982269  0.820632  0.403046  1
  Gd  Gd8  1  0.516819  0.319445  0.595183  1
  Gd  Gd9  1  0.017635  0.181005  0.904621  1
  Dy  Dy10  1  0.364134  0.837617  0.878105  1
  Dy  Dy11  1  0.864760  0.663064  0.621969  1
  Dy  Dy12  1  0.635345  0.161766  0.377554  1
  Dy  Dy13  1  0.135466  0.338401  0.122789  1
  Dy  Dy14  1  0.634785  0.161847  0.123378  1
  Dy  Dy15  1  0.135095  0.337456  0.376558  1
  Dy  Dy16  1  0.303042  0.002154  0.249915  1
  Y  Y17  1  0.196937  0.502723  0.750081  1
  Y  Y18  1  0.696539  0.997647  0.749776  1
  Y  Y19  1  0.803262  0.498075  0.250401  1
  Sn  Sn20  1  0.295906  0.038223  0.042236  1
  Sn  Sn21  1  0.796350  0.461257  0.458240  1
  Sn  Sn22  1  0.706443  0.962366  0.541103  1
  Sn  Sn23  1  0.207066  0.537640  0.958939  1
  Sn  Sn24  1  0.702336  0.963611  0.958733  1
  Sn  Sn25  1  0.201313  0.535966  0.541025  1
  Sn  Sn26  1  0.296006  0.039386  0.456564  1
  Sn  Sn27  1  0.795589  0.460276  0.043322  1
  Sn  Sn28  1  0.563156  0.618164  0.749161  1
  Sn  Sn29  1  0.062675  0.882638  0.750093  1
  Sn  Sn30  1  0.438014  0.380149  0.250256  1
  Sn  Sn31  1  0.937722  0.119504  0.249900  1
  Sn  Sn32  1  0.326004  0.146287  0.749873  1
  Sn  Sn33  1  0.826866  0.353644  0.749358  1
  Sn  Sn34  1  0.672413  0.853544  0.250361  1
  Sn  Sn35  1  0.174001  0.646402  0.250337  1
