# generated using pymatgen
data_Ho6ZnNi2
_symmetry_space_group_name_H-M   'P 1'
_cell_length_a   8.28360796
_cell_length_b   8.28360783
_cell_length_c   8.28360822
_cell_angle_alpha   112.69331663
_cell_angle_beta   109.51067073
_cell_angle_gamma   106.27328622
_symmetry_Int_Tables_number   1
_chemical_formula_structural   Ho6ZnNi2
_chemical_formula_sum   'Ho12 Zn2 Ni4'
_cell_volume   436.18634192
_cell_formula_units_Z   2
loop_
 _symmetry_equiv_pos_site_id
 _symmetry_equiv_pos_as_xyz
  1  'x, y, z'
loop_
 _atom_site_type_symbol
 _atom_site_label
 _atom_site_symmetry_multiplicity
 _atom_site_fract_x
 _atom_site_fract_y
 _atom_site_fract_z
 _atom_site_occupancy
  Ho  Ho0  1  0.430106  0.237833  0.192273  1
  Ho  Ho1  1  0.569894  0.762167  0.807727  1
  Ho  Ho2  1  0.045560  0.237833  0.807727  1
  Ho  Ho3  1  0.954440  0.762167  0.192273  1
  Ho  Ho4  1  0.178441  0.284334  0.462774  1
  Ho  Ho5  1  0.821559  0.715666  0.537226  1
  Ho  Ho6  1  0.178441  0.715666  0.894107  1
  Ho  Ho7  1  0.821559  0.284334  0.105893  1
  Ho  Ho8  1  0.326302  0.634043  0.307742  1
  Ho  Ho9  1  0.673698  0.365957  0.692258  1
  Ho  Ho10  1  0.326302  0.018559  0.692258  1
  Ho  Ho11  1  0.673698  0.981441  0.307742  1
  Zn  Zn12  1  0.500000  0.500000  0.000000  1
  Zn  Zn13  1  0.000000  0.000000  0.000000  1
  Ni  Ni14  1  0.344495  0.000000  0.344495  1
  Ni  Ni15  1  0.655505  0.000000  0.655505  1
  Ni  Ni16  1  0.123006  0.623006  0.500000  1
  Ni  Ni17  1  0.876994  0.376994  0.500000  1
