# generated using pymatgen
data_Dy2In(AsRh2)6
_symmetry_space_group_name_H-M   'P 1'
_cell_length_a   10.05066700
_cell_length_b   10.05066730
_cell_length_c   3.98731700
_cell_angle_alpha   90.00000000
_cell_angle_beta   90.00000000
_cell_angle_gamma   120.00000232
_symmetry_Int_Tables_number   1
_chemical_formula_structural   Dy2In(AsRh2)6
_chemical_formula_sum   'Dy2 In1 As6 Rh12'
_cell_volume   348.81983068
_cell_formula_units_Z   1
loop_
 _symmetry_equiv_pos_site_id
 _symmetry_equiv_pos_as_xyz
  1  'x, y, z'
loop_
 _atom_site_type_symbol
 _atom_site_label
 _atom_site_symmetry_multiplicity
 _atom_site_fract_x
 _atom_site_fract_y
 _atom_site_fract_z
 _atom_site_occupancy
  Dy  Dy0  1  0.333333  0.666667  0.756064  1
  Dy  Dy1  1  0.666667  0.333333  0.245556  1
  In  In2  1  0.000000  0.000000  0.587124  1
  As  As3  1  0.882743  0.595069  0.746705  1
  As  As4  1  0.404931  0.287674  0.746705  1
  As  As5  1  0.712326  0.117257  0.746705  1
  As  As6  1  0.115895  0.404392  0.255036  1
  As  As7  1  0.595608  0.711503  0.255036  1
  As  As8  1  0.288497  0.884105  0.255036  1
  Rh  Rh9  1  0.617024  0.550064  0.749937  1
  Rh  Rh10  1  0.449936  0.066960  0.749937  1
  Rh  Rh11  1  0.933040  0.382976  0.749937  1
  Rh  Rh12  1  0.386608  0.450253  0.252270  1
  Rh  Rh13  1  0.549747  0.936355  0.252270  1
  Rh  Rh14  1  0.063645  0.613392  0.252270  1
  Rh  Rh15  1  0.129060  0.836681  0.757633  1
  Rh  Rh16  1  0.163319  0.292378  0.757633  1
  Rh  Rh17  1  0.707622  0.870940  0.757633  1
  Rh  Rh18  1  0.876055  0.153621  0.243598  1
  Rh  Rh19  1  0.846379  0.722434  0.243598  1
  Rh  Rh20  1  0.277566  0.123945  0.243598  1
