# generated using pymatgen
data_La2ZnIn7Au4
_symmetry_space_group_name_H-M   'P 1'
_cell_length_a   4.75086300
_cell_length_b   7.33321057
_cell_length_c   18.86416235
_cell_angle_alpha   90.68564521
_cell_angle_beta   90.00000000
_cell_angle_gamma   90.00000000
_symmetry_Int_Tables_number   1
_chemical_formula_structural   La2ZnIn7Au4
_chemical_formula_sum   'La4 Zn2 In14 Au8'
_cell_volume   657.16298087
_cell_formula_units_Z   2
loop_
 _symmetry_equiv_pos_site_id
 _symmetry_equiv_pos_as_xyz
  1  'x, y, z'
loop_
 _atom_site_type_symbol
 _atom_site_label
 _atom_site_symmetry_multiplicity
 _atom_site_fract_x
 _atom_site_fract_y
 _atom_site_fract_z
 _atom_site_occupancy
  La  La0  1  0.750000  0.993797  0.642541  1
  La  La1  1  0.250000  0.006203  0.357459  1
  La  La2  1  0.250000  0.478543  0.857084  1
  La  La3  1  0.750000  0.521457  0.142916  1
  Zn  Zn4  1  0.250000  0.272598  0.689623  1
  Zn  Zn5  1  0.750000  0.727402  0.310377  1
  In  In6  1  0.750000  0.770301  0.810638  1
  In  In7  1  0.250000  0.229699  0.189362  1
  In  In8  1  0.250000  0.665823  0.683646  1
  In  In9  1  0.750000  0.334177  0.316354  1
  In  In10  1  0.750000  0.178170  0.814608  1
  In  In11  1  0.250000  0.821830  0.185392  1
  In  In12  1  0.250000  0.159801  0.539004  1
  In  In13  1  0.750000  0.840199  0.460996  1
  In  In14  1  0.750000  0.651702  0.965130  1
  In  In15  1  0.250000  0.348298  0.034870  1
  In  In16  1  0.250000  0.491133  0.428707  1
  In  In17  1  0.750000  0.508867  0.571293  1
  In  In18  1  0.750000  0.992470  0.071517  1
  In  In19  1  0.250000  0.007530  0.928483  1
  Au  Au20  1  0.250000  0.758805  0.539391  1
  Au  Au21  1  0.750000  0.241195  0.460609  1
  Au  Au22  1  0.750000  0.255755  0.960801  1
  Au  Au23  1  0.250000  0.744245  0.039199  1
  Au  Au24  1  0.250000  0.979532  0.776291  1
  Au  Au25  1  0.750000  0.020468  0.223709  1
  Au  Au26  1  0.750000  0.460385  0.717721  1
  Au  Au27  1  0.250000  0.539615  0.282279  1
