# generated using pymatgen
data_Tb4Lu8GaNi4Sn
_symmetry_space_group_name_H-M   'P 1'
_cell_length_a   8.25292713
_cell_length_b   8.25292726
_cell_length_c   8.25292825
_cell_angle_alpha   106.57034917
_cell_angle_beta   109.80430016
_cell_angle_gamma   112.08606387
_symmetry_Int_Tables_number   1
_chemical_formula_structural   Tb4Lu8GaNi4Sn
_chemical_formula_sum   'Tb4 Lu8 Ga1 Ni4 Sn1'
_cell_volume   431.70788253
_cell_formula_units_Z   1
loop_
 _symmetry_equiv_pos_site_id
 _symmetry_equiv_pos_as_xyz
  1  'x, y, z'
loop_
 _atom_site_type_symbol
 _atom_site_label
 _atom_site_symmetry_multiplicity
 _atom_site_fract_x
 _atom_site_fract_y
 _atom_site_fract_z
 _atom_site_occupancy
  Tb  Tb0  1  0.608571  0.790600  0.817972  1
  Tb  Tb1  1  0.972626  0.790600  0.182028  1
  Tb  Tb2  1  0.027374  0.209400  0.817972  1
  Tb  Tb3  1  0.391429  0.209400  0.182028  1
  Lu  Lu4  1  0.700195  0.273642  0.973837  1
  Lu  Lu5  1  0.299805  0.726358  0.026163  1
  Lu  Lu6  1  0.700195  0.726358  0.426553  1
  Lu  Lu7  1  0.299805  0.273642  0.573447  1
  Lu  Lu8  1  0.808688  0.134036  0.325348  1
  Lu  Lu9  1  0.808688  0.483341  0.674652  1
  Lu  Lu10  1  0.191312  0.865964  0.674652  1
  Lu  Lu11  1  0.191312  0.516659  0.325348  1
  Ga  Ga12  1  0.500000  0.500000  0.000000  1
  Ni  Ni13  1  0.855997  0.500000  0.355997  1
  Ni  Ni14  1  0.144003  0.500000  0.644003  1
  Ni  Ni15  1  0.000000  0.129358  0.129358  1
  Ni  Ni16  1  0.000000  0.870642  0.870642  1
  Sn  Sn17  1  0.500000  0.000000  0.500000  1
