# generated using pymatgen
data_Tm5Bi2Os
_symmetry_space_group_name_H-M   'P 1'
_cell_length_a   7.86170900
_cell_length_b   8.97324100
_cell_length_c   12.34901700
_cell_angle_alpha   90.00000000
_cell_angle_beta   90.00000000
_cell_angle_gamma   90.00000000
_symmetry_Int_Tables_number   1
_chemical_formula_structural   Tm5Bi2Os
_chemical_formula_sum   'Tm20 Bi8 Os4'
_cell_volume   871.16152194
_cell_formula_units_Z   4
loop_
 _symmetry_equiv_pos_site_id
 _symmetry_equiv_pos_as_xyz
  1  'x, y, z'
loop_
 _atom_site_type_symbol
 _atom_site_label
 _atom_site_symmetry_multiplicity
 _atom_site_fract_x
 _atom_site_fract_y
 _atom_site_fract_z
 _atom_site_occupancy
  Tm  Tm0  1  0.839871  0.750000  0.790624  1
  Tm  Tm1  1  0.160129  0.250000  0.209376  1
  Tm  Tm2  1  0.339871  0.250000  0.709376  1
  Tm  Tm3  1  0.660129  0.750000  0.290624  1
  Tm  Tm4  1  0.380030  0.750000  0.691315  1
  Tm  Tm5  1  0.619970  0.250000  0.308685  1
  Tm  Tm6  1  0.880030  0.250000  0.808685  1
  Tm  Tm7  1  0.119970  0.750000  0.191315  1
  Tm  Tm8  1  0.940185  0.750000  0.504268  1
  Tm  Tm9  1  0.059815  0.250000  0.495732  1
  Tm  Tm10  1  0.440185  0.250000  0.995732  1
  Tm  Tm11  1  0.559815  0.750000  0.004268  1
  Tm  Tm12  1  0.672918  0.042992  0.563879  1
  Tm  Tm13  1  0.327082  0.957008  0.436121  1
  Tm  Tm14  1  0.172918  0.957008  0.936121  1
  Tm  Tm15  1  0.327082  0.542992  0.436121  1
  Tm  Tm16  1  0.827082  0.042992  0.063879  1
  Tm  Tm17  1  0.672918  0.457008  0.563879  1
  Tm  Tm18  1  0.827082  0.457008  0.063879  1
  Tm  Tm19  1  0.172918  0.542992  0.936121  1
  Bi  Bi20  1  0.567929  0.492255  0.828566  1
  Bi  Bi21  1  0.432071  0.507745  0.171434  1
  Bi  Bi22  1  0.067929  0.507745  0.671434  1
  Bi  Bi23  1  0.432071  0.992255  0.171434  1
  Bi  Bi24  1  0.932071  0.492255  0.328566  1
  Bi  Bi25  1  0.567929  0.007745  0.828566  1
  Bi  Bi26  1  0.932071  0.007745  0.328566  1
  Bi  Bi27  1  0.067929  0.992255  0.671434  1
  Os  Os28  1  0.575647  0.750000  0.508892  1
  Os  Os29  1  0.424353  0.250000  0.491108  1
  Os  Os30  1  0.075647  0.250000  0.991108  1
  Os  Os31  1  0.924353  0.750000  0.008892  1
