# generated using pymatgen
data_Tb4Co18Si3P9Os2
_symmetry_space_group_name_H-M   'P 1'
_cell_length_a   3.69210300
_cell_length_b   10.34514502
_cell_length_c   11.79066903
_cell_angle_alpha   90.00765152
_cell_angle_beta   90.00000000
_cell_angle_gamma   90.00000000
_symmetry_Int_Tables_number   1
_chemical_formula_structural   Tb4Co18Si3P9Os2
_chemical_formula_sum   'Tb4 Co18 Si3 P9 Os2'
_cell_volume   450.34861977
_cell_formula_units_Z   1
loop_
 _symmetry_equiv_pos_site_id
 _symmetry_equiv_pos_as_xyz
  1  'x, y, z'
loop_
 _atom_site_type_symbol
 _atom_site_label
 _atom_site_symmetry_multiplicity
 _atom_site_fract_x
 _atom_site_fract_y
 _atom_site_fract_z
 _atom_site_occupancy
  Tb  Tb0  1  0.250000  0.582347  0.700476  1
  Tb  Tb1  1  0.250000  0.920423  0.200886  1
  Tb  Tb2  1  0.750000  0.414597  0.296324  1
  Tb  Tb3  1  0.750000  0.086202  0.795722  1
  Co  Co4  1  0.750000  0.285743  0.009059  1
  Co  Co5  1  0.750000  0.214450  0.509464  1
  Co  Co6  1  0.250000  0.405965  0.488035  1
  Co  Co7  1  0.250000  0.095199  0.987220  1
  Co  Co8  1  0.750000  0.591706  0.511855  1
  Co  Co9  1  0.750000  0.911085  0.007770  1
  Co  Co10  1  0.250000  0.219919  0.175454  1
  Co  Co11  1  0.250000  0.280028  0.675475  1
  Co  Co12  1  0.750000  0.785364  0.821703  1
  Co  Co13  1  0.750000  0.713601  0.326239  1
  Co  Co14  1  0.250000  0.887232  0.701282  1
  Co  Co15  1  0.250000  0.611356  0.201921  1
  Co  Co16  1  0.750000  0.119728  0.300807  1
  Co  Co17  1  0.750000  0.380578  0.800242  1
  Co  Co18  1  0.250000  0.461568  0.934163  1
  Co  Co19  1  0.250000  0.038254  0.435276  1
  Co  Co20  1  0.750000  0.526542  0.070198  1
  Co  Co21  1  0.750000  0.968176  0.571874  1
  Si  Si22  1  0.750000  0.581544  0.888018  1
  Si  Si23  1  0.750000  0.918364  0.387658  1
  Si  Si24  1  0.750000  0.728045  0.132257  1
  P  P25  1  0.250000  0.417019  0.113262  1
  P  P26  1  0.250000  0.083159  0.613162  1
  P  P27  1  0.250000  0.270885  0.867054  1
  P  P28  1  0.250000  0.229066  0.367734  1
  P  P29  1  0.750000  0.772320  0.633296  1
  P  P30  1  0.250000  0.595960  0.390651  1
  P  P31  1  0.250000  0.904334  0.890868  1
  P  P32  1  0.750000  0.396433  0.608355  1
  P  P33  1  0.750000  0.103740  0.107959  1
  Os  Os34  1  0.250000  0.709931  0.988304  1
  Os  Os35  1  0.250000  0.789137  0.489977  1
