# generated using pymatgen
data_Dy12Co5Sb
_symmetry_space_group_name_H-M   'P 1'
_cell_length_a   8.26540142
_cell_length_b   8.26540120
_cell_length_c   8.26540103
_cell_angle_alpha   110.87218954
_cell_angle_beta   110.59244281
_cell_angle_gamma   106.97757210
_symmetry_Int_Tables_number   1
_chemical_formula_structural   Dy12Co5Sb
_chemical_formula_sum   'Dy12 Co5 Sb1'
_cell_volume   434.06339320
_cell_formula_units_Z   1
loop_
 _symmetry_equiv_pos_site_id
 _symmetry_equiv_pos_as_xyz
  1  'x, y, z'
loop_
 _atom_site_type_symbol
 _atom_site_label
 _atom_site_symmetry_multiplicity
 _atom_site_fract_x
 _atom_site_fract_y
 _atom_site_fract_z
 _atom_site_occupancy
  Dy  Dy0  1  0.815996  0.711547  0.527543  1
  Dy  Dy1  1  0.184004  0.288453  0.472457  1
  Dy  Dy2  1  0.184004  0.711547  0.895550  1
  Dy  Dy3  1  0.815996  0.288453  0.104450  1
  Dy  Dy4  1  0.686566  0.379374  0.692808  1
  Dy  Dy5  1  0.313434  0.620626  0.307192  1
  Dy  Dy6  1  0.686566  0.993758  0.307192  1
  Dy  Dy7  1  0.313434  0.006242  0.692808  1
  Dy  Dy8  1  0.596150  0.790182  0.805968  1
  Dy  Dy9  1  0.403850  0.209818  0.194032  1
  Dy  Dy10  1  0.984214  0.790182  0.194032  1
  Dy  Dy11  1  0.015786  0.209818  0.805968  1
  Co  Co12  1  0.626136  0.000000  0.626136  1
  Co  Co13  1  0.373864  0.000000  0.373864  1
  Co  Co14  1  0.112338  0.612338  0.500000  1
  Co  Co15  1  0.887662  0.387662  0.500000  1
  Co  Co16  1  0.000000  0.000000  0.000000  1
  Sb  Sb17  1  0.500000  0.500000  0.000000  1
