# generated using pymatgen
data_TbMg3Ge6Ir7
_symmetry_space_group_name_H-M   'P 1'
_cell_length_a   6.99712749
_cell_length_b   7.17610337
_cell_length_c   7.17610412
_cell_angle_alpha   109.97092216
_cell_angle_beta   108.96677893
_cell_angle_gamma   108.96677321
_symmetry_Int_Tables_number   1
_chemical_formula_structural   TbMg3Ge6Ir7
_chemical_formula_sum   'Tb1 Mg3 Ge6 Ir7'
_cell_volume   279.08803612
_cell_formula_units_Z   1
loop_
 _symmetry_equiv_pos_site_id
 _symmetry_equiv_pos_as_xyz
  1  'x, y, z'
loop_
 _atom_site_type_symbol
 _atom_site_label
 _atom_site_symmetry_multiplicity
 _atom_site_fract_x
 _atom_site_fract_y
 _atom_site_fract_z
 _atom_site_occupancy
  Tb  Tb0  1  0.500000  0.000000  0.000000  1
  Mg  Mg1  1  0.000000  0.000000  0.500000  1
  Mg  Mg2  1  0.000000  0.500000  0.000000  1
  Mg  Mg3  1  0.500000  0.500000  0.500000  1
  Ge  Ge4  1  0.692479  0.685371  0.000000  1
  Ge  Ge5  1  0.307521  0.000000  0.314629  1
  Ge  Ge6  1  0.007109  0.314629  0.314629  1
  Ge  Ge7  1  0.307521  0.314629  0.000000  1
  Ge  Ge8  1  0.692479  0.000000  0.685371  1
  Ge  Ge9  1  0.992891  0.685371  0.685371  1
  Ir  Ir10  1  0.754278  0.254278  0.508556  1
  Ir  Ir11  1  0.754278  0.508556  0.254278  1
  Ir  Ir12  1  0.500000  0.254278  0.745722  1
  Ir  Ir13  1  0.245722  0.491444  0.745722  1
  Ir  Ir14  1  0.245722  0.745722  0.491444  1
  Ir  Ir15  1  0.500000  0.745722  0.254278  1
  Ir  Ir16  1  0.000000  0.000000  0.000000  1
