# generated using pymatgen
data_Tb3ErRh4F28
_symmetry_space_group_name_H-M   'P 1'
_cell_length_a   5.51765310
_cell_length_b   8.89855197
_cell_length_c   11.95636704
_cell_angle_alpha   62.52863306
_cell_angle_beta   89.95248909
_cell_angle_gamma   89.99252678
_symmetry_Int_Tables_number   1
_chemical_formula_structural   Tb3ErRh4F28
_chemical_formula_sum   'Tb3 Er1 Rh4 F28'
_cell_volume   520.85236657
_cell_formula_units_Z   1
loop_
 _symmetry_equiv_pos_site_id
 _symmetry_equiv_pos_as_xyz
  1  'x, y, z'
loop_
 _atom_site_type_symbol
 _atom_site_label
 _atom_site_symmetry_multiplicity
 _atom_site_fract_x
 _atom_site_fract_y
 _atom_site_fract_z
 _atom_site_occupancy
  Tb  Tb0  1  0.760865  0.811886  0.765662  1
  Tb  Tb1  1  0.260845  0.187501  0.734571  1
  Tb  Tb2  1  0.239536  0.185897  0.234550  1
  Er  Er3  1  0.738652  0.812232  0.265453  1
  Rh  Rh4  1  0.756996  0.272585  0.957006  1
  Rh  Rh5  1  0.257639  0.726693  0.542173  1
  Rh  Rh6  1  0.241514  0.726797  0.045165  1
  Rh  Rh7  1  0.742974  0.275103  0.455522  1
  F  F8  1  0.439351  0.705350  0.917942  1
  F  F9  1  0.938242  0.295600  0.583406  1
  F  F10  1  0.562033  0.294442  0.084413  1
  F  F11  1  0.060024  0.705301  0.415348  1
  F  F12  1  0.443634  0.280357  0.541962  1
  F  F13  1  0.943698  0.720640  0.957911  1
  F  F14  1  0.557179  0.721735  0.454848  1
  F  F15  1  0.056936  0.278494  0.042688  1
  F  F16  1  0.771834  0.516813  0.860721  1
  F  F17  1  0.273179  0.482635  0.638716  1
  F  F18  1  0.227106  0.482299  0.140958  1
  F  F19  1  0.729306  0.519791  0.359590  1
  F  F20  1  0.755359  0.028643  0.050247  1
  F  F21  1  0.255221  0.970849  0.449720  1
  F  F22  1  0.243161  0.970925  0.951340  1
  F  F23  1  0.744159  0.031025  0.548750  1
  F  F24  1  0.966255  0.727210  0.634813  1
  F  F25  1  0.464252  0.272253  0.865572  1
  F  F26  1  0.034508  0.272711  0.364038  1
  F  F27  1  0.532721  0.728541  0.138087  1
  F  F28  1  0.046113  0.746863  0.174719  1
  F  F29  1  0.551607  0.255570  0.325356  1
  F  F30  1  0.947557  0.253754  0.826301  1
  F  F31  1  0.449757  0.745752  0.672452  1
  F  F32  1  0.417679  0.968075  0.231546  1
  F  F33  1  0.912821  0.026352  0.268426  1
  F  F34  1  0.588448  0.030658  0.769097  1
  F  F35  1  0.088838  0.968668  0.730930  1
