# generated using pymatgen
data_Yb5DyAl24Os5Rh3
_symmetry_space_group_name_H-M   'P 1'
_cell_length_a   8.83271711
_cell_length_b   8.82544542
_cell_length_c   9.59631120
_cell_angle_alpha   89.81953382
_cell_angle_beta   89.89725958
_cell_angle_gamma   119.86436438
_symmetry_Int_Tables_number   1
_chemical_formula_structural   Yb5DyAl24Os5Rh3
_chemical_formula_sum   'Yb5 Dy1 Al24 Os5 Rh3'
_cell_volume   648.71276683
_cell_formula_units_Z   1
loop_
 _symmetry_equiv_pos_site_id
 _symmetry_equiv_pos_as_xyz
  1  'x, y, z'
loop_
 _atom_site_type_symbol
 _atom_site_label
 _atom_site_symmetry_multiplicity
 _atom_site_fract_x
 _atom_site_fract_y
 _atom_site_fract_z
 _atom_site_occupancy
  Yb  Yb0  1  0.809377  0.616487  0.748845  1
  Yb  Yb1  1  0.608494  0.807432  0.250007  1
  Yb  Yb2  1  0.389730  0.191167  0.749382  1
  Yb  Yb3  1  0.198144  0.803646  0.251606  1
  Yb  Yb4  1  0.801636  0.194384  0.748446  1
  Dy  Dy5  1  0.183393  0.375087  0.252158  1
  Al  Al6  1  0.334631  0.667022  0.007488  1
  Al  Al7  1  0.666724  0.335503  0.999170  1
  Al  Al8  1  0.668665  0.335904  0.502065  1
  Al  Al9  1  0.334553  0.666274  0.492560  1
  Al  Al10  1  0.161591  0.324329  0.578592  1
  Al  Al11  1  0.839988  0.677072  0.423024  1
  Al  Al12  1  0.676692  0.839444  0.576625  1
  Al  Al13  1  0.837306  0.677213  0.077843  1
  Al  Al14  1  0.324434  0.161064  0.423523  1
  Al  Al15  1  0.163682  0.324589  0.920713  1
  Al  Al16  1  0.162911  0.837409  0.574174  1
  Al  Al17  1  0.323656  0.161037  0.076883  1
  Al  Al18  1  0.836204  0.161832  0.424547  1
  Al  Al19  1  0.676814  0.840205  0.923013  1
  Al  Al20  1  0.834268  0.159269  0.076274  1
  Al  Al21  1  0.165506  0.840739  0.924853  1
  Al  Al22  1  0.560727  0.124508  0.249403  1
  Al  Al23  1  0.438151  0.874439  0.750494  1
  Al  Al24  1  0.878172  0.440435  0.249475  1
  Al  Al25  1  0.122221  0.560547  0.749715  1
  Al  Al26  1  0.560067  0.439962  0.250038  1
  Al  Al27  1  0.438852  0.561826  0.750156  1
  Al  Al28  1  0.995175  0.990676  0.250033  1
  Al  Al29  1  0.000635  0.002379  0.750152  1
  Os  Os30  1  0.501229  0.002721  0.998136  1
  Os  Os31  1  0.501643  0.002087  0.501375  1
  Os  Os32  1  0.001858  0.500826  0.498739  1
  Os  Os33  1  0.001060  0.001438  0.000543  1
  Os  Os34  1  0.000973  0.001433  0.500164  1
  Rh  Rh35  1  0.000292  0.499570  0.999646  1
  Rh  Rh36  1  0.500332  0.500424  0.999589  1
  Rh  Rh37  1  0.500218  0.499620  0.500551  1
