# generated using pymatgen
data_Sc4ZnSi6IrRh5
_symmetry_space_group_name_H-M   'P 1'
_cell_length_a   6.96585865
_cell_length_b   6.96585812
_cell_length_c   6.96585813
_cell_angle_alpha   109.48244929
_cell_angle_beta   109.48244246
_cell_angle_gamma   109.44877292
_symmetry_Int_Tables_number   1
_chemical_formula_structural   Sc4ZnSi6IrRh5
_chemical_formula_sum   'Sc4 Zn1 Si6 Ir1 Rh5'
_cell_volume   260.19680788
_cell_formula_units_Z   1
loop_
 _symmetry_equiv_pos_site_id
 _symmetry_equiv_pos_as_xyz
  1  'x, y, z'
loop_
 _atom_site_type_symbol
 _atom_site_label
 _atom_site_symmetry_multiplicity
 _atom_site_fract_x
 _atom_site_fract_y
 _atom_site_fract_z
 _atom_site_occupancy
  Sc  Sc0  1  0.002616  0.997384  0.500000  1
  Sc  Sc1  1  0.002616  0.502616  0.005233  1
  Sc  Sc2  1  0.497384  0.997384  0.994767  1
  Sc  Sc3  1  0.497384  0.502616  0.500000  1
  Zn  Zn4  1  0.750000  0.250000  0.500000  1
  Si  Si5  1  0.678875  0.678875  0.000000  1
  Si  Si6  1  0.304773  0.991947  0.312826  1
  Si  Si7  1  0.008053  0.320879  0.312826  1
  Si  Si8  1  0.321125  0.321125  0.000000  1
  Si  Si9  1  0.679121  0.991947  0.687174  1
  Si  Si10  1  0.008053  0.695227  0.687174  1
  Ir  Ir11  1  0.000000  0.000000  0.000000  1
  Rh  Rh12  1  0.747312  0.493006  0.254306  1
  Rh  Rh13  1  0.506994  0.252688  0.745694  1
  Rh  Rh14  1  0.238700  0.493006  0.745694  1
  Rh  Rh15  1  0.250000  0.750000  0.500000  1
  Rh  Rh16  1  0.506994  0.761300  0.254306  1
