# generated using pymatgen
data_Er10Hg3Pd
_symmetry_space_group_name_H-M   'P 1'
_cell_length_a   9.62436400
_cell_length_b   9.62436424
_cell_length_c   9.51702600
_cell_angle_alpha   90.00000000
_cell_angle_beta   90.00000000
_cell_angle_gamma   119.99999916
_symmetry_Int_Tables_number   1
_chemical_formula_structural   Er10Hg3Pd
_chemical_formula_sum   'Er20 Hg6 Pd2'
_cell_volume   763.44188304
_cell_formula_units_Z   2
loop_
 _symmetry_equiv_pos_site_id
 _symmetry_equiv_pos_as_xyz
  1  'x, y, z'
loop_
 _atom_site_type_symbol
 _atom_site_label
 _atom_site_symmetry_multiplicity
 _atom_site_fract_x
 _atom_site_fract_y
 _atom_site_fract_z
 _atom_site_occupancy
  Er  Er0  1  0.206685  0.793315  0.940959  1
  Er  Er1  1  0.206685  0.413370  0.940959  1
  Er  Er2  1  0.586630  0.793315  0.940959  1
  Er  Er3  1  0.793315  0.206685  0.059041  1
  Er  Er4  1  0.793315  0.586630  0.059041  1
  Er  Er5  1  0.413370  0.206685  0.059041  1
  Er  Er6  1  0.793315  0.206685  0.440959  1
  Er  Er7  1  0.793315  0.586630  0.440959  1
  Er  Er8  1  0.413370  0.206685  0.440959  1
  Er  Er9  1  0.206685  0.793315  0.559041  1
  Er  Er10  1  0.206685  0.413370  0.559041  1
  Er  Er11  1  0.586630  0.793315  0.559041  1
  Er  Er12  1  0.542764  0.457236  0.750000  1
  Er  Er13  1  0.542764  0.085527  0.750000  1
  Er  Er14  1  0.914473  0.457236  0.750000  1
  Er  Er15  1  0.457236  0.542764  0.250000  1
  Er  Er16  1  0.457236  0.914473  0.250000  1
  Er  Er17  1  0.085527  0.542764  0.250000  1
  Er  Er18  1  0.000000  0.000000  0.000000  1
  Er  Er19  1  0.000000  0.000000  0.500000  1
  Hg  Hg20  1  0.879764  0.120236  0.750000  1
  Hg  Hg21  1  0.879764  0.759529  0.750000  1
  Hg  Hg22  1  0.240471  0.120236  0.750000  1
  Hg  Hg23  1  0.120236  0.879764  0.250000  1
  Hg  Hg24  1  0.120236  0.240471  0.250000  1
  Hg  Hg25  1  0.759529  0.879764  0.250000  1
  Pd  Pd26  1  0.333333  0.666667  0.750000  1
  Pd  Pd27  1  0.666667  0.333333  0.250000  1
