# generated using pymatgen
data_LiCaAs2Pd
_symmetry_space_group_name_H-M   'P 1'
_cell_length_a   6.16424941
_cell_length_b   6.16424974
_cell_length_c   6.16424914
_cell_angle_alpha   140.23700160
_cell_angle_beta   140.23700494
_cell_angle_gamma   57.49362143
_symmetry_Int_Tables_number   1
_chemical_formula_structural   LiCaAs2Pd
_chemical_formula_sum   'Li1 Ca1 As2 Pd1'
_cell_volume   95.00136294
_cell_formula_units_Z   1
loop_
 _symmetry_equiv_pos_site_id
 _symmetry_equiv_pos_as_xyz
  1  'x, y, z'
loop_
 _atom_site_type_symbol
 _atom_site_label
 _atom_site_symmetry_multiplicity
 _atom_site_fract_x
 _atom_site_fract_y
 _atom_site_fract_z
 _atom_site_occupancy
  Li  Li0  1  0.750000  0.250000  0.500000  1
  Ca  Ca1  1  0.000000  0.000000  0.000000  1
  As  As2  1  0.616254  0.616254  0.000000  1
  As  As3  1  0.383746  0.383746  0.000000  1
  Pd  Pd4  1  0.250000  0.750000  0.500000  1
