# generated using pymatgen
data_ThTi4(NbSn3)2
_symmetry_space_group_name_H-M   'P 1'
_cell_length_a   5.75801584
_cell_length_b   5.75801529
_cell_length_c   9.68465900
_cell_angle_alpha   90.00000000
_cell_angle_beta   90.00000000
_cell_angle_gamma   119.78813126
_symmetry_Int_Tables_number   1
_chemical_formula_structural   ThTi4(NbSn3)2
_chemical_formula_sum   'Th1 Ti4 Nb2 Sn6'
_cell_volume   278.66592654
_cell_formula_units_Z   1
loop_
 _symmetry_equiv_pos_site_id
 _symmetry_equiv_pos_as_xyz
  1  'x, y, z'
loop_
 _atom_site_type_symbol
 _atom_site_label
 _atom_site_symmetry_multiplicity
 _atom_site_fract_x
 _atom_site_fract_y
 _atom_site_fract_z
 _atom_site_occupancy
  Th  Th0  1  0.000000  0.000000  0.000000  1
  Ti  Ti1  1  0.000000  0.500000  0.753463  1
  Ti  Ti2  1  0.500000  0.000000  0.753463  1
  Ti  Ti3  1  0.000000  0.500000  0.246537  1
  Ti  Ti4  1  0.500000  0.000000  0.246537  1
  Nb  Nb5  1  0.500000  0.500000  0.753115  1
  Nb  Nb6  1  0.500000  0.500000  0.246885  1
  Sn  Sn7  1  0.667066  0.332934  0.500000  1
  Sn  Sn8  1  0.332934  0.667066  0.500000  1
  Sn  Sn9  1  0.668238  0.331762  0.000000  1
  Sn  Sn10  1  0.331762  0.668238  0.000000  1
  Sn  Sn11  1  0.000000  0.000000  0.666676  1
  Sn  Sn12  1  0.000000  0.000000  0.333324  1
