# generated using pymatgen
data_HfZr11N16
_symmetry_space_group_name_H-M   'P 1'
_cell_length_a   3.29612700
_cell_length_b   9.89107574
_cell_length_c   10.89575527
_cell_angle_alpha   89.87677932
_cell_angle_beta   90.00000000
_cell_angle_gamma   90.00000000
_symmetry_Int_Tables_number   1
_chemical_formula_structural   HfZr11N16
_chemical_formula_sum   'Hf1 Zr11 N16'
_cell_volume   355.22522667
_cell_formula_units_Z   1
loop_
 _symmetry_equiv_pos_site_id
 _symmetry_equiv_pos_as_xyz
  1  'x, y, z'
loop_
 _atom_site_type_symbol
 _atom_site_label
 _atom_site_symmetry_multiplicity
 _atom_site_fract_x
 _atom_site_fract_y
 _atom_site_fract_z
 _atom_site_occupancy
  Hf  Hf0  1  0.250000  0.930943  0.124421  1
  Zr  Zr1  1  0.750000  0.069483  0.876028  1
  Zr  Zr2  1  0.750000  0.105944  0.405521  1
  Zr  Zr3  1  0.750000  0.228079  0.146761  1
  Zr  Zr4  1  0.250000  0.270133  0.646788  1
  Zr  Zr5  1  0.250000  0.393240  0.906443  1
  Zr  Zr6  1  0.250000  0.430490  0.375242  1
  Zr  Zr7  1  0.750000  0.570109  0.624429  1
  Zr  Zr8  1  0.750000  0.608283  0.093238  1
  Zr  Zr9  1  0.750000  0.730728  0.351958  1
  Zr  Zr10  1  0.250000  0.771608  0.853901  1
  Zr  Zr11  1  0.250000  0.892807  0.593562  1
  N  N12  1  0.750000  0.004152  0.223755  1
  N  N13  1  0.250000  0.102610  0.528421  1
  N  N14  1  0.250000  0.139628  0.019597  1
  N  N15  1  0.250000  0.235736  0.285589  1
  N  N16  1  0.750000  0.263030  0.786000  1
  N  N17  1  0.750000  0.357129  0.518085  1
  N  N18  1  0.750000  0.396597  0.028946  1
  N  N19  1  0.250000  0.493738  0.725285  1
  N  N20  1  0.750000  0.507348  0.274464  1
  N  N21  1  0.250000  0.603128  0.971085  1
  N  N22  1  0.250000  0.643640  0.481348  1
  N  N23  1  0.250000  0.739490  0.212950  1
  N  N24  1  0.750000  0.763580  0.715363  1
  N  N25  1  0.750000  0.857528  0.984525  1
  N  N26  1  0.750000  0.896954  0.471224  1
  N  N27  1  0.250000  0.993866  0.775072  1
