# generated using pymatgen
data_La6Ho4Tl5InBr2
_symmetry_space_group_name_H-M   'P 1'
_cell_length_a   9.58882260
_cell_length_b   9.58882453
_cell_length_c   6.87001900
_cell_angle_alpha   90.00000000
_cell_angle_beta   90.00000000
_cell_angle_gamma   119.95960261
_symmetry_Int_Tables_number   1
_chemical_formula_structural   La6Ho4Tl5InBr2
_chemical_formula_sum   'La6 Ho4 Tl5 In1 Br2'
_cell_volume   547.26272621
_cell_formula_units_Z   1
loop_
 _symmetry_equiv_pos_site_id
 _symmetry_equiv_pos_as_xyz
  1  'x, y, z'
loop_
 _atom_site_type_symbol
 _atom_site_label
 _atom_site_symmetry_multiplicity
 _atom_site_fract_x
 _atom_site_fract_y
 _atom_site_fract_z
 _atom_site_occupancy
  La  La0  1  0.731007  0.731007  0.250000  1
  La  La1  1  0.999548  0.731166  0.750000  1
  La  La2  1  0.731166  0.999548  0.750000  1
  La  La3  1  0.268880  0.268880  0.750000  1
  La  La4  1  0.999971  0.268628  0.250000  1
  La  La5  1  0.268628  0.999971  0.250000  1
  Ho  Ho6  1  0.333782  0.666568  0.500345  1
  Ho  Ho7  1  0.666568  0.333782  0.500345  1
  Ho  Ho8  1  0.333782  0.666568  0.999655  1
  Ho  Ho9  1  0.666568  0.333782  0.999655  1
  Tl  Tl10  1  0.393269  0.000033  0.750000  1
  Tl  Tl11  1  0.999928  0.606592  0.250000  1
  Tl  Tl12  1  0.606592  0.999928  0.250000  1
  Tl  Tl13  1  0.000033  0.393269  0.750000  1
  Tl  Tl14  1  0.393412  0.393412  0.250000  1
  In  In15  1  0.606794  0.606794  0.750000  1
  Br  Br16  1  0.000035  0.000035  0.499982  1
  Br  Br17  1  0.000035  0.000035  0.000018  1
