# generated using pymatgen
data_Sc2GeB2Ru4Pt
_symmetry_space_group_name_H-M   'P 1'
_cell_length_a   9.41442842
_cell_length_b   9.44651945
_cell_length_c   3.04341100
_cell_angle_alpha   90.00000000
_cell_angle_beta   90.00000000
_cell_angle_gamma   89.96512701
_symmetry_Int_Tables_number   1
_chemical_formula_structural   Sc2GeB2Ru4Pt
_chemical_formula_sum   'Sc4 Ge2 B4 Ru8 Pt2'
_cell_volume   270.66138920
_cell_formula_units_Z   2
loop_
 _symmetry_equiv_pos_site_id
 _symmetry_equiv_pos_as_xyz
  1  'x, y, z'
loop_
 _atom_site_type_symbol
 _atom_site_label
 _atom_site_symmetry_multiplicity
 _atom_site_fract_x
 _atom_site_fract_y
 _atom_site_fract_z
 _atom_site_occupancy
  Sc  Sc0  1  0.673337  0.183040  0.000000  1
  Sc  Sc1  1  0.326663  0.816960  0.000000  1
  Sc  Sc2  1  0.173148  0.334784  0.000000  1
  Sc  Sc3  1  0.826852  0.665216  0.000000  1
  Ge  Ge4  1  0.000000  0.000000  0.000000  1
  Ge  Ge5  1  0.500000  0.500000  0.000000  1
  B  B6  1  0.122671  0.624852  0.000000  1
  B  B7  1  0.877329  0.375148  0.000000  1
  B  B8  1  0.611035  0.869939  0.000000  1
  B  B9  1  0.388965  0.130061  0.000000  1
  Ru  Ru10  1  0.069069  0.789292  0.500000  1
  Ru  Ru11  1  0.713861  0.428223  0.500000  1
  Ru  Ru12  1  0.930931  0.210708  0.500000  1
  Ru  Ru13  1  0.286139  0.571777  0.500000  1
  Ru  Ru14  1  0.571638  0.712596  0.500000  1
  Ru  Ru15  1  0.428362  0.287404  0.500000  1
  Ru  Ru16  1  0.500000  0.000000  0.500000  1
  Ru  Ru17  1  0.000000  0.500000  0.500000  1
  Pt  Pt18  1  0.217714  0.073215  0.500000  1
  Pt  Pt19  1  0.782286  0.926785  0.500000  1
