# generated using pymatgen
data_La3Mg3Hg2Os
_symmetry_space_group_name_H-M   'P 1'
_cell_length_a   7.94846300
_cell_length_b   7.94846472
_cell_length_c   4.26474500
_cell_angle_alpha   90.00000000
_cell_angle_beta   90.00000000
_cell_angle_gamma   120.00000532
_symmetry_Int_Tables_number   1
_chemical_formula_structural   La3Mg3Hg2Os
_chemical_formula_sum   'La3 Mg3 Hg2 Os1'
_cell_volume   233.34047897
_cell_formula_units_Z   1
loop_
 _symmetry_equiv_pos_site_id
 _symmetry_equiv_pos_as_xyz
  1  'x, y, z'
loop_
 _atom_site_type_symbol
 _atom_site_label
 _atom_site_symmetry_multiplicity
 _atom_site_fract_x
 _atom_site_fract_y
 _atom_site_fract_z
 _atom_site_occupancy
  La  La0  1  0.560957  0.964071  0.000000  1
  La  La1  1  0.035929  0.596885  0.000000  1
  La  La2  1  0.403115  0.439043  0.000000  1
  Mg  Mg3  1  0.244963  0.995718  0.500000  1
  Mg  Mg4  1  0.004282  0.249245  0.500000  1
  Mg  Mg5  1  0.750755  0.755037  0.500000  1
  Hg  Hg6  1  0.666667  0.333333  0.500000  1
  Hg  Hg7  1  0.000000  0.000000  0.000000  1
  Os  Os8  1  0.333333  0.666667  0.500000  1
