# generated using pymatgen
data_CeThTc3Ge4
_symmetry_space_group_name_H-M   'P 1'
_cell_length_a   8.39776700
_cell_length_b   5.82517862
_cell_length_c   7.05853525
_cell_angle_alpha   76.22040237
_cell_angle_beta   90.00000000
_cell_angle_gamma   90.00000000
_symmetry_Int_Tables_number   1
_chemical_formula_structural   CeThTc3Ge4
_chemical_formula_sum   'Ce2 Th2 Tc6 Ge8'
_cell_volume   335.35508486
_cell_formula_units_Z   2
loop_
 _symmetry_equiv_pos_site_id
 _symmetry_equiv_pos_as_xyz
  1  'x, y, z'
loop_
 _atom_site_type_symbol
 _atom_site_label
 _atom_site_symmetry_multiplicity
 _atom_site_fract_x
 _atom_site_fract_y
 _atom_site_fract_z
 _atom_site_occupancy
  Ce  Ce0  1  0.443379  0.923104  0.752787  1
  Ce  Ce1  1  0.943379  0.576896  0.247213  1
  Th  Th2  1  0.555185  0.074925  0.250296  1
  Th  Th3  1  0.055185  0.425075  0.749704  1
  Tc  Tc4  1  0.207569  0.117204  0.109564  1
  Tc  Tc5  1  0.707569  0.382796  0.890436  1
  Tc  Tc6  1  0.793635  0.884161  0.891921  1
  Tc  Tc7  1  0.293635  0.615839  0.108079  1
  Tc  Tc8  1  0.000375  0.000857  0.501142  1
  Tc  Tc9  1  0.500375  0.499143  0.498858  1
  Ge  Ge10  1  0.904759  0.118090  0.129690  1
  Ge  Ge11  1  0.404759  0.381910  0.870310  1
  Ge  Ge12  1  0.096773  0.881333  0.874978  1
  Ge  Ge13  1  0.596773  0.618667  0.125022  1
  Ge  Ge14  1  0.748423  0.221709  0.584949  1
  Ge  Ge15  1  0.248423  0.278291  0.415051  1
  Ge  Ge16  1  0.249902  0.775869  0.415325  1
  Ge  Ge17  1  0.749902  0.724131  0.584675  1
