# generated using pymatgen
data_Ce3Zr3(B2Ru5)2
_symmetry_space_group_name_H-M   'P 1'
_cell_length_a   9.74692380
_cell_length_b   9.74692380
_cell_length_c   3.17285100
_cell_angle_alpha   90.00000000
_cell_angle_beta   90.00000000
_cell_angle_gamma   89.64869780
_symmetry_Int_Tables_number   1
_chemical_formula_structural   Ce3Zr3(B2Ru5)2
_chemical_formula_sum   'Ce3 Zr3 B4 Ru10'
_cell_volume   301.42318616
_cell_formula_units_Z   1
loop_
 _symmetry_equiv_pos_site_id
 _symmetry_equiv_pos_as_xyz
  1  'x, y, z'
loop_
 _atom_site_type_symbol
 _atom_site_label
 _atom_site_symmetry_multiplicity
 _atom_site_fract_x
 _atom_site_fract_y
 _atom_site_fract_z
 _atom_site_occupancy
  Ce  Ce0  1  0.675043  0.175293  0.000000  1
  Ce  Ce1  1  0.324707  0.824957  0.000000  1
  Ce  Ce2  1  0.173373  0.326627  0.000000  1
  Zr  Zr3  1  0.824713  0.675287  0.000000  1
  Zr  Zr4  1  0.998224  0.997247  0.000000  1
  Zr  Zr5  1  0.502753  0.501776  0.000000  1
  B  B6  1  0.117814  0.623384  0.000000  1
  B  B7  1  0.876616  0.382186  0.000000  1
  B  B8  1  0.626124  0.873876  0.000000  1
  B  B9  1  0.378898  0.121102  0.000000  1
  Ru  Ru10  1  0.222985  0.071992  0.500000  1
  Ru  Ru11  1  0.780430  0.920835  0.500000  1
  Ru  Ru12  1  0.065770  0.775965  0.500000  1
  Ru  Ru13  1  0.724035  0.434230  0.500000  1
  Ru  Ru14  1  0.927144  0.224056  0.500000  1
  Ru  Ru15  1  0.275944  0.572856  0.500000  1
  Ru  Ru16  1  0.579165  0.719570  0.500000  1
  Ru  Ru17  1  0.428008  0.277015  0.500000  1
  Ru  Ru18  1  0.502106  0.997894  0.500000  1
  Ru  Ru19  1  0.996149  0.503851  0.500000  1
