# generated using pymatgen
data_Ho2Co5Si14Rh
_symmetry_space_group_name_H-M   'P 1'
_cell_length_a   7.71496612
_cell_length_b   7.69939944
_cell_length_c   7.69939752
_cell_angle_alpha   57.52964945
_cell_angle_beta   57.33732031
_cell_angle_gamma   57.33731515
_symmetry_Int_Tables_number   1
_chemical_formula_structural   Ho2Co5Si14Rh
_chemical_formula_sum   'Ho2 Co5 Si14 Rh1'
_cell_volume   304.05428586
_cell_formula_units_Z   1
loop_
 _symmetry_equiv_pos_site_id
 _symmetry_equiv_pos_as_xyz
  1  'x, y, z'
loop_
 _atom_site_type_symbol
 _atom_site_label
 _atom_site_symmetry_multiplicity
 _atom_site_fract_x
 _atom_site_fract_y
 _atom_site_fract_z
 _atom_site_occupancy
  Ho  Ho0  1  0.000722  0.999044  0.000675  1
  Ho  Ho1  1  0.499278  0.499325  0.500956  1
  Co  Co2  1  0.069912  0.429502  0.750886  1
  Co  Co3  1  0.250000  0.929045  0.570955  1
  Co  Co4  1  0.569620  0.250594  0.929278  1
  Co  Co5  1  0.930380  0.570722  0.249406  1
  Co  Co6  1  0.430088  0.749114  0.070498  1
  Si  Si7  1  0.750000  0.739880  0.760120  1
  Si  Si8  1  0.250000  0.250793  0.249207  1
  Si  Si9  1  0.855913  0.072411  0.671806  1
  Si  Si10  1  0.666585  0.850398  0.071753  1
  Si  Si11  1  0.074096  0.666313  0.850218  1
  Si  Si12  1  0.644087  0.828194  0.427589  1
  Si  Si13  1  0.425904  0.649782  0.833687  1
  Si  Si14  1  0.833415  0.428247  0.649602  1
  Si  Si15  1  0.164078  0.574052  0.351279  1
  Si  Si16  1  0.566898  0.358757  0.158701  1
  Si  Si17  1  0.340214  0.168656  0.574812  1
  Si  Si18  1  0.933102  0.341299  0.141243  1
  Si  Si19  1  0.335922  0.148721  0.925948  1
  Si  Si20  1  0.159786  0.925188  0.331344  1
  Rh  Rh21  1  0.750000  0.069963  0.430037  1
