# generated using pymatgen
data_Lu4Si4TcRh3
_symmetry_space_group_name_H-M   'P 1'
_cell_length_a   4.22040400
_cell_length_b   6.81822946
_cell_length_c   7.27816066
_cell_angle_alpha   90.07612336
_cell_angle_beta   90.00000000
_cell_angle_gamma   90.00000000
_symmetry_Int_Tables_number   1
_chemical_formula_structural   Lu4Si4TcRh3
_chemical_formula_sum   'Lu4 Si4 Tc1 Rh3'
_cell_volume   209.43385813
_cell_formula_units_Z   1
loop_
 _symmetry_equiv_pos_site_id
 _symmetry_equiv_pos_as_xyz
  1  'x, y, z'
loop_
 _atom_site_type_symbol
 _atom_site_label
 _atom_site_symmetry_multiplicity
 _atom_site_fract_x
 _atom_site_fract_y
 _atom_site_fract_z
 _atom_site_occupancy
  Lu  Lu0  1  0.250000  0.002247  0.811560  1
  Lu  Lu1  1  0.750000  0.999070  0.187595  1
  Lu  Lu2  1  0.250000  0.497843  0.690449  1
  Lu  Lu3  1  0.750000  0.505572  0.310177  1
  Si  Si4  1  0.250000  0.295407  0.110927  1
  Si  Si5  1  0.750000  0.704884  0.885778  1
  Si  Si6  1  0.250000  0.794622  0.397877  1
  Si  Si7  1  0.750000  0.203937  0.606115  1
  Tc  Tc8  1  0.750000  0.843127  0.565376  1
  Rh  Rh9  1  0.250000  0.157805  0.433828  1
  Rh  Rh10  1  0.750000  0.341142  0.935965  1
  Rh  Rh11  1  0.250000  0.654345  0.064353  1
