# generated using pymatgen
data_YEr5Al24(Os3Rh)2
_symmetry_space_group_name_H-M   'P 1'
_cell_length_a   8.77237924
_cell_length_b   8.80099087
_cell_length_c   9.56730000
_cell_angle_alpha   90.00000000
_cell_angle_beta   90.00000000
_cell_angle_gamma   119.67397868
_symmetry_Int_Tables_number   1
_chemical_formula_structural   YEr5Al24(Os3Rh)2
_chemical_formula_sum   'Y1 Er5 Al24 Os6 Rh2'
_cell_volume   641.78030698
_cell_formula_units_Z   1
loop_
 _symmetry_equiv_pos_site_id
 _symmetry_equiv_pos_as_xyz
  1  'x, y, z'
loop_
 _atom_site_type_symbol
 _atom_site_label
 _atom_site_symmetry_multiplicity
 _atom_site_fract_x
 _atom_site_fract_y
 _atom_site_fract_z
 _atom_site_occupancy
  Y  Y0  1  0.804515  0.186677  0.750000  1
  Er  Er1  1  0.195745  0.385761  0.250000  1
  Er  Er2  1  0.803964  0.613891  0.750000  1
  Er  Er3  1  0.609504  0.806235  0.250000  1
  Er  Er4  1  0.390181  0.194267  0.750000  1
  Er  Er5  1  0.197460  0.813207  0.250000  1
  Al  Al6  1  0.332986  0.667409  0.023342  1
  Al  Al7  1  0.666440  0.332403  0.977458  1
  Al  Al8  1  0.666440  0.332403  0.522542  1
  Al  Al9  1  0.332986  0.667409  0.476658  1
  Al  Al10  1  0.165702  0.326877  0.576721  1
  Al  Al11  1  0.834726  0.673599  0.422668  1
  Al  Al12  1  0.671438  0.834212  0.575448  1
  Al  Al13  1  0.834726  0.673599  0.077332  1
  Al  Al14  1  0.328129  0.165383  0.423862  1
  Al  Al15  1  0.165702  0.326877  0.923279  1
  Al  Al16  1  0.164935  0.837311  0.575588  1
  Al  Al17  1  0.328129  0.165383  0.076138  1
  Al  Al18  1  0.835014  0.162779  0.423368  1
  Al  Al19  1  0.671438  0.834212  0.924552  1
  Al  Al20  1  0.835014  0.162779  0.076632  1
  Al  Al21  1  0.164935  0.837311  0.924412  1
  Al  Al22  1  0.562283  0.125484  0.250000  1
  Al  Al23  1  0.437223  0.874691  0.750000  1
  Al  Al24  1  0.880044  0.440914  0.250000  1
  Al  Al25  1  0.120614  0.560196  0.750000  1
  Al  Al26  1  0.562143  0.438434  0.250000  1
  Al  Al27  1  0.437776  0.561822  0.750000  1
  Al  Al28  1  0.999650  0.001811  0.250000  1
  Al  Al29  1  0.001508  0.996784  0.750000  1
  Os  Os30  1  0.499576  0.999567  0.000504  1
  Os  Os31  1  0.499576  0.999567  0.499496  1
  Os  Os32  1  0.499688  0.499870  0.000216  1
  Os  Os33  1  0.499688  0.499870  0.499784  1
  Os  Os34  1  0.000069  0.000074  0.999970  1
  Os  Os35  1  0.000069  0.000074  0.500030  1
  Rh  Rh36  1  0.999992  0.500427  0.000362  1
  Rh  Rh37  1  0.999992  0.500427  0.499638  1
