# generated using pymatgen
data_Ho16Co4Ag3Hg
_symmetry_space_group_name_H-M   'P 1'
_cell_length_a   9.35194683
_cell_length_b   9.37095730
_cell_length_c   9.37095900
_cell_angle_alpha   59.99999753
_cell_angle_beta   59.93273081
_cell_angle_gamma   59.93273462
_symmetry_Int_Tables_number   1
_chemical_formula_structural   Ho16Co4Ag3Hg
_chemical_formula_sum   'Ho16 Co4 Ag3 Hg1'
_cell_volume   580.11314183
_cell_formula_units_Z   1
loop_
 _symmetry_equiv_pos_site_id
 _symmetry_equiv_pos_as_xyz
  1  'x, y, z'
loop_
 _atom_site_type_symbol
 _atom_site_label
 _atom_site_symmetry_multiplicity
 _atom_site_fract_x
 _atom_site_fract_y
 _atom_site_fract_z
 _atom_site_occupancy
  Ho  Ho0  1  0.347193  0.347441  0.347441  1
  Ho  Ho1  1  0.347193  0.347441  0.957924  1
  Ho  Ho2  1  0.347193  0.957924  0.347441  1
  Ho  Ho3  1  0.958149  0.347283  0.347283  1
  Ho  Ho4  1  0.811764  0.188515  0.188515  1
  Ho  Ho5  1  0.189171  0.811175  0.811175  1
  Ho  Ho6  1  0.189171  0.811175  0.188479  1
  Ho  Ho7  1  0.811764  0.188515  0.811205  1
  Ho  Ho8  1  0.189171  0.188479  0.811175  1
  Ho  Ho9  1  0.811764  0.811205  0.188515  1
  Ho  Ho10  1  0.935482  0.563003  0.563003  1
  Ho  Ho11  1  0.560976  0.938305  0.938305  1
  Ho  Ho12  1  0.560976  0.938305  0.562415  1
  Ho  Ho13  1  0.935482  0.563003  0.938512  1
  Ho  Ho14  1  0.560976  0.562415  0.938305  1
  Ho  Ho15  1  0.935482  0.938512  0.563003  1
  Co  Co16  1  0.141850  0.140825  0.140825  1
  Co  Co17  1  0.141850  0.140825  0.576499  1
  Co  Co18  1  0.141850  0.576499  0.140825  1
  Co  Co19  1  0.577709  0.140763  0.140763  1
  Ag  Ag20  1  0.583345  0.580693  0.580693  1
  Ag  Ag21  1  0.583345  0.580693  0.255269  1
  Ag  Ag22  1  0.583345  0.255269  0.580693  1
  Hg  Hg23  1  0.254802  0.581733  0.581733  1
