# generated using pymatgen
data_Y5HoAl24(PdRu3)2
_symmetry_space_group_name_H-M   'P 1'
_cell_length_a   8.82604920
_cell_length_b   8.80779044
_cell_length_c   9.56270943
_cell_angle_alpha   90.04899971
_cell_angle_beta   90.07451012
_cell_angle_gamma   119.60741075
_symmetry_Int_Tables_number   1
_chemical_formula_structural   Y5HoAl24(PdRu3)2
_chemical_formula_sum   'Y5 Ho1 Al24 Pd2 Ru6'
_cell_volume   646.32120353
_cell_formula_units_Z   1
loop_
 _symmetry_equiv_pos_site_id
 _symmetry_equiv_pos_as_xyz
  1  'x, y, z'
loop_
 _atom_site_type_symbol
 _atom_site_label
 _atom_site_symmetry_multiplicity
 _atom_site_fract_x
 _atom_site_fract_y
 _atom_site_fract_z
 _atom_site_occupancy
  Y  Y0  1  0.190398  0.385757  0.252744  1
  Y  Y1  1  0.809616  0.614009  0.747270  1
  Y  Y2  1  0.616333  0.808945  0.251252  1
  Y  Y3  1  0.383810  0.191025  0.748774  1
  Y  Y4  1  0.191212  0.805797  0.252182  1
  Ho  Ho5  1  0.808658  0.194853  0.747540  1
  Al  Al6  1  0.327297  0.664318  0.023754  1
  Al  Al7  1  0.672764  0.335431  0.975781  1
  Al  Al8  1  0.666758  0.332734  0.521610  1
  Al  Al9  1  0.333315  0.667148  0.478725  1
  Al  Al10  1  0.163701  0.326978  0.576685  1
  Al  Al11  1  0.836040  0.672790  0.423608  1
  Al  Al12  1  0.673905  0.837176  0.575587  1
  Al  Al13  1  0.842757  0.675611  0.078991  1
  Al  Al14  1  0.326333  0.163127  0.424726  1
  Al  Al15  1  0.156892  0.324136  0.920690  1
  Al  Al16  1  0.163756  0.837224  0.577220  1
  Al  Al17  1  0.322523  0.161609  0.080295  1
  Al  Al18  1  0.836279  0.162734  0.423184  1
  Al  Al19  1  0.677709  0.838774  0.919399  1
  Al  Al20  1  0.842341  0.167745  0.078794  1
  Al  Al21  1  0.157618  0.832202  0.920807  1
  Al  Al22  1  0.561860  0.124507  0.252339  1
  Al  Al23  1  0.438550  0.875734  0.747761  1
  Al  Al24  1  0.877533  0.439421  0.249061  1
  Al  Al25  1  0.122287  0.560204  0.750974  1
  Al  Al26  1  0.562445  0.437585  0.252676  1
  Al  Al27  1  0.437581  0.562399  0.747338  1
  Al  Al28  1  0.997981  0.999717  0.250532  1
  Al  Al29  1  0.001552  0.000781  0.749450  1
  Pd  Pd30  1  0.500086  0.000036  0.999939  1
  Pd  Pd31  1  0.500045  0.499981  0.999979  1
  Ru  Ru32  1  0.999866  0.499799  0.999818  1
  Ru  Ru33  1  0.500267  0.000146  0.500214  1
  Ru  Ru34  1  0.999801  0.499659  0.500288  1
  Ru  Ru35  1  0.500043  0.499991  0.500050  1
  Ru  Ru36  1  0.000035  0.999972  0.000022  1
  Ru  Ru37  1  0.000051  0.999944  0.499943  1
