# generated using pymatgen
data_Dy3Er3Al17Si7Os8
_symmetry_space_group_name_H-M   'P 1'
_cell_length_a   8.68657701
_cell_length_b   8.67649829
_cell_length_c   9.46913700
_cell_angle_alpha   90.00000000
_cell_angle_beta   90.00000000
_cell_angle_gamma   120.08745020
_symmetry_Int_Tables_number   1
_chemical_formula_structural   Dy3Er3Al17Si7Os8
_chemical_formula_sum   'Dy3 Er3 Al17 Si7 Os8'
_cell_volume   617.51969454
_cell_formula_units_Z   1
loop_
 _symmetry_equiv_pos_site_id
 _symmetry_equiv_pos_as_xyz
  1  'x, y, z'
loop_
 _atom_site_type_symbol
 _atom_site_label
 _atom_site_symmetry_multiplicity
 _atom_site_fract_x
 _atom_site_fract_y
 _atom_site_fract_z
 _atom_site_occupancy
  Dy  Dy0  1  0.807052  0.614230  0.750000  1
  Dy  Dy1  1  0.387857  0.191189  0.750000  1
  Dy  Dy2  1  0.802873  0.191676  0.750000  1
  Er  Er3  1  0.193634  0.389699  0.250000  1
  Er  Er4  1  0.609444  0.806392  0.250000  1
  Er  Er5  1  0.196244  0.804491  0.250000  1
  Al  Al6  1  0.164399  0.329544  0.578313  1
  Al  Al7  1  0.834257  0.671199  0.420896  1
  Al  Al8  1  0.671281  0.834944  0.577887  1
  Al  Al9  1  0.834257  0.671199  0.079104  1
  Al  Al10  1  0.329647  0.165961  0.422005  1
  Al  Al11  1  0.164399  0.329544  0.921687  1
  Al  Al12  1  0.163636  0.834318  0.576992  1
  Al  Al13  1  0.329647  0.165961  0.077995  1
  Al  Al14  1  0.835564  0.164190  0.421233  1
  Al  Al15  1  0.671281  0.834944  0.922113  1
  Al  Al16  1  0.835564  0.164190  0.078767  1
  Al  Al17  1  0.163636  0.834318  0.923008  1
  Al  Al18  1  0.125943  0.565575  0.750000  1
  Al  Al19  1  0.564486  0.435214  0.250000  1
  Al  Al20  1  0.438539  0.566386  0.750000  1
  Al  Al21  1  0.999454  0.999230  0.250000  1
  Al  Al22  1  0.000072  0.000903  0.750000  1
  Si  Si23  1  0.333385  0.664682  0.039366  1
  Si  Si24  1  0.666544  0.335705  0.960584  1
  Si  Si25  1  0.666544  0.335705  0.539416  1
  Si  Si26  1  0.333385  0.664682  0.460634  1
  Si  Si27  1  0.564606  0.124183  0.250000  1
  Si  Si28  1  0.436403  0.872983  0.750000  1
  Si  Si29  1  0.874889  0.434871  0.250000  1
  Os  Os30  1  0.500648  0.000510  0.001570  1
  Os  Os31  1  0.998961  0.499645  0.007185  1
  Os  Os32  1  0.500648  0.000510  0.498430  1
  Os  Os33  1  0.500446  0.500413  0.000957  1
  Os  Os34  1  0.998961  0.499645  0.492815  1
  Os  Os35  1  0.500446  0.500413  0.499043  1
  Os  Os36  1  0.000483  0.000378  0.000262  1
  Os  Os37  1  0.000483  0.000378  0.499738  1
