# generated using pymatgen
data_ZrTa8AlSe16
_symmetry_space_group_name_H-M   'P 1'
_cell_length_a   6.99673000
_cell_length_b   6.99673143
_cell_length_c   13.26232700
_cell_angle_alpha   90.00000000
_cell_angle_beta   90.00000000
_cell_angle_gamma   120.00000268
_symmetry_Int_Tables_number   1
_chemical_formula_structural   ZrTa8AlSe16
_chemical_formula_sum   'Zr1 Ta8 Al1 Se16'
_cell_volume   562.26450864
_cell_formula_units_Z   1
loop_
 _symmetry_equiv_pos_site_id
 _symmetry_equiv_pos_as_xyz
  1  'x, y, z'
loop_
 _atom_site_type_symbol
 _atom_site_label
 _atom_site_symmetry_multiplicity
 _atom_site_fract_x
 _atom_site_fract_y
 _atom_site_fract_z
 _atom_site_occupancy
  Zr  Zr0  1  0.000000  0.000000  0.000000  1
  Ta  Ta1  1  0.000000  0.000000  0.253525  1
  Ta  Ta2  1  0.000000  0.000000  0.746475  1
  Ta  Ta3  1  0.508316  0.016631  0.256371  1
  Ta  Ta4  1  0.491684  0.983369  0.743629  1
  Ta  Ta5  1  0.983369  0.491684  0.256371  1
  Ta  Ta6  1  0.016631  0.508316  0.743629  1
  Ta  Ta7  1  0.508316  0.491684  0.256371  1
  Ta  Ta8  1  0.491684  0.508316  0.743629  1
  Al  Al9  1  0.000000  0.000000  0.500000  1
  Se  Se10  1  0.333333  0.666667  0.613306  1
  Se  Se11  1  0.666667  0.333333  0.386694  1
  Se  Se12  1  0.666667  0.333333  0.125065  1
  Se  Se13  1  0.333333  0.666667  0.874935  1
  Se  Se14  1  0.170578  0.341158  0.130474  1
  Se  Se15  1  0.829422  0.658842  0.869526  1
  Se  Se16  1  0.658842  0.829422  0.130474  1
  Se  Se17  1  0.831817  0.663634  0.618764  1
  Se  Se18  1  0.341158  0.170578  0.869526  1
  Se  Se19  1  0.168183  0.336366  0.381236  1
  Se  Se20  1  0.170578  0.829422  0.130474  1
  Se  Se21  1  0.336366  0.168183  0.618764  1
  Se  Se22  1  0.829422  0.170578  0.869526  1
  Se  Se23  1  0.663634  0.831817  0.381236  1
  Se  Se24  1  0.831817  0.168183  0.618764  1
  Se  Se25  1  0.168183  0.831817  0.381236  1
