# generated using pymatgen
data_K2AgRh3F12
_symmetry_space_group_name_H-M   'P 1'
_cell_length_a   7.43620100
_cell_length_b   7.37961546
_cell_length_c   10.26566200
_cell_angle_alpha   90.02032631
_cell_angle_beta   90.00000000
_cell_angle_gamma   90.00000000
_symmetry_Int_Tables_number   1
_chemical_formula_structural   K2AgRh3F12
_chemical_formula_sum   'K4 Ag2 Rh6 F24'
_cell_volume   563.34155215
_cell_formula_units_Z   2
loop_
 _symmetry_equiv_pos_site_id
 _symmetry_equiv_pos_as_xyz
  1  'x, y, z'
loop_
 _atom_site_type_symbol
 _atom_site_label
 _atom_site_symmetry_multiplicity
 _atom_site_fract_x
 _atom_site_fract_y
 _atom_site_fract_z
 _atom_site_occupancy
  K  K0  1  0.250000  0.550363  0.359217  1
  K  K1  1  0.250000  0.976456  0.097388  1
  K  K2  1  0.750000  0.449637  0.640783  1
  K  K3  1  0.750000  0.023544  0.902612  1
  Ag  Ag4  1  0.750000  0.784743  0.238790  1
  Ag  Ag5  1  0.250000  0.215257  0.761210  1
  Rh  Rh6  1  0.000000  0.500000  0.000000  1
  Rh  Rh7  1  0.250000  0.686704  0.716551  1
  Rh  Rh8  1  0.750000  0.313296  0.283449  1
  Rh  Rh9  1  0.500000  0.000000  0.500000  1
  Rh  Rh10  1  0.500000  0.500000  0.000000  1
  Rh  Rh11  1  0.000000  0.000000  0.500000  1
  F  F12  1  0.453162  0.771064  0.601853  1
  F  F13  1  0.052436  0.862311  0.336039  1
  F  F14  1  0.449868  0.241214  0.954891  1
  F  F15  1  0.947564  0.137689  0.663961  1
  F  F16  1  0.953162  0.228936  0.398147  1
  F  F17  1  0.250000  0.552509  0.068681  1
  F  F18  1  0.459968  0.576661  0.813759  1
  F  F19  1  0.250000  0.104384  0.509585  1
  F  F20  1  0.949868  0.758786  0.045109  1
  F  F21  1  0.250000  0.465161  0.605089  1
  F  F22  1  0.050132  0.241214  0.954891  1
  F  F23  1  0.540032  0.423339  0.186241  1
  F  F24  1  0.959968  0.423339  0.186241  1
  F  F25  1  0.750000  0.447491  0.931319  1
  F  F26  1  0.046838  0.771064  0.601853  1
  F  F27  1  0.250000  0.902780  0.832411  1
  F  F28  1  0.750000  0.097220  0.167589  1
  F  F29  1  0.447564  0.862311  0.336039  1
  F  F30  1  0.750000  0.534839  0.394911  1
  F  F31  1  0.552436  0.137689  0.663961  1
  F  F32  1  0.546838  0.228936  0.398147  1
  F  F33  1  0.040032  0.576661  0.813759  1
  F  F34  1  0.750000  0.895616  0.490415  1
  F  F35  1  0.550132  0.758786  0.045109  1
