# generated using pymatgen
data_PuScPBr2
_symmetry_space_group_name_H-M   'P 1'
_cell_length_a   3.89885500
_cell_length_b   3.89885570
_cell_length_c   10.62119000
_cell_angle_alpha   90.00000000
_cell_angle_beta   90.00000000
_cell_angle_gamma   120.00000251
_symmetry_Int_Tables_number   1
_chemical_formula_structural   PuScPBr2
_chemical_formula_sum   'Pu1 Sc1 P1 Br2'
_cell_volume   139.82281612
_cell_formula_units_Z   1
loop_
 _symmetry_equiv_pos_site_id
 _symmetry_equiv_pos_as_xyz
  1  'x, y, z'
loop_
 _atom_site_type_symbol
 _atom_site_label
 _atom_site_symmetry_multiplicity
 _atom_site_fract_x
 _atom_site_fract_y
 _atom_site_fract_z
 _atom_site_occupancy
  Pu  Pu0  1  0.666665  0.333332  0.141065  1
  Sc  Sc1  1  0.333333  0.666667  0.854839  1
  P  P2  1  0.000000  0.000000  0.985692  1
  Br  Br3  1  0.333333  0.666667  0.322226  1
  Br  Br4  1  0.666665  0.333332  0.696178  1
