# generated using pymatgen
data_Pr4Er3Tm(ScSi4)2
_symmetry_space_group_name_H-M   'P 1'
_cell_length_a   7.37127111
_cell_length_b   7.73425808
_cell_length_c   14.66812114
_cell_angle_alpha   90.00789673
_cell_angle_beta   89.98637918
_cell_angle_gamma   89.98526080
_symmetry_Int_Tables_number   1
_chemical_formula_structural   Pr4Er3Tm(ScSi4)2
_chemical_formula_sum   'Pr8 Er6 Tm2 Sc4 Si16'
_cell_volume   836.24878879
_cell_formula_units_Z   2
loop_
 _symmetry_equiv_pos_site_id
 _symmetry_equiv_pos_as_xyz
  1  'x, y, z'
loop_
 _atom_site_type_symbol
 _atom_site_label
 _atom_site_symmetry_multiplicity
 _atom_site_fract_x
 _atom_site_fract_y
 _atom_site_fract_z
 _atom_site_occupancy
  Pr  Pr0  1  0.016250  0.177713  0.401453  1
  Pr  Pr1  1  0.516256  0.322284  0.401463  1
  Pr  Pr2  1  0.483726  0.677734  0.901439  1
  Pr  Pr3  1  0.483744  0.677716  0.598537  1
  Pr  Pr4  1  0.983750  0.822287  0.598547  1
  Pr  Pr5  1  0.983747  0.822281  0.901434  1
  Pr  Pr6  1  0.516274  0.322266  0.098561  1
  Pr  Pr7  1  0.016253  0.177719  0.098566  1
  Er  Er8  1  0.175077  0.677575  0.375161  1
  Er  Er9  1  0.824926  0.322448  0.875160  1
  Er  Er10  1  0.824923  0.322425  0.624839  1
  Er  Er11  1  0.324902  0.177547  0.875126  1
  Er  Er12  1  0.175074  0.677552  0.124840  1
  Er  Er13  1  0.675098  0.822453  0.124874  1
  Tm  Tm14  1  0.324951  0.177488  0.624868  1
  Tm  Tm15  1  0.675049  0.822512  0.375132  1
  Sc  Sc16  1  0.657015  0.991559  0.749982  1
  Sc  Sc17  1  0.842923  0.491599  0.250023  1
  Sc  Sc18  1  0.342985  0.008441  0.250018  1
  Sc  Sc19  1  0.157077  0.508401  0.749977  1
  Si  Si20  1  0.282802  0.876012  0.749950  1
  Si  Si21  1  0.473767  0.610385  0.250070  1
  Si  Si22  1  0.026506  0.110311  0.749931  1
  Si  Si23  1  0.526233  0.389615  0.749930  1
  Si  Si24  1  0.148997  0.466898  0.539428  1
  Si  Si25  1  0.973494  0.889689  0.250069  1
  Si  Si26  1  0.717198  0.123988  0.250050  1
  Si  Si27  1  0.851144  0.533004  0.039378  1
  Si  Si28  1  0.351137  0.967006  0.039390  1
  Si  Si29  1  0.148856  0.466996  0.960622  1
  Si  Si30  1  0.648744  0.032983  0.539350  1
  Si  Si31  1  0.351256  0.967017  0.460650  1
  Si  Si32  1  0.851003  0.533102  0.460572  1
  Si  Si33  1  0.782808  0.624112  0.749992  1
  Si  Si34  1  0.217192  0.375888  0.250008  1
  Si  Si35  1  0.648863  0.032994  0.960610  1
