# generated using pymatgen
data_NiMo3PtN
_symmetry_space_group_name_H-M   'P 1'
_cell_length_a   6.78186500
_cell_length_b   6.78186500
_cell_length_c   6.78186500
_cell_angle_alpha   90.00000000
_cell_angle_beta   90.00000000
_cell_angle_gamma   90.00000000
_symmetry_Int_Tables_number   1
_chemical_formula_structural   NiMo3PtN
_chemical_formula_sum   'Ni4 Mo12 Pt4 N4'
_cell_volume   311.92301595
_cell_formula_units_Z   4
loop_
 _symmetry_equiv_pos_site_id
 _symmetry_equiv_pos_as_xyz
  1  'x, y, z'
loop_
 _atom_site_type_symbol
 _atom_site_label
 _atom_site_symmetry_multiplicity
 _atom_site_fract_x
 _atom_site_fract_y
 _atom_site_fract_z
 _atom_site_occupancy
  Ni  Ni0  1  0.687774  0.687774  0.687774  1
  Ni  Ni1  1  0.812227  0.312226  0.187774  1
  Ni  Ni2  1  0.312226  0.187774  0.812227  1
  Ni  Ni3  1  0.187774  0.812227  0.312226  1
  Mo  Mo4  1  0.126306  0.195251  0.457444  1
  Mo  Mo5  1  0.373696  0.804749  0.957444  1
  Mo  Mo6  1  0.626304  0.304751  0.542555  1
  Mo  Mo7  1  0.873694  0.695249  0.042555  1
  Mo  Mo8  1  0.457444  0.126306  0.195251  1
  Mo  Mo9  1  0.195251  0.457444  0.126306  1
  Mo  Mo10  1  0.042555  0.873694  0.695249  1
  Mo  Mo11  1  0.804749  0.957444  0.373696  1
  Mo  Mo12  1  0.957444  0.373696  0.804749  1
  Mo  Mo13  1  0.304751  0.542555  0.626304  1
  Mo  Mo14  1  0.542555  0.626304  0.304751  1
  Mo  Mo15  1  0.695249  0.042555  0.873694  1
  Pt  Pt16  1  0.063553  0.063553  0.063553  1
  Pt  Pt17  1  0.436447  0.936447  0.563552  1
  Pt  Pt18  1  0.563552  0.436447  0.936447  1
  Pt  Pt19  1  0.936447  0.563552  0.436447  1
  N  N20  1  0.374560  0.374560  0.374560  1
  N  N21  1  0.125442  0.625440  0.874558  1
  N  N22  1  0.874558  0.125442  0.625440  1
  N  N23  1  0.625440  0.874558  0.125442  1
