# generated using pymatgen
data_TbHo(Be12Cu)2
_symmetry_space_group_name_H-M   'P 1'
_cell_length_a   7.27289841
_cell_length_b   7.32618244
_cell_length_c   7.25708186
_cell_angle_alpha   59.82838246
_cell_angle_beta   59.82495106
_cell_angle_gamma   59.61469583
_symmetry_Int_Tables_number   1
_chemical_formula_structural   TbHo(Be12Cu)2
_chemical_formula_sum   'Tb1 Ho1 Be24 Cu2'
_cell_volume   271.90392523
_cell_formula_units_Z   1
loop_
 _symmetry_equiv_pos_site_id
 _symmetry_equiv_pos_as_xyz
  1  'x, y, z'
loop_
 _atom_site_type_symbol
 _atom_site_label
 _atom_site_symmetry_multiplicity
 _atom_site_fract_x
 _atom_site_fract_y
 _atom_site_fract_z
 _atom_site_occupancy
  Tb  Tb0  1  0.252916  0.247083  0.252915  1
  Ho  Ho1  1  0.747030  0.752963  0.747072  1
  Be  Be2  1  0.500003  0.499998  0.499998  1
  Be  Be3  1  0.000004  0.999997  0.999998  1
  Be  Be4  1  0.564736  0.793102  0.435519  1
  Be  Be5  1  0.435524  0.206643  0.564736  1
  Be  Be6  1  0.290144  0.936166  0.710083  1
  Be  Be7  1  0.710085  0.063607  0.290136  1
  Be  Be8  1  0.931446  0.278588  0.068418  1
  Be  Be9  1  0.068421  0.721546  0.931446  1
  Be  Be10  1  0.207649  0.799667  0.557621  1
  Be  Be11  1  0.792188  0.200072  0.442589  1
  Be  Be12  1  0.442595  0.565149  0.792187  1
  Be  Be13  1  0.557617  0.435061  0.207652  1
  Be  Be14  1  0.711695  0.286278  0.936150  1
  Be  Be15  1  0.288489  0.713847  0.063675  1
  Be  Be16  1  0.063674  0.933987  0.288492  1
  Be  Be17  1  0.936151  0.065877  0.711691  1
  Be  Be18  1  0.565764  0.206347  0.791906  1
  Be  Be19  1  0.434423  0.793428  0.207896  1
  Be  Be20  1  0.791911  0.435980  0.565759  1
  Be  Be21  1  0.207900  0.564254  0.434416  1
  Be  Be22  1  0.936290  0.712543  0.290920  1
  Be  Be23  1  0.063491  0.287630  0.709330  1
  Be  Be24  1  0.290923  0.060242  0.936293  1
  Be  Be25  1  0.709330  0.939549  0.063487  1
  Cu  Cu26  1  0.803753  0.557315  0.195857  1
  Cu  Cu27  1  0.195849  0.443082  0.803756  1
