# generated using pymatgen
data_TaV2SbO8
_symmetry_space_group_name_H-M   'P 1'
_cell_length_a   5.65206685
_cell_length_b   5.65204801
_cell_length_c   5.65205347
_cell_angle_alpha   72.14841499
_cell_angle_beta   107.50739696
_cell_angle_gamma   66.88249281
_symmetry_Int_Tables_number   1
_chemical_formula_structural   TaV2SbO8
_chemical_formula_sum   'Ta1 V2 Sb1 O8'
_cell_volume   138.56828519
_cell_formula_units_Z   1
loop_
 _symmetry_equiv_pos_site_id
 _symmetry_equiv_pos_as_xyz
  1  'x, y, z'
loop_
 _atom_site_type_symbol
 _atom_site_label
 _atom_site_symmetry_multiplicity
 _atom_site_fract_x
 _atom_site_fract_y
 _atom_site_fract_z
 _atom_site_occupancy
  Ta  Ta0  1  0.510832  0.489171  0.000004  1
  V  V1  1  0.246268  0.253725  0.499993  1
  V  V2  1  0.994829  0.005171  0.000001  1
  Sb  Sb3  1  0.755021  0.744983  0.500004  1
  O  O4  1  0.539928  0.261831  0.801758  1
  O  O5  1  0.062310  0.742878  0.805189  1
  O  O6  1  0.995118  0.306567  0.698315  1
  O  O7  1  0.506112  0.799118  0.694772  1
  O  O8  1  0.995119  0.703196  0.301686  1
  O  O9  1  0.506112  0.188660  0.305229  1
  O  O10  1  0.936410  0.261827  0.198237  1
  O  O11  1  0.451939  0.742873  0.194812  1
