# generated using pymatgen
data_Y6ZrTi(Co4P3)4
_symmetry_space_group_name_H-M   'P 1'
_cell_length_a   3.71185200
_cell_length_b   10.65851500
_cell_length_c   12.36416500
_cell_angle_alpha   90.00000000
_cell_angle_beta   90.00000000
_cell_angle_gamma   90.00000000
_symmetry_Int_Tables_number   1
_chemical_formula_structural   Y6ZrTi(Co4P3)4
_chemical_formula_sum   'Y6 Zr1 Ti1 Co16 P12'
_cell_volume   489.16136070
_cell_formula_units_Z   1
loop_
 _symmetry_equiv_pos_site_id
 _symmetry_equiv_pos_as_xyz
  1  'x, y, z'
loop_
 _atom_site_type_symbol
 _atom_site_label
 _atom_site_symmetry_multiplicity
 _atom_site_fract_x
 _atom_site_fract_y
 _atom_site_fract_z
 _atom_site_occupancy
  Y  Y0  1  0.000000  0.500000  0.529052  1
  Y  Y1  1  0.500000  0.000000  0.475442  1
  Y  Y2  1  0.500000  0.821980  0.204732  1
  Y  Y3  1  0.500000  0.178020  0.204732  1
  Y  Y4  1  0.000000  0.680623  0.795438  1
  Y  Y5  1  0.000000  0.319377  0.795438  1
  Zr  Zr6  1  0.500000  0.500000  0.156005  1
  Ti  Ti7  1  0.000000  0.000000  0.844594  1
  Co  Co8  1  0.500000  0.500000  0.702841  1
  Co  Co9  1  0.000000  0.000000  0.296985  1
  Co  Co10  1  0.000000  0.500000  0.984565  1
  Co  Co11  1  0.500000  0.000000  0.011461  1
  Co  Co12  1  0.500000  0.329184  0.990426  1
  Co  Co13  1  0.500000  0.670816  0.990426  1
  Co  Co14  1  0.000000  0.165077  0.003497  1
  Co  Co15  1  0.000000  0.834923  0.003497  1
  Co  Co16  1  0.500000  0.294496  0.433975  1
  Co  Co17  1  0.500000  0.705504  0.433975  1
  Co  Co18  1  0.000000  0.203502  0.568659  1
  Co  Co19  1  0.000000  0.796498  0.568659  1
  Co  Co20  1  0.500000  0.879025  0.705590  1
  Co  Co21  1  0.500000  0.120975  0.705590  1
  Co  Co22  1  0.000000  0.622803  0.298312  1
  Co  Co23  1  0.000000  0.377197  0.298312  1
  P  P24  1  0.500000  0.500000  0.882753  1
  P  P25  1  0.000000  0.000000  0.115762  1
  P  P26  1  0.500000  0.500000  0.361840  1
  P  P27  1  0.000000  0.000000  0.646578  1
  P  P28  1  0.500000  0.309223  0.616556  1
  P  P29  1  0.500000  0.690777  0.616556  1
  P  P30  1  0.000000  0.188971  0.385280  1
  P  P31  1  0.000000  0.811029  0.385280  1
  P  P32  1  0.500000  0.844564  0.890232  1
  P  P33  1  0.500000  0.155436  0.890232  1
  P  P34  1  0.000000  0.663481  0.103364  1
  P  P35  1  0.000000  0.336519  0.103364  1
