# generated using pymatgen
data_Tb2Nd4Si3Au
_symmetry_space_group_name_H-M   'P 1'
_cell_length_a   7.69156501
_cell_length_b   7.69156501
_cell_length_c   4.41778300
_cell_angle_alpha   90.00000000
_cell_angle_beta   90.00000000
_cell_angle_gamma   87.65023286
_symmetry_Int_Tables_number   1
_chemical_formula_structural   Tb2Nd4Si3Au
_chemical_formula_sum   'Tb2 Nd4 Si3 Au1'
_cell_volume   261.13704444
_cell_formula_units_Z   1
loop_
 _symmetry_equiv_pos_site_id
 _symmetry_equiv_pos_as_xyz
  1  'x, y, z'
loop_
 _atom_site_type_symbol
 _atom_site_label
 _atom_site_symmetry_multiplicity
 _atom_site_fract_x
 _atom_site_fract_y
 _atom_site_fract_z
 _atom_site_occupancy
  Tb  Tb0  1  0.008376  0.996064  0.000000  1
  Tb  Tb1  1  0.496064  0.508376  0.000000  1
  Nd  Nd2  1  0.675478  0.175478  0.500000  1
  Nd  Nd3  1  0.336972  0.836972  0.500000  1
  Nd  Nd4  1  0.172236  0.315686  0.500000  1
  Nd  Nd5  1  0.815686  0.672236  0.500000  1
  Si  Si6  1  0.873581  0.373581  0.000000  1
  Si  Si7  1  0.617948  0.886901  0.000000  1
  Si  Si8  1  0.386901  0.117948  0.000000  1
  Au  Au9  1  0.116758  0.616758  0.000000  1
