# generated using pymatgen
data_CeHo4(CoO6)2
_symmetry_space_group_name_H-M   'P 1'
_cell_length_a   6.74565218
_cell_length_b   6.74565213
_cell_length_c   7.16386095
_cell_angle_alpha   74.69272715
_cell_angle_beta   74.69273031
_cell_angle_gamma   50.57033688
_symmetry_Int_Tables_number   1
_chemical_formula_structural   CeHo4(CoO6)2
_chemical_formula_sum   'Ce1 Ho4 Co2 O12'
_cell_volume   240.81988924
_cell_formula_units_Z   1
loop_
 _symmetry_equiv_pos_site_id
 _symmetry_equiv_pos_as_xyz
  1  'x, y, z'
loop_
 _atom_site_type_symbol
 _atom_site_label
 _atom_site_symmetry_multiplicity
 _atom_site_fract_x
 _atom_site_fract_y
 _atom_site_fract_z
 _atom_site_occupancy
  Ce  Ce0  1  0.309091  0.309091  0.353136  1
  Ho  Ho1  1  0.691541  0.691541  0.649448  1
  Ho  Ho2  1  0.305662  0.305662  0.841294  1
  Ho  Ho3  1  0.692617  0.692617  0.158069  1
  Ho  Ho4  1  0.000448  0.000448  0.506802  1
  Co  Co5  1  0.757824  0.244202  0.999170  1
  Co  Co6  1  0.244202  0.757824  0.999170  1
  O  O7  1  0.902525  0.418366  0.918650  1
  O  O8  1  0.418366  0.902525  0.918650  1
  O  O9  1  0.097503  0.579958  0.079880  1
  O  O10  1  0.579958  0.097503  0.079880  1
  O  O11  1  0.096556  0.596938  0.575439  1
  O  O12  1  0.596938  0.096556  0.575439  1
  O  O13  1  0.904492  0.401634  0.424143  1
  O  O14  1  0.401634  0.904492  0.424143  1
  O  O15  1  0.999897  0.999897  0.820993  1
  O  O16  1  0.999638  0.999638  0.170875  1
  O  O17  1  0.499378  0.499378  0.825251  1
  O  O18  1  0.501730  0.501730  0.179570  1
