# generated using pymatgen
data_Ac2Th2As7Ir8
_symmetry_space_group_name_H-M   'P 1'
_cell_length_a   4.17617200
_cell_length_b   13.35650362
_cell_length_c   13.82408893
_cell_angle_alpha   98.23602894
_cell_angle_beta   90.00000000
_cell_angle_gamma   90.00000000
_symmetry_Int_Tables_number   1
_chemical_formula_structural   Ac2Th2As7Ir8
_chemical_formula_sum   'Ac4 Th4 As14 Ir16'
_cell_volume   763.14183372
_cell_formula_units_Z   2
loop_
 _symmetry_equiv_pos_site_id
 _symmetry_equiv_pos_as_xyz
  1  'x, y, z'
loop_
 _atom_site_type_symbol
 _atom_site_label
 _atom_site_symmetry_multiplicity
 _atom_site_fract_x
 _atom_site_fract_y
 _atom_site_fract_z
 _atom_site_occupancy
  Ac  Ac0  1  0.750000  0.286359  0.899420  1
  Ac  Ac1  1  0.250000  0.713641  0.100580  1
  Ac  Ac2  1  0.750000  0.103162  0.207883  1
  Ac  Ac3  1  0.250000  0.896838  0.792117  1
  Th  Th4  1  0.750000  0.205034  0.558484  1
  Th  Th5  1  0.250000  0.794966  0.441516  1
  Th  Th6  1  0.750000  0.517528  0.709028  1
  Th  Th7  1  0.250000  0.482472  0.290972  1
  As  As8  1  0.750000  0.743419  0.914780  1
  As  As9  1  0.250000  0.256581  0.085220  1
  As  As10  1  0.750000  0.906782  0.590414  1
  As  As11  1  0.250000  0.093218  0.409586  1
  As  As12  1  0.750000  0.530468  0.126540  1
  As  As13  1  0.250000  0.469532  0.873460  1
  As  As14  1  0.750000  0.843579  0.281265  1
  As  As15  1  0.250000  0.156421  0.718735  1
  As  As16  1  0.750000  0.606282  0.435352  1
  As  As17  1  0.250000  0.393718  0.564648  1
  As  As18  1  0.750000  0.316954  0.315210  1
  As  As19  1  0.250000  0.683046  0.684790  1
  As  As20  1  0.750000  0.056418  0.901134  1
  As  As21  1  0.250000  0.943582  0.098866  1
  Ir  Ir22  1  0.750000  0.347278  0.143145  1
  Ir  Ir23  1  0.250000  0.652722  0.856855  1
  Ir  Ir24  1  0.750000  0.721458  0.595320  1
  Ir  Ir25  1  0.250000  0.278542  0.404680  1
  Ir  Ir26  1  0.750000  0.919012  0.002920  1
  Ir  Ir27  1  0.250000  0.080988  0.997080  1
  Ir  Ir28  1  0.750000  0.425790  0.475728  1
  Ir  Ir29  1  0.250000  0.574210  0.524272  1
  Ir  Ir30  1  0.750000  0.059942  0.718386  1
  Ir  Ir31  1  0.250000  0.940058  0.281614  1
  Ir  Ir32  1  0.750000  0.550316  0.948777  1
  Ir  Ir33  1  0.250000  0.449684  0.051223  1
  Ir  Ir34  1  0.750000  0.659239  0.273796  1
  Ir  Ir35  1  0.250000  0.340761  0.726204  1
  Ir  Ir36  1  0.750000  0.987436  0.427473  1
  Ir  Ir37  1  0.250000  0.012564  0.572527  1
