# generated using pymatgen
data_K7Tl3O8
_symmetry_space_group_name_H-M   'P 1'
_cell_length_a   7.01015702
_cell_length_b   9.70314730
_cell_length_c   13.75305000
_cell_angle_alpha   69.53225341
_cell_angle_beta   89.70963581
_cell_angle_gamma   70.76065579
_symmetry_Int_Tables_number   1
_chemical_formula_structural   K7Tl3O8
_chemical_formula_sum   'K14 Tl6 O16'
_cell_volume   821.04197388
_cell_formula_units_Z   2
loop_
 _symmetry_equiv_pos_site_id
 _symmetry_equiv_pos_as_xyz
  1  'x, y, z'
loop_
 _atom_site_type_symbol
 _atom_site_label
 _atom_site_symmetry_multiplicity
 _atom_site_fract_x
 _atom_site_fract_y
 _atom_site_fract_z
 _atom_site_occupancy
  K  K0  1  0.149087  0.098511  0.669412  1
  K  K1  1  0.272259  0.482702  0.445657  1
  K  K2  1  0.556553  0.695610  0.231213  1
  K  K3  1  0.369877  0.915880  0.440799  1
  K  K4  1  0.630123  0.084120  0.559201  1
  K  K5  1  0.523176  0.704142  0.732941  1
  K  K6  1  0.727741  0.517298  0.554343  1
  K  K7  1  0.850913  0.901489  0.330588  1
  K  K8  1  0.746461  0.486801  0.057592  1
  K  K9  1  0.320210  0.916131  0.947496  1
  K  K10  1  0.253539  0.513199  0.942408  1
  K  K11  1  0.476824  0.295858  0.267059  1
  K  K12  1  0.443447  0.304390  0.768787  1
  K  K13  1  0.679790  0.083869  0.052504  1
  Tl  Tl14  1  0.173605  0.096748  0.160120  1
  Tl  Tl15  1  0.826395  0.903252  0.839880  1
  Tl  Tl16  1  0.042372  0.684239  0.639688  1
  Tl  Tl17  1  0.957628  0.315761  0.360312  1
  Tl  Tl18  1  0.926528  0.309119  0.862810  1
  Tl  Tl19  1  0.073472  0.690881  0.137190  1
  O  O20  1  0.814965  0.770204  0.010104  1
  O  O21  1  0.372568  0.591971  0.100079  1
  O  O22  1  0.970247  0.567091  0.282853  1
  O  O23  1  0.079962  0.787791  0.761505  1
  O  O24  1  0.337190  0.625824  0.585371  1
  O  O25  1  0.937295  0.096458  0.830463  1
  O  O26  1  0.758462  0.803123  0.537351  1
  O  O27  1  0.920038  0.212209  0.238495  1
  O  O28  1  0.627432  0.408029  0.899921  1
  O  O29  1  0.029753  0.432909  0.717147  1
  O  O30  1  0.062705  0.903542  0.169537  1
  O  O31  1  0.241538  0.196877  0.462649  1
  O  O32  1  0.520878  0.993129  0.762326  1
  O  O33  1  0.185035  0.229796  0.989896  1
  O  O34  1  0.479122  0.006871  0.237674  1
  O  O35  1  0.662810  0.374176  0.414629  1
