# generated using pymatgen
data_Yb3Dy(Ru2O7)2
_symmetry_space_group_name_H-M   'P 1'
_cell_length_a   7.21938765
_cell_length_b   7.21938755
_cell_length_c   7.21385206
_cell_angle_alpha   59.97461215
_cell_angle_beta   59.97460794
_cell_angle_gamma   59.99999584
_symmetry_Int_Tables_number   1
_chemical_formula_structural   Yb3Dy(Ru2O7)2
_chemical_formula_sum   'Yb3 Dy1 Ru4 O14'
_cell_volume   265.75788766
_cell_formula_units_Z   1
loop_
 _symmetry_equiv_pos_site_id
 _symmetry_equiv_pos_as_xyz
  1  'x, y, z'
loop_
 _atom_site_type_symbol
 _atom_site_label
 _atom_site_symmetry_multiplicity
 _atom_site_fract_x
 _atom_site_fract_y
 _atom_site_fract_z
 _atom_site_occupancy
  Yb  Yb0  1  0.125000  0.625000  0.125000  1
  Yb  Yb1  1  0.625000  0.125000  0.125000  1
  Yb  Yb2  1  0.125000  0.125000  0.125000  1
  Dy  Dy3  1  0.125000  0.125000  0.625000  1
  Ru  Ru4  1  0.625000  0.625000  0.125000  1
  Ru  Ru5  1  0.625000  0.125000  0.625000  1
  Ru  Ru6  1  0.125000  0.625000  0.625000  1
  Ru  Ru7  1  0.625000  0.625000  0.625000  1
  O  O8  1  0.247610  0.247610  0.257169  1
  O  O9  1  0.002390  0.002390  0.992831  1
  O  O10  1  0.301580  0.697243  0.303933  1
  O  O11  1  0.546034  0.952015  0.549936  1
  O  O12  1  0.297985  0.297985  0.700064  1
  O  O13  1  0.697243  0.301580  0.303933  1
  O  O14  1  0.297985  0.703966  0.700064  1
  O  O15  1  0.697243  0.697243  0.303933  1
  O  O16  1  0.703966  0.297985  0.700064  1
  O  O17  1  0.952015  0.546034  0.549936  1
  O  O18  1  0.552757  0.948420  0.946067  1
  O  O19  1  0.948420  0.552757  0.946067  1
  O  O20  1  0.552757  0.552757  0.946067  1
  O  O21  1  0.952015  0.952015  0.549936  1
