# generated using pymatgen
data_Ho3TmRe4F28
_symmetry_space_group_name_H-M   'P 1'
_cell_length_a   5.57633808
_cell_length_b   8.88566884
_cell_length_c   12.03269444
_cell_angle_alpha   62.69181177
_cell_angle_beta   90.01946329
_cell_angle_gamma   90.00531639
_symmetry_Int_Tables_number   1
_chemical_formula_structural   Ho3TmRe4F28
_chemical_formula_sum   'Ho3 Tm1 Re4 F28'
_cell_volume   529.76684252
_cell_formula_units_Z   1
loop_
 _symmetry_equiv_pos_site_id
 _symmetry_equiv_pos_as_xyz
  1  'x, y, z'
loop_
 _atom_site_type_symbol
 _atom_site_label
 _atom_site_symmetry_multiplicity
 _atom_site_fract_x
 _atom_site_fract_y
 _atom_site_fract_z
 _atom_site_occupancy
  Ho  Ho0  1  0.258028  0.184424  0.735560  1
  Ho  Ho1  1  0.242037  0.185910  0.235361  1
  Ho  Ho2  1  0.741949  0.813947  0.264618  1
  Tm  Tm3  1  0.758064  0.813798  0.764431  1
  Re  Re4  1  0.757731  0.273609  0.956693  1
  Re  Re5  1  0.257745  0.727240  0.543757  1
  Re  Re6  1  0.242061  0.727227  0.042263  1
  Re  Re7  1  0.742440  0.272542  0.457287  1
  F  F8  1  0.445719  0.707074  0.915102  1
  F  F9  1  0.944559  0.293483  0.584538  1
  F  F10  1  0.555956  0.293978  0.084124  1
  F  F11  1  0.056234  0.706378  0.416394  1
  F  F12  1  0.443055  0.275537  0.546503  1
  F  F13  1  0.942537  0.725167  0.952074  1
  F  F14  1  0.556228  0.724130  0.454063  1
  F  F15  1  0.057084  0.276163  0.046056  1
  F  F16  1  0.774205  0.524157  0.858154  1
  F  F17  1  0.274457  0.477274  0.641693  1
  F  F18  1  0.225332  0.477613  0.141151  1
  F  F19  1  0.725559  0.522232  0.358744  1
  F  F20  1  0.756137  0.024399  0.053528  1
  F  F21  1  0.256239  0.976532  0.446409  1
  F  F22  1  0.244028  0.976709  0.945777  1
  F  F23  1  0.743811  0.022855  0.554986  1
  F  F24  1  0.970228  0.728279  0.640625  1
  F  F25  1  0.470158  0.272724  0.860136  1
  F  F26  1  0.029770  0.272651  0.360591  1
  F  F27  1  0.529120  0.727253  0.139292  1
  F  F28  1  0.047143  0.746649  0.173441  1
  F  F29  1  0.547310  0.253192  0.326202  1
  F  F30  1  0.953023  0.253491  0.825926  1
  F  F31  1  0.455504  0.747555  0.674299  1
  F  F32  1  0.418944  0.970125  0.232429  1
  F  F33  1  0.918587  0.029661  0.267602  1
  F  F34  1  0.581594  0.026915  0.767296  1
  F  F35  1  0.077424  0.969130  0.732894  1
