# generated using pymatgen
data_TbHo4(In2Ir)2
_symmetry_space_group_name_H-M   'P 1'
_cell_length_a   3.65469500
_cell_length_b   7.99965100
_cell_length_c   18.27596900
_cell_angle_alpha   90.00000000
_cell_angle_beta   90.00000000
_cell_angle_gamma   90.00000000
_symmetry_Int_Tables_number   1
_chemical_formula_structural   TbHo4(In2Ir)2
_chemical_formula_sum   'Tb2 Ho8 In8 Ir4'
_cell_volume   534.32142941
_cell_formula_units_Z   2
loop_
 _symmetry_equiv_pos_site_id
 _symmetry_equiv_pos_as_xyz
  1  'x, y, z'
loop_
 _atom_site_type_symbol
 _atom_site_label
 _atom_site_symmetry_multiplicity
 _atom_site_fract_x
 _atom_site_fract_y
 _atom_site_fract_z
 _atom_site_occupancy
  Tb  Tb0  1  0.000000  0.000000  0.000000  1
  Tb  Tb1  1  0.000000  0.500000  0.500000  1
  Ho  Ho2  1  0.000000  0.116342  0.410673  1
  Ho  Ho3  1  0.000000  0.883658  0.589327  1
  Ho  Ho4  1  0.000000  0.383658  0.910673  1
  Ho  Ho5  1  0.000000  0.616342  0.089327  1
  Ho  Ho6  1  0.000000  0.244376  0.221425  1
  Ho  Ho7  1  0.000000  0.755624  0.778575  1
  Ho  Ho8  1  0.000000  0.255624  0.721425  1
  Ho  Ho9  1  0.000000  0.744376  0.278575  1
  In  In10  1  0.500000  0.426450  0.349681  1
  In  In11  1  0.500000  0.573550  0.650319  1
  In  In12  1  0.500000  0.073550  0.849681  1
  In  In13  1  0.500000  0.926450  0.150319  1
  In  In14  1  0.500000  0.294606  0.068100  1
  In  In15  1  0.500000  0.705394  0.931900  1
  In  In16  1  0.500000  0.205394  0.568100  1
  In  In17  1  0.500000  0.794606  0.431900  1
  Ir  Ir18  1  0.500000  0.020965  0.304424  1
  Ir  Ir19  1  0.500000  0.979035  0.695576  1
  Ir  Ir20  1  0.500000  0.479035  0.804424  1
  Ir  Ir21  1  0.500000  0.520965  0.195576  1
