# generated using pymatgen
data_Dy3Hg5Pd
_symmetry_space_group_name_H-M   'P 1'
_cell_length_a   8.07220300
_cell_length_b   8.07220287
_cell_length_c   3.79830900
_cell_angle_alpha   90.00000000
_cell_angle_beta   90.00000000
_cell_angle_gamma   119.99999644
_symmetry_Int_Tables_number   1
_chemical_formula_structural   Dy3Hg5Pd
_chemical_formula_sum   'Dy3 Hg5 Pd1'
_cell_volume   214.34091623
_cell_formula_units_Z   1
loop_
 _symmetry_equiv_pos_site_id
 _symmetry_equiv_pos_as_xyz
  1  'x, y, z'
loop_
 _atom_site_type_symbol
 _atom_site_label
 _atom_site_symmetry_multiplicity
 _atom_site_fract_x
 _atom_site_fract_y
 _atom_site_fract_z
 _atom_site_occupancy
  Dy  Dy0  1  0.387880  0.413327  0.500000  1
  Dy  Dy1  1  0.586673  0.974554  0.500000  1
  Dy  Dy2  1  0.025446  0.612120  0.500000  1
  Hg  Hg3  1  0.713523  0.719506  0.000000  1
  Hg  Hg4  1  0.280494  0.994018  0.000000  1
  Hg  Hg5  1  0.005982  0.286477  0.000000  1
  Hg  Hg6  1  0.666667  0.333333  0.000000  1
  Hg  Hg7  1  0.000000  0.000000  0.500000  1
  Pd  Pd8  1  0.333333  0.666667  0.000000  1
