# generated using pymatgen
data_Er20MgIn5Ru2
_symmetry_space_group_name_H-M   'P 1'
_cell_length_a   9.64350198
_cell_length_b   9.69420485
_cell_length_c   9.63096000
_cell_angle_alpha   90.00000000
_cell_angle_beta   90.00000000
_cell_angle_gamma   120.17408182
_symmetry_Int_Tables_number   1
_chemical_formula_structural   Er20MgIn5Ru2
_chemical_formula_sum   'Er20 Mg1 In5 Ru2'
_cell_volume   778.36388673
_cell_formula_units_Z   1
loop_
 _symmetry_equiv_pos_site_id
 _symmetry_equiv_pos_as_xyz
  1  'x, y, z'
loop_
 _atom_site_type_symbol
 _atom_site_label
 _atom_site_symmetry_multiplicity
 _atom_site_fract_x
 _atom_site_fract_y
 _atom_site_fract_z
 _atom_site_occupancy
  Er  Er0  1  0.998312  0.999156  0.500733  1
  Er  Er1  1  0.998312  0.999156  0.999267  1
  Er  Er2  1  0.210695  0.790188  0.440188  1
  Er  Er3  1  0.210695  0.420508  0.440188  1
  Er  Er4  1  0.579506  0.789754  0.438503  1
  Er  Er5  1  0.789604  0.211736  0.559220  1
  Er  Er6  1  0.789604  0.577867  0.559220  1
  Er  Er7  1  0.420044  0.210022  0.560980  1
  Er  Er8  1  0.789604  0.211736  0.940780  1
  Er  Er9  1  0.789604  0.577867  0.940780  1
  Er  Er10  1  0.420044  0.210022  0.939020  1
  Er  Er11  1  0.210695  0.790188  0.059812  1
  Er  Er12  1  0.210695  0.420508  0.059812  1
  Er  Er13  1  0.579506  0.789754  0.061497  1
  Er  Er14  1  0.541042  0.459734  0.250000  1
  Er  Er15  1  0.541042  0.081309  0.250000  1
  Er  Er16  1  0.923322  0.461661  0.250000  1
  Er  Er17  1  0.459204  0.539420  0.750000  1
  Er  Er18  1  0.459204  0.919784  0.750000  1
  Er  Er19  1  0.082355  0.541177  0.750000  1
  Mg  Mg20  1  0.771128  0.885564  0.750000  1
  In  In21  1  0.885295  0.118729  0.250000  1
  In  In22  1  0.885295  0.766566  0.250000  1
  In  In23  1  0.231074  0.115537  0.250000  1
  In  In24  1  0.113370  0.881406  0.750000  1
  In  In25  1  0.113370  0.231963  0.750000  1
  Ru  Ru26  1  0.330066  0.665033  0.250000  1
  Ru  Ru27  1  0.667318  0.333659  0.750000  1
