# generated using pymatgen
data_LuVB4
_symmetry_space_group_name_H-M   'P 1'
_cell_length_a   3.38612900
_cell_length_b   5.95326442
_cell_length_c   11.52965338
_cell_angle_alpha   89.99339925
_cell_angle_beta   90.00000000
_cell_angle_gamma   90.00000000
_symmetry_Int_Tables_number   1
_chemical_formula_structural   LuVB4
_chemical_formula_sum   'Lu4 V4 B16'
_cell_volume   232.42076156
_cell_formula_units_Z   4
loop_
 _symmetry_equiv_pos_site_id
 _symmetry_equiv_pos_as_xyz
  1  'x, y, z'
loop_
 _atom_site_type_symbol
 _atom_site_label
 _atom_site_symmetry_multiplicity
 _atom_site_fract_x
 _atom_site_fract_y
 _atom_site_fract_z
 _atom_site_occupancy
  Lu  Lu0  1  0.500000  0.375533  0.151650  1
  Lu  Lu1  1  0.500000  0.624298  0.848552  1
  Lu  Lu2  1  0.500000  0.124556  0.651470  1
  Lu  Lu3  1  0.500000  0.875743  0.348326  1
  V  V4  1  0.500000  0.371790  0.416347  1
  V  V5  1  0.500000  0.628418  0.583355  1
  V  V6  1  0.500000  0.128343  0.916695  1
  V  V7  1  0.500000  0.871243  0.083589  1
  B  B8  1  0.000000  0.115852  0.048373  1
  B  B9  1  0.000000  0.883861  0.951761  1
  B  B10  1  0.000000  0.384029  0.548256  1
  B  B11  1  0.000000  0.616168  0.451627  1
  B  B12  1  0.000000  0.134104  0.467612  1
  B  B13  1  0.000000  0.866254  0.532204  1
  B  B14  1  0.000000  0.366024  0.967778  1
  B  B15  1  0.000000  0.633819  0.032423  1
  B  B16  1  0.000000  0.022456  0.193519  1
  B  B17  1  0.000000  0.977421  0.806518  1
  B  B18  1  0.000000  0.477535  0.693432  1
  B  B19  1  0.000000  0.522409  0.306502  1
  B  B20  1  0.000000  0.211403  0.313832  1
  B  B21  1  0.000000  0.788781  0.686067  1
  B  B22  1  0.000000  0.288717  0.813904  1
  B  B23  1  0.000000  0.711241  0.186206  1
