# generated using pymatgen
data_DyLu2Sc3FeTe2
_symmetry_space_group_name_H-M   'P 1'
_cell_length_a   7.87288271
_cell_length_b   7.94377479
_cell_length_c   3.93631200
_cell_angle_alpha   90.00000000
_cell_angle_beta   90.00000000
_cell_angle_gamma   120.29831461
_symmetry_Int_Tables_number   1
_chemical_formula_structural   DyLu2Sc3FeTe2
_chemical_formula_sum   'Dy1 Lu2 Sc3 Fe1 Te2'
_cell_volume   212.55312288
_cell_formula_units_Z   1
loop_
 _symmetry_equiv_pos_site_id
 _symmetry_equiv_pos_as_xyz
  1  'x, y, z'
loop_
 _atom_site_type_symbol
 _atom_site_label
 _atom_site_symmetry_multiplicity
 _atom_site_fract_x
 _atom_site_fract_y
 _atom_site_fract_z
 _atom_site_occupancy
  Dy  Dy0  1  0.000000  0.612732  0.000000  1
  Lu  Lu1  1  0.619310  0.999574  0.000000  1
  Lu  Lu2  1  0.380690  0.380264  0.000000  1
  Sc  Sc3  1  0.227110  0.999934  0.500000  1
  Sc  Sc4  1  0.772890  0.772824  0.500000  1
  Sc  Sc5  1  0.000000  0.228188  0.500000  1
  Fe  Fe6  1  0.000000  0.009314  0.000000  1
  Te  Te7  1  0.335115  0.666143  0.500000  1
  Te  Te8  1  0.664885  0.331027  0.500000  1
