# generated using pymatgen
data_Cd3InP6N13
_symmetry_space_group_name_H-M   'P 1'
_cell_length_a   7.24273940
_cell_length_b   7.27825676
_cell_length_c   7.27825683
_cell_angle_alpha   109.56986322
_cell_angle_beta   109.37240554
_cell_angle_gamma   109.37240375
_symmetry_Int_Tables_number   1
_chemical_formula_structural   Cd3InP6N13
_chemical_formula_sum   'Cd3 In1 P6 N13'
_cell_volume   295.70853174
_cell_formula_units_Z   1
loop_
 _symmetry_equiv_pos_site_id
 _symmetry_equiv_pos_as_xyz
  1  'x, y, z'
loop_
 _atom_site_type_symbol
 _atom_site_label
 _atom_site_symmetry_multiplicity
 _atom_site_fract_x
 _atom_site_fract_y
 _atom_site_fract_z
 _atom_site_occupancy
  Cd  Cd0  1  0.998060  0.000000  0.706929  1
  Cd  Cd1  1  0.998060  0.706929  0.000000  1
  Cd  Cd2  1  0.291131  0.293071  0.293071  1
  In  In3  1  0.690733  0.000000  0.000000  1
  P  P4  1  0.251008  0.748391  0.498854  1
  P  P5  1  0.752154  0.249537  0.501146  1
  P  P6  1  0.752154  0.501146  0.249537  1
  P  P7  1  0.251008  0.498854  0.748391  1
  P  P8  1  0.502617  0.750463  0.251609  1
  P  P9  1  0.502617  0.251609  0.750463  1
  N  N10  1  0.979323  0.000000  0.000000  1
  N  N11  1  0.715551  0.275232  0.275232  1
  N  N12  1  0.280090  0.716319  0.278524  1
  N  N13  1  0.293369  0.568006  0.568006  1
  N  N14  1  0.563770  0.562205  0.283681  1
  N  N15  1  0.440319  0.724768  0.000000  1
  N  N16  1  0.001565  0.721476  0.437795  1
  N  N17  1  0.563770  0.283681  0.562205  1
  N  N18  1  0.725362  0.000000  0.431994  1
  N  N19  1  0.440319  0.000000  0.724768  1
  N  N20  1  0.725362  0.431994  0.000000  1
  N  N21  1  0.280090  0.278524  0.716319  1
  N  N22  1  0.001565  0.437795  0.721476  1
