# generated using pymatgen
data_PrGaPdPt
_symmetry_space_group_name_H-M   'P 1'
_cell_length_a   5.82596300
_cell_length_b   7.16206500
_cell_length_c   7.61788500
_cell_angle_alpha   90.00000000
_cell_angle_beta   90.00000000
_cell_angle_gamma   90.00000000
_symmetry_Int_Tables_number   1
_chemical_formula_structural   PrGaPdPt
_chemical_formula_sum   'Pr4 Ga4 Pd4 Pt4'
_cell_volume   317.86330345
_cell_formula_units_Z   4
loop_
 _symmetry_equiv_pos_site_id
 _symmetry_equiv_pos_as_xyz
  1  'x, y, z'
loop_
 _atom_site_type_symbol
 _atom_site_label
 _atom_site_symmetry_multiplicity
 _atom_site_fract_x
 _atom_site_fract_y
 _atom_site_fract_z
 _atom_site_occupancy
  Pr  Pr0  1  0.350568  0.749261  0.033208  1
  Pr  Pr1  1  0.149432  0.750739  0.533208  1
  Pr  Pr2  1  0.649432  0.249261  0.966792  1
  Pr  Pr3  1  0.850568  0.250739  0.466792  1
  Ga  Ga4  1  0.650204  0.749089  0.380562  1
  Ga  Ga5  1  0.849796  0.750911  0.880562  1
  Ga  Ga6  1  0.349796  0.249089  0.619438  1
  Ga  Ga7  1  0.150204  0.250911  0.119438  1
  Pd  Pd8  1  0.087862  0.447800  0.822082  1
  Pd  Pd9  1  0.412138  0.052200  0.322082  1
  Pd  Pd10  1  0.912138  0.947800  0.177918  1
  Pd  Pd11  1  0.587862  0.552200  0.677918  1
  Pt  Pt12  1  0.912348  0.554275  0.176696  1
  Pt  Pt13  1  0.587652  0.945725  0.676696  1
  Pt  Pt14  1  0.087652  0.054275  0.823304  1
  Pt  Pt15  1  0.412348  0.445725  0.323304  1
