# generated using pymatgen
data_Tm12CdCo4Ru
_symmetry_space_group_name_H-M   'P 1'
_cell_length_a   8.19255947
_cell_length_b   8.19256026
_cell_length_c   8.19256085
_cell_angle_alpha   111.52756152
_cell_angle_beta   110.72502320
_cell_angle_gamma   106.21054986
_symmetry_Int_Tables_number   1
_chemical_formula_structural   Tm12CdCo4Ru
_chemical_formula_sum   'Tm12 Cd1 Co4 Ru1'
_cell_volume   422.24632007
_cell_formula_units_Z   1
loop_
 _symmetry_equiv_pos_site_id
 _symmetry_equiv_pos_as_xyz
  1  'x, y, z'
loop_
 _atom_site_type_symbol
 _atom_site_label
 _atom_site_symmetry_multiplicity
 _atom_site_fract_x
 _atom_site_fract_y
 _atom_site_fract_z
 _atom_site_occupancy
  Tm  Tm0  1  0.413993  0.219816  0.194177  1
  Tm  Tm1  1  0.586007  0.780184  0.805823  1
  Tm  Tm2  1  0.025639  0.219816  0.805823  1
  Tm  Tm3  1  0.974361  0.780184  0.194177  1
  Tm  Tm4  1  0.182621  0.281727  0.464348  1
  Tm  Tm5  1  0.817379  0.718273  0.535652  1
  Tm  Tm6  1  0.182621  0.718273  0.900894  1
  Tm  Tm7  1  0.817379  0.281727  0.099106  1
  Tm  Tm8  1  0.313395  0.620924  0.307529  1
  Tm  Tm9  1  0.686605  0.379076  0.692471  1
  Tm  Tm10  1  0.313395  0.005866  0.692471  1
  Tm  Tm11  1  0.686605  0.994134  0.307529  1
  Cd  Cd12  1  0.500000  0.500000  0.000000  1
  Co  Co13  1  0.374945  0.000000  0.374945  1
  Co  Co14  1  0.625055  0.000000  0.625055  1
  Co  Co15  1  0.112085  0.612085  0.500000  1
  Co  Co16  1  0.887915  0.387915  0.500000  1
  Ru  Ru17  1  0.000000  0.000000  0.000000  1
