# generated using pymatgen
data_Ni4P4PdRu3
_symmetry_space_group_name_H-M   'P 1'
_cell_length_a   3.66700800
_cell_length_b   5.78022458
_cell_length_c   6.84846348
_cell_angle_alpha   91.28273630
_cell_angle_beta   90.00000000
_cell_angle_gamma   90.00000000
_symmetry_Int_Tables_number   1
_chemical_formula_structural   Ni4P4PdRu3
_chemical_formula_sum   'Ni4 P4 Pd1 Ru3'
_cell_volume   145.12454329
_cell_formula_units_Z   1
loop_
 _symmetry_equiv_pos_site_id
 _symmetry_equiv_pos_as_xyz
  1  'x, y, z'
loop_
 _atom_site_type_symbol
 _atom_site_label
 _atom_site_symmetry_multiplicity
 _atom_site_fract_x
 _atom_site_fract_y
 _atom_site_fract_z
 _atom_site_occupancy
  Ni  Ni0  1  0.750000  0.365289  0.560627  1
  Ni  Ni1  1  0.750000  0.867170  0.935550  1
  Ni  Ni2  1  0.250000  0.630423  0.432590  1
  Ni  Ni3  1  0.250000  0.145395  0.064521  1
  P  P4  1  0.750000  0.242979  0.866866  1
  P  P5  1  0.750000  0.744911  0.625175  1
  P  P6  1  0.250000  0.770090  0.124739  1
  P  P7  1  0.250000  0.239465  0.383056  1
  Pd  Pd8  1  0.750000  0.470842  0.163892  1
  Ru  Ru9  1  0.750000  0.964544  0.338558  1
  Ru  Ru10  1  0.250000  0.531866  0.833201  1
  Ru  Ru11  1  0.250000  0.027024  0.671226  1
