# generated using pymatgen
data_HoMgTcB6
_symmetry_space_group_name_H-M   'P 1'
_cell_length_a   3.56757900
_cell_length_b   8.89628800
_cell_length_c   11.25698000
_cell_angle_alpha   90.00000000
_cell_angle_beta   90.00000000
_cell_angle_gamma   90.00000000
_symmetry_Int_Tables_number   1
_chemical_formula_structural   HoMgTcB6
_chemical_formula_sum   'Ho4 Mg4 Tc4 B24'
_cell_volume   357.27639798
_cell_formula_units_Z   4
loop_
 _symmetry_equiv_pos_site_id
 _symmetry_equiv_pos_as_xyz
  1  'x, y, z'
loop_
 _atom_site_type_symbol
 _atom_site_label
 _atom_site_symmetry_multiplicity
 _atom_site_fract_x
 _atom_site_fract_y
 _atom_site_fract_z
 _atom_site_occupancy
  Ho  Ho0  1  0.000000  0.323722  0.414007  1
  Ho  Ho1  1  0.000000  0.676278  0.585993  1
  Ho  Ho2  1  0.000000  0.823722  0.085993  1
  Ho  Ho3  1  0.000000  0.176278  0.914007  1
  Mg  Mg4  1  0.000000  0.943932  0.371946  1
  Mg  Mg5  1  0.000000  0.056068  0.628054  1
  Mg  Mg6  1  0.000000  0.443932  0.128054  1
  Mg  Mg7  1  0.000000  0.556068  0.871946  1
  Tc  Tc8  1  0.000000  0.642216  0.317697  1
  Tc  Tc9  1  0.000000  0.357784  0.682303  1
  Tc  Tc10  1  0.000000  0.142216  0.182303  1
  Tc  Tc11  1  0.000000  0.857784  0.817697  1
  B  B12  1  0.500000  0.554463  0.433012  1
  B  B13  1  0.500000  0.445537  0.566988  1
  B  B14  1  0.500000  0.054463  0.066988  1
  B  B15  1  0.500000  0.945537  0.933012  1
  B  B16  1  0.500000  0.755595  0.418595  1
  B  B17  1  0.500000  0.244405  0.581405  1
  B  B18  1  0.500000  0.255595  0.081405  1
  B  B19  1  0.500000  0.744405  0.918595  1
  B  B20  1  0.500000  0.795020  0.262591  1
  B  B21  1  0.500000  0.204980  0.737408  1
  B  B22  1  0.500000  0.295020  0.237409  1
  B  B23  1  0.500000  0.704980  0.762592  1
  B  B24  1  0.500000  0.627908  0.181320  1
  B  B25  1  0.500000  0.372092  0.818680  1
  B  B26  1  0.500000  0.127908  0.318680  1
  B  B27  1  0.500000  0.872092  0.681320  1
  B  B28  1  0.500000  0.979769  0.212486  1
  B  B29  1  0.500000  0.020231  0.787514  1
  B  B30  1  0.500000  0.479769  0.287514  1
  B  B31  1  0.500000  0.520231  0.712486  1
  B  B32  1  0.500000  0.592640  0.025261  1
  B  B33  1  0.500000  0.407360  0.974739  1
  B  B34  1  0.500000  0.092640  0.474739  1
  B  B35  1  0.500000  0.907360  0.525261  1
