# generated using pymatgen
data_Dy3Ho3FeTe2
_symmetry_space_group_name_H-M   'P 1'
_cell_length_a   8.31976500
_cell_length_b   8.31976539
_cell_length_c   3.97503700
_cell_angle_alpha   90.00000000
_cell_angle_beta   90.00000000
_cell_angle_gamma   120.00000244
_symmetry_Int_Tables_number   1
_chemical_formula_structural   Dy3Ho3FeTe2
_chemical_formula_sum   'Dy3 Ho3 Fe1 Te2'
_cell_volume   238.28348069
_cell_formula_units_Z   1
loop_
 _symmetry_equiv_pos_site_id
 _symmetry_equiv_pos_as_xyz
  1  'x, y, z'
loop_
 _atom_site_type_symbol
 _atom_site_label
 _atom_site_symmetry_multiplicity
 _atom_site_fract_x
 _atom_site_fract_y
 _atom_site_fract_z
 _atom_site_occupancy
  Dy  Dy0  1  0.603868  0.000000  0.500000  1
  Dy  Dy1  1  0.396132  0.396132  0.500000  1
  Dy  Dy2  1  0.000000  0.603868  0.500000  1
  Ho  Ho3  1  0.000000  0.235070  0.000000  1
  Ho  Ho4  1  0.764930  0.764930  0.000000  1
  Ho  Ho5  1  0.235070  0.000000  0.000000  1
  Fe  Fe6  1  0.000000  0.000000  0.500000  1
  Te  Te7  1  0.333333  0.666667  0.000000  1
  Te  Te8  1  0.666667  0.333333  0.000000  1
