# generated using pymatgen
data_Tm5ThCr2(Co4P3)4
_symmetry_space_group_name_H-M   'P 1'
_cell_length_a   3.68187300
_cell_length_b   10.50196400
_cell_length_c   12.14883500
_cell_angle_alpha   90.00000000
_cell_angle_beta   90.00000000
_cell_angle_gamma   90.00000000
_symmetry_Int_Tables_number   1
_chemical_formula_structural   Tm5ThCr2(Co4P3)4
_chemical_formula_sum   'Tm5 Th1 Cr2 Co16 P12'
_cell_volume   469.75776010
_cell_formula_units_Z   1
loop_
 _symmetry_equiv_pos_site_id
 _symmetry_equiv_pos_as_xyz
  1  'x, y, z'
loop_
 _atom_site_type_symbol
 _atom_site_label
 _atom_site_symmetry_multiplicity
 _atom_site_fract_x
 _atom_site_fract_y
 _atom_site_fract_z
 _atom_site_occupancy
  Tm  Tm0  1  0.500000  0.000000  0.477148  1
  Tm  Tm1  1  0.500000  0.818144  0.204660  1
  Tm  Tm2  1  0.500000  0.181856  0.204660  1
  Tm  Tm3  1  0.000000  0.682934  0.797377  1
  Tm  Tm4  1  0.000000  0.317066  0.797377  1
  Th  Th5  1  0.000000  0.500000  0.525372  1
  Cr  Cr6  1  0.500000  0.500000  0.152700  1
  Cr  Cr7  1  0.000000  0.000000  0.843540  1
  Co  Co8  1  0.500000  0.500000  0.702793  1
  Co  Co9  1  0.000000  0.000000  0.296879  1
  Co  Co10  1  0.000000  0.500000  0.987353  1
  Co  Co11  1  0.500000  0.000000  0.013770  1
  Co  Co12  1  0.500000  0.332430  0.992207  1
  Co  Co13  1  0.500000  0.667570  0.992207  1
  Co  Co14  1  0.000000  0.167185  0.007452  1
  Co  Co15  1  0.000000  0.832815  0.007452  1
  Co  Co16  1  0.500000  0.294163  0.430602  1
  Co  Co17  1  0.500000  0.705837  0.430602  1
  Co  Co18  1  0.000000  0.200419  0.569447  1
  Co  Co19  1  0.000000  0.799581  0.569447  1
  Co  Co20  1  0.500000  0.880162  0.710217  1
  Co  Co21  1  0.500000  0.119838  0.710217  1
  Co  Co22  1  0.000000  0.621434  0.289610  1
  Co  Co23  1  0.000000  0.378566  0.289610  1
  P  P24  1  0.500000  0.500000  0.881588  1
  P  P25  1  0.000000  0.000000  0.118660  1
  P  P26  1  0.500000  0.500000  0.338493  1
  P  P27  1  0.000000  0.000000  0.653862  1
  P  P28  1  0.500000  0.305849  0.619509  1
  P  P29  1  0.500000  0.694151  0.619509  1
  P  P30  1  0.000000  0.186387  0.382886  1
  P  P31  1  0.000000  0.813613  0.382886  1
  P  P32  1  0.500000  0.847576  0.892173  1
  P  P33  1  0.500000  0.152424  0.892173  1
  P  P34  1  0.000000  0.653790  0.107780  1
  P  P35  1  0.000000  0.346210  0.107780  1
