# generated using pymatgen
data_Ba2Eu2Bi2N
_symmetry_space_group_name_H-M   'P 1'
_cell_length_a   5.08277415
_cell_length_b   5.08253285
_cell_length_c   9.86201499
_cell_angle_alpha   104.93907117
_cell_angle_beta   104.94106326
_cell_angle_gamma   89.99674769
_symmetry_Int_Tables_number   1
_chemical_formula_structural   Ba2Eu2Bi2N
_chemical_formula_sum   'Ba2 Eu2 Bi2 N1'
_cell_volume   237.23322705
_cell_formula_units_Z   1
loop_
 _symmetry_equiv_pos_site_id
 _symmetry_equiv_pos_as_xyz
  1  'x, y, z'
loop_
 _atom_site_type_symbol
 _atom_site_label
 _atom_site_symmetry_multiplicity
 _atom_site_fract_x
 _atom_site_fract_y
 _atom_site_fract_z
 _atom_site_occupancy
  Ba  Ba0  1  0.163697  0.163681  0.327221  1
  Ba  Ba1  1  0.836303  0.836316  0.672782  1
  Eu  Eu2  1  0.499996  0.999999  0.999997  1
  Eu  Eu3  1  0.000000  0.500000  0.000001  1
  Bi  Bi4  1  0.630057  0.630046  0.259901  1
  Bi  Bi5  1  0.369942  0.369952  0.740099  1
  N  N6  1  0.999999  0.000000  0.999998  1
