# generated using pymatgen
data_Th3Hg3Os
_symmetry_space_group_name_H-M   'P 1'
_cell_length_a   8.23126755
_cell_length_b   8.24627833
_cell_length_c   8.42095209
_cell_angle_alpha   112.97011525
_cell_angle_beta   113.88409008
_cell_angle_gamma   112.05628471
_symmetry_Int_Tables_number   1
_chemical_formula_structural   Th3Hg3Os
_chemical_formula_sum   'Th6 Hg6 Os2'
_cell_volume   372.23200445
_cell_formula_units_Z   2
loop_
 _symmetry_equiv_pos_site_id
 _symmetry_equiv_pos_as_xyz
  1  'x, y, z'
loop_
 _atom_site_type_symbol
 _atom_site_label
 _atom_site_symmetry_multiplicity
 _atom_site_fract_x
 _atom_site_fract_y
 _atom_site_fract_z
 _atom_site_occupancy
  Th  Th0  1  0.059664  0.418883  0.302222  1
  Th  Th1  1  0.361654  0.225780  0.957664  1
  Th  Th2  1  0.730150  0.985212  0.676976  1
  Th  Th3  1  0.240688  0.983569  0.380052  1
  Th  Th4  1  0.611897  0.761906  0.943770  1
  Th  Th5  1  0.028183  0.662559  0.771691  1
  Hg  Hg6  1  0.508159  0.455592  0.457727  1
  Hg  Hg7  1  0.852403  0.722852  0.387085  1
  Hg  Hg8  1  0.298824  0.605359  0.113149  1
  Hg  Hg9  1  0.747247  0.422424  0.908657  1
  Hg  Hg10  1  0.061126  0.232796  0.579057  1
  Hg  Hg11  1  0.601419  0.120662  0.280719  1
  Os  Os12  1  0.042582  0.032677  0.038121  1
  Os  Os13  1  0.356005  0.869729  0.703110  1
