# generated using pymatgen
data_Th3AlZn2Pt3
_symmetry_space_group_name_H-M   'P 1'
_cell_length_a   7.43583852
_cell_length_b   7.32150360
_cell_length_c   4.09033500
_cell_angle_alpha   90.00000000
_cell_angle_beta   90.00000000
_cell_angle_gamma   119.49265144
_symmetry_Int_Tables_number   1
_chemical_formula_structural   Th3AlZn2Pt3
_chemical_formula_sum   'Th3 Al1 Zn2 Pt3'
_cell_volume   193.82839250
_cell_formula_units_Z   1
loop_
 _symmetry_equiv_pos_site_id
 _symmetry_equiv_pos_as_xyz
  1  'x, y, z'
loop_
 _atom_site_type_symbol
 _atom_site_label
 _atom_site_symmetry_multiplicity
 _atom_site_fract_x
 _atom_site_fract_y
 _atom_site_fract_z
 _atom_site_occupancy
  Th  Th0  1  0.417398  0.412613  0.500000  1
  Th  Th1  1  0.582602  0.995215  0.500000  1
  Th  Th2  1  0.000000  0.592672  0.500000  1
  Al  Al3  1  0.000000  0.231538  0.000000  1
  Zn  Zn4  1  0.758669  0.760245  0.000000  1
  Zn  Zn5  1  0.241331  0.001576  0.000000  1
  Pt  Pt6  1  0.676980  0.332891  0.000000  1
  Pt  Pt7  1  0.323020  0.655911  0.000000  1
  Pt  Pt8  1  0.000000  0.017341  0.500000  1
