# generated using pymatgen
data_Tb8Si(Pd7Pt5)2
_symmetry_space_group_name_H-M   'P 1'
_cell_length_a   8.36994803
_cell_length_b   8.37230185
_cell_length_c   8.37302000
_cell_angle_alpha   90.01698555
_cell_angle_beta   90.00520252
_cell_angle_gamma   89.98063822
_symmetry_Int_Tables_number   1
_chemical_formula_structural   Tb8Si(Pd7Pt5)2
_chemical_formula_sum   'Tb8 Si1 Pd14 Pt10'
_cell_volume   586.74543865
_cell_formula_units_Z   1
loop_
 _symmetry_equiv_pos_site_id
 _symmetry_equiv_pos_as_xyz
  1  'x, y, z'
loop_
 _atom_site_type_symbol
 _atom_site_label
 _atom_site_symmetry_multiplicity
 _atom_site_fract_x
 _atom_site_fract_y
 _atom_site_fract_z
 _atom_site_occupancy
  Tb  Tb0  1  0.253804  0.254048  0.745886  1
  Tb  Tb1  1  0.254631  0.746116  0.254829  1
  Tb  Tb2  1  0.745677  0.254380  0.254083  1
  Tb  Tb3  1  0.746004  0.744984  0.745669  1
  Tb  Tb4  1  0.745226  0.745358  0.254436  1
  Tb  Tb5  1  0.746147  0.254721  0.746077  1
  Tb  Tb6  1  0.253821  0.745741  0.745272  1
  Tb  Tb7  1  0.254302  0.253709  0.254283  1
  Si  Si8  1  0.000533  0.001066  0.999455  1
  Pd  Pd9  1  0.999499  0.999554  0.720702  1
  Pd  Pd10  1  0.999971  0.279950  0.000365  1
  Pd  Pd11  1  0.279834  0.999595  0.000050  1
  Pd  Pd12  1  0.999532  0.999565  0.278601  1
  Pd  Pd13  1  0.999917  0.721502  0.000343  1
  Pd  Pd14  1  0.720934  0.999557  0.000034  1
  Pd  Pd15  1  0.500224  0.000055  0.743741  1
  Pd  Pd16  1  0.256368  0.500426  0.999885  1
  Pd  Pd17  1  0.999955  0.500370  0.256353  1
  Pd  Pd18  1  0.500148  0.743338  0.000049  1
  Pd  Pd19  1  0.000097  0.743908  0.499748  1
  Pd  Pd20  1  0.500276  0.000038  0.256087  1
  Pd  Pd21  1  0.743534  0.000107  0.499834  1
  Pd  Pd22  1  0.743780  0.500415  0.999916  1
  Pt  Pt23  1  0.499990  0.499861  0.748786  1
  Pt  Pt24  1  0.499802  0.251270  0.499953  1
  Pt  Pt25  1  0.251274  0.499826  0.500073  1
  Pt  Pt26  1  0.499954  0.499802  0.251376  1
  Pt  Pt27  1  0.499772  0.748346  0.500072  1
  Pt  Pt28  1  0.748545  0.499751  0.500071  1
  Pt  Pt29  1  0.999970  0.500275  0.744172  1
  Pt  Pt30  1  0.500199  0.256400  0.000049  1
  Pt  Pt31  1  0.256129  0.000127  0.499839  1
  Pt  Pt32  1  0.000152  0.255835  0.499911  1
