# generated using pymatgen
data_U2AlNiIr2
_symmetry_space_group_name_H-M   'P 1'
_cell_length_a   5.34433000
_cell_length_b   5.46567762
_cell_length_c   7.86103200
_cell_angle_alpha   90.00000000
_cell_angle_beta   90.00000000
_cell_angle_gamma   119.26824986
_symmetry_Int_Tables_number   1
_chemical_formula_structural   U2AlNiIr2
_chemical_formula_sum   'U4 Al2 Ni2 Ir4'
_cell_volume   200.31007472
_cell_formula_units_Z   2
loop_
 _symmetry_equiv_pos_site_id
 _symmetry_equiv_pos_as_xyz
  1  'x, y, z'
loop_
 _atom_site_type_symbol
 _atom_site_label
 _atom_site_symmetry_multiplicity
 _atom_site_fract_x
 _atom_site_fract_y
 _atom_site_fract_z
 _atom_site_occupancy
  U  U0  1  0.333993  0.664412  0.420069  1
  U  U1  1  0.669582  0.335588  0.920069  1
  U  U2  1  0.669582  0.335588  0.579931  1
  U  U3  1  0.333993  0.664412  0.079931  1
  Al  Al4  1  0.007212  0.000000  0.500000  1
  Al  Al5  1  0.007212  0.000000  0.000000  1
  Ni  Ni6  1  0.167838  0.831466  0.750000  1
  Ni  Ni7  1  0.336372  0.168534  0.250000  1
  Ir  Ir8  1  0.824787  0.167890  0.250000  1
  Ir  Ir9  1  0.656898  0.832110  0.750000  1
  Ir  Ir10  1  0.167498  0.342465  0.750000  1
  Ir  Ir11  1  0.825033  0.657535  0.250000  1
