# generated using pymatgen
data_KNb6TlS12
_symmetry_space_group_name_H-M   'P 1'
_cell_length_a   5.72384900
_cell_length_b   5.72384906
_cell_length_c   16.44552200
_cell_angle_alpha   90.00000000
_cell_angle_beta   90.00000000
_cell_angle_gamma   119.99999387
_symmetry_Int_Tables_number   1
_chemical_formula_structural   KNb6TlS12
_chemical_formula_sum   'K1 Nb6 Tl1 S12'
_cell_volume   466.61066670
_cell_formula_units_Z   1
loop_
 _symmetry_equiv_pos_site_id
 _symmetry_equiv_pos_as_xyz
  1  'x, y, z'
loop_
 _atom_site_type_symbol
 _atom_site_label
 _atom_site_symmetry_multiplicity
 _atom_site_fract_x
 _atom_site_fract_y
 _atom_site_fract_z
 _atom_site_occupancy
  K  K0  1  0.000000  0.000000  0.500000  1
  Nb  Nb1  1  0.000000  0.000000  0.255169  1
  Nb  Nb2  1  0.000000  0.000000  0.744831  1
  Nb  Nb3  1  0.333333  0.666667  0.254191  1
  Nb  Nb4  1  0.666667  0.333333  0.745809  1
  Nb  Nb5  1  0.666667  0.333333  0.254191  1
  Nb  Nb6  1  0.333333  0.666667  0.745809  1
  Tl  Tl7  1  0.000000  0.000000  0.000000  1
  S  S8  1  0.332720  0.000000  0.158477  1
  S  S9  1  0.000000  0.332720  0.158477  1
  S  S10  1  0.667280  0.667280  0.158477  1
  S  S11  1  0.336740  0.336740  0.649400  1
  S  S12  1  0.663260  0.663260  0.350600  1
  S  S13  1  0.663260  0.000000  0.649400  1
  S  S14  1  0.000000  0.663260  0.649400  1
  S  S15  1  0.000000  0.667280  0.841523  1
  S  S16  1  0.332720  0.332720  0.841523  1
  S  S17  1  0.000000  0.336740  0.350600  1
  S  S18  1  0.336740  0.000000  0.350600  1
  S  S19  1  0.667280  0.000000  0.841523  1
