# generated using pymatgen
data_LiTbNd5RhI12
_symmetry_space_group_name_H-M   'P 1'
_cell_length_a   10.06385901
_cell_length_b   9.96246998
_cell_length_c   9.96419698
_cell_angle_alpha   107.36549153
_cell_angle_beta   107.86391708
_cell_angle_gamma   107.22143535
_symmetry_Int_Tables_number   1
_chemical_formula_structural   LiTbNd5RhI12
_chemical_formula_sum   'Li1 Tb1 Nd5 Rh1 I12'
_cell_volume   820.74757022
_cell_formula_units_Z   1
loop_
 _symmetry_equiv_pos_site_id
 _symmetry_equiv_pos_as_xyz
  1  'x, y, z'
loop_
 _atom_site_type_symbol
 _atom_site_label
 _atom_site_symmetry_multiplicity
 _atom_site_fract_x
 _atom_site_fract_y
 _atom_site_fract_z
 _atom_site_occupancy
  Li  Li0  1  0.501280  0.500691  0.500087  1
  Tb  Tb1  1  0.313156  0.107430  0.033084  1
  Nd  Nd2  1  0.897919  0.968495  0.694255  1
  Nd  Nd3  1  0.967987  0.694738  0.896099  1
  Nd  Nd4  1  0.678753  0.890339  0.966712  1
  Nd  Nd5  1  0.106702  0.033162  0.307775  1
  Nd  Nd6  1  0.030799  0.305408  0.104791  1
  Rh  Rh7  1  0.000856  0.000509  0.001102  1
  I  I8  1  0.538905  0.834817  0.613147  1
  I  I9  1  0.835264  0.614328  0.536288  1
  I  I10  1  0.615457  0.536963  0.834224  1
  I  I11  1  0.462438  0.163822  0.377994  1
  I  I12  1  0.166609  0.386128  0.464603  1
  I  I13  1  0.382325  0.454483  0.159917  1
  I  I14  1  0.677531  0.225433  0.073889  1
  I  I15  1  0.230439  0.076264  0.689828  1
  I  I16  1  0.076839  0.683401  0.228376  1
  I  I17  1  0.315639  0.780285  0.926628  1
  I  I18  1  0.776409  0.926045  0.318453  1
  I  I19  1  0.924691  0.317261  0.772749  1
