# generated using pymatgen
data_Sr6PrSm(Si3Pd)4
_symmetry_space_group_name_H-M   'P 1'
_cell_length_a   8.40218400
_cell_length_b   8.40218555
_cell_length_c   8.80288600
_cell_angle_alpha   90.00000000
_cell_angle_beta   90.00000000
_cell_angle_gamma   120.00000178
_symmetry_Int_Tables_number   1
_chemical_formula_structural   Sr6PrSm(Si3Pd)4
_chemical_formula_sum   'Sr6 Pr1 Sm1 Si12 Pd4'
_cell_volume   538.19561798
_cell_formula_units_Z   1
loop_
 _symmetry_equiv_pos_site_id
 _symmetry_equiv_pos_as_xyz
  1  'x, y, z'
loop_
 _atom_site_type_symbol
 _atom_site_label
 _atom_site_symmetry_multiplicity
 _atom_site_fract_x
 _atom_site_fract_y
 _atom_site_fract_z
 _atom_site_occupancy
  Sr  Sr0  1  0.499371  0.500629  0.750000  1
  Sr  Sr1  1  0.500631  0.499369  0.250000  1
  Sr  Sr2  1  0.001259  0.500629  0.750000  1
  Sr  Sr3  1  0.998737  0.499369  0.250000  1
  Sr  Sr4  1  0.499371  0.998741  0.750000  1
  Sr  Sr5  1  0.500631  0.001263  0.250000  1
  Pr  Pr6  1  0.000000  0.000000  0.250000  1
  Sm  Sm7  1  0.000000  0.000000  0.750000  1
  Si  Si8  1  0.836943  0.163057  0.998441  1
  Si  Si9  1  0.163039  0.836961  0.998189  1
  Si  Si10  1  0.326114  0.163057  0.998441  1
  Si  Si11  1  0.163039  0.836961  0.501811  1
  Si  Si12  1  0.673922  0.836961  0.998189  1
  Si  Si13  1  0.836943  0.163057  0.501559  1
  Si  Si14  1  0.836943  0.673886  0.998441  1
  Si  Si15  1  0.673922  0.836961  0.501811  1
  Si  Si16  1  0.163039  0.326078  0.998189  1
  Si  Si17  1  0.326114  0.163057  0.501559  1
  Si  Si18  1  0.163039  0.326078  0.501811  1
  Si  Si19  1  0.836943  0.673886  0.501559  1
  Pd  Pd20  1  0.666667  0.333333  0.997401  1
  Pd  Pd21  1  0.333333  0.666667  0.001715  1
  Pd  Pd22  1  0.333333  0.666667  0.498285  1
  Pd  Pd23  1  0.666667  0.333333  0.502599  1
