# generated using pymatgen
data_Cs3Na2HfAs3
_symmetry_space_group_name_H-M   'P 1'
_cell_length_a   11.11784058
_cell_length_b   11.11784086
_cell_length_c   16.86770800
_cell_angle_alpha   90.00000000
_cell_angle_beta   90.00000000
_cell_angle_gamma   142.71644340
_symmetry_Int_Tables_number   1
_chemical_formula_structural   Cs3Na2HfAs3
_chemical_formula_sum   'Cs12 Na8 Hf4 As12'
_cell_volume   1262.98333573
_cell_formula_units_Z   4
loop_
 _symmetry_equiv_pos_site_id
 _symmetry_equiv_pos_as_xyz
  1  'x, y, z'
loop_
 _atom_site_type_symbol
 _atom_site_label
 _atom_site_symmetry_multiplicity
 _atom_site_fract_x
 _atom_site_fract_y
 _atom_site_fract_z
 _atom_site_occupancy
  Cs  Cs0  1  0.948543  0.608896  0.825370  1
  Cs  Cs1  1  0.551457  0.891104  0.325370  1
  Cs  Cs2  1  0.391104  0.051457  0.174630  1
  Cs  Cs3  1  0.051457  0.391104  0.174630  1
  Cs  Cs4  1  0.891104  0.551457  0.325370  1
  Cs  Cs5  1  0.448543  0.108896  0.674630  1
  Cs  Cs6  1  0.608896  0.948543  0.825370  1
  Cs  Cs7  1  0.282599  0.282599  0.315928  1
  Cs  Cs8  1  0.782599  0.782599  0.184072  1
  Cs  Cs9  1  0.217401  0.217401  0.815928  1
  Cs  Cs10  1  0.717401  0.717401  0.684072  1
  Cs  Cs11  1  0.108896  0.448543  0.674630  1
  Na  Na12  1  0.919682  0.080318  0.000000  1
  Na  Na13  1  0.580318  0.419682  0.500000  1
  Na  Na14  1  0.080318  0.919682  0.000000  1
  Na  Na15  1  0.419682  0.580318  0.500000  1
  Na  Na16  1  0.754367  0.245633  0.000000  1
  Na  Na17  1  0.745633  0.254367  0.500000  1
  Na  Na18  1  0.245633  0.754367  0.000000  1
  Na  Na19  1  0.254367  0.745633  0.500000  1
  Hf  Hf20  1  0.585075  0.414925  0.000000  1
  Hf  Hf21  1  0.914925  0.085075  0.500000  1
  Hf  Hf22  1  0.414925  0.585075  0.000000  1
  Hf  Hf23  1  0.085075  0.914925  0.500000  1
  As  As24  1  0.869016  0.558300  0.091042  1
  As  As25  1  0.441700  0.130984  0.908958  1
  As  As26  1  0.630984  0.941700  0.591042  1
  As  As27  1  0.941700  0.630984  0.591042  1
  As  As28  1  0.130984  0.441700  0.908958  1
  As  As29  1  0.558300  0.869016  0.091042  1
  As  As30  1  0.369016  0.058300  0.408958  1
  As  As31  1  0.198649  0.198649  0.583549  1
  As  As32  1  0.698649  0.698649  0.916451  1
  As  As33  1  0.301351  0.301351  0.083549  1
  As  As34  1  0.058300  0.369016  0.408958  1
  As  As35  1  0.801351  0.801351  0.416451  1
