# generated using pymatgen
data_Pr2P7(IrRu2)4
_symmetry_space_group_name_H-M   'P 1'
_cell_length_a   9.53515413
_cell_length_b   9.55300813
_cell_length_c   3.95077600
_cell_angle_alpha   90.00000000
_cell_angle_beta   90.00000000
_cell_angle_gamma   119.74872950
_symmetry_Int_Tables_number   1
_chemical_formula_structural   Pr2P7(IrRu2)4
_chemical_formula_sum   'Pr2 P7 Ir4 Ru8'
_cell_volume   312.44599660
_cell_formula_units_Z   1
loop_
 _symmetry_equiv_pos_site_id
 _symmetry_equiv_pos_as_xyz
  1  'x, y, z'
loop_
 _atom_site_type_symbol
 _atom_site_label
 _atom_site_symmetry_multiplicity
 _atom_site_fract_x
 _atom_site_fract_y
 _atom_site_fract_z
 _atom_site_occupancy
  Pr  Pr0  1  0.332299  0.664798  0.000000  1
  Pr  Pr1  1  0.668399  0.335838  0.500000  1
  P  P2  1  0.107861  0.396277  0.500000  1
  P  P3  1  0.599878  0.710065  0.500000  1
  P  P4  1  0.283691  0.883080  0.500000  1
  P  P5  1  0.998736  0.998464  0.000000  1
  P  P6  1  0.412018  0.299627  0.000000  1
  P  P7  1  0.710063  0.118786  0.000000  1
  P  P8  1  0.884726  0.590383  0.000000  1
  Ir  Ir9  1  0.440445  0.068299  0.000000  1
  Ir  Ir10  1  0.383918  0.439982  0.500000  1
  Ir  Ir11  1  0.554511  0.940043  0.500000  1
  Ir  Ir12  1  0.054686  0.614012  0.500000  1
  Ru  Ru13  1  0.937426  0.372508  0.000000  1
  Ru  Ru14  1  0.628669  0.567163  0.000000  1
  Ru  Ru15  1  0.154858  0.265161  0.000000  1
  Ru  Ru16  1  0.730482  0.889299  0.000000  1
  Ru  Ru17  1  0.113726  0.844393  0.000000  1
  Ru  Ru18  1  0.237235  0.097477  0.500000  1
  Ru  Ru19  1  0.899845  0.131151  0.500000  1
  Ru  Ru20  1  0.866527  0.773197  0.500000  1
