# generated using pymatgen
data_Li2V(NiAs)3
_symmetry_space_group_name_H-M   'P 1'
_cell_length_a   6.08535699
_cell_length_b   6.08535550
_cell_length_c   3.66823600
_cell_angle_alpha   90.00000000
_cell_angle_beta   90.00000000
_cell_angle_gamma   118.53879212
_symmetry_Int_Tables_number   1
_chemical_formula_structural   Li2V(NiAs)3
_chemical_formula_sum   'Li2 V1 Ni3 As3'
_cell_volume   119.33504744
_cell_formula_units_Z   1
loop_
 _symmetry_equiv_pos_site_id
 _symmetry_equiv_pos_as_xyz
  1  'x, y, z'
loop_
 _atom_site_type_symbol
 _atom_site_label
 _atom_site_symmetry_multiplicity
 _atom_site_fract_x
 _atom_site_fract_y
 _atom_site_fract_z
 _atom_site_occupancy
  Li  Li0  1  0.576532  0.994236  0.000000  1
  Li  Li1  1  0.994236  0.576532  0.000000  1
  V  V2  1  0.413438  0.413438  0.000000  1
  Ni  Ni3  1  0.249485  0.000488  0.500000  1
  Ni  Ni4  1  0.000488  0.249485  0.500000  1
  Ni  Ni5  1  0.761591  0.761591  0.500000  1
  As  As6  1  0.008953  0.008953  0.000000  1
  As  As7  1  0.334440  0.660836  0.500000  1
  As  As8  1  0.660836  0.334440  0.500000  1
