# generated using pymatgen
data_Nd2YGaSi2Ag3
_symmetry_space_group_name_H-M   'P 1'
_cell_length_a   7.30150800
_cell_length_b   7.24310365
_cell_length_c   4.27763600
_cell_angle_alpha   90.00000000
_cell_angle_beta   90.00000000
_cell_angle_gamma   120.26709695
_symmetry_Int_Tables_number   1
_chemical_formula_structural   Nd2YGaSi2Ag3
_chemical_formula_sum   'Nd2 Y1 Ga1 Si2 Ag3'
_cell_volume   195.38739365
_cell_formula_units_Z   1
loop_
 _symmetry_equiv_pos_site_id
 _symmetry_equiv_pos_as_xyz
  1  'x, y, z'
loop_
 _atom_site_type_symbol
 _atom_site_label
 _atom_site_symmetry_multiplicity
 _atom_site_fract_x
 _atom_site_fract_y
 _atom_site_fract_z
 _atom_site_occupancy
  Nd  Nd0  1  0.998843  0.419541  0.500000  1
  Nd  Nd1  1  0.579302  0.580459  0.500000  1
  Y  Y2  1  0.420112  0.000000  0.500000  1
  Ga  Ga3  1  0.004746  0.000000  0.500000  1
  Si  Si4  1  0.335028  0.672709  0.000000  1
  Si  Si5  1  0.662320  0.327291  0.000000  1
  Ag  Ag6  1  0.002578  0.750835  0.000000  1
  Ag  Ag7  1  0.251742  0.249165  0.000000  1
  Ag  Ag8  1  0.745331  0.000000  0.000000  1
