# generated using pymatgen
data_Dy4Co9P12Ir5Rh6
_symmetry_space_group_name_H-M   'P 1'
_cell_length_a   3.82300000
_cell_length_b   10.56769007
_cell_length_c   12.22853670
_cell_angle_alpha   89.73957533
_cell_angle_beta   90.00000000
_cell_angle_gamma   90.00000000
_symmetry_Int_Tables_number   1
_chemical_formula_structural   Dy4Co9P12Ir5Rh6
_chemical_formula_sum   'Dy4 Co9 P12 Ir5 Rh6'
_cell_volume   494.03119328
_cell_formula_units_Z   1
loop_
 _symmetry_equiv_pos_site_id
 _symmetry_equiv_pos_as_xyz
  1  'x, y, z'
loop_
 _atom_site_type_symbol
 _atom_site_label
 _atom_site_symmetry_multiplicity
 _atom_site_fract_x
 _atom_site_fract_y
 _atom_site_fract_z
 _atom_site_occupancy
  Dy  Dy0  1  0.250000  0.583441  0.708909  1
  Dy  Dy1  1  0.250000  0.912773  0.213785  1
  Dy  Dy2  1  0.750000  0.420063  0.290859  1
  Dy  Dy3  1  0.750000  0.082782  0.790286  1
  Co  Co4  1  0.750000  0.723801  0.322446  1
  Co  Co5  1  0.250000  0.882505  0.695881  1
  Co  Co6  1  0.250000  0.621334  0.196829  1
  Co  Co7  1  0.750000  0.112830  0.303274  1
  Co  Co8  1  0.750000  0.384295  0.802141  1
  Co  Co9  1  0.250000  0.462255  0.933233  1
  Co  Co10  1  0.250000  0.036719  0.432547  1
  Co  Co11  1  0.750000  0.537713  0.068278  1
  Co  Co12  1  0.750000  0.964121  0.566103  1
  P  P13  1  0.250000  0.432112  0.111364  1
  P  P14  1  0.250000  0.069385  0.610003  1
  P  P15  1  0.750000  0.567869  0.890403  1
  P  P16  1  0.750000  0.923581  0.389084  1
  P  P17  1  0.250000  0.273015  0.870488  1
  P  P18  1  0.250000  0.226614  0.370637  1
  P  P19  1  0.750000  0.724953  0.139834  1
  P  P20  1  0.750000  0.774308  0.629137  1
  P  P21  1  0.250000  0.607091  0.376743  1
  P  P22  1  0.250000  0.899062  0.880295  1
  P  P23  1  0.750000  0.402566  0.618059  1
  P  P24  1  0.750000  0.097481  0.120753  1
  Ir  Ir25  1  0.750000  0.594801  0.518336  1
  Ir  Ir26  1  0.750000  0.904883  0.025785  1
  Ir  Ir27  1  0.250000  0.225228  0.180355  1
  Ir  Ir28  1  0.250000  0.274876  0.679161  1
  Ir  Ir29  1  0.750000  0.774067  0.820891  1
  Rh  Rh30  1  0.250000  0.715223  0.988309  1
  Rh  Rh31  1  0.250000  0.786667  0.485188  1
  Rh  Rh32  1  0.750000  0.280472  0.009073  1
  Rh  Rh33  1  0.750000  0.220365  0.507250  1
  Rh  Rh34  1  0.250000  0.412388  0.475957  1
  Rh  Rh35  1  0.250000  0.088358  0.978324  1
