# generated using pymatgen
data_Th8PdSe17
_symmetry_space_group_name_H-M   'P 1'
_cell_length_a   8.51656223
_cell_length_b   8.51656216
_cell_length_c   11.21008849
_cell_angle_alpha   79.82410160
_cell_angle_beta   79.82410009
_cell_angle_gamma   64.44537612
_symmetry_Int_Tables_number   1
_chemical_formula_structural   Th8PdSe17
_chemical_formula_sum   'Th8 Pd1 Se17'
_cell_volume   717.37335736
_cell_formula_units_Z   1
loop_
 _symmetry_equiv_pos_site_id
 _symmetry_equiv_pos_as_xyz
  1  'x, y, z'
loop_
 _atom_site_type_symbol
 _atom_site_label
 _atom_site_symmetry_multiplicity
 _atom_site_fract_x
 _atom_site_fract_y
 _atom_site_fract_z
 _atom_site_occupancy
  Th  Th0  1  0.816306  0.304336  0.294325  1
  Th  Th1  1  0.304336  0.816306  0.294325  1
  Th  Th2  1  0.183694  0.695664  0.705675  1
  Th  Th3  1  0.695664  0.183694  0.705675  1
  Th  Th4  1  0.203647  0.203647  0.545418  1
  Th  Th5  1  0.796353  0.796353  0.454582  1
  Th  Th6  1  0.682229  0.682229  0.979150  1
  Th  Th7  1  0.317771  0.317771  0.020850  1
  Pd  Pd8  1  0.000000  0.000000  0.000000  1
  Se  Se9  1  0.822730  0.431366  0.532212  1
  Se  Se10  1  0.431366  0.822730  0.532212  1
  Se  Se11  1  0.177270  0.568634  0.467788  1
  Se  Se12  1  0.568634  0.177270  0.467788  1
  Se  Se13  1  0.950112  0.328322  0.028715  1
  Se  Se14  1  0.328322  0.950112  0.028715  1
  Se  Se15  1  0.049888  0.671678  0.971285  1
  Se  Se16  1  0.671678  0.049888  0.971285  1
  Se  Se17  1  0.210675  0.210675  0.280174  1
  Se  Se18  1  0.789325  0.789325  0.719826  1
  Se  Se19  1  0.052931  0.052931  0.773231  1
  Se  Se20  1  0.947069  0.947069  0.226769  1
  Se  Se21  1  0.301358  0.301358  0.755102  1
  Se  Se22  1  0.698642  0.698642  0.244898  1
  Se  Se23  1  0.518545  0.518545  0.831442  1
  Se  Se24  1  0.481455  0.481455  0.168558  1
  Se  Se25  1  0.000000  0.000000  0.500000  1
