# generated using pymatgen
data_Cs8GdNp3Cl20
_symmetry_space_group_name_H-M   'P 1'
_cell_length_a   8.65754506
_cell_length_b   9.15138000
_cell_length_c   14.00037600
_cell_angle_alpha   90.00000000
_cell_angle_beta   90.00689597
_cell_angle_gamma   90.00000000
_symmetry_Int_Tables_number   1
_chemical_formula_structural   Cs8GdNp3Cl20
_chemical_formula_sum   'Cs8 Gd1 Np3 Cl20'
_cell_volume   1109.22856818
_cell_formula_units_Z   1
loop_
 _symmetry_equiv_pos_site_id
 _symmetry_equiv_pos_as_xyz
  1  'x, y, z'
loop_
 _atom_site_type_symbol
 _atom_site_label
 _atom_site_symmetry_multiplicity
 _atom_site_fract_x
 _atom_site_fract_y
 _atom_site_fract_z
 _atom_site_occupancy
  Cs  Cs0  1  0.945423  0.004476  0.827847  1
  Cs  Cs1  1  0.055700  0.994529  0.172407  1
  Cs  Cs2  1  0.443682  0.994512  0.669589  1
  Cs  Cs3  1  0.055700  0.505471  0.172407  1
  Cs  Cs4  1  0.555478  0.003992  0.330518  1
  Cs  Cs5  1  0.945423  0.495524  0.827847  1
  Cs  Cs6  1  0.555478  0.496008  0.330518  1
  Cs  Cs7  1  0.443682  0.505488  0.669589  1
  Gd  Gd8  1  0.937463  0.750000  0.501563  1
  Np  Np9  1  0.060128  0.250000  0.497863  1
  Np  Np10  1  0.437807  0.250000  0.998305  1
  Np  Np11  1  0.562398  0.750000  0.001618  1
  Cl  Cl12  1  0.106199  0.750000  0.664590  1
  Cl  Cl13  1  0.892266  0.250000  0.330565  1
  Cl  Cl14  1  0.607630  0.250000  0.830996  1
  Cl  Cl15  1  0.391588  0.750000  0.168512  1
  Cl  Cl16  1  0.848875  0.038456  0.568253  1
  Cl  Cl17  1  0.150149  0.958534  0.431700  1
  Cl  Cl18  1  0.348470  0.960028  0.930683  1
  Cl  Cl19  1  0.150149  0.541466  0.431700  1
  Cl  Cl20  1  0.650839  0.039758  0.069655  1
  Cl  Cl21  1  0.848875  0.461544  0.568253  1
  Cl  Cl22  1  0.650839  0.460242  0.069655  1
  Cl  Cl23  1  0.348470  0.539972  0.930683  1
  Cl  Cl24  1  0.621917  0.750000  0.515658  1
  Cl  Cl25  1  0.383309  0.250000  0.486094  1
  Cl  Cl26  1  0.116289  0.250000  0.986129  1
  Cl  Cl27  1  0.883913  0.750000  0.014185  1
  Cl  Cl28  1  0.647171  0.750000  0.811656  1
  Cl  Cl29  1  0.354385  0.250000  0.188550  1
  Cl  Cl30  1  0.145619  0.250000  0.687898  1
  Cl  Cl31  1  0.854687  0.750000  0.314514  1
