# generated using pymatgen
data_LiY3In4Co
_symmetry_space_group_name_H-M   'P 1'
_cell_length_a   8.07342300
_cell_length_b   8.07342339
_cell_length_c   3.63906600
_cell_angle_alpha   90.00000000
_cell_angle_beta   90.00000000
_cell_angle_gamma   120.00001069
_symmetry_Int_Tables_number   1
_chemical_formula_structural   LiY3In4Co
_chemical_formula_sum   'Li1 Y3 In4 Co1'
_cell_volume   205.41679713
_cell_formula_units_Z   1
loop_
 _symmetry_equiv_pos_site_id
 _symmetry_equiv_pos_as_xyz
  1  'x, y, z'
loop_
 _atom_site_type_symbol
 _atom_site_label
 _atom_site_symmetry_multiplicity
 _atom_site_fract_x
 _atom_site_fract_y
 _atom_site_fract_z
 _atom_site_occupancy
  Li  Li0  1  0.666667  0.333333  0.500000  1
  Y  Y1  1  0.047447  0.288390  0.500000  1
  Y  Y2  1  0.711610  0.759056  0.500000  1
  Y  Y3  1  0.240944  0.952553  0.500000  1
  In  In4  1  0.664790  0.068685  0.000000  1
  In  In5  1  0.931315  0.596107  0.000000  1
  In  In6  1  0.403893  0.335210  0.000000  1
  In  In7  1  0.333333  0.666667  0.000000  1
  Co  Co8  1  0.000000  0.000000  0.000000  1
