# generated using pymatgen
data_VCo20ReB6Mo
_symmetry_space_group_name_H-M   'P 1'
_cell_length_a   7.39947994
_cell_length_b   7.39962392
_cell_length_c   7.39967500
_cell_angle_alpha   59.99976717
_cell_angle_beta   59.99912352
_cell_angle_gamma   60.00500081
_symmetry_Int_Tables_number   1
_chemical_formula_structural   VCo20ReB6Mo
_chemical_formula_sum   'V1 Co20 Re1 B6 Mo1'
_cell_volume   286.49778072
_cell_formula_units_Z   1
loop_
 _symmetry_equiv_pos_site_id
 _symmetry_equiv_pos_as_xyz
  1  'x, y, z'
loop_
 _atom_site_type_symbol
 _atom_site_label
 _atom_site_symmetry_multiplicity
 _atom_site_fract_x
 _atom_site_fract_y
 _atom_site_fract_z
 _atom_site_occupancy
  V  V0  1  0.000009  0.999984  0.000004  1
  Co  Co1  1  0.617683  0.617627  0.147032  1
  Co  Co2  1  0.617607  0.147062  0.617666  1
  Co  Co3  1  0.147032  0.617585  0.617691  1
  Co  Co4  1  0.617683  0.617627  0.617657  1
  Co  Co5  1  0.380946  0.380980  0.857137  1
  Co  Co6  1  0.381005  0.857166  0.380914  1
  Co  Co7  1  0.857078  0.381063  0.380930  1
  Co  Co8  1  0.380946  0.380980  0.380937  1
  Co  Co9  1  0.000373  0.000395  0.339090  1
  Co  Co10  1  0.660093  0.000412  0.339111  1
  Co  Co11  1  0.000402  0.660063  0.339128  1
  Co  Co12  1  0.660089  0.339061  0.000425  1
  Co  Co13  1  0.000400  0.339073  0.000405  1
  Co  Co14  1  0.000400  0.339073  0.660121  1
  Co  Co15  1  0.339076  0.660075  0.000424  1
  Co  Co16  1  0.339071  0.000411  0.660134  1
  Co  Co17  1  0.339071  0.000411  0.000384  1
  Co  Co18  1  0.000373  0.000395  0.660143  1
  Co  Co19  1  0.000402  0.660063  0.000408  1
  Co  Co20  1  0.660093  0.000412  0.000384  1
  Re  Re21  1  0.250060  0.250062  0.249939  1
  B  B22  1  0.726365  0.726294  0.273671  1
  B  B23  1  0.273784  0.726182  0.273752  1
  B  B24  1  0.726203  0.273792  0.273807  1
  B  B25  1  0.273738  0.273731  0.726265  1
  B  B26  1  0.726203  0.273792  0.726198  1
  B  B27  1  0.273784  0.726182  0.726282  1
  Mo  Mo28  1  0.750033  0.750048  0.749960  1
