# generated using pymatgen
data_Nd12Ir(RuCl4)3
_symmetry_space_group_name_H-M   'P 1'
_cell_length_a   10.22058370
_cell_length_b   10.22058441
_cell_length_c   10.22058365
_cell_angle_alpha   109.52579993
_cell_angle_beta   109.52580629
_cell_angle_gamma   109.52581105
_symmetry_Int_Tables_number   1
_chemical_formula_structural   Nd12Ir(RuCl4)3
_chemical_formula_sum   'Nd12 Ir1 Ru3 Cl12'
_cell_volume   820.20880690
_cell_formula_units_Z   1
loop_
 _symmetry_equiv_pos_site_id
 _symmetry_equiv_pos_as_xyz
  1  'x, y, z'
loop_
 _atom_site_type_symbol
 _atom_site_label
 _atom_site_symmetry_multiplicity
 _atom_site_fract_x
 _atom_site_fract_y
 _atom_site_fract_z
 _atom_site_occupancy
  Nd  Nd0  1  0.262166  0.750000  0.237834  1
  Nd  Nd1  1  0.487628  0.750000  0.012372  1
  Nd  Nd2  1  0.236057  0.475258  0.489561  1
  Nd  Nd3  1  0.010439  0.024742  0.263943  1
  Nd  Nd4  1  0.237834  0.262166  0.750000  1
  Nd  Nd5  1  0.012372  0.487628  0.750000  1
  Nd  Nd6  1  0.489561  0.236057  0.475258  1
  Nd  Nd7  1  0.263943  0.010439  0.024742  1
  Nd  Nd8  1  0.750000  0.237834  0.262166  1
  Nd  Nd9  1  0.750000  0.012372  0.487628  1
  Nd  Nd10  1  0.475258  0.489561  0.236057  1
  Nd  Nd11  1  0.024742  0.263943  0.010439  1
  Ir  Ir12  1  0.250000  0.250000  0.250000  1
  Ru  Ru13  1  0.500109  0.999891  0.250000  1
  Ru  Ru14  1  0.250000  0.500109  0.999891  1
  Ru  Ru15  1  0.999891  0.250000  0.500109  1
  Cl  Cl16  1  0.250000  0.998937  0.501063  1
  Cl  Cl17  1  0.502134  0.501241  0.751515  1
  Cl  Cl18  1  0.250000  0.751647  0.748353  1
  Cl  Cl19  1  0.997866  0.748485  0.998759  1
  Cl  Cl20  1  0.998937  0.501063  0.250000  1
  Cl  Cl21  1  0.748485  0.998759  0.997866  1
  Cl  Cl22  1  0.751647  0.748353  0.250000  1
  Cl  Cl23  1  0.501241  0.751515  0.502134  1
  Cl  Cl24  1  0.501063  0.250000  0.998937  1
  Cl  Cl25  1  0.751515  0.502134  0.501241  1
  Cl  Cl26  1  0.748353  0.250000  0.751647  1
  Cl  Cl27  1  0.998759  0.997866  0.748485  1
