# generated using pymatgen
data_Y3Ho7In3Os
_symmetry_space_group_name_H-M   'P 1'
_cell_length_a   9.70257700
_cell_length_b   9.70356794
_cell_length_c   9.75217000
_cell_angle_alpha   90.00000000
_cell_angle_beta   90.00000000
_cell_angle_gamma   120.00315700
_symmetry_Int_Tables_number   1
_chemical_formula_structural   Y3Ho7In3Os
_chemical_formula_sum   'Y6 Ho14 In6 Os2'
_cell_volume   795.12723151
_cell_formula_units_Z   2
loop_
 _symmetry_equiv_pos_site_id
 _symmetry_equiv_pos_as_xyz
  1  'x, y, z'
loop_
 _atom_site_type_symbol
 _atom_site_label
 _atom_site_symmetry_multiplicity
 _atom_site_fract_x
 _atom_site_fract_y
 _atom_site_fract_z
 _atom_site_occupancy
  Y  Y0  1  0.538293  0.461883  0.250000  1
  Y  Y1  1  0.538189  0.076245  0.250000  1
  Y  Y2  1  0.923508  0.461780  0.250000  1
  Y  Y3  1  0.461707  0.538117  0.750000  1
  Y  Y4  1  0.461811  0.923755  0.750000  1
  Y  Y5  1  0.076492  0.538220  0.750000  1
  Ho  Ho6  1  0.000000  0.000000  0.500000  1
  Ho  Ho7  1  0.000000  0.000000  0.000000  1
  Ho  Ho8  1  0.209717  0.790283  0.438719  1
  Ho  Ho9  1  0.209695  0.419418  0.438776  1
  Ho  Ho10  1  0.580573  0.790300  0.438711  1
  Ho  Ho11  1  0.790283  0.209717  0.561281  1
  Ho  Ho12  1  0.790305  0.580582  0.561224  1
  Ho  Ho13  1  0.419427  0.209700  0.561289  1
  Ho  Ho14  1  0.790283  0.209717  0.938719  1
  Ho  Ho15  1  0.790305  0.580582  0.938776  1
  Ho  Ho16  1  0.419427  0.209700  0.938711  1
  Ho  Ho17  1  0.209717  0.790283  0.061281  1
  Ho  Ho18  1  0.209695  0.419418  0.061224  1
  Ho  Ho19  1  0.580573  0.790300  0.061289  1
  In  In20  1  0.884547  0.115454  0.250000  1
  In  In21  1  0.884538  0.769075  0.250000  1
  In  In22  1  0.230980  0.115493  0.250000  1
  In  In23  1  0.115453  0.884546  0.750000  1
  In  In24  1  0.115462  0.230925  0.750000  1
  In  In25  1  0.769020  0.884507  0.750000  1
  Os  Os26  1  0.333411  0.666735  0.250000  1
  Os  Os27  1  0.666589  0.333265  0.750000  1
