# generated using pymatgen
data_Ba2YbPa3Te10
_symmetry_space_group_name_H-M   'P 1'
_cell_length_a   9.58746520
_cell_length_b   9.58746514
_cell_length_c   9.57017777
_cell_angle_alpha   127.93235101
_cell_angle_beta   127.93235503
_cell_angle_gamma   76.86510110
_symmetry_Int_Tables_number   1
_chemical_formula_structural   Ba2YbPa3Te10
_chemical_formula_sum   'Ba2 Yb1 Pa3 Te10'
_cell_volume   530.96960096
_cell_formula_units_Z   1
loop_
 _symmetry_equiv_pos_site_id
 _symmetry_equiv_pos_as_xyz
  1  'x, y, z'
loop_
 _atom_site_type_symbol
 _atom_site_label
 _atom_site_symmetry_multiplicity
 _atom_site_fract_x
 _atom_site_fract_y
 _atom_site_fract_z
 _atom_site_occupancy
  Ba  Ba0  1  0.749904  0.750096  0.000000  1
  Ba  Ba1  1  0.249904  0.250096  0.000000  1
  Yb  Yb2  1  0.842622  0.657378  0.500000  1
  Pa  Pa3  1  0.655926  0.147054  0.802980  1
  Pa  Pa4  1  0.352946  0.844074  0.197020  1
  Pa  Pa5  1  0.148106  0.351894  0.500000  1
  Te  Te6  1  0.020648  0.513195  0.803150  1
  Te  Te7  1  0.717498  0.210045  0.196850  1
  Te  Te8  1  0.508841  0.722156  0.500000  1
  Te  Te9  1  0.216371  0.018829  0.500000  1
  Te  Te10  1  0.986805  0.479352  0.196850  1
  Te  Te11  1  0.289955  0.782502  0.803150  1
  Te  Te12  1  0.481171  0.283629  0.500000  1
  Te  Te13  1  0.777844  0.991159  0.500000  1
  Te  Te14  1  0.007429  0.005968  0.013397  1
  Te  Te15  1  0.494032  0.492571  0.986603  1
