# generated using pymatgen
data_Dy4Ho8Tc3Pt
_symmetry_space_group_name_H-M   'P 1'
_cell_length_a   6.29530022
_cell_length_b   7.39617044
_cell_length_c   9.15421400
_cell_angle_alpha   90.00000000
_cell_angle_beta   90.00000000
_cell_angle_gamma   89.96860665
_symmetry_Int_Tables_number   1
_chemical_formula_structural   Dy4Ho8Tc3Pt
_chemical_formula_sum   'Dy4 Ho8 Tc3 Pt1'
_cell_volume   426.23033234
_cell_formula_units_Z   1
loop_
 _symmetry_equiv_pos_site_id
 _symmetry_equiv_pos_as_xyz
  1  'x, y, z'
loop_
 _atom_site_type_symbol
 _atom_site_label
 _atom_site_symmetry_multiplicity
 _atom_site_fract_x
 _atom_site_fract_y
 _atom_site_fract_z
 _atom_site_occupancy
  Dy  Dy0  1  0.873172  0.542839  0.250000  1
  Dy  Dy1  1  0.622996  0.038692  0.250000  1
  Dy  Dy2  1  0.128311  0.455561  0.750000  1
  Dy  Dy3  1  0.371440  0.964834  0.750000  1
  Ho  Ho4  1  0.329475  0.676325  0.066821  1
  Ho  Ho5  1  0.164858  0.177649  0.436237  1
  Ho  Ho6  1  0.667695  0.318268  0.558881  1
  Ho  Ho7  1  0.837264  0.826945  0.940103  1
  Ho  Ho8  1  0.667695  0.318268  0.941119  1
  Ho  Ho9  1  0.837264  0.826945  0.559897  1
  Ho  Ho10  1  0.329475  0.676325  0.433179  1
  Ho  Ho11  1  0.164858  0.177649  0.063763  1
  Tc  Tc12  1  0.038045  0.885936  0.250000  1
  Tc  Tc13  1  0.464109  0.387238  0.250000  1
  Tc  Tc14  1  0.957184  0.113572  0.750000  1
  Pt  Pt15  1  0.546162  0.612952  0.750000  1
