# generated using pymatgen
data_DyLu7In3Cu
_symmetry_space_group_name_H-M   'P 1'
_cell_length_a   10.33638300
_cell_length_b   10.33638266
_cell_length_c   6.75048500
_cell_angle_alpha   90.00000000
_cell_angle_beta   90.00000000
_cell_angle_gamma   120.00001070
_symmetry_Int_Tables_number   1
_chemical_formula_structural   DyLu7In3Cu
_chemical_formula_sum   'Dy2 Lu14 In6 Cu2'
_cell_volume   624.60108356
_cell_formula_units_Z   2
loop_
 _symmetry_equiv_pos_site_id
 _symmetry_equiv_pos_as_xyz
  1  'x, y, z'
loop_
 _atom_site_type_symbol
 _atom_site_label
 _atom_site_symmetry_multiplicity
 _atom_site_fract_x
 _atom_site_fract_y
 _atom_site_fract_z
 _atom_site_occupancy
  Dy  Dy0  1  0.000000  0.000000  0.496972  1
  Dy  Dy1  1  0.000000  0.000000  0.996972  1
  Lu  Lu2  1  0.525876  0.051751  0.517194  1
  Lu  Lu3  1  0.948249  0.474124  0.517194  1
  Lu  Lu4  1  0.525876  0.474124  0.517194  1
  Lu  Lu5  1  0.474124  0.948249  0.017194  1
  Lu  Lu6  1  0.051751  0.525876  0.017194  1
  Lu  Lu7  1  0.474124  0.525876  0.017194  1
  Lu  Lu8  1  0.176382  0.352764  0.728453  1
  Lu  Lu9  1  0.647236  0.823618  0.728453  1
  Lu  Lu10  1  0.176382  0.823618  0.728453  1
  Lu  Lu11  1  0.823618  0.647236  0.228453  1
  Lu  Lu12  1  0.352764  0.176382  0.228453  1
  Lu  Lu13  1  0.823618  0.176382  0.228453  1
  Lu  Lu14  1  0.666667  0.333333  0.889688  1
  Lu  Lu15  1  0.333333  0.666667  0.389688  1
  In  In16  1  0.835620  0.671241  0.752384  1
  In  In17  1  0.328759  0.164380  0.752384  1
  In  In18  1  0.835620  0.164380  0.752384  1
  In  In19  1  0.164380  0.328759  0.252384  1
  In  In20  1  0.671241  0.835620  0.252384  1
  In  In21  1  0.164380  0.835620  0.252384  1
  Cu  Cu22  1  0.666667  0.333333  0.291350  1
  Cu  Cu23  1  0.333333  0.666667  0.791350  1
