# generated using pymatgen
data_Ho3Lu2(FeB3)2
_symmetry_space_group_name_H-M   'P 1'
_cell_length_a   5.39002465
_cell_length_b   5.39002319
_cell_length_c   8.17821765
_cell_angle_alpha   70.75942298
_cell_angle_beta   70.75942785
_cell_angle_gamma   60.00000562
_symmetry_Int_Tables_number   1
_chemical_formula_structural   Ho3Lu2(FeB3)2
_chemical_formula_sum   'Ho3 Lu2 Fe2 B6'
_cell_volume   190.28595655
_cell_formula_units_Z   1
loop_
 _symmetry_equiv_pos_site_id
 _symmetry_equiv_pos_as_xyz
  1  'x, y, z'
loop_
 _atom_site_type_symbol
 _atom_site_label
 _atom_site_symmetry_multiplicity
 _atom_site_fract_x
 _atom_site_fract_y
 _atom_site_fract_z
 _atom_site_occupancy
  Ho  Ho0  1  0.000000  0.000000  0.000000  1
  Ho  Ho1  1  0.747644  0.747644  0.757068  1
  Ho  Ho2  1  0.252356  0.252356  0.242932  1
  Lu  Lu3  1  0.581923  0.581923  0.254230  1
  Lu  Lu4  1  0.418077  0.418077  0.745770  1
  Fe  Fe5  1  0.882861  0.882861  0.351418  1
  Fe  Fe6  1  0.117139  0.117139  0.648582  1
  B  B7  1  0.500000  0.168469  0.500000  1
  B  B8  1  0.831531  0.500000  0.500000  1
  B  B9  1  0.168469  0.831531  0.500000  1
  B  B10  1  0.168469  0.500000  0.500000  1
  B  B11  1  0.831531  0.168469  0.500000  1
  B  B12  1  0.500000  0.831531  0.500000  1
