# generated using pymatgen
data_Nd4ReTc3I2
_symmetry_space_group_name_H-M   'P 1'
_cell_length_a   4.17937400
_cell_length_b   4.17937482
_cell_length_c   18.32910800
_cell_angle_alpha   90.00000000
_cell_angle_beta   90.00000000
_cell_angle_gamma   119.99999353
_symmetry_Int_Tables_number   1
_chemical_formula_structural   Nd4ReTc3I2
_chemical_formula_sum   'Nd4 Re1 Tc3 I2'
_cell_volume   277.26467933
_cell_formula_units_Z   1
loop_
 _symmetry_equiv_pos_site_id
 _symmetry_equiv_pos_as_xyz
  1  'x, y, z'
loop_
 _atom_site_type_symbol
 _atom_site_label
 _atom_site_symmetry_multiplicity
 _atom_site_fract_x
 _atom_site_fract_y
 _atom_site_fract_z
 _atom_site_occupancy
  Nd  Nd0  1  0.000000  0.000000  0.113411  1
  Nd  Nd1  1  0.000000  0.000000  0.886519  1
  Nd  Nd2  1  0.000000  0.000000  0.613878  1
  Nd  Nd3  1  0.000000  0.000000  0.386255  1
  Re  Re4  1  0.333333  0.666667  0.515306  1
  Tc  Tc5  1  0.666667  0.333333  0.484617  1
  Tc  Tc6  1  0.666667  0.333333  0.015157  1
  Tc  Tc7  1  0.333333  0.666667  0.984844  1
  I  I8  1  0.333333  0.666667  0.249945  1
  I  I9  1  0.666667  0.333333  0.750067  1
