# generated using pymatgen
data_Pr2CdIrO7
_symmetry_space_group_name_H-M   'P 1'
_cell_length_a   6.51169799
_cell_length_b   6.81184045
_cell_length_c   7.66855600
_cell_angle_alpha   90.00000000
_cell_angle_beta   90.00000000
_cell_angle_gamma   112.82941862
_symmetry_Int_Tables_number   1
_chemical_formula_structural   Pr2CdIrO7
_chemical_formula_sum   'Pr4 Cd2 Ir2 O14'
_cell_volume   313.50535465
_cell_formula_units_Z   2
loop_
 _symmetry_equiv_pos_site_id
 _symmetry_equiv_pos_as_xyz
  1  'x, y, z'
loop_
 _atom_site_type_symbol
 _atom_site_label
 _atom_site_symmetry_multiplicity
 _atom_site_fract_x
 _atom_site_fract_y
 _atom_site_fract_z
 _atom_site_occupancy
  Pr  Pr0  1  0.000000  0.000000  0.000000  1
  Pr  Pr1  1  0.000000  0.000000  0.500000  1
  Pr  Pr2  1  0.932836  0.475608  0.750000  1
  Pr  Pr3  1  0.067164  0.524392  0.250000  1
  Cd  Cd4  1  0.479929  0.956890  0.750000  1
  Cd  Cd5  1  0.520071  0.043110  0.250000  1
  Ir  Ir6  1  0.500000  0.500000  0.000000  1
  Ir  Ir7  1  0.500000  0.500000  0.500000  1
  O  O8  1  0.580037  0.547979  0.750000  1
  O  O9  1  0.419963  0.452021  0.250000  1
  O  O10  1  0.834355  0.099342  0.750000  1
  O  O11  1  0.165645  0.900658  0.250000  1
  O  O12  1  0.127441  0.853083  0.750000  1
  O  O13  1  0.872559  0.146917  0.250000  1
  O  O14  1  0.452101  0.205802  0.981125  1
  O  O15  1  0.547899  0.794198  0.481125  1
  O  O16  1  0.172972  0.413575  0.967122  1
  O  O17  1  0.827028  0.586425  0.467122  1
  O  O18  1  0.452101  0.205802  0.518875  1
  O  O19  1  0.547899  0.794198  0.018875  1
  O  O20  1  0.827028  0.586425  0.032878  1
  O  O21  1  0.172972  0.413575  0.532878  1
