# generated using pymatgen
data_Y15ErCd3InPd4
_symmetry_space_group_name_H-M   'P 1'
_cell_length_a   9.75046314
_cell_length_b   9.75046242
_cell_length_c   9.75046196
_cell_angle_alpha   59.92675958
_cell_angle_beta   59.92675796
_cell_angle_gamma   59.92676407
_symmetry_Int_Tables_number   1
_chemical_formula_structural   Y15ErCd3InPd4
_chemical_formula_sum   'Y15 Er1 Cd3 In1 Pd4'
_cell_volume   654.39287957
_cell_formula_units_Z   1
loop_
 _symmetry_equiv_pos_site_id
 _symmetry_equiv_pos_as_xyz
  1  'x, y, z'
loop_
 _atom_site_type_symbol
 _atom_site_label
 _atom_site_symmetry_multiplicity
 _atom_site_fract_x
 _atom_site_fract_y
 _atom_site_fract_z
 _atom_site_occupancy
  Y  Y0  1  0.356033  0.356033  0.934455  1
  Y  Y1  1  0.356033  0.934455  0.356033  1
  Y  Y2  1  0.934455  0.356033  0.356033  1
  Y  Y3  1  0.810539  0.189267  0.189267  1
  Y  Y4  1  0.190312  0.810311  0.810311  1
  Y  Y5  1  0.189267  0.810539  0.189267  1
  Y  Y6  1  0.810311  0.190312  0.810311  1
  Y  Y7  1  0.189267  0.189267  0.810539  1
  Y  Y8  1  0.810311  0.810311  0.190312  1
  Y  Y9  1  0.936757  0.565694  0.565694  1
  Y  Y10  1  0.565278  0.935413  0.935413  1
  Y  Y11  1  0.565694  0.936757  0.565694  1
  Y  Y12  1  0.935413  0.565278  0.935413  1
  Y  Y13  1  0.565694  0.565694  0.936757  1
  Y  Y14  1  0.935413  0.935413  0.565278  1
  Er  Er15  1  0.352750  0.352750  0.352750  1
  Cd  Cd16  1  0.581213  0.581213  0.251325  1
  Cd  Cd17  1  0.581213  0.251325  0.581213  1
  Cd  Cd18  1  0.251325  0.581213  0.581213  1
  In  In19  1  0.582622  0.582622  0.582622  1
  Pd  Pd20  1  0.145464  0.145464  0.145464  1
  Pd  Pd21  1  0.145323  0.145323  0.563988  1
  Pd  Pd22  1  0.145323  0.563988  0.145323  1
  Pd  Pd23  1  0.563988  0.145323  0.145323  1
