# generated using pymatgen
data_Er3Tm2IrPt2
_symmetry_space_group_name_H-M   'P 1'
_cell_length_a   10.93979600
_cell_length_b   10.93798300
_cell_length_c   6.30516400
_cell_angle_alpha   90.00000000
_cell_angle_beta   90.00000000
_cell_angle_gamma   90.00000000
_symmetry_Int_Tables_number   1
_chemical_formula_structural   Er3Tm2IrPt2
_chemical_formula_sum   'Er12 Tm8 Ir4 Pt8'
_cell_volume   754.47152747
_cell_formula_units_Z   4
loop_
 _symmetry_equiv_pos_site_id
 _symmetry_equiv_pos_as_xyz
  1  'x, y, z'
loop_
 _atom_site_type_symbol
 _atom_site_label
 _atom_site_symmetry_multiplicity
 _atom_site_fract_x
 _atom_site_fract_y
 _atom_site_fract_z
 _atom_site_occupancy
  Er  Er0  1  0.294982  0.087073  0.373921  1
  Er  Er1  1  0.294982  0.912927  0.873921  1
  Er  Er2  1  0.705018  0.087073  0.873921  1
  Er  Er3  1  0.705018  0.912927  0.373921  1
  Er  Er4  1  0.586921  0.795087  0.874124  1
  Er  Er5  1  0.586921  0.204913  0.374124  1
  Er  Er6  1  0.413079  0.795087  0.374124  1
  Er  Er7  1  0.413079  0.204913  0.874124  1
  Er  Er8  1  0.204464  0.413017  0.625768  1
  Er  Er9  1  0.204464  0.586983  0.125768  1
  Er  Er10  1  0.795536  0.413017  0.125768  1
  Er  Er11  1  0.795536  0.586983  0.625768  1
  Tm  Tm12  1  0.913326  0.704626  0.125509  1
  Tm  Tm13  1  0.913326  0.295374  0.625509  1
  Tm  Tm14  1  0.086674  0.704626  0.625509  1
  Tm  Tm15  1  0.086674  0.295374  0.125509  1
  Tm  Tm16  1  0.000000  0.000000  0.500196  1
  Tm  Tm17  1  0.000000  0.000000  0.000196  1
  Tm  Tm18  1  0.500000  0.500000  0.000106  1
  Tm  Tm19  1  0.500000  0.500000  0.500106  1
  Ir  Ir20  1  0.500000  0.000000  0.120138  1
  Ir  Ir21  1  0.500000  0.000000  0.620138  1
  Ir  Ir22  1  0.000000  0.500000  0.879849  1
  Ir  Ir23  1  0.000000  0.500000  0.379849  1
  Pt  Pt24  1  0.847350  0.153588  0.250734  1
  Pt  Pt25  1  0.847350  0.846412  0.750734  1
  Pt  Pt26  1  0.152650  0.153588  0.750734  1
  Pt  Pt27  1  0.152650  0.846412  0.250734  1
  Pt  Pt28  1  0.653653  0.346851  0.749800  1
  Pt  Pt29  1  0.653653  0.653149  0.249800  1
  Pt  Pt30  1  0.346347  0.346851  0.249800  1
  Pt  Pt31  1  0.346347  0.653149  0.749800  1
