# generated using pymatgen
data_Ho5Th3(HgRu)2
_symmetry_space_group_name_H-M   'P 1'
_cell_length_a   9.64249907
_cell_length_b   9.74331699
_cell_length_c   9.74331866
_cell_angle_alpha   59.31659187
_cell_angle_beta   60.34170656
_cell_angle_gamma   60.34170491
_symmetry_Int_Tables_number   1
_chemical_formula_structural   Ho5Th3(HgRu)2
_chemical_formula_sum   'Ho10 Th6 Hg4 Ru4'
_cell_volume   647.13710036
_cell_formula_units_Z   2
loop_
 _symmetry_equiv_pos_site_id
 _symmetry_equiv_pos_as_xyz
  1  'x, y, z'
loop_
 _atom_site_type_symbol
 _atom_site_label
 _atom_site_symmetry_multiplicity
 _atom_site_fract_x
 _atom_site_fract_y
 _atom_site_fract_z
 _atom_site_occupancy
  Ho  Ho0  1  0.191300  0.808700  0.191300  1
  Ho  Ho1  1  0.808700  0.191300  0.808700  1
  Ho  Ho2  1  0.191300  0.191300  0.808700  1
  Ho  Ho3  1  0.808700  0.808700  0.191300  1
  Ho  Ho4  1  0.932834  0.567166  0.567166  1
  Ho  Ho5  1  0.567166  0.932834  0.932834  1
  Ho  Ho6  1  0.562501  0.937499  0.562501  1
  Ho  Ho7  1  0.937499  0.562501  0.937499  1
  Ho  Ho8  1  0.562501  0.562501  0.937499  1
  Ho  Ho9  1  0.937499  0.937499  0.562501  1
  Th  Th10  1  0.343843  0.352053  0.352053  1
  Th  Th11  1  0.352053  0.343843  0.952051  1
  Th  Th12  1  0.352053  0.952051  0.343843  1
  Th  Th13  1  0.952051  0.352053  0.352053  1
  Th  Th14  1  0.816435  0.183565  0.183565  1
  Th  Th15  1  0.183565  0.816435  0.816435  1
  Hg  Hg16  1  0.589189  0.585466  0.585466  1
  Hg  Hg17  1  0.585466  0.589189  0.239879  1
  Hg  Hg18  1  0.585466  0.239879  0.589189  1
  Hg  Hg19  1  0.239879  0.585466  0.585466  1
  Ru  Ru20  1  0.128408  0.148214  0.148214  1
  Ru  Ru21  1  0.148214  0.128408  0.575161  1
  Ru  Ru22  1  0.148214  0.575161  0.128408  1
  Ru  Ru23  1  0.575161  0.148214  0.148214  1
