# generated using pymatgen
data_Pr6Mg(GeS7)2
_symmetry_space_group_name_H-M   'P 1'
_cell_length_a   10.32817000
_cell_length_b   10.32817085
_cell_length_c   5.81294900
_cell_angle_alpha   90.00000000
_cell_angle_beta   90.00000000
_cell_angle_gamma   120.00000368
_symmetry_Int_Tables_number   1
_chemical_formula_structural   Pr6Mg(GeS7)2
_chemical_formula_sum   'Pr6 Mg1 Ge2 S14'
_cell_volume   536.99954724
_cell_formula_units_Z   1
loop_
 _symmetry_equiv_pos_site_id
 _symmetry_equiv_pos_as_xyz
  1  'x, y, z'
loop_
 _atom_site_type_symbol
 _atom_site_label
 _atom_site_symmetry_multiplicity
 _atom_site_fract_x
 _atom_site_fract_y
 _atom_site_fract_z
 _atom_site_occupancy
  Pr  Pr0  1  0.976785  0.433643  0.751975  1
  Pr  Pr1  1  0.456858  0.023215  0.751975  1
  Pr  Pr2  1  0.566357  0.543142  0.751975  1
  Pr  Pr3  1  0.689497  0.899286  0.247136  1
  Pr  Pr4  1  0.209789  0.310503  0.247136  1
  Pr  Pr5  1  0.100714  0.790211  0.247136  1
  Mg  Mg6  1  0.333333  0.666667  0.513634  1
  Ge  Ge7  1  0.666667  0.333333  0.168660  1
  Ge  Ge8  1  0.000000  0.000000  0.662793  1
  S  S9  1  0.666667  0.333333  0.545630  1
  S  S10  1  0.000000  0.000000  0.040483  1
  S  S11  1  0.086303  0.506413  0.277183  1
  S  S12  1  0.420110  0.913697  0.277183  1
  S  S13  1  0.493587  0.579890  0.277183  1
  S  S14  1  0.580126  0.829178  0.753386  1
  S  S15  1  0.249052  0.419874  0.753386  1
  S  S16  1  0.170822  0.750948  0.753386  1
  S  S17  1  0.815136  0.559833  0.012759  1
  S  S18  1  0.744697  0.184864  0.012759  1
  S  S19  1  0.440167  0.255303  0.012759  1
  S  S20  1  0.851755  0.773324  0.508507  1
  S  S21  1  0.921570  0.148245  0.508507  1
  S  S22  1  0.226676  0.078430  0.508507  1
