# generated using pymatgen
data_YbEr3(ReN3)4
_symmetry_space_group_name_H-M   'P 1'
_cell_length_a   7.36042914
_cell_length_b   7.36042942
_cell_length_c   6.25628712
_cell_angle_alpha   72.93171785
_cell_angle_beta   72.93170416
_cell_angle_gamma   82.35554541
_symmetry_Int_Tables_number   1
_chemical_formula_structural   YbEr3(ReN3)4
_chemical_formula_sum   'Yb1 Er3 Re4 N12'
_cell_volume   309.33302747
_cell_formula_units_Z   1
loop_
 _symmetry_equiv_pos_site_id
 _symmetry_equiv_pos_as_xyz
  1  'x, y, z'
loop_
 _atom_site_type_symbol
 _atom_site_label
 _atom_site_symmetry_multiplicity
 _atom_site_fract_x
 _atom_site_fract_y
 _atom_site_fract_z
 _atom_site_occupancy
  Yb  Yb0  1  0.709769  0.290231  0.250000  1
  Er  Er1  1  0.909367  0.090633  0.750000  1
  Er  Er2  1  0.287538  0.712462  0.750000  1
  Er  Er3  1  0.091815  0.908185  0.250000  1
  Re  Re4  1  0.622575  0.794691  0.278101  1
  Re  Re5  1  0.205309  0.377425  0.221899  1
  Re  Re6  1  0.378284  0.202825  0.722852  1
  Re  Re7  1  0.797175  0.621716  0.777148  1
  N  N8  1  0.333400  0.368647  0.917046  1
  N  N9  1  0.011888  0.214752  0.343336  1
  N  N10  1  0.785248  0.988112  0.156664  1
  N  N11  1  0.217245  0.003361  0.840940  1
  N  N12  1  0.662601  0.640071  0.075255  1
  N  N13  1  0.876945  0.377465  0.825430  1
  N  N14  1  0.127566  0.627178  0.161829  1
  N  N15  1  0.996639  0.782755  0.659060  1
  N  N16  1  0.372822  0.872434  0.338171  1
  N  N17  1  0.631353  0.666600  0.582954  1
  N  N18  1  0.622535  0.123055  0.674570  1
  N  N19  1  0.359929  0.337399  0.424745  1
