# generated using pymatgen
data_TmHf8(In2Co)7
_symmetry_space_group_name_H-M   'P 1'
_cell_length_a   9.42731467
_cell_length_b   9.42658854
_cell_length_c   9.42655717
_cell_angle_alpha   60.16175804
_cell_angle_beta   60.15338976
_cell_angle_gamma   60.15418608
_symmetry_Int_Tables_number   1
_chemical_formula_structural   TmHf8(In2Co)7
_chemical_formula_sum   'Tm1 Hf8 In14 Co7'
_cell_volume   594.45207707
_cell_formula_units_Z   1
loop_
 _symmetry_equiv_pos_site_id
 _symmetry_equiv_pos_as_xyz
  1  'x, y, z'
loop_
 _atom_site_type_symbol
 _atom_site_label
 _atom_site_symmetry_multiplicity
 _atom_site_fract_x
 _atom_site_fract_y
 _atom_site_fract_z
 _atom_site_occupancy
  Tm  Tm0  1  0.500000  0.500000  0.500000  1
  Hf  Hf1  1  0.119170  0.642386  0.119094  1
  Hf  Hf2  1  0.357634  0.880824  0.880820  1
  Hf  Hf3  1  0.880502  0.880455  0.880450  1
  Hf  Hf4  1  0.642366  0.119176  0.119180  1
  Hf  Hf5  1  0.880825  0.880906  0.357626  1
  Hf  Hf6  1  0.119498  0.119545  0.119550  1
  Hf  Hf7  1  0.880830  0.357614  0.880906  1
  Hf  Hf8  1  0.119175  0.119094  0.642374  1
  In  In9  1  0.499969  0.844518  0.155461  1
  In  In10  1  0.500391  0.844378  0.500549  1
  In  In11  1  0.499609  0.155622  0.499451  1
  In  In12  1  0.500406  0.500504  0.844415  1
  In  In13  1  0.155599  0.499581  0.499516  1
  In  In14  1  0.844557  0.155460  0.499950  1
  In  In15  1  0.155443  0.844540  0.500050  1
  In  In16  1  0.500031  0.155482  0.844539  1
  In  In17  1  0.155466  0.500073  0.844537  1
  In  In18  1  0.499594  0.499496  0.155585  1
  In  In19  1  0.844401  0.500419  0.500484  1
  In  In20  1  0.844534  0.499927  0.155463  1
  In  In21  1  0.249671  0.249712  0.249702  1
  In  In22  1  0.750329  0.750288  0.750298  1
  Co  Co23  1  0.781198  0.781208  0.218445  1
  Co  Co24  1  0.000000  0.000000  0.000000  1
  Co  Co25  1  0.218809  0.781547  0.218800  1
  Co  Co26  1  0.218628  0.781038  0.781038  1
  Co  Co27  1  0.218802  0.218792  0.781555  1
  Co  Co28  1  0.781191  0.218453  0.781200  1
  Co  Co29  1  0.781372  0.218962  0.218962  1
