# generated using pymatgen
data_Dy4ErGa2Pb
_symmetry_space_group_name_H-M   'P 1'
_cell_length_a   7.87482000
_cell_length_b   7.87482000
_cell_length_c   13.94120800
_cell_angle_alpha   90.00000000
_cell_angle_beta   90.00000000
_cell_angle_gamma   90.00000000
_symmetry_Int_Tables_number   1
_chemical_formula_structural   Dy4ErGa2Pb
_chemical_formula_sum   'Dy16 Er4 Ga8 Pb4'
_cell_volume   864.53320450
_cell_formula_units_Z   4
loop_
 _symmetry_equiv_pos_site_id
 _symmetry_equiv_pos_as_xyz
  1  'x, y, z'
loop_
 _atom_site_type_symbol
 _atom_site_label
 _atom_site_symmetry_multiplicity
 _atom_site_fract_x
 _atom_site_fract_y
 _atom_site_fract_z
 _atom_site_occupancy
  Dy  Dy0  1  0.838636  0.837052  0.891874  1
  Dy  Dy1  1  0.162948  0.161364  0.608126  1
  Dy  Dy2  1  0.838636  0.162948  0.391874  1
  Dy  Dy3  1  0.161364  0.837052  0.391874  1
  Dy  Dy4  1  0.337052  0.338636  0.391874  1
  Dy  Dy5  1  0.837052  0.161364  0.108126  1
  Dy  Dy6  1  0.337052  0.661364  0.891874  1
  Dy  Dy7  1  0.162948  0.838636  0.108126  1
  Dy  Dy8  1  0.338636  0.662948  0.608126  1
  Dy  Dy9  1  0.661364  0.662948  0.108126  1
  Dy  Dy10  1  0.661364  0.337052  0.608126  1
  Dy  Dy11  1  0.837052  0.838636  0.608126  1
  Dy  Dy12  1  0.662948  0.338636  0.891874  1
  Dy  Dy13  1  0.161364  0.162948  0.891874  1
  Dy  Dy14  1  0.662948  0.661364  0.391874  1
  Dy  Dy15  1  0.338636  0.337052  0.108126  1
  Er  Er16  1  0.500000  0.000000  0.751993  1
  Er  Er17  1  0.000000  0.500000  0.248007  1
  Er  Er18  1  0.000000  0.500000  0.748007  1
  Er  Er19  1  0.500000  0.000000  0.251993  1
  Ga  Ga20  1  0.632262  0.367738  0.250000  1
  Ga  Ga21  1  0.367738  0.632262  0.250000  1
  Ga  Ga22  1  0.132262  0.132262  0.250000  1
  Ga  Ga23  1  0.367738  0.367738  0.750000  1
  Ga  Ga24  1  0.132262  0.867738  0.750000  1
  Ga  Ga25  1  0.867738  0.867738  0.250000  1
  Ga  Ga26  1  0.632262  0.632262  0.750000  1
  Ga  Ga27  1  0.867738  0.132262  0.750000  1
  Pb  Pb28  1  0.000000  0.500000  0.999833  1
  Pb  Pb29  1  0.500000  0.000000  0.000167  1
  Pb  Pb30  1  0.500000  0.000000  0.500167  1
  Pb  Pb31  1  0.000000  0.500000  0.499833  1
