# generated using pymatgen
data_Nd8Co3Si12Ni
_symmetry_space_group_name_H-M   'P 1'
_cell_length_a   8.08057200
_cell_length_b   8.08057232
_cell_length_c   8.42458500
_cell_angle_alpha   90.00000000
_cell_angle_beta   90.00000000
_cell_angle_gamma   119.99999869
_symmetry_Int_Tables_number   1
_chemical_formula_structural   Nd8Co3Si12Ni
_chemical_formula_sum   'Nd8 Co3 Si12 Ni1'
_cell_volume   476.39081527
_cell_formula_units_Z   1
loop_
 _symmetry_equiv_pos_site_id
 _symmetry_equiv_pos_as_xyz
  1  'x, y, z'
loop_
 _atom_site_type_symbol
 _atom_site_label
 _atom_site_symmetry_multiplicity
 _atom_site_fract_x
 _atom_site_fract_y
 _atom_site_fract_z
 _atom_site_occupancy
  Nd  Nd0  1  0.000000  0.000000  0.749924  1
  Nd  Nd1  1  0.000000  0.000000  0.249972  1
  Nd  Nd2  1  0.500091  0.499909  0.748360  1
  Nd  Nd3  1  0.500091  0.000184  0.748360  1
  Nd  Nd4  1  0.999816  0.499909  0.748360  1
  Nd  Nd5  1  0.501605  0.498395  0.251734  1
  Nd  Nd6  1  0.996792  0.498395  0.251734  1
  Nd  Nd7  1  0.501605  0.003208  0.251734  1
  Co  Co8  1  0.666667  0.333333  0.995657  1
  Co  Co9  1  0.666667  0.333333  0.504108  1
  Co  Co10  1  0.333333  0.666667  0.496199  1
  Si  Si11  1  0.828517  0.171483  0.000060  1
  Si  Si12  1  0.828517  0.657035  0.000060  1
  Si  Si13  1  0.342965  0.171483  0.000060  1
  Si  Si14  1  0.828761  0.171239  0.500072  1
  Si  Si15  1  0.828761  0.657522  0.500072  1
  Si  Si16  1  0.342478  0.171239  0.500072  1
  Si  Si17  1  0.171355  0.828645  0.499898  1
  Si  Si18  1  0.657290  0.828645  0.499898  1
  Si  Si19  1  0.171355  0.342710  0.499898  1
  Si  Si20  1  0.169614  0.830386  0.999986  1
  Si  Si21  1  0.660772  0.830386  0.999986  1
  Si  Si22  1  0.169614  0.339228  0.999986  1
  Ni  Ni23  1  0.333333  0.666667  0.003812  1
