# generated using pymatgen
data_Hf16Ir5Au3N4
_symmetry_space_group_name_H-M   'P 1'
_cell_length_a   8.79055449
_cell_length_b   8.79053943
_cell_length_c   8.79053425
_cell_angle_alpha   59.95013859
_cell_angle_beta   59.95027935
_cell_angle_gamma   59.95024289
_symmetry_Int_Tables_number   1
_chemical_formula_structural   Hf16Ir5Au3N4
_chemical_formula_sum   'Hf16 Ir5 Au3 N4'
_cell_volume   479.77927151
_cell_formula_units_Z   1
loop_
 _symmetry_equiv_pos_site_id
 _symmetry_equiv_pos_as_xyz
  1  'x, y, z'
loop_
 _atom_site_type_symbol
 _atom_site_label
 _atom_site_symmetry_multiplicity
 _atom_site_fract_x
 _atom_site_fract_y
 _atom_site_fract_z
 _atom_site_occupancy
  Hf  Hf0  1  0.113522  0.626417  0.626419  1
  Hf  Hf1  1  0.626417  0.113523  0.626417  1
  Hf  Hf2  1  0.626419  0.626418  0.113522  1
  Hf  Hf3  1  0.631747  0.631746  0.631747  1
  Hf  Hf4  1  0.819022  0.819021  0.180487  1
  Hf  Hf5  1  0.181377  0.181376  0.818402  1
  Hf  Hf6  1  0.819022  0.180487  0.819022  1
  Hf  Hf7  1  0.181377  0.818402  0.181377  1
  Hf  Hf8  1  0.180487  0.819021  0.819022  1
  Hf  Hf9  1  0.818402  0.181377  0.181376  1
  Hf  Hf10  1  0.433526  0.433526  0.072713  1
  Hf  Hf11  1  0.066470  0.066469  0.434018  1
  Hf  Hf12  1  0.433526  0.072712  0.433527  1
  Hf  Hf13  1  0.066470  0.434019  0.066470  1
  Hf  Hf14  1  0.072712  0.433526  0.433527  1
  Hf  Hf15  1  0.434018  0.066470  0.066469  1
  Ir  Ir16  1  0.404268  0.404271  0.404269  1
  Ir  Ir17  1  0.467987  0.844541  0.844538  1
  Ir  Ir18  1  0.844539  0.467990  0.844538  1
  Ir  Ir19  1  0.844539  0.844539  0.467988  1
  Ir  Ir20  1  0.843002  0.843001  0.843001  1
  Au  Au21  1  0.770300  0.410938  0.410938  1
  Au  Au22  1  0.410939  0.770297  0.410939  1
  Au  Au23  1  0.410938  0.410939  0.770299  1
  N  N24  1  0.623324  0.124796  0.124796  1
  N  N25  1  0.124797  0.623323  0.124797  1
  N  N26  1  0.124796  0.124797  0.623322  1
  N  N27  1  0.126058  0.126058  0.126058  1
