# generated using pymatgen
data_Pr4InRh
_symmetry_space_group_name_H-M   'P 1'
_cell_length_a   10.06123293
_cell_length_b   10.06123356
_cell_length_c   10.06123300
_cell_angle_alpha   59.99999854
_cell_angle_beta   59.99999648
_cell_angle_gamma   60.00000351
_symmetry_Int_Tables_number   1
_chemical_formula_structural   Pr4InRh
_chemical_formula_sum   'Pr16 In4 Rh4'
_cell_volume   720.17598966
_cell_formula_units_Z   4
loop_
 _symmetry_equiv_pos_site_id
 _symmetry_equiv_pos_as_xyz
  1  'x, y, z'
loop_
 _atom_site_type_symbol
 _atom_site_label
 _atom_site_symmetry_multiplicity
 _atom_site_fract_x
 _atom_site_fract_y
 _atom_site_fract_z
 _atom_site_occupancy
  Pr  Pr0  1  0.808824  0.808824  0.191176  1
  Pr  Pr1  1  0.808824  0.191176  0.808824  1
  Pr  Pr2  1  0.191176  0.191176  0.808824  1
  Pr  Pr3  1  0.650682  0.047955  0.650682  1
  Pr  Pr4  1  0.061501  0.061501  0.438499  1
  Pr  Pr5  1  0.438499  0.438499  0.061501  1
  Pr  Pr6  1  0.650682  0.650682  0.650682  1
  Pr  Pr7  1  0.808824  0.191176  0.191176  1
  Pr  Pr8  1  0.191176  0.808824  0.808824  1
  Pr  Pr9  1  0.047955  0.650682  0.650682  1
  Pr  Pr10  1  0.438499  0.061501  0.061501  1
  Pr  Pr11  1  0.438499  0.061501  0.438499  1
  Pr  Pr12  1  0.061501  0.438499  0.061501  1
  Pr  Pr13  1  0.650682  0.650682  0.047955  1
  Pr  Pr14  1  0.191176  0.808824  0.191176  1
  Pr  Pr15  1  0.061501  0.438499  0.438499  1
  In  In16  1  0.419610  0.419610  0.419610  1
  In  In17  1  0.419610  0.419610  0.741168  1
  In  In18  1  0.419610  0.741168  0.419610  1
  In  In19  1  0.741168  0.419610  0.419610  1
  Rh  Rh20  1  0.857781  0.426659  0.857781  1
  Rh  Rh21  1  0.857781  0.857781  0.857781  1
  Rh  Rh22  1  0.857781  0.857781  0.426659  1
  Rh  Rh23  1  0.426659  0.857781  0.857781  1
