# generated using pymatgen
data_Li4Nd3Lu(Si2Sn)2
_symmetry_space_group_name_H-M   'P 1'
_cell_length_a   9.67712705
_cell_length_b   9.67712695
_cell_length_c   6.83429900
_cell_angle_alpha   90.00000000
_cell_angle_beta   90.00000000
_cell_angle_gamma   153.22677986
_symmetry_Int_Tables_number   1
_chemical_formula_structural   Li4Nd3Lu(Si2Sn)2
_chemical_formula_sum   'Li4 Nd3 Lu1 Si4 Sn2'
_cell_volume   288.29916067
_cell_formula_units_Z   1
loop_
 _symmetry_equiv_pos_site_id
 _symmetry_equiv_pos_as_xyz
  1  'x, y, z'
loop_
 _atom_site_type_symbol
 _atom_site_label
 _atom_site_symmetry_multiplicity
 _atom_site_fract_x
 _atom_site_fract_y
 _atom_site_fract_z
 _atom_site_occupancy
  Li  Li0  1  0.184667  0.815333  0.055922  1
  Li  Li1  1  0.184667  0.815333  0.444078  1
  Li  Li2  1  0.816036  0.183964  0.946278  1
  Li  Li3  1  0.816036  0.183964  0.553722  1
  Nd  Nd4  1  0.650060  0.349940  0.750000  1
  Nd  Nd5  1  0.547992  0.452008  0.250000  1
  Nd  Nd6  1  0.450355  0.549645  0.750000  1
  Lu  Lu7  1  0.351300  0.648700  0.250000  1
  Si  Si8  1  0.056887  0.943113  0.926422  1
  Si  Si9  1  0.941131  0.058869  0.075250  1
  Si  Si10  1  0.941131  0.058869  0.424750  1
  Si  Si11  1  0.056887  0.943113  0.573578  1
  Sn  Sn12  1  0.721852  0.278148  0.250000  1
  Sn  Sn13  1  0.280999  0.719001  0.750000  1
