# generated using pymatgen
data_Tm9Th3Co4
_symmetry_space_group_name_H-M   'P 1'
_cell_length_a   6.21795602
_cell_length_b   6.86116828
_cell_length_c   9.39470200
_cell_angle_alpha   90.00000000
_cell_angle_beta   90.00000000
_cell_angle_gamma   88.94094523
_symmetry_Int_Tables_number   1
_chemical_formula_structural   Tm9Th3Co4
_chemical_formula_sum   'Tm9 Th3 Co4'
_cell_volume   400.73246859
_cell_formula_units_Z   1
loop_
 _symmetry_equiv_pos_site_id
 _symmetry_equiv_pos_as_xyz
  1  'x, y, z'
loop_
 _atom_site_type_symbol
 _atom_site_label
 _atom_site_symmetry_multiplicity
 _atom_site_fract_x
 _atom_site_fract_y
 _atom_site_fract_z
 _atom_site_occupancy
  Tm  Tm0  1  0.671634  0.173845  0.067979  1
  Tm  Tm1  1  0.829684  0.671386  0.431653  1
  Tm  Tm2  1  0.325232  0.827692  0.930369  1
  Tm  Tm3  1  0.175538  0.328010  0.571929  1
  Tm  Tm4  1  0.671634  0.173845  0.432021  1
  Tm  Tm5  1  0.175538  0.328010  0.928071  1
  Tm  Tm6  1  0.325232  0.827692  0.569631  1
  Tm  Tm7  1  0.643245  0.457542  0.750000  1
  Tm  Tm8  1  0.829684  0.671386  0.068347  1
  Th  Th9  1  0.347669  0.551734  0.250000  1
  Th  Th10  1  0.153353  0.049719  0.250000  1
  Th  Th11  1  0.844978  0.950603  0.750000  1
  Co  Co12  1  0.963815  0.372290  0.250000  1
  Co  Co13  1  0.464724  0.112632  0.750000  1
  Co  Co14  1  0.538374  0.872571  0.250000  1
  Co  Co15  1  0.039665  0.631043  0.750000  1
