# generated using pymatgen
data_Dy3Sc9In2Tc3
_symmetry_space_group_name_H-M   'P 1'
_cell_length_a   8.04887428
_cell_length_b   8.04887458
_cell_length_c   8.00266500
_cell_angle_alpha   109.37026541
_cell_angle_beta   109.37026617
_cell_angle_gamma   109.90521820
_symmetry_Int_Tables_number   1
_chemical_formula_structural   Dy3Sc9In2Tc3
_chemical_formula_sum   'Dy3 Sc9 In2 Tc3'
_cell_volume   397.94529816
_cell_formula_units_Z   1
loop_
 _symmetry_equiv_pos_site_id
 _symmetry_equiv_pos_as_xyz
  1  'x, y, z'
loop_
 _atom_site_type_symbol
 _atom_site_label
 _atom_site_symmetry_multiplicity
 _atom_site_fract_x
 _atom_site_fract_y
 _atom_site_fract_z
 _atom_site_occupancy
  Dy  Dy0  1  0.690386  0.690386  0.380771  1
  Dy  Dy1  1  0.690107  0.308357  0.998465  1
  Dy  Dy2  1  0.308357  0.690107  0.998465  1
  Sc  Sc3  1  0.186214  0.423700  0.242801  1
  Sc  Sc4  1  0.809302  0.570909  0.756256  1
  Sc  Sc5  1  0.185345  0.946953  0.756256  1
  Sc  Sc6  1  0.946953  0.185345  0.756256  1
  Sc  Sc7  1  0.819101  0.056586  0.242801  1
  Sc  Sc8  1  0.056586  0.819101  0.242801  1
  Sc  Sc9  1  0.423700  0.186214  0.242801  1
  Sc  Sc10  1  0.570909  0.809302  0.756256  1
  Sc  Sc11  1  0.314226  0.314226  0.628453  1
  In  In12  1  0.004021  0.499793  0.503813  1
  In  In13  1  0.499793  0.004021  0.503813  1
  Tc  Tc14  1  0.336112  0.336112  0.996370  1
  Tc  Tc15  1  0.660258  0.660258  0.996370  1
  Tc  Tc16  1  0.998627  0.998627  0.997255  1
