# generated using pymatgen
data_Ta5Al(ZnIr2)6
_symmetry_space_group_name_H-M   'P 1'
_cell_length_a   4.17387802
_cell_length_b   6.95079600
_cell_length_c   12.44441405
_cell_angle_alpha   90.00000000
_cell_angle_beta   90.01104672
_cell_angle_gamma   90.00000000
_symmetry_Int_Tables_number   1
_chemical_formula_structural   Ta5Al(ZnIr2)6
_chemical_formula_sum   'Ta5 Al1 Zn6 Ir12'
_cell_volume   361.03452949
_cell_formula_units_Z   1
loop_
 _symmetry_equiv_pos_site_id
 _symmetry_equiv_pos_as_xyz
  1  'x, y, z'
loop_
 _atom_site_type_symbol
 _atom_site_label
 _atom_site_symmetry_multiplicity
 _atom_site_fract_x
 _atom_site_fract_y
 _atom_site_fract_z
 _atom_site_occupancy
  Ta  Ta0  1  0.000005  0.500000  0.993996  1
  Ta  Ta1  1  0.499947  0.000000  0.164914  1
  Ta  Ta2  1  0.999959  0.500000  0.333353  1
  Ta  Ta3  1  0.500000  0.000000  0.501755  1
  Ta  Ta4  1  0.000060  0.500000  0.672666  1
  Al  Al5  1  0.500059  0.000000  0.833333  1
  Zn  Zn6  1  0.999991  0.000000  0.998978  1
  Zn  Zn7  1  0.499938  0.500000  0.161879  1
  Zn  Zn8  1  0.999929  0.000000  0.333336  1
  Zn  Zn9  1  0.499996  0.500000  0.504787  1
  Zn  Zn10  1  0.000071  0.000000  0.667686  1
  Zn  Zn11  1  0.500060  0.500000  0.833334  1
  Ir  Ir12  1  0.500001  0.246569  0.998105  1
  Ir  Ir13  1  0.500001  0.753432  0.998105  1
  Ir  Ir14  1  0.999953  0.250500  0.166283  1
  Ir  Ir15  1  0.999953  0.749501  0.166283  1
  Ir  Ir16  1  0.499941  0.252485  0.333330  1
  Ir  Ir17  1  0.499941  0.747515  0.333330  1
  Ir  Ir18  1  0.000001  0.250509  0.500378  1
  Ir  Ir19  1  0.000001  0.749492  0.500378  1
  Ir  Ir20  1  0.500048  0.246566  0.668562  1
  Ir  Ir21  1  0.500048  0.753434  0.668562  1
  Ir  Ir22  1  0.000047  0.244365  0.833334  1
  Ir  Ir23  1  0.000047  0.755636  0.833334  1
