# generated using pymatgen
data_Ho2Co12AsP6
_symmetry_space_group_name_H-M   'P 1'
_cell_length_a   9.08882500
_cell_length_b   9.08882582
_cell_length_c   3.58465300
_cell_angle_alpha   90.00000000
_cell_angle_beta   90.00000000
_cell_angle_gamma   120.00000065
_symmetry_Int_Tables_number   1
_chemical_formula_structural   Ho2Co12AsP6
_chemical_formula_sum   'Ho2 Co12 As1 P6'
_cell_volume   256.44443117
_cell_formula_units_Z   1
loop_
 _symmetry_equiv_pos_site_id
 _symmetry_equiv_pos_as_xyz
  1  'x, y, z'
loop_
 _atom_site_type_symbol
 _atom_site_label
 _atom_site_symmetry_multiplicity
 _atom_site_fract_x
 _atom_site_fract_y
 _atom_site_fract_z
 _atom_site_occupancy
  Ho  Ho0  1  0.666667  0.333333  0.500000  1
  Ho  Ho1  1  0.333333  0.666667  0.000000  1
  Co  Co2  1  0.123818  0.840797  0.000000  1
  Co  Co3  1  0.385349  0.438122  0.500000  1
  Co  Co4  1  0.716979  0.876182  0.000000  1
  Co  Co5  1  0.561878  0.947226  0.500000  1
  Co  Co6  1  0.249228  0.109741  0.500000  1
  Co  Co7  1  0.860513  0.750772  0.500000  1
  Co  Co8  1  0.890259  0.139487  0.500000  1
  Co  Co9  1  0.939160  0.375029  0.000000  1
  Co  Co10  1  0.624971  0.564132  0.000000  1
  Co  Co11  1  0.435868  0.060840  0.000000  1
  Co  Co12  1  0.052774  0.614651  0.500000  1
  Co  Co13  1  0.159203  0.283021  0.000000  1
  As  As14  1  0.000000  0.000000  0.000000  1
  P  P15  1  0.596050  0.708080  0.500000  1
  P  P16  1  0.705505  0.113004  0.000000  1
  P  P17  1  0.886996  0.592502  0.000000  1
  P  P18  1  0.407498  0.294495  0.000000  1
  P  P19  1  0.291920  0.887969  0.500000  1
  P  P20  1  0.112031  0.403950  0.500000  1
