# generated using pymatgen
data_Cs2Np(PtS2)3
_symmetry_space_group_name_H-M   'P 1'
_cell_length_a   11.27206822
_cell_length_b   9.63245453
_cell_length_c   8.97522900
_cell_angle_alpha   74.47523060
_cell_angle_beta   55.42294635
_cell_angle_gamma   50.10180768
_symmetry_Int_Tables_number   1
_chemical_formula_structural   Cs2Np(PtS2)3
_chemical_formula_sum   'Cs4 Np2 Pt6 S12'
_cell_volume   608.36602000
_cell_formula_units_Z   2
loop_
 _symmetry_equiv_pos_site_id
 _symmetry_equiv_pos_as_xyz
  1  'x, y, z'
loop_
 _atom_site_type_symbol
 _atom_site_label
 _atom_site_symmetry_multiplicity
 _atom_site_fract_x
 _atom_site_fract_y
 _atom_site_fract_z
 _atom_site_occupancy
  Cs  Cs0  1  0.250000  0.249999  0.250000  1
  Cs  Cs1  1  0.750000  0.750000  0.750000  1
  Cs  Cs2  1  0.309234  0.690766  0.309235  1
  Cs  Cs3  1  0.690766  0.309235  0.690766  1
  Np  Np4  1  0.169893  0.169894  0.830107  1
  Np  Np5  1  0.830106  0.830107  0.169894  1
  Pt  Pt6  1  0.830809  0.169191  0.169191  1
  Pt  Pt7  1  0.169192  0.830809  0.830808  1
  Pt  Pt8  1  0.826413  0.495715  0.173587  1
  Pt  Pt9  1  0.495715  0.826413  0.504285  1
  Pt  Pt10  1  0.504285  0.173587  0.495715  1
  Pt  Pt11  1  0.173588  0.504285  0.826412  1
  S  S12  1  0.019016  0.182219  0.195861  1
  S  S13  1  0.182220  0.019015  0.602902  1
  S  S14  1  0.602902  0.195861  0.182220  1
  S  S15  1  0.195861  0.602901  0.019015  1
  S  S16  1  0.980984  0.817780  0.804139  1
  S  S17  1  0.817780  0.980985  0.397098  1
  S  S18  1  0.397098  0.804139  0.817780  1
  S  S19  1  0.804139  0.397098  0.980985  1
  S  S20  1  0.408078  0.193244  0.806756  1
  S  S21  1  0.193244  0.408078  0.591922  1
  S  S22  1  0.591922  0.806757  0.193244  1
  S  S23  1  0.806756  0.591923  0.408078  1
