# generated using pymatgen
data_Ho5Lu(Si3Ru)8
_symmetry_space_group_name_H-M   'P 1'
_cell_length_a   10.10318736
_cell_length_b   10.10318740
_cell_length_c   8.12977602
_cell_angle_alpha   89.99023566
_cell_angle_beta   89.99024121
_cell_angle_gamma   132.59495132
_symmetry_Int_Tables_number   1
_chemical_formula_structural   Ho5Lu(Si3Ru)8
_chemical_formula_sum   'Ho5 Lu1 Si24 Ru8'
_cell_volume   610.89369495
_cell_formula_units_Z   1
loop_
 _symmetry_equiv_pos_site_id
 _symmetry_equiv_pos_as_xyz
  1  'x, y, z'
loop_
 _atom_site_type_symbol
 _atom_site_label
 _atom_site_symmetry_multiplicity
 _atom_site_fract_x
 _atom_site_fract_y
 _atom_site_fract_z
 _atom_site_occupancy
  Ho  Ho0  1  0.000000  0.000000  0.000000  1
  Ho  Ho1  1  0.502542  0.002641  0.750254  1
  Ho  Ho2  1  0.997359  0.497458  0.249746  1
  Ho  Ho3  1  0.497458  0.997359  0.249746  1
  Ho  Ho4  1  0.002641  0.502542  0.750254  1
  Lu  Lu5  1  0.500000  0.500000  0.500000  1
  Si  Si6  1  0.794941  0.205059  0.500000  1
  Si  Si7  1  0.294770  0.705230  0.000000  1
  Si  Si8  1  0.205059  0.794941  0.500000  1
  Si  Si9  1  0.705230  0.294770  0.000000  1
  Si  Si10  1  0.332825  0.332825  0.832963  1
  Si  Si11  1  0.667175  0.667175  0.167037  1
  Si  Si12  1  0.168076  0.168076  0.333648  1
  Si  Si13  1  0.831924  0.831924  0.666352  1
  Si  Si14  1  0.123050  0.888488  0.728635  1
  Si  Si15  1  0.111512  0.876950  0.271365  1
  Si  Si16  1  0.612641  0.378204  0.228846  1
  Si  Si17  1  0.621796  0.387359  0.771154  1
  Si  Si18  1  0.876950  0.111512  0.271365  1
  Si  Si19  1  0.888488  0.123050  0.728635  1
  Si  Si20  1  0.387359  0.621796  0.771154  1
  Si  Si21  1  0.378204  0.612641  0.228846  1
  Si  Si22  1  0.345742  0.112662  0.505592  1
  Si  Si23  1  0.887338  0.654258  0.494408  1
  Si  Si24  1  0.388708  0.154960  0.004116  1
  Si  Si25  1  0.845040  0.611292  0.995884  1
  Si  Si26  1  0.654258  0.887338  0.494408  1
  Si  Si27  1  0.112662  0.345742  0.505592  1
  Si  Si28  1  0.611292  0.845040  0.995884  1
  Si  Si29  1  0.154960  0.388708  0.004116  1
  Ru  Ru30  1  0.669114  0.330886  0.500000  1
  Ru  Ru31  1  0.169282  0.830718  0.000000  1
  Ru  Ru32  1  0.330886  0.669114  0.500000  1
  Ru  Ru33  1  0.830718  0.169282  0.000000  1
  Ru  Ru34  1  0.127136  0.127136  0.627733  1
  Ru  Ru35  1  0.872864  0.872864  0.372267  1
  Ru  Ru36  1  0.374015  0.374015  0.127678  1
  Ru  Ru37  1  0.625985  0.625985  0.872322  1
