# generated using pymatgen
data_Th4Zn(Si2Rh)5
_symmetry_space_group_name_H-M   'P 1'
_cell_length_a   8.28019030
_cell_length_b   8.28018817
_cell_length_c   8.28018914
_cell_angle_alpha   137.81410547
_cell_angle_beta   105.61091122
_cell_angle_gamma   89.42284638
_symmetry_Int_Tables_number   1
_chemical_formula_structural   Th4Zn(Si2Rh)5
_chemical_formula_sum   'Th4 Zn1 Si10 Rh5'
_cell_volume   351.08742408
_cell_formula_units_Z   1
loop_
 _symmetry_equiv_pos_site_id
 _symmetry_equiv_pos_as_xyz
  1  'x, y, z'
loop_
 _atom_site_type_symbol
 _atom_site_label
 _atom_site_symmetry_multiplicity
 _atom_site_fract_x
 _atom_site_fract_y
 _atom_site_fract_z
 _atom_site_occupancy
  Th  Th0  1  0.861199  0.631376  0.235665  1
  Th  Th1  1  0.138801  0.374465  0.770176  1
  Th  Th2  1  0.395711  0.125535  0.264335  1
  Th  Th3  1  0.604289  0.868624  0.729824  1
  Zn  Zn4  1  0.000000  0.750000  0.750000  1
  Si  Si5  1  0.500000  0.750000  0.250000  1
  Si  Si6  1  0.500000  0.250000  0.750000  1
  Si  Si7  1  0.233239  0.983239  0.750000  1
  Si  Si8  1  0.766761  0.516761  0.750000  1
  Si  Si9  1  0.775724  0.025724  0.250000  1
  Si  Si10  1  0.224276  0.474276  0.250000  1
  Si  Si11  1  0.039685  0.891261  0.157351  1
  Si  Si12  1  0.960315  0.117665  0.851575  1
  Si  Si13  1  0.733909  0.382335  0.342649  1
  Si  Si14  1  0.266091  0.608739  0.648425  1
  Rh  Rh15  1  0.000000  0.250000  0.250000  1
  Rh  Rh16  1  0.251108  0.858829  0.387837  1
  Rh  Rh17  1  0.748892  0.136729  0.607722  1
  Rh  Rh18  1  0.470993  0.363271  0.112163  1
  Rh  Rh19  1  0.529007  0.641171  0.892278  1
