# generated using pymatgen
data_Pr4Ti5Cr3O20
_symmetry_space_group_name_H-M   'P 1'
_cell_length_a   5.90983800
_cell_length_b   7.70294290
_cell_length_c   8.84477390
_cell_angle_alpha   89.69387541
_cell_angle_beta   90.00000000
_cell_angle_gamma   90.00000000
_symmetry_Int_Tables_number   1
_chemical_formula_structural   Pr4Ti5Cr3O20
_chemical_formula_sum   'Pr4 Ti5 Cr3 O20'
_cell_volume   402.63617506
_cell_formula_units_Z   1
loop_
 _symmetry_equiv_pos_site_id
 _symmetry_equiv_pos_as_xyz
  1  'x, y, z'
loop_
 _atom_site_type_symbol
 _atom_site_label
 _atom_site_symmetry_multiplicity
 _atom_site_fract_x
 _atom_site_fract_y
 _atom_site_fract_z
 _atom_site_occupancy
  Pr  Pr0  1  0.997342  0.362478  0.674850  1
  Pr  Pr1  1  0.997342  0.637522  0.325150  1
  Pr  Pr2  1  0.998686  0.859519  0.831075  1
  Pr  Pr3  1  0.998686  0.140481  0.168925  1
  Ti  Ti4  1  0.502618  0.121289  0.858475  1
  Ti  Ti5  1  0.502618  0.878711  0.141525  1
  Ti  Ti6  1  0.498126  0.616659  0.643677  1
  Ti  Ti7  1  0.498126  0.383341  0.356323  1
  Ti  Ti8  1  0.238403  0.000000  0.500000  1
  Cr  Cr9  1  0.249434  0.500000  0.000000  1
  Cr  Cr10  1  0.746629  0.000000  0.500000  1
  Cr  Cr11  1  0.751280  0.500000  0.000000  1
  O  O12  1  0.258672  0.898940  0.292542  1
  O  O13  1  0.258672  0.101060  0.707458  1
  O  O14  1  0.744800  0.398215  0.213455  1
  O  O15  1  0.744800  0.601785  0.786545  1
  O  O16  1  0.748120  0.110877  0.725605  1
  O  O17  1  0.748120  0.889123  0.274395  1
  O  O18  1  0.254125  0.600392  0.786641  1
  O  O19  1  0.254125  0.399608  0.213359  1
  O  O20  1  0.499631  0.339945  0.930058  1
  O  O21  1  0.499631  0.660055  0.069942  1
  O  O22  1  0.496137  0.836976  0.577305  1
  O  O23  1  0.496137  0.163024  0.422695  1
  O  O24  1  0.281251  0.000000  0.000000  1
  O  O25  1  0.714485  0.500000  0.500000  1
  O  O26  1  0.712284  0.000000  0.000000  1
  O  O27  1  0.285049  0.500000  0.500000  1
  O  O28  1  0.011825  0.161921  0.445886  1
  O  O29  1  0.011825  0.838079  0.554114  1
  O  O30  1  0.000510  0.661682  0.052960  1
  O  O31  1  0.000510  0.338318  0.947040  1
