# generated using pymatgen
data_La2GeBr
_symmetry_space_group_name_H-M   'P 1'
_cell_length_a   7.70623313
_cell_length_b   7.70623363
_cell_length_c   7.70623439
_cell_angle_alpha   33.25997751
_cell_angle_beta   33.25997518
_cell_angle_gamma   33.25997161
_symmetry_Int_Tables_number   1
_chemical_formula_structural   La2GeBr
_chemical_formula_sum   'La2 Ge1 Br1'
_cell_volume   122.55028609
_cell_formula_units_Z   1
loop_
 _symmetry_equiv_pos_site_id
 _symmetry_equiv_pos_as_xyz
  1  'x, y, z'
loop_
 _atom_site_type_symbol
 _atom_site_label
 _atom_site_symmetry_multiplicity
 _atom_site_fract_x
 _atom_site_fract_y
 _atom_site_fract_z
 _atom_site_occupancy
  La  La0  1  0.240413  0.240413  0.240413  1
  La  La1  1  0.759587  0.759587  0.759587  1
  Ge  Ge2  1  0.500000  0.500000  0.500000  1
  Br  Br3  1  0.000000  0.000000  0.000000  1
