# generated using pymatgen
data_TbErTm6(WO6)4
_symmetry_space_group_name_H-M   'P 1'
_cell_length_a   5.35059100
_cell_length_b   7.64953363
_cell_length_c   11.38134308
_cell_angle_alpha   75.24039510
_cell_angle_beta   90.00000000
_cell_angle_gamma   90.00000000
_symmetry_Int_Tables_number   1
_chemical_formula_structural   TbErTm6(WO6)4
_chemical_formula_sum   'Tb1 Er1 Tm6 W4 O24'
_cell_volume   450.46199837
_cell_formula_units_Z   1
loop_
 _symmetry_equiv_pos_site_id
 _symmetry_equiv_pos_as_xyz
  1  'x, y, z'
loop_
 _atom_site_type_symbol
 _atom_site_label
 _atom_site_symmetry_multiplicity
 _atom_site_fract_x
 _atom_site_fract_y
 _atom_site_fract_z
 _atom_site_occupancy
  Tb  Tb0  1  0.684443  0.500000  0.750000  1
  Er  Er1  1  0.315660  0.500000  0.250000  1
  Tm  Tm2  1  0.741026  0.000000  0.750000  1
  Tm  Tm3  1  0.260004  0.000000  0.250000  1
  Tm  Tm4  1  0.184170  0.795705  0.577875  1
  Tm  Tm5  1  0.816265  0.794729  0.078738  1
  Tm  Tm6  1  0.184170  0.204295  0.922125  1
  Tm  Tm7  1  0.816265  0.205271  0.421262  1
  W  W8  1  0.255561  0.724345  0.885956  1
  W  W9  1  0.744366  0.723816  0.384779  1
  W  W10  1  0.255561  0.275655  0.614044  1
  W  W11  1  0.744366  0.276184  0.115221  1
  O  O12  1  0.041550  0.941020  0.896439  1
  O  O13  1  0.537903  0.846890  0.930938  1
  O  O14  1  0.957728  0.941607  0.394877  1
  O  O15  1  0.458763  0.793543  0.725933  1
  O  O16  1  0.463048  0.847252  0.430605  1
  O  O17  1  0.981208  0.714281  0.769999  1
  O  O18  1  0.540188  0.792445  0.225660  1
  O  O19  1  0.852564  0.634711  0.548451  1
  O  O20  1  0.357243  0.488163  0.886841  1
  O  O21  1  0.020624  0.711171  0.270364  1
  O  O22  1  0.357243  0.511837  0.613159  1
  O  O23  1  0.852564  0.365289  0.951549  1
  O  O24  1  0.149403  0.635219  0.050307  1
  O  O25  1  0.638848  0.488332  0.385390  1
  O  O26  1  0.981208  0.285719  0.730001  1
  O  O27  1  0.638848  0.511668  0.114610  1
  O  O28  1  0.149403  0.364781  0.449693  1
  O  O29  1  0.458763  0.206457  0.774067  1
  O  O30  1  0.020624  0.288829  0.229636  1
  O  O31  1  0.537903  0.153110  0.569062  1
  O  O32  1  0.540188  0.207555  0.274340  1
  O  O33  1  0.041550  0.058980  0.603561  1
  O  O34  1  0.463048  0.152748  0.069395  1
  O  O35  1  0.957728  0.058393  0.105123  1
