# generated using pymatgen
data_TmLu2Hf(Al8Pt3)3
_symmetry_space_group_name_H-M   'P 1'
_cell_length_a   7.50776705
_cell_length_b   7.51783085
_cell_length_c   13.06665123
_cell_angle_alpha   84.54592277
_cell_angle_beta   79.03074246
_cell_angle_gamma   59.90134973
_symmetry_Int_Tables_number   1
_chemical_formula_structural   TmLu2Hf(Al8Pt3)3
_chemical_formula_sum   'Tm1 Lu2 Hf1 Al24 Pt9'
_cell_volume   626.40823418
_cell_formula_units_Z   1
loop_
 _symmetry_equiv_pos_site_id
 _symmetry_equiv_pos_as_xyz
  1  'x, y, z'
loop_
 _atom_site_type_symbol
 _atom_site_label
 _atom_site_symmetry_multiplicity
 _atom_site_fract_x
 _atom_site_fract_y
 _atom_site_fract_z
 _atom_site_occupancy
  Tm  Tm0  1  0.606367  0.831615  0.192349  1
  Lu  Lu1  1  0.734195  0.498821  0.806843  1
  Lu  Lu2  1  0.266394  0.501046  0.192793  1
  Hf  Hf3  1  0.393545  0.168368  0.808317  1
  Al  Al4  1  0.681609  0.836119  0.940809  1
  Al  Al5  1  0.316998  0.166454  0.054677  1
  Al  Al6  1  0.146359  0.832748  0.562841  1
  Al  Al7  1  0.853068  0.167097  0.437969  1
  Al  Al8  1  0.479923  0.166695  0.560558  1
  Al  Al9  1  0.519336  0.833828  0.441320  1
  Al  Al10  1  0.217692  0.165572  0.328468  1
  Al  Al11  1  0.779101  0.836372  0.675107  1
  Al  Al12  1  0.435614  0.504616  0.675568  1
  Al  Al13  1  0.562840  0.493628  0.327492  1
  Al  Al14  1  0.109994  0.159884  0.674379  1
  Al  Al15  1  0.890953  0.839635  0.328623  1
  Al  Al16  1  0.355456  0.495973  0.940856  1
  Al  Al17  1  0.646795  0.500772  0.055787  1
  Al  Al18  1  0.019134  0.169155  0.948177  1
  Al  Al19  1  0.984334  0.832032  0.047701  1
  Al  Al20  1  0.186800  0.499236  0.441330  1
  Al  Al21  1  0.813743  0.500322  0.558976  1
  Al  Al22  1  0.733267  0.164055  0.183137  1
  Al  Al23  1  0.266907  0.840798  0.816865  1
  Al  Al24  1  0.065344  0.626267  0.815533  1
  Al  Al25  1  0.939599  0.368786  0.183947  1
  Al  Al26  1  0.849689  0.042790  0.815978  1
  Al  Al27  1  0.145438  0.957780  0.183483  1
  Pt  Pt28  1  0.119661  0.489747  0.640440  1
  Pt  Pt29  1  0.879638  0.509358  0.360415  1
  Pt  Pt30  1  0.657270  0.171882  0.998825  1
  Pt  Pt31  1  0.343782  0.827819  0.999408  1
  Pt  Pt32  1  0.536974  0.166880  0.360968  1
  Pt  Pt33  1  0.463630  0.832721  0.640175  1
  Pt  Pt34  1  0.776982  0.176873  0.638566  1
  Pt  Pt35  1  0.221623  0.824030  0.362422  1
  Pt  Pt36  1  0.999944  0.500227  0.998899  1
