# generated using pymatgen
data_Hf4Ni5Pt7
_symmetry_space_group_name_H-M   'P 1'
_cell_length_a   5.55813800
_cell_length_b   5.54876433
_cell_length_c   9.05248600
_cell_angle_alpha   90.00000000
_cell_angle_beta   90.00000000
_cell_angle_gamma   119.79808700
_symmetry_Int_Tables_number   1
_chemical_formula_structural   Hf4Ni5Pt7
_chemical_formula_sum   'Hf4 Ni5 Pt7'
_cell_volume   242.27250364
_cell_formula_units_Z   1
loop_
 _symmetry_equiv_pos_site_id
 _symmetry_equiv_pos_as_xyz
  1  'x, y, z'
loop_
 _atom_site_type_symbol
 _atom_site_label
 _atom_site_symmetry_multiplicity
 _atom_site_fract_x
 _atom_site_fract_y
 _atom_site_fract_z
 _atom_site_occupancy
  Hf  Hf0  1  0.001979  0.999646  0.495768  1
  Hf  Hf1  1  0.665471  0.331880  0.750000  1
  Hf  Hf2  1  0.333633  0.673360  0.250000  1
  Hf  Hf3  1  0.001979  0.999646  0.004232  1
  Ni  Ni4  1  0.175245  0.348463  0.750000  1
  Ni  Ni5  1  0.825030  0.651587  0.250000  1
  Ni  Ni6  1  0.345196  0.167838  0.250000  1
  Ni  Ni7  1  0.497926  0.999996  0.497222  1
  Ni  Ni8  1  0.497926  0.999996  0.002778  1
  Pt  Pt9  1  0.000073  0.499844  0.000808  1
  Pt  Pt10  1  0.496609  0.493218  0.005132  1
  Pt  Pt11  1  0.816642  0.161802  0.250000  1
  Pt  Pt12  1  0.496609  0.493218  0.494868  1
  Pt  Pt13  1  0.180177  0.839936  0.750000  1
  Pt  Pt14  1  0.665432  0.839727  0.750000  1
  Pt  Pt15  1  0.000073  0.499844  0.499192  1
