# generated using pymatgen
data_GdNp7Se12
_symmetry_space_group_name_H-M   'P 1'
_cell_length_a   7.68887057
_cell_length_b   4.13329700
_cell_length_c   16.02225000
_cell_angle_alpha   90.00000000
_cell_angle_beta   90.06249810
_cell_angle_gamma   90.00000000
_symmetry_Int_Tables_number   1
_chemical_formula_structural   GdNp7Se12
_chemical_formula_sum   'Gd1 Np7 Se12'
_cell_volume   509.19298150
_cell_formula_units_Z   1
loop_
 _symmetry_equiv_pos_site_id
 _symmetry_equiv_pos_as_xyz
  1  'x, y, z'
loop_
 _atom_site_type_symbol
 _atom_site_label
 _atom_site_symmetry_multiplicity
 _atom_site_fract_x
 _atom_site_fract_y
 _atom_site_fract_z
 _atom_site_occupancy
  Gd  Gd0  1  0.737624  0.499999  0.041001  1
  Np  Np1  1  0.137907  0.000000  0.209180  1
  Np  Np2  1  0.637621  0.000000  0.292413  1
  Np  Np3  1  0.235479  0.499999  0.461432  1
  Np  Np4  1  0.758789  0.000000  0.540787  1
  Np  Np5  1  0.363816  0.499999  0.707501  1
  Np  Np6  1  0.865318  0.499999  0.789963  1
  Np  Np7  1  0.263941  0.000000  0.957707  1
  Se  Se8  1  0.124617  0.499999  0.069342  1
  Se  Se9  1  0.507657  0.000000  0.108276  1
  Se  Se10  1  0.852341  0.499999  0.220723  1
  Se  Se11  1  0.352010  0.499999  0.282943  1
  Se  Se12  1  0.007758  0.000000  0.393586  1
  Se  Se13  1  0.626559  0.499999  0.430605  1
  Se  Se14  1  0.373201  0.000000  0.568992  1
  Se  Se15  1  0.991150  0.499999  0.607424  1
  Se  Se16  1  0.647700  0.000000  0.718894  1
  Se  Se17  1  0.148412  0.000000  0.778811  1
  Se  Se18  1  0.492631  0.499999  0.889788  1
  Se  Se19  1  0.875459  0.000000  0.930631  1
