# generated using pymatgen
data_Sc20Si9As7
_symmetry_space_group_name_H-M   'P 1'
_cell_length_a   7.12202270
_cell_length_b   7.15658256
_cell_length_c   13.66007983
_cell_angle_alpha   89.85119881
_cell_angle_beta   89.61965740
_cell_angle_gamma   90.14172935
_symmetry_Int_Tables_number   1
_chemical_formula_structural   Sc20Si9As7
_chemical_formula_sum   'Sc20 Si9 As7'
_cell_volume   696.22545239
_cell_formula_units_Z   1
loop_
 _symmetry_equiv_pos_site_id
 _symmetry_equiv_pos_as_xyz
  1  'x, y, z'
loop_
 _atom_site_type_symbol
 _atom_site_label
 _atom_site_symmetry_multiplicity
 _atom_site_fract_x
 _atom_site_fract_y
 _atom_site_fract_z
 _atom_site_occupancy
  Sc  Sc0  1  0.213909  0.996438  0.750548  1
  Sc  Sc1  1  0.785920  0.003337  0.249287  1
  Sc  Sc2  1  0.286382  0.499134  0.247359  1
  Sc  Sc3  1  0.713968  0.501319  0.750581  1
  Sc  Sc4  1  0.045440  0.674102  0.608741  1
  Sc  Sc5  1  0.954976  0.326207  0.391416  1
  Sc  Sc6  1  0.454775  0.174789  0.391108  1
  Sc  Sc7  1  0.962775  0.328978  0.105933  1
  Sc  Sc8  1  0.545382  0.825599  0.608850  1
  Sc  Sc9  1  0.043519  0.671719  0.893878  1
  Sc  Sc10  1  0.536765  0.819581  0.894887  1
  Sc  Sc11  1  0.457897  0.179645  0.106796  1
  Sc  Sc12  1  0.387880  0.334803  0.620300  1
  Sc  Sc13  1  0.612231  0.665107  0.379598  1
  Sc  Sc14  1  0.112310  0.835511  0.379554  1
  Sc  Sc15  1  0.614467  0.665622  0.121119  1
  Sc  Sc16  1  0.887138  0.163882  0.620812  1
  Sc  Sc17  1  0.384011  0.333972  0.879450  1
  Sc  Sc18  1  0.885369  0.164780  0.879614  1
  Sc  Sc19  1  0.115636  0.833491  0.120216  1
  Si  Si20  1  0.088389  0.381440  0.749526  1
  Si  Si21  1  0.911529  0.618195  0.250488  1
  Si  Si22  1  0.411139  0.883840  0.250348  1
  Si  Si23  1  0.588360  0.115898  0.750370  1
  Si  Si24  1  0.340821  0.631676  0.750054  1
  Si  Si25  1  0.660404  0.368295  0.249955  1
  Si  Si26  1  0.159408  0.133189  0.249495  1
  Si  Si27  1  0.840297  0.866006  0.751015  1
  Si  Si28  1  0.277730  0.527879  0.043201  1
  As  As29  1  0.228949  0.020783  0.545429  1
  As  As30  1  0.770738  0.979389  0.454604  1
  As  As31  1  0.270989  0.521329  0.454334  1
  As  As32  1  0.771875  0.977651  0.044959  1
  As  As33  1  0.729715  0.478610  0.545523  1
  As  As34  1  0.225010  0.023630  0.954929  1
  As  As35  1  0.723895  0.474174  0.955720  1
