# generated using pymatgen
data_Ca20Si11Pb
_symmetry_space_group_name_H-M   'P 1'
_cell_length_a   7.69170100
_cell_length_b   7.69170100
_cell_length_c   14.84890000
_cell_angle_alpha   90.00000000
_cell_angle_beta   90.00000000
_cell_angle_gamma   90.00000000
_symmetry_Int_Tables_number   1
_chemical_formula_structural   Ca20Si11Pb
_chemical_formula_sum   'Ca20 Si11 Pb1'
_cell_volume   878.49454597
_cell_formula_units_Z   1
loop_
 _symmetry_equiv_pos_site_id
 _symmetry_equiv_pos_as_xyz
  1  'x, y, z'
loop_
 _atom_site_type_symbol
 _atom_site_label
 _atom_site_symmetry_multiplicity
 _atom_site_fract_x
 _atom_site_fract_y
 _atom_site_fract_z
 _atom_site_occupancy
  Ca  Ca0  1  0.326920  0.685186  0.114147  1
  Ca  Ca1  1  0.185186  0.173080  0.114147  1
  Ca  Ca2  1  0.500000  0.000000  0.733090  1
  Ca  Ca3  1  0.320593  0.680108  0.391491  1
  Ca  Ca4  1  0.668812  0.690025  0.886187  1
  Ca  Ca5  1  0.180108  0.179407  0.391491  1
  Ca  Ca6  1  0.679407  0.319892  0.391491  1
  Ca  Ca7  1  0.174148  0.815438  0.608333  1
  Ca  Ca8  1  0.331188  0.309975  0.886187  1
  Ca  Ca9  1  0.190025  0.831188  0.886187  1
  Ca  Ca10  1  0.500000  0.000000  0.256197  1
  Ca  Ca11  1  0.825852  0.184562  0.608333  1
  Ca  Ca12  1  0.315438  0.325852  0.608333  1
  Ca  Ca13  1  0.819892  0.820593  0.391491  1
  Ca  Ca14  1  0.809975  0.168812  0.886187  1
  Ca  Ca15  1  0.814814  0.826920  0.114147  1
  Ca  Ca16  1  0.000000  0.500000  0.254392  1
  Ca  Ca17  1  0.000000  0.500000  0.753948  1
  Ca  Ca18  1  0.673080  0.314814  0.114147  1
  Ca  Ca19  1  0.684562  0.674148  0.608333  1
  Si  Si20  1  0.112626  0.112507  0.747147  1
  Si  Si21  1  0.387493  0.612626  0.747147  1
  Si  Si22  1  0.612821  0.612124  0.252970  1
  Si  Si23  1  0.500000  0.000000  0.002809  1
  Si  Si24  1  0.112124  0.887179  0.252970  1
  Si  Si25  1  0.612507  0.387374  0.747147  1
  Si  Si26  1  0.887374  0.887493  0.747147  1
  Si  Si27  1  0.387179  0.387876  0.252970  1
  Si  Si28  1  0.887876  0.112821  0.252970  1
  Si  Si29  1  0.500000  0.000000  0.500198  1
  Si  Si30  1  0.000000  0.500000  0.499125  1
  Pb  Pb31  1  0.000000  0.500000  0.999145  1
