# generated using pymatgen
data_DyY7(AlPt)2
_symmetry_space_group_name_H-M   'P 1'
_cell_length_a   9.63867206
_cell_length_b   9.63867294
_cell_length_c   9.64868800
_cell_angle_alpha   59.96562254
_cell_angle_beta   59.96561953
_cell_angle_gamma   59.90417694
_symmetry_Int_Tables_number   1
_chemical_formula_structural   DyY7(AlPt)2
_chemical_formula_sum   'Dy2 Y14 Al4 Pt4'
_cell_volume   633.06262334
_cell_formula_units_Z   2
loop_
 _symmetry_equiv_pos_site_id
 _symmetry_equiv_pos_as_xyz
  1  'x, y, z'
loop_
 _atom_site_type_symbol
 _atom_site_label
 _atom_site_symmetry_multiplicity
 _atom_site_fract_x
 _atom_site_fract_y
 _atom_site_fract_z
 _atom_site_occupancy
  Dy  Dy0  1  0.352910  0.352910  0.353989  1
  Dy  Dy1  1  0.352910  0.352910  0.940190  1
  Y  Y2  1  0.354295  0.935296  0.355204  1
  Y  Y3  1  0.935296  0.354295  0.355204  1
  Y  Y4  1  0.807423  0.194264  0.192197  1
  Y  Y5  1  0.194264  0.807423  0.806115  1
  Y  Y6  1  0.194264  0.807423  0.192197  1
  Y  Y7  1  0.807423  0.194264  0.806115  1
  Y  Y8  1  0.193186  0.193186  0.806814  1
  Y  Y9  1  0.806818  0.806818  0.193182  1
  Y  Y10  1  0.935804  0.563348  0.564062  1
  Y  Y11  1  0.563348  0.935804  0.936785  1
  Y  Y12  1  0.563348  0.935804  0.564062  1
  Y  Y13  1  0.935804  0.563348  0.936785  1
  Y  Y14  1  0.563985  0.563985  0.936015  1
  Y  Y15  1  0.936794  0.936794  0.563206  1
  Al  Al16  1  0.578514  0.578514  0.578592  1
  Al  Al17  1  0.578514  0.578514  0.264380  1
  Al  Al18  1  0.577664  0.266956  0.577690  1
  Al  Al19  1  0.266956  0.577664  0.577690  1
  Pt  Pt20  1  0.143711  0.143711  0.143606  1
  Pt  Pt21  1  0.143711  0.143711  0.568974  1
  Pt  Pt22  1  0.143537  0.569517  0.143473  1
  Pt  Pt23  1  0.569517  0.143537  0.143473  1
