# generated using pymatgen
data_TbHfMn6Co6P7
_symmetry_space_group_name_H-M   'P 1'
_cell_length_a   9.05135500
_cell_length_b   9.05135356
_cell_length_c   3.60575000
_cell_angle_alpha   90.00000000
_cell_angle_beta   90.00000000
_cell_angle_gamma   119.99999526
_symmetry_Int_Tables_number   1
_chemical_formula_structural   TbHfMn6Co6P7
_chemical_formula_sum   'Tb1 Hf1 Mn6 Co6 P7'
_cell_volume   255.83113220
_cell_formula_units_Z   1
loop_
 _symmetry_equiv_pos_site_id
 _symmetry_equiv_pos_as_xyz
  1  'x, y, z'
loop_
 _atom_site_type_symbol
 _atom_site_label
 _atom_site_symmetry_multiplicity
 _atom_site_fract_x
 _atom_site_fract_y
 _atom_site_fract_z
 _atom_site_occupancy
  Tb  Tb0  1  0.333333  0.666667  0.500000  1
  Hf  Hf1  1  0.666667  0.333333  0.000000  1
  Mn  Mn2  1  0.279976  0.122279  0.000000  1
  Mn  Mn3  1  0.842303  0.720024  0.000000  1
  Mn  Mn4  1  0.877721  0.157697  0.000000  1
  Mn  Mn5  1  0.106197  0.877684  0.500000  1
  Mn  Mn6  1  0.771486  0.893803  0.500000  1
  Mn  Mn7  1  0.122316  0.228514  0.500000  1
  Co  Co8  1  0.058713  0.627903  0.000000  1
  Co  Co9  1  0.569190  0.941287  0.000000  1
  Co  Co10  1  0.372097  0.430810  0.000000  1
  Co  Co11  1  0.443819  0.057304  0.500000  1
  Co  Co12  1  0.613486  0.556181  0.500000  1
  Co  Co13  1  0.942696  0.386514  0.500000  1
  P  P14  1  0.299677  0.888493  0.000000  1
  P  P15  1  0.588815  0.700323  0.000000  1
  P  P16  1  0.111507  0.411185  0.000000  1
  P  P17  1  0.410671  0.288100  0.500000  1
  P  P18  1  0.877429  0.589329  0.500000  1
  P  P19  1  0.711900  0.122571  0.500000  1
  P  P20  1  0.000000  0.000000  0.000000  1
