# generated using pymatgen
data_DyTm4(Hg2Pt)2
_symmetry_space_group_name_H-M   'P 1'
_cell_length_a   3.61639100
_cell_length_b   7.89929100
_cell_length_c   18.08012900
_cell_angle_alpha   90.00000000
_cell_angle_beta   90.00000000
_cell_angle_gamma   90.00000000
_symmetry_Int_Tables_number   1
_chemical_formula_structural   DyTm4(Hg2Pt)2
_chemical_formula_sum   'Dy2 Tm8 Hg8 Pt4'
_cell_volume   516.49368694
_cell_formula_units_Z   2
loop_
 _symmetry_equiv_pos_site_id
 _symmetry_equiv_pos_as_xyz
  1  'x, y, z'
loop_
 _atom_site_type_symbol
 _atom_site_label
 _atom_site_symmetry_multiplicity
 _atom_site_fract_x
 _atom_site_fract_y
 _atom_site_fract_z
 _atom_site_occupancy
  Dy  Dy0  1  0.000000  0.000000  0.000000  1
  Dy  Dy1  1  0.000000  0.500000  0.500000  1
  Tm  Tm2  1  0.000000  0.113386  0.414199  1
  Tm  Tm3  1  0.000000  0.886614  0.585801  1
  Tm  Tm4  1  0.000000  0.386614  0.914199  1
  Tm  Tm5  1  0.000000  0.613386  0.085801  1
  Tm  Tm6  1  0.000000  0.239944  0.217809  1
  Tm  Tm7  1  0.000000  0.760056  0.782191  1
  Tm  Tm8  1  0.000000  0.260056  0.717809  1
  Tm  Tm9  1  0.000000  0.739944  0.282191  1
  Hg  Hg10  1  0.500000  0.424732  0.354348  1
  Hg  Hg11  1  0.500000  0.575268  0.645652  1
  Hg  Hg12  1  0.500000  0.075268  0.854348  1
  Hg  Hg13  1  0.500000  0.924732  0.145652  1
  Hg  Hg14  1  0.500000  0.290339  0.063453  1
  Hg  Hg15  1  0.500000  0.709661  0.936547  1
  Hg  Hg16  1  0.500000  0.209661  0.563453  1
  Hg  Hg17  1  0.500000  0.790339  0.436547  1
  Pt  Pt18  1  0.500000  0.027683  0.303831  1
  Pt  Pt19  1  0.500000  0.972317  0.696169  1
  Pt  Pt20  1  0.500000  0.472317  0.803831  1
  Pt  Pt21  1  0.500000  0.527683  0.196169  1
