# generated using pymatgen
data_Dy2LuMg3Si2Au
_symmetry_space_group_name_H-M   'P 1'
_cell_length_a   7.23123700
_cell_length_b   7.20076088
_cell_length_c   4.28126600
_cell_angle_alpha   90.00000000
_cell_angle_beta   90.00000000
_cell_angle_gamma   120.14010856
_symmetry_Int_Tables_number   1
_chemical_formula_structural   Dy2LuMg3Si2Au
_chemical_formula_sum   'Dy2 Lu1 Mg3 Si2 Au1'
_cell_volume   192.78753337
_cell_formula_units_Z   1
loop_
 _symmetry_equiv_pos_site_id
 _symmetry_equiv_pos_as_xyz
  1  'x, y, z'
loop_
 _atom_site_type_symbol
 _atom_site_label
 _atom_site_symmetry_multiplicity
 _atom_site_fract_x
 _atom_site_fract_y
 _atom_site_fract_z
 _atom_site_occupancy
  Dy  Dy0  1  0.001404  0.582603  0.000000  1
  Dy  Dy1  1  0.418801  0.417397  0.000000  1
  Lu  Lu2  1  0.583340  0.000000  0.000000  1
  Mg  Mg3  1  0.247997  0.000000  0.500000  1
  Mg  Mg4  1  0.998913  0.246143  0.500000  1
  Mg  Mg5  1  0.752770  0.753857  0.500000  1
  Si  Si6  1  0.335161  0.669759  0.500000  1
  Si  Si7  1  0.665402  0.330241  0.500000  1
  Au  Au8  1  0.996210  0.000000  0.000000  1
