# generated using pymatgen
data_Mn3(HgO4)2
_symmetry_space_group_name_H-M   'P 1'
_cell_length_a   6.30290425
_cell_length_b   6.30290413
_cell_length_c   5.08933028
_cell_angle_alpha   74.85861403
_cell_angle_beta   74.85861265
_cell_angle_gamma   56.44119760
_symmetry_Int_Tables_number   1
_chemical_formula_structural   Mn3(HgO4)2
_chemical_formula_sum   'Mn3 Hg2 O8'
_cell_volume   160.90898642
_cell_formula_units_Z   1
loop_
 _symmetry_equiv_pos_site_id
 _symmetry_equiv_pos_as_xyz
  1  'x, y, z'
loop_
 _atom_site_type_symbol
 _atom_site_label
 _atom_site_symmetry_multiplicity
 _atom_site_fract_x
 _atom_site_fract_y
 _atom_site_fract_z
 _atom_site_occupancy
  Mn  Mn0  1  0.000000  0.000000  0.500000  1
  Mn  Mn1  1  0.743981  0.256019  0.000000  1
  Mn  Mn2  1  0.256019  0.743981  0.000000  1
  Hg  Hg3  1  0.720273  0.720273  0.339406  1
  Hg  Hg4  1  0.279727  0.279727  0.660594  1
  O  O5  1  0.398954  0.398954  0.950008  1
  O  O6  1  0.601046  0.601046  0.049992  1
  O  O7  1  0.906781  0.906781  0.892671  1
  O  O8  1  0.093219  0.093219  0.107329  1
  O  O9  1  0.320921  0.879249  0.619902  1
  O  O10  1  0.879249  0.320921  0.619902  1
  O  O11  1  0.120751  0.679079  0.380098  1
  O  O12  1  0.679079  0.120751  0.380098  1
