# generated using pymatgen
data_Sr3LiSb2H
_symmetry_space_group_name_H-M   'P 1'
_cell_length_a   4.73101200
_cell_length_b   12.75466400
_cell_length_c   13.08305400
_cell_angle_alpha   90.00000000
_cell_angle_beta   90.00000000
_cell_angle_gamma   90.00000000
_symmetry_Int_Tables_number   1
_chemical_formula_structural   Sr3LiSb2H
_chemical_formula_sum   'Sr12 Li4 Sb8 H4'
_cell_volume   789.46377309
_cell_formula_units_Z   4
loop_
 _symmetry_equiv_pos_site_id
 _symmetry_equiv_pos_as_xyz
  1  'x, y, z'
loop_
 _atom_site_type_symbol
 _atom_site_label
 _atom_site_symmetry_multiplicity
 _atom_site_fract_x
 _atom_site_fract_y
 _atom_site_fract_z
 _atom_site_occupancy
  Sr  Sr0  1  0.250000  0.061958  0.623939  1
  Sr  Sr1  1  0.250000  0.561958  0.876061  1
  Sr  Sr2  1  0.750000  0.938042  0.376061  1
  Sr  Sr3  1  0.750000  0.438042  0.123939  1
  Sr  Sr4  1  0.250000  0.365769  0.562140  1
  Sr  Sr5  1  0.250000  0.865769  0.937860  1
  Sr  Sr6  1  0.750000  0.634231  0.437860  1
  Sr  Sr7  1  0.750000  0.134231  0.062140  1
  Sr  Sr8  1  0.250000  0.212547  0.292507  1
  Sr  Sr9  1  0.250000  0.712547  0.207493  1
  Sr  Sr10  1  0.750000  0.787453  0.707493  1
  Sr  Sr11  1  0.750000  0.287453  0.792507  1
  Li  Li12  1  0.250000  0.135179  0.859304  1
  Li  Li13  1  0.250000  0.635179  0.640696  1
  Li  Li14  1  0.750000  0.864821  0.140696  1
  Li  Li15  1  0.750000  0.364821  0.359304  1
  Sb  Sb16  1  0.250000  0.478219  0.323385  1
  Sb  Sb17  1  0.250000  0.978219  0.176615  1
  Sb  Sb18  1  0.750000  0.521781  0.676615  1
  Sb  Sb19  1  0.750000  0.021781  0.823385  1
  Sb  Sb20  1  0.250000  0.313002  0.986467  1
  Sb  Sb21  1  0.250000  0.813002  0.513533  1
  Sb  Sb22  1  0.750000  0.686998  0.013533  1
  Sb  Sb23  1  0.750000  0.186998  0.486467  1
  H  H24  1  0.250000  0.234751  0.723575  1
  H  H25  1  0.250000  0.734751  0.776425  1
  H  H26  1  0.750000  0.765249  0.276425  1
  H  H27  1  0.750000  0.265249  0.223575  1
