# generated using pymatgen
data_Zr3ScV4SiP3
_symmetry_space_group_name_H-M   'P 1'
_cell_length_a   3.50996600
_cell_length_b   6.70203240
_cell_length_c   7.98075346
_cell_angle_alpha   89.87119899
_cell_angle_beta   90.00000000
_cell_angle_gamma   90.00000000
_symmetry_Int_Tables_number   1
_chemical_formula_structural   Zr3ScV4SiP3
_chemical_formula_sum   'Zr3 Sc1 V4 Si1 P3'
_cell_volume   187.73801852
_cell_formula_units_Z   1
loop_
 _symmetry_equiv_pos_site_id
 _symmetry_equiv_pos_as_xyz
  1  'x, y, z'
loop_
 _atom_site_type_symbol
 _atom_site_label
 _atom_site_symmetry_multiplicity
 _atom_site_fract_x
 _atom_site_fract_y
 _atom_site_fract_z
 _atom_site_occupancy
  Zr  Zr0  1  0.750000  0.961458  0.165130  1
  Zr  Zr1  1  0.250000  0.539154  0.669169  1
  Zr  Zr2  1  0.750000  0.454364  0.331241  1
  Sc  Sc3  1  0.250000  0.040227  0.831927  1
  V  V4  1  0.750000  0.373199  0.942089  1
  V  V5  1  0.250000  0.625284  0.054395  1
  V  V6  1  0.750000  0.875714  0.560193  1
  V  V7  1  0.250000  0.130782  0.444139  1
  Si  Si8  1  0.250000  0.760995  0.364655  1
  P  P9  1  0.750000  0.237392  0.639734  1
  P  P10  1  0.250000  0.262289  0.133873  1
  P  P11  1  0.750000  0.739141  0.863455  1
