# generated using pymatgen
data_Zn(InBr2)2
_symmetry_space_group_name_H-M   'P 1'
_cell_length_a   7.64433600
_cell_length_b   7.34127057
_cell_length_c   9.34061228
_cell_angle_alpha   70.51406903
_cell_angle_beta   90.00000000
_cell_angle_gamma   90.00000000
_symmetry_Int_Tables_number   1
_chemical_formula_structural   Zn(InBr2)2
_chemical_formula_sum   'Zn2 In4 Br8'
_cell_volume   494.16347762
_cell_formula_units_Z   2
loop_
 _symmetry_equiv_pos_site_id
 _symmetry_equiv_pos_as_xyz
  1  'x, y, z'
loop_
 _atom_site_type_symbol
 _atom_site_label
 _atom_site_symmetry_multiplicity
 _atom_site_fract_x
 _atom_site_fract_y
 _atom_site_fract_z
 _atom_site_occupancy
  Zn  Zn0  1  0.750000  0.720855  0.207920  1
  Zn  Zn1  1  0.250000  0.279145  0.792080  1
  In  In2  1  0.750000  0.234668  0.570379  1
  In  In3  1  0.250000  0.765332  0.429621  1
  In  In4  1  0.750000  0.284852  0.045060  1
  In  In5  1  0.250000  0.715148  0.954940  1
  Br  Br6  1  0.750000  0.902757  0.936983  1
  Br  Br7  1  0.250000  0.097243  0.063017  1
  Br  Br8  1  0.750000  0.933366  0.359042  1
  Br  Br9  1  0.250000  0.066634  0.640958  1
  Br  Br10  1  0.000553  0.499867  0.275586  1
  Br  Br11  1  0.500553  0.500133  0.724414  1
  Br  Br12  1  0.999447  0.500133  0.724414  1
  Br  Br13  1  0.499447  0.499867  0.275586  1
