# generated using pymatgen
data_Ac3Dy2Bi3O14
_symmetry_space_group_name_H-M   'P 1'
_cell_length_a   6.72798252
_cell_length_b   6.81704167
_cell_length_c   7.90663800
_cell_angle_alpha   106.60522274
_cell_angle_beta   89.71451555
_cell_angle_gamma   98.61775465
_symmetry_Int_Tables_number   1
_chemical_formula_structural   Ac3Dy2Bi3O14
_chemical_formula_sum   'Ac3 Dy2 Bi3 O14'
_cell_volume   343.31667386
_cell_formula_units_Z   1
loop_
 _symmetry_equiv_pos_site_id
 _symmetry_equiv_pos_as_xyz
  1  'x, y, z'
loop_
 _atom_site_type_symbol
 _atom_site_label
 _atom_site_symmetry_multiplicity
 _atom_site_fract_x
 _atom_site_fract_y
 _atom_site_fract_z
 _atom_site_occupancy
  Ac  Ac0  1  0.269244  0.536190  0.883560  1
  Ac  Ac1  1  0.741079  0.460077  0.118374  1
  Ac  Ac2  1  0.758321  0.485764  0.616147  1
  Dy  Dy3  1  0.455591  0.009042  0.258543  1
  Dy  Dy4  1  0.535676  0.999897  0.745211  1
  Bi  Bi5  1  0.996464  0.998816  0.499292  1
  Bi  Bi6  1  0.998129  0.997102  0.998431  1
  Bi  Bi7  1  0.282478  0.541065  0.390493  1
  O  O8  1  0.444260  0.665257  0.185861  1
  O  O9  1  0.557575  0.340106  0.829256  1
  O  O10  1  0.302455  0.945844  0.952841  1
  O  O11  1  0.694492  0.048291  0.049431  1
  O  O12  1  0.297482  0.941633  0.519506  1
  O  O13  1  0.698829  0.065145  0.481563  1
  O  O14  1  0.526425  0.349963  0.342324  1
  O  O15  1  0.458232  0.655686  0.647927  1
  O  O16  1  0.925744  0.668884  0.937029  1
  O  O17  1  0.071660  0.318717  0.044652  1
  O  O18  1  0.076981  0.323606  0.612498  1
  O  O19  1  0.922646  0.672259  0.393749  1
  O  O20  1  0.873331  0.931490  0.732604  1
  O  O21  1  0.112902  0.045164  0.260708  1
