# generated using pymatgen
data_CeNd5TcTe2
_symmetry_space_group_name_H-M   'P 1'
_cell_length_a   8.65965200
_cell_length_b   8.63652221
_cell_length_c   4.05994600
_cell_angle_alpha   90.00000000
_cell_angle_beta   90.00000000
_cell_angle_gamma   119.91168309
_symmetry_Int_Tables_number   1
_chemical_formula_structural   CeNd5TcTe2
_chemical_formula_sum   'Ce1 Nd5 Tc1 Te2'
_cell_volume   263.19402815
_cell_formula_units_Z   1
loop_
 _symmetry_equiv_pos_site_id
 _symmetry_equiv_pos_as_xyz
  1  'x, y, z'
loop_
 _atom_site_type_symbol
 _atom_site_label
 _atom_site_symmetry_multiplicity
 _atom_site_fract_x
 _atom_site_fract_y
 _atom_site_fract_z
 _atom_site_occupancy
  Ce  Ce0  1  0.000000  0.773931  0.000000  1
  Nd  Nd1  1  0.000000  0.426566  0.500000  1
  Nd  Nd2  1  0.598313  0.596697  0.500000  1
  Nd  Nd3  1  0.401687  0.998384  0.500000  1
  Nd  Nd4  1  0.238679  0.244302  0.000000  1
  Nd  Nd5  1  0.761321  0.005624  0.000000  1
  Tc  Tc6  1  0.000000  0.952113  0.500000  1
  Te  Te7  1  0.338290  0.670338  0.000000  1
  Te  Te8  1  0.661710  0.332045  0.000000  1
