# generated using pymatgen
data_Na4DyP12Rh19
_symmetry_space_group_name_H-M   'P 1'
_cell_length_a   12.63095700
_cell_length_b   12.65312822
_cell_length_c   3.90896000
_cell_angle_alpha   90.00000000
_cell_angle_beta   90.00000000
_cell_angle_gamma   119.94205613
_symmetry_Int_Tables_number   1
_chemical_formula_structural   Na4DyP12Rh19
_chemical_formula_sum   'Na4 Dy1 P12 Rh19'
_cell_volume   541.35144959
_cell_formula_units_Z   1
loop_
 _symmetry_equiv_pos_site_id
 _symmetry_equiv_pos_as_xyz
  1  'x, y, z'
loop_
 _atom_site_type_symbol
 _atom_site_label
 _atom_site_symmetry_multiplicity
 _atom_site_fract_x
 _atom_site_fract_y
 _atom_site_fract_z
 _atom_site_occupancy
  Na  Na0  1  0.333651  0.668058  0.500000  1
  Na  Na1  1  0.665593  0.331942  0.500000  1
  Na  Na2  1  0.001203  0.818291  0.000000  1
  Na  Na3  1  0.182912  0.181709  0.000000  1
  Dy  Dy4  1  0.821882  0.000000  0.000000  1
  P  P5  1  0.999426  0.633911  0.500000  1
  P  P6  1  0.365516  0.366089  0.500000  1
  P  P7  1  0.635115  0.000000  0.500000  1
  P  P8  1  0.515948  0.684336  0.000000  1
  P  P9  1  0.314134  0.831323  0.000000  1
  P  P10  1  0.169067  0.484349  0.000000  1
  P  P11  1  0.482811  0.168677  0.000000  1
  P  P12  1  0.684717  0.515651  0.000000  1
  P  P13  1  0.831612  0.315664  0.000000  1
  P  P14  1  0.002474  0.182378  0.500000  1
  P  P15  1  0.820095  0.817622  0.500000  1
  P  P16  1  0.181909  0.000000  0.500000  1
  Rh  Rh17  1  0.513326  0.870771  0.000000  1
  Rh  Rh18  1  0.127283  0.641199  0.000000  1
  Rh  Rh19  1  0.357706  0.487590  0.000000  1
  Rh  Rh20  1  0.486086  0.358801  0.000000  1
  Rh  Rh21  1  0.870118  0.512410  0.000000  1
  Rh  Rh22  1  0.642556  0.129229  0.000000  1
  Rh  Rh23  1  0.995844  0.451571  0.500000  1
  Rh  Rh24  1  0.544273  0.548429  0.500000  1
  Rh  Rh25  1  0.454447  0.000000  0.500000  1
  Rh  Rh26  1  0.999534  0.283710  0.000000  1
  Rh  Rh27  1  0.715825  0.716290  0.000000  1
  Rh  Rh28  1  0.284452  0.000000  0.000000  1
  Rh  Rh29  1  0.625419  0.805266  0.500000  1
  Rh  Rh30  1  0.195563  0.818283  0.500000  1
  Rh  Rh31  1  0.181342  0.378106  0.500000  1
  Rh  Rh32  1  0.377280  0.181717  0.500000  1
  Rh  Rh33  1  0.803235  0.621894  0.500000  1
  Rh  Rh34  1  0.820152  0.194734  0.500000  1
  Rh  Rh35  1  0.997494  0.000000  0.500000  1
