# generated using pymatgen
data_YbDy2Pa3(Ni3Bi4)2
_symmetry_space_group_name_H-M   'P 1'
_cell_length_a   8.36586235
_cell_length_b   8.39433910
_cell_length_c   8.36586289
_cell_angle_alpha   109.49409496
_cell_angle_beta   109.19063642
_cell_angle_gamma   109.59082469
_symmetry_Int_Tables_number   1
_chemical_formula_structural   YbDy2Pa3(Ni3Bi4)2
_chemical_formula_sum   'Yb1 Dy2 Pa3 Ni6 Bi8'
_cell_volume   453.02249222
_cell_formula_units_Z   1
loop_
 _symmetry_equiv_pos_site_id
 _symmetry_equiv_pos_as_xyz
  1  'x, y, z'
loop_
 _atom_site_type_symbol
 _atom_site_label
 _atom_site_symmetry_multiplicity
 _atom_site_fract_x
 _atom_site_fract_y
 _atom_site_fract_z
 _atom_site_occupancy
  Yb  Yb0  1  0.627890  0.750000  0.377890  1
  Dy  Dy1  1  0.251921  0.126809  0.877894  1
  Dy  Dy2  1  0.751085  0.373191  0.625112  1
  Pa  Pa3  1  0.124423  0.878211  0.250587  1
  Pa  Pa4  1  0.372376  0.621789  0.746213  1
  Pa  Pa5  1  0.870809  0.250000  0.120809  1
  Ni  Ni6  1  0.644529  0.360727  0.238647  1
  Ni  Ni7  1  0.877920  0.139273  0.783802  1
  Ni  Ni8  1  0.368584  0.250000  0.618584  1
  Ni  Ni9  1  0.128878  0.750000  0.878878  1
  Ni  Ni10  1  0.232222  0.612747  0.369293  1
  Ni  Ni11  1  0.756545  0.887253  0.119476  1
  Bi  Bi12  1  0.340014  0.337062  0.333615  1
  Bi  Bi13  1  0.168168  0.503799  0.001021  1
  Bi  Bi14  1  0.996554  0.162938  0.502952  1
  Bi  Bi15  1  0.835523  0.831175  0.831677  1
  Bi  Bi16  1  0.497223  0.996201  0.164370  1
  Bi  Bi17  1  0.660884  0.503141  0.997087  1
  Bi  Bi18  1  0.493946  0.996859  0.657742  1
  Bi  Bi19  1  0.000502  0.668825  0.504349  1
