# generated using pymatgen
data_TmPa2F12
_symmetry_space_group_name_H-M   'P 1'
_cell_length_a   8.23102463
_cell_length_b   8.41176210
_cell_length_c   8.21311779
_cell_angle_alpha   63.09077758
_cell_angle_beta   64.20976799
_cell_angle_gamma   80.60008134
_symmetry_Int_Tables_number   1
_chemical_formula_structural   TmPa2F12
_chemical_formula_sum   'Tm2 Pa4 F24'
_cell_volume   456.17513192
_cell_formula_units_Z   2
loop_
 _symmetry_equiv_pos_site_id
 _symmetry_equiv_pos_as_xyz
  1  'x, y, z'
loop_
 _atom_site_type_symbol
 _atom_site_label
 _atom_site_symmetry_multiplicity
 _atom_site_fract_x
 _atom_site_fract_y
 _atom_site_fract_z
 _atom_site_occupancy
  Tm  Tm0  1  0.214097  0.370157  0.837635  1
  Tm  Tm1  1  0.785903  0.629843  0.162365  1
  Pa  Pa2  1  0.630684  0.766326  0.667239  1
  Pa  Pa3  1  0.369316  0.233674  0.332761  1
  Pa  Pa4  1  0.783621  0.207795  0.750276  1
  Pa  Pa5  1  0.216379  0.792205  0.249724  1
  F  F6  1  0.315414  0.260297  0.607444  1
  F  F7  1  0.684586  0.739703  0.392556  1
  F  F8  1  0.732223  0.681127  0.897747  1
  F  F9  1  0.267777  0.318873  0.102253  1
  F  F10  1  0.822856  0.934991  0.952198  1
  F  F11  1  0.177144  0.065009  0.047802  1
  F  F12  1  0.064708  0.170454  0.538414  1
  F  F13  1  0.935292  0.829546  0.461586  1
  F  F14  1  0.401224  0.596549  0.751268  1
  F  F15  1  0.598776  0.403451  0.248732  1
  F  F16  1  0.500000  0.000000  0.500000  1
  F  F17  1  0.000000  0.500000  0.000000  1
  F  F18  1  0.500707  0.252860  0.793214  1
  F  F19  1  0.499293  0.747140  0.206786  1
  F  F20  1  0.744921  0.493707  0.717863  1
  F  F21  1  0.255079  0.506293  0.282137  1
  F  F22  1  0.396249  0.813676  0.921223  1
  F  F23  1  0.603751  0.186324  0.078777  1
  F  F24  1  0.189482  0.600479  0.565190  1
  F  F25  1  0.810518  0.399521  0.434810  1
  F  F26  1  0.721352  0.025749  0.646327  1
  F  F27  1  0.278648  0.974251  0.353673  1
  F  F28  1  0.974857  0.273331  0.839284  1
  F  F29  1  0.025143  0.726669  0.160716  1
