# generated using pymatgen
data_Lu4Co16SiP11Ru4
_symmetry_space_group_name_H-M   'P 1'
_cell_length_a   3.67867300
_cell_length_b   10.36341833
_cell_length_c   11.72621563
_cell_angle_alpha   90.05925193
_cell_angle_beta   90.00000000
_cell_angle_gamma   90.00000000
_symmetry_Int_Tables_number   1
_chemical_formula_structural   Lu4Co16SiP11Ru4
_chemical_formula_sum   'Lu4 Co16 Si1 P11 Ru4'
_cell_volume   447.04563413
_cell_formula_units_Z   1
loop_
 _symmetry_equiv_pos_site_id
 _symmetry_equiv_pos_as_xyz
  1  'x, y, z'
loop_
 _atom_site_type_symbol
 _atom_site_label
 _atom_site_symmetry_multiplicity
 _atom_site_fract_x
 _atom_site_fract_y
 _atom_site_fract_z
 _atom_site_occupancy
  Lu  Lu0  1  0.250000  0.586631  0.702681  1
  Lu  Lu1  1  0.250000  0.913473  0.204364  1
  Lu  Lu2  1  0.750000  0.413997  0.297255  1
  Lu  Lu3  1  0.750000  0.086588  0.796403  1
  Co  Co4  1  0.250000  0.409342  0.488802  1
  Co  Co5  1  0.250000  0.090977  0.988475  1
  Co  Co6  1  0.750000  0.590866  0.511856  1
  Co  Co7  1  0.750000  0.909776  0.011576  1
  Co  Co8  1  0.250000  0.213431  0.178956  1
  Co  Co9  1  0.250000  0.278829  0.676968  1
  Co  Co10  1  0.750000  0.779481  0.822811  1
  Co  Co11  1  0.750000  0.721121  0.323585  1
  Co  Co12  1  0.250000  0.888787  0.703536  1
  Co  Co13  1  0.250000  0.613274  0.203109  1
  Co  Co14  1  0.750000  0.109580  0.298181  1
  Co  Co15  1  0.750000  0.387230  0.796511  1
  Co  Co16  1  0.250000  0.468235  0.924809  1
  Co  Co17  1  0.250000  0.034399  0.430792  1
  Co  Co18  1  0.750000  0.537837  0.066142  1
  Co  Co19  1  0.750000  0.965566  0.570740  1
  Si  Si20  1  0.250000  0.415583  0.110471  1
  P  P21  1  0.250000  0.080811  0.613290  1
  P  P22  1  0.750000  0.581290  0.884964  1
  P  P23  1  0.750000  0.918716  0.387999  1
  P  P24  1  0.250000  0.270807  0.867024  1
  P  P25  1  0.250000  0.229692  0.367204  1
  P  P26  1  0.750000  0.729791  0.134000  1
  P  P27  1  0.750000  0.770226  0.633185  1
  P  P28  1  0.250000  0.594316  0.389029  1
  P  P29  1  0.250000  0.906407  0.889469  1
  P  P30  1  0.750000  0.405727  0.610428  1
  P  P31  1  0.750000  0.094291  0.111455  1
  Ru  Ru32  1  0.250000  0.720214  0.994006  1
  Ru  Ru33  1  0.250000  0.781661  0.493583  1
  Ru  Ru34  1  0.750000  0.282872  0.009259  1
  Ru  Ru35  1  0.750000  0.218175  0.507082  1
