# generated using pymatgen
data_La3Tb(Tl2Br5)4
_symmetry_space_group_name_H-M   'P 1'
_cell_length_a   8.67069402
_cell_length_b   9.23661000
_cell_length_c   13.85817400
_cell_angle_alpha   90.00000000
_cell_angle_beta   89.53462123
_cell_angle_gamma   90.00000000
_symmetry_Int_Tables_number   1
_chemical_formula_structural   La3Tb(Tl2Br5)4
_chemical_formula_sum   'La3 Tb1 Tl8 Br20'
_cell_volume   1109.83432097
_cell_formula_units_Z   1
loop_
 _symmetry_equiv_pos_site_id
 _symmetry_equiv_pos_as_xyz
  1  'x, y, z'
loop_
 _atom_site_type_symbol
 _atom_site_label
 _atom_site_symmetry_multiplicity
 _atom_site_fract_x
 _atom_site_fract_y
 _atom_site_fract_z
 _atom_site_occupancy
  La  La0  1  0.924762  0.750000  0.505819  1
  La  La1  1  0.076776  0.250000  0.494310  1
  La  La2  1  0.426076  0.250000  0.993906  1
  Tb  Tb3  1  0.573314  0.750000  0.004212  1
  Tl  Tl4  1  0.945001  0.001705  0.829175  1
  Tl  Tl5  1  0.053196  0.995912  0.170898  1
  Tl  Tl6  1  0.446585  0.996317  0.674365  1
  Tl  Tl7  1  0.053196  0.504088  0.170898  1
  Tl  Tl8  1  0.553517  0.002561  0.325656  1
  Tl  Tl9  1  0.945001  0.498295  0.829175  1
  Tl  Tl10  1  0.553517  0.497439  0.325656  1
  Tl  Tl11  1  0.446585  0.503683  0.674365  1
  Br  Br12  1  0.124915  0.750000  0.682206  1
  Br  Br13  1  0.875133  0.250000  0.317562  1
  Br  Br14  1  0.626966  0.250000  0.816713  1
  Br  Br15  1  0.383674  0.750000  0.175235  1
  Br  Br16  1  0.832832  0.044869  0.578849  1
  Br  Br17  1  0.168540  0.955203  0.420808  1
  Br  Br18  1  0.336448  0.949266  0.926572  1
  Br  Br19  1  0.168540  0.544797  0.420808  1
  Br  Br20  1  0.663973  0.036946  0.073940  1
  Br  Br21  1  0.832832  0.455131  0.578849  1
  Br  Br22  1  0.663973  0.463054  0.073940  1
  Br  Br23  1  0.336448  0.550734  0.926572  1
  Br  Br24  1  0.574961  0.750000  0.508673  1
  Br  Br25  1  0.426100  0.250000  0.492795  1
  Br  Br26  1  0.077019  0.250000  0.991538  1
  Br  Br27  1  0.911895  0.750000  0.008489  1
  Br  Br28  1  0.657906  0.750000  0.802693  1
  Br  Br29  1  0.339221  0.250000  0.204324  1
  Br  Br30  1  0.161105  0.250000  0.704645  1
  Br  Br31  1  0.839997  0.750000  0.296355  1
