# generated using pymatgen
data_Yb8YLuIr4
_symmetry_space_group_name_H-M   'P 1'
_cell_length_a   8.50265517
_cell_length_b   8.50265518
_cell_length_c   7.33378881
_cell_angle_alpha   82.68257814
_cell_angle_beta   82.68257958
_cell_angle_gamma   44.79998346
_symmetry_Int_Tables_number   1
_chemical_formula_structural   Yb8YLuIr4
_chemical_formula_sum   'Yb8 Y1 Lu1 Ir4'
_cell_volume   370.03303438
_cell_formula_units_Z   1
loop_
 _symmetry_equiv_pos_site_id
 _symmetry_equiv_pos_as_xyz
  1  'x, y, z'
loop_
 _atom_site_type_symbol
 _atom_site_label
 _atom_site_symmetry_multiplicity
 _atom_site_fract_x
 _atom_site_fract_y
 _atom_site_fract_z
 _atom_site_occupancy
  Yb  Yb0  1  0.358991  0.204668  0.320575  1
  Yb  Yb1  1  0.200706  0.971137  0.079382  1
  Yb  Yb2  1  0.798044  0.030535  0.923287  1
  Yb  Yb3  1  0.969465  0.201956  0.576713  1
  Yb  Yb4  1  0.641947  0.795244  0.678679  1
  Yb  Yb5  1  0.204756  0.358053  0.821321  1
  Yb  Yb6  1  0.795332  0.641009  0.179425  1
  Yb  Yb7  1  0.028863  0.799294  0.420618  1
  Y  Y8  1  0.433572  0.566428  0.750000  1
  Lu  Lu9  1  0.563332  0.436668  0.250000  1
  Ir  Ir10  1  0.400741  0.810896  0.422651  1
  Ir  Ir11  1  0.189104  0.599259  0.077349  1
  Ir  Ir12  1  0.812338  0.397191  0.928728  1
  Ir  Ir13  1  0.602809  0.187662  0.571272  1
