# generated using pymatgen
data_Hf5ZrAl8Si8Ir7
_symmetry_space_group_name_H-M   'P 1'
_cell_length_a   8.58289429
_cell_length_b   8.57604882
_cell_length_c   8.57604973
_cell_angle_alpha   60.05280630
_cell_angle_beta   59.97359082
_cell_angle_gamma   59.97359221
_symmetry_Int_Tables_number   1
_chemical_formula_structural   Hf5ZrAl8Si8Ir7
_chemical_formula_sum   'Hf5 Zr1 Al8 Si8 Ir7'
_cell_volume   446.36765033
_cell_formula_units_Z   1
loop_
 _symmetry_equiv_pos_site_id
 _symmetry_equiv_pos_as_xyz
  1  'x, y, z'
loop_
 _atom_site_type_symbol
 _atom_site_label
 _atom_site_symmetry_multiplicity
 _atom_site_fract_x
 _atom_site_fract_y
 _atom_site_fract_z
 _atom_site_occupancy
  Hf  Hf0  1  0.309715  0.690285  0.690285  1
  Hf  Hf1  1  0.308448  0.691552  0.309314  1
  Hf  Hf2  1  0.690686  0.309314  0.691552  1
  Hf  Hf3  1  0.308448  0.309314  0.691552  1
  Hf  Hf4  1  0.690686  0.691552  0.309314  1
  Zr  Zr5  1  0.693153  0.306847  0.306847  1
  Al  Al6  1  0.120428  0.119924  0.119924  1
  Al  Al7  1  0.880046  0.880054  0.880054  1
  Al  Al8  1  0.119946  0.119954  0.640154  1
  Al  Al9  1  0.119946  0.640154  0.119954  1
  Al  Al10  1  0.880076  0.879572  0.360276  1
  Al  Al11  1  0.880076  0.360276  0.879572  1
  Al  Al12  1  0.639724  0.119924  0.119924  1
  Al  Al13  1  0.359846  0.880054  0.880054  1
  Si  Si14  1  0.341515  0.341972  0.341972  1
  Si  Si15  1  0.657817  0.658090  0.658090  1
  Si  Si16  1  0.341910  0.342183  0.973997  1
  Si  Si17  1  0.341910  0.973997  0.342183  1
  Si  Si18  1  0.658028  0.658485  0.025458  1
  Si  Si19  1  0.658028  0.025458  0.658485  1
  Si  Si20  1  0.974542  0.341972  0.341972  1
  Si  Si21  1  0.026003  0.658090  0.658090  1
  Ir  Ir22  1  0.499770  0.000230  0.000230  1
  Ir  Ir23  1  0.999770  0.500230  0.500230  1
  Ir  Ir24  1  0.000727  0.500874  0.999273  1
  Ir  Ir25  1  0.499126  0.999273  0.500874  1
  Ir  Ir26  1  0.000727  0.999273  0.500874  1
  Ir  Ir27  1  0.499126  0.500874  0.999273  1
  Ir  Ir28  1  0.999777  0.000223  0.000223  1
