# generated using pymatgen
data_Dy5Co17(Si6W)2
_symmetry_space_group_name_H-M   'P 1'
_cell_length_a   12.30239377
_cell_length_b   12.26344651
_cell_length_c   3.76591400
_cell_angle_alpha   90.00000000
_cell_angle_beta   90.00000000
_cell_angle_gamma   119.89532810
_symmetry_Int_Tables_number   1
_chemical_formula_structural   Dy5Co17(Si6W)2
_chemical_formula_sum   'Dy5 Co17 Si12 W2'
_cell_volume   492.56131272
_cell_formula_units_Z   1
loop_
 _symmetry_equiv_pos_site_id
 _symmetry_equiv_pos_as_xyz
  1  'x, y, z'
loop_
 _atom_site_type_symbol
 _atom_site_label
 _atom_site_symmetry_multiplicity
 _atom_site_fract_x
 _atom_site_fract_y
 _atom_site_fract_z
 _atom_site_occupancy
  Dy  Dy0  1  0.666136  0.331222  0.000000  1
  Dy  Dy1  1  0.333864  0.665087  0.000000  1
  Dy  Dy2  1  0.184659  0.184323  0.500000  1
  Dy  Dy3  1  0.815341  0.999663  0.500000  1
  Dy  Dy4  1  0.000000  0.811957  0.500000  1
  Co  Co5  1  0.000000  0.439695  0.000000  1
  Co  Co6  1  0.822143  0.200315  0.000000  1
  Co  Co7  1  0.804758  0.620808  0.000000  1
  Co  Co8  1  0.374636  0.179957  0.000000  1
  Co  Co9  1  0.195242  0.816050  0.000000  1
  Co  Co10  1  0.625364  0.805321  0.000000  1
  Co  Co11  1  0.177857  0.378173  0.000000  1
  Co  Co12  1  0.644110  0.125631  0.500000  1
  Co  Co13  1  0.879427  0.519157  0.500000  1
  Co  Co14  1  0.478489  0.358150  0.500000  1
  Co  Co15  1  0.120573  0.639730  0.500000  1
  Co  Co16  1  0.521511  0.879661  0.500000  1
  Co  Co17  1  0.355890  0.481521  0.500000  1
  Co  Co18  1  0.719248  0.716788  0.500000  1
  Co  Co19  1  0.280752  0.997540  0.500000  1
  Co  Co20  1  0.000000  0.283663  0.500000  1
  Co  Co21  1  0.000000  0.001615  0.000000  1
  Si  Si22  1  0.362338  0.366448  0.000000  1
  Si  Si23  1  0.637662  0.004110  0.000000  1
  Si  Si24  1  0.000000  0.625686  0.000000  1
  Si  Si25  1  0.838504  0.315310  0.500000  1
  Si  Si26  1  0.688273  0.518850  0.500000  1
  Si  Si27  1  0.476932  0.168053  0.500000  1
  Si  Si28  1  0.311727  0.830577  0.500000  1
  Si  Si29  1  0.523068  0.691121  0.500000  1
  Si  Si30  1  0.161496  0.476806  0.500000  1
  Si  Si31  1  0.817975  0.815994  0.000000  1
  Si  Si32  1  0.182025  0.998020  0.000000  1
  Si  Si33  1  0.000000  0.186575  0.000000  1
  W  W34  1  0.566749  0.566585  0.000000  1
  W  W35  1  0.433251  0.999835  0.000000  1
