# generated using pymatgen
data_Cr2SiRh5
_symmetry_space_group_name_H-M   'P 1'
_cell_length_a   3.95345200
_cell_length_b   5.31642500
_cell_length_c   10.42313600
_cell_angle_alpha   90.00000000
_cell_angle_beta   90.00000000
_cell_angle_gamma   90.00000000
_symmetry_Int_Tables_number   1
_chemical_formula_structural   Cr2SiRh5
_chemical_formula_sum   'Cr4 Si2 Rh10'
_cell_volume   219.07588070
_cell_formula_units_Z   2
loop_
 _symmetry_equiv_pos_site_id
 _symmetry_equiv_pos_as_xyz
  1  'x, y, z'
loop_
 _atom_site_type_symbol
 _atom_site_label
 _atom_site_symmetry_multiplicity
 _atom_site_fract_x
 _atom_site_fract_y
 _atom_site_fract_z
 _atom_site_occupancy
  Cr  Cr0  1  0.500000  0.169237  0.643205  1
  Cr  Cr1  1  0.500000  0.830763  0.356795  1
  Cr  Cr2  1  0.500000  0.669237  0.856795  1
  Cr  Cr3  1  0.500000  0.330763  0.143205  1
  Si  Si4  1  0.000000  0.500000  0.500000  1
  Si  Si5  1  0.000000  0.000000  0.000000  1
  Rh  Rh6  1  0.500000  0.319015  0.396075  1
  Rh  Rh7  1  0.500000  0.680985  0.603925  1
  Rh  Rh8  1  0.500000  0.819015  0.103925  1
  Rh  Rh9  1  0.500000  0.180985  0.896075  1
  Rh  Rh10  1  0.000000  0.421553  0.737976  1
  Rh  Rh11  1  0.000000  0.578447  0.262024  1
  Rh  Rh12  1  0.000000  0.921553  0.762024  1
  Rh  Rh13  1  0.000000  0.078447  0.237976  1
  Rh  Rh14  1  0.000000  0.500000  0.000000  1
  Rh  Rh15  1  0.000000  0.000000  0.500000  1
