# generated using pymatgen
data_Lu4Co3Os4Ru
_symmetry_space_group_name_H-M   'P 1'
_cell_length_a   5.15478901
_cell_length_b   5.14211913
_cell_length_c   8.65879000
_cell_angle_alpha   90.00000000
_cell_angle_beta   90.00381246
_cell_angle_gamma   119.91871162
_symmetry_Int_Tables_number   1
_chemical_formula_structural   Lu4Co3Os4Ru
_chemical_formula_sum   'Lu4 Co3 Os4 Ru1'
_cell_volume   198.92804761
_cell_formula_units_Z   1
loop_
 _symmetry_equiv_pos_site_id
 _symmetry_equiv_pos_as_xyz
  1  'x, y, z'
loop_
 _atom_site_type_symbol
 _atom_site_label
 _atom_site_symmetry_multiplicity
 _atom_site_fract_x
 _atom_site_fract_y
 _atom_site_fract_z
 _atom_site_occupancy
  Lu  Lu0  1  0.327249  0.663625  0.437227  1
  Lu  Lu1  1  0.661032  0.330516  0.567398  1
  Lu  Lu2  1  0.660733  0.330367  0.932976  1
  Lu  Lu3  1  0.326457  0.663229  0.062888  1
  Co  Co4  1  0.186329  0.351784  0.747971  1
  Co  Co5  1  0.186329  0.834548  0.747971  1
  Co  Co6  1  0.344874  0.172436  0.252267  1
  Os  Os7  1  0.830890  0.659083  0.250556  1
  Os  Os8  1  0.669426  0.834713  0.749558  1
  Os  Os9  1  0.830890  0.171805  0.250556  1
  Os  Os10  1  0.989200  0.994600  0.505747  1
  Ru  Ru11  1  0.986590  0.993295  0.994884  1
