# generated using pymatgen
data_Er6NbZn22Se
_symmetry_space_group_name_H-M   'P 1'
_cell_length_a   9.03972122
_cell_length_b   9.03972111
_cell_length_c   9.03972200
_cell_angle_alpha   59.99999673
_cell_angle_beta   59.99999716
_cell_angle_gamma   59.99999557
_symmetry_Int_Tables_number   1
_chemical_formula_structural   Er6NbZn22Se
_chemical_formula_sum   'Er6 Nb1 Zn22 Se1'
_cell_volume   522.33618375
_cell_formula_units_Z   1
loop_
 _symmetry_equiv_pos_site_id
 _symmetry_equiv_pos_as_xyz
  1  'x, y, z'
loop_
 _atom_site_type_symbol
 _atom_site_label
 _atom_site_symmetry_multiplicity
 _atom_site_fract_x
 _atom_site_fract_y
 _atom_site_fract_z
 _atom_site_occupancy
  Er  Er0  1  0.716970  0.283030  0.283030  1
  Er  Er1  1  0.716970  0.283030  0.716970  1
  Er  Er2  1  0.716970  0.716970  0.283030  1
  Er  Er3  1  0.283030  0.716970  0.716970  1
  Er  Er4  1  0.283030  0.716970  0.283030  1
  Er  Er5  1  0.283030  0.283030  0.716970  1
  Nb  Nb6  1  0.000000  0.000000  0.000000  1
  Zn  Zn7  1  0.627585  0.124139  0.124139  1
  Zn  Zn8  1  0.124139  0.627585  0.124139  1
  Zn  Zn9  1  0.124139  0.124139  0.627585  1
  Zn  Zn10  1  0.124139  0.124139  0.124139  1
  Zn  Zn11  1  0.372415  0.875861  0.875861  1
  Zn  Zn12  1  0.875861  0.372415  0.875861  1
  Zn  Zn13  1  0.875861  0.875861  0.372415  1
  Zn  Zn14  1  0.875861  0.875861  0.875861  1
  Zn  Zn15  1  0.500000  0.000000  0.000000  1
  Zn  Zn16  1  0.500000  0.000000  0.500000  1
  Zn  Zn17  1  0.500000  0.500000  0.000000  1
  Zn  Zn18  1  0.000000  0.500000  0.500000  1
  Zn  Zn19  1  0.000000  0.500000  0.000000  1
  Zn  Zn20  1  0.000000  0.000000  0.500000  1
  Zn  Zn21  1  0.011440  0.329520  0.329520  1
  Zn  Zn22  1  0.329520  0.011440  0.329520  1
  Zn  Zn23  1  0.329520  0.329520  0.011440  1
  Zn  Zn24  1  0.329520  0.329520  0.329520  1
  Zn  Zn25  1  0.988560  0.670480  0.670480  1
  Zn  Zn26  1  0.670480  0.988560  0.670480  1
  Zn  Zn27  1  0.670480  0.670480  0.988560  1
  Zn  Zn28  1  0.670480  0.670480  0.670480  1
  Se  Se29  1  0.500000  0.500000  0.500000  1
