# generated using pymatgen
data_Sr3Al10PdO20
_symmetry_space_group_name_H-M   'P 1'
_cell_length_a   9.58231810
_cell_length_b   9.58231766
_cell_length_c   5.07378600
_cell_angle_alpha   74.74781009
_cell_angle_beta   74.74781701
_cell_angle_gamma   72.85125905
_symmetry_Int_Tables_number   1
_chemical_formula_structural   Sr3Al10PdO20
_chemical_formula_sum   'Sr3 Al10 Pd1 O20'
_cell_volume   420.70268478
_cell_formula_units_Z   1
loop_
 _symmetry_equiv_pos_site_id
 _symmetry_equiv_pos_as_xyz
  1  'x, y, z'
loop_
 _atom_site_type_symbol
 _atom_site_label
 _atom_site_symmetry_multiplicity
 _atom_site_fract_x
 _atom_site_fract_y
 _atom_site_fract_z
 _atom_site_occupancy
  Sr  Sr0  1  0.000000  0.000000  0.000000  1
  Sr  Sr1  1  0.272873  0.272873  0.708344  1
  Sr  Sr2  1  0.727127  0.727127  0.291656  1
  Al  Al3  1  0.853724  0.420843  0.831695  1
  Al  Al4  1  0.579157  0.146276  0.168305  1
  Al  Al5  1  0.146276  0.579157  0.168305  1
  Al  Al6  1  0.420843  0.853724  0.831695  1
  Al  Al7  1  0.365453  0.634547  0.500000  1
  Al  Al8  1  0.634547  0.365453  0.500000  1
  Al  Al9  1  0.992789  0.718341  0.657998  1
  Al  Al10  1  0.281659  0.007211  0.342002  1
  Al  Al11  1  0.007211  0.281659  0.342002  1
  Al  Al12  1  0.718341  0.992789  0.657998  1
  Pd  Pd13  1  0.500000  0.500000  0.000000  1
  O  O14  1  0.552716  0.301567  0.882671  1
  O  O15  1  0.698433  0.447284  0.117329  1
  O  O16  1  0.447284  0.698433  0.117329  1
  O  O17  1  0.301567  0.552716  0.882671  1
  O  O18  1  0.715104  0.005937  0.003252  1
  O  O19  1  0.994063  0.284896  0.996748  1
  O  O20  1  0.284896  0.994063  0.996748  1
  O  O21  1  0.005937  0.715104  0.003252  1
  O  O22  1  0.433169  0.433169  0.411702  1
  O  O23  1  0.566831  0.566831  0.588298  1
  O  O24  1  0.899609  0.899609  0.511391  1
  O  O25  1  0.100391  0.100391  0.488609  1
  O  O26  1  0.882184  0.598596  0.673005  1
  O  O27  1  0.401404  0.117816  0.326995  1
  O  O28  1  0.117816  0.401404  0.326995  1
  O  O29  1  0.598596  0.882184  0.673005  1
  O  O30  1  0.169774  0.662496  0.430219  1
  O  O31  1  0.337504  0.830226  0.569781  1
  O  O32  1  0.830226  0.337504  0.569781  1
  O  O33  1  0.662496  0.169774  0.430219  1
