# generated using pymatgen
data_Tb9Lu3Ga2(NiOs)2
_symmetry_space_group_name_H-M   'P 1'
_cell_length_a   8.33539749
_cell_length_b   8.34578541
_cell_length_c   8.33539788
_cell_angle_alpha   113.00379663
_cell_angle_beta   110.26280122
_cell_angle_gamma   105.19277337
_symmetry_Int_Tables_number   1
_chemical_formula_structural   Tb9Lu3Ga2(NiOs)2
_chemical_formula_sum   'Tb9 Lu3 Ga2 Ni2 Os2'
_cell_volume   444.53513103
_cell_formula_units_Z   1
loop_
 _symmetry_equiv_pos_site_id
 _symmetry_equiv_pos_as_xyz
  1  'x, y, z'
loop_
 _atom_site_type_symbol
 _atom_site_label
 _atom_site_symmetry_multiplicity
 _atom_site_fract_x
 _atom_site_fract_y
 _atom_site_fract_z
 _atom_site_occupancy
  Tb  Tb0  1  0.436698  0.242030  0.192236  1
  Tb  Tb1  1  0.566200  0.758054  0.810464  1
  Tb  Tb2  1  0.049794  0.242030  0.805332  1
  Tb  Tb3  1  0.947590  0.758054  0.191853  1
  Tb  Tb4  1  0.180752  0.278287  0.459795  1
  Tb  Tb5  1  0.821611  0.723219  0.543193  1
  Tb  Tb6  1  0.180026  0.723219  0.901609  1
  Tb  Tb7  1  0.818492  0.278287  0.097534  1
  Tb  Tb8  1  0.330784  0.643522  0.312738  1
  Lu  Lu9  1  0.667505  0.350787  0.683281  1
  Lu  Lu10  1  0.332082  0.015045  0.682964  1
  Lu  Lu11  1  0.668445  0.986062  0.317616  1
  Ga  Ga12  1  0.500595  0.498062  0.997467  1
  Ga  Ga13  1  0.001275  0.002150  0.000875  1
  Ni  Ni14  1  0.116919  0.618086  0.501167  1
  Ni  Ni15  1  0.880359  0.380736  0.500377  1
  Os  Os16  1  0.331323  0.001186  0.331636  1
  Os  Os17  1  0.669551  0.001186  0.669863  1
