# generated using pymatgen
data_Tb3DyTa4(Fe4P3)4
_symmetry_space_group_name_H-M   'P 1'
_cell_length_a   3.68030000
_cell_length_b   10.47133012
_cell_length_c   12.37198914
_cell_angle_alpha   90.01704440
_cell_angle_beta   90.00000000
_cell_angle_gamma   90.00000000
_symmetry_Int_Tables_number   1
_chemical_formula_structural   Tb3DyTa4(Fe4P3)4
_chemical_formula_sum   'Tb3 Dy1 Ta4 Fe16 P12'
_cell_volume   476.78719564
_cell_formula_units_Z   1
loop_
 _symmetry_equiv_pos_site_id
 _symmetry_equiv_pos_as_xyz
  1  'x, y, z'
loop_
 _atom_site_type_symbol
 _atom_site_label
 _atom_site_symmetry_multiplicity
 _atom_site_fract_x
 _atom_site_fract_y
 _atom_site_fract_z
 _atom_site_occupancy
  Tb  Tb0  1  0.250000  0.583810  0.713237  1
  Tb  Tb1  1  0.250000  0.916028  0.213057  1
  Tb  Tb2  1  0.750000  0.416458  0.286779  1
  Dy  Dy3  1  0.750000  0.083633  0.786772  1
  Ta  Ta4  1  0.250000  0.703534  0.992531  1
  Ta  Ta5  1  0.250000  0.796665  0.492685  1
  Ta  Ta6  1  0.750000  0.296530  0.007245  1
  Ta  Ta7  1  0.750000  0.203243  0.507476  1
  Fe  Fe8  1  0.250000  0.417256  0.491770  1
  Fe  Fe9  1  0.250000  0.082742  0.991474  1
  Fe  Fe10  1  0.750000  0.582780  0.508195  1
  Fe  Fe11  1  0.750000  0.917402  0.007992  1
  Fe  Fe12  1  0.250000  0.216010  0.170041  1
  Fe  Fe13  1  0.250000  0.283731  0.670272  1
  Fe  Fe14  1  0.750000  0.784164  0.829913  1
  Fe  Fe15  1  0.750000  0.716016  0.329816  1
  Fe  Fe16  1  0.250000  0.879803  0.697726  1
  Fe  Fe17  1  0.250000  0.620532  0.197505  1
  Fe  Fe18  1  0.750000  0.120541  0.302433  1
  Fe  Fe19  1  0.750000  0.379205  0.802503  1
  Fe  Fe20  1  0.250000  0.463990  0.934201  1
  Fe  Fe21  1  0.250000  0.035867  0.434368  1
  Fe  Fe22  1  0.750000  0.535905  0.065740  1
  Fe  Fe23  1  0.750000  0.964226  0.565989  1
  P  P24  1  0.250000  0.424687  0.112576  1
  P  P25  1  0.250000  0.075392  0.613032  1
  P  P26  1  0.750000  0.575259  0.887384  1
  P  P27  1  0.750000  0.924659  0.387394  1
  P  P28  1  0.250000  0.274443  0.854072  1
  P  P29  1  0.250000  0.225076  0.354227  1
  P  P30  1  0.750000  0.724915  0.145888  1
  P  P31  1  0.750000  0.775004  0.645897  1
  P  P32  1  0.250000  0.597736  0.376119  1
  P  P33  1  0.250000  0.902813  0.876124  1
  P  P34  1  0.750000  0.402372  0.623875  1
  P  P35  1  0.750000  0.097572  0.123691  1
