# generated using pymatgen
data_LaCe2Sn3IrRh2
_symmetry_space_group_name_H-M   'P 1'
_cell_length_a   7.57106553
_cell_length_b   7.52760474
_cell_length_c   4.09523700
_cell_angle_alpha   90.00000000
_cell_angle_beta   90.00000000
_cell_angle_gamma   119.89239674
_symmetry_Int_Tables_number   1
_chemical_formula_structural   LaCe2Sn3IrRh2
_chemical_formula_sum   'La1 Ce2 Sn3 Ir1 Rh2'
_cell_volume   202.34541201
_cell_formula_units_Z   1
loop_
 _symmetry_equiv_pos_site_id
 _symmetry_equiv_pos_as_xyz
  1  'x, y, z'
loop_
 _atom_site_type_symbol
 _atom_site_label
 _atom_site_symmetry_multiplicity
 _atom_site_fract_x
 _atom_site_fract_y
 _atom_site_fract_z
 _atom_site_occupancy
  La  La0  1  0.999246  0.413175  0.000000  1
  Ce  Ce1  1  0.586199  0.584554  0.000000  1
  Ce  Ce2  1  0.415291  0.001668  0.000000  1
  Sn  Sn3  1  0.251016  0.251447  0.500000  1
  Sn  Sn4  1  0.000486  0.748530  0.500000  1
  Sn  Sn5  1  0.748174  0.999330  0.500000  1
  Ir  Ir6  1  0.653359  0.330616  0.500000  1
  Rh  Rh7  1  0.346166  0.677098  0.500000  1
  Rh  Rh8  1  0.000063  0.993579  0.000000  1
