# generated using pymatgen
data_YEr11InCo4Ru
_symmetry_space_group_name_H-M   'P 1'
_cell_length_a   8.22874113
_cell_length_b   8.22874117
_cell_length_c   8.21941654
_cell_angle_alpha   111.19173152
_cell_angle_beta   110.81719956
_cell_angle_gamma   106.49518928
_symmetry_Int_Tables_number   1
_chemical_formula_structural   YEr11InCo4Ru
_chemical_formula_sum   'Y1 Er11 In1 Co4 Ru1'
_cell_volume   427.29912292
_cell_formula_units_Z   1
loop_
 _symmetry_equiv_pos_site_id
 _symmetry_equiv_pos_as_xyz
  1  'x, y, z'
loop_
 _atom_site_type_symbol
 _atom_site_label
 _atom_site_symmetry_multiplicity
 _atom_site_fract_x
 _atom_site_fract_y
 _atom_site_fract_z
 _atom_site_occupancy
  Y  Y0  1  0.185871  0.284013  0.469883  1
  Er  Er1  1  0.816007  0.716405  0.532412  1
  Er  Er2  1  0.183983  0.716507  0.900491  1
  Er  Er3  1  0.815396  0.283940  0.099336  1
  Er  Er4  1  0.314068  0.620520  0.305736  1
  Er  Er5  1  0.686894  0.380077  0.694367  1
  Er  Er6  1  0.314289  0.007472  0.694367  1
  Er  Er7  1  0.685216  0.991668  0.305736  1
  Er  Er8  1  0.413170  0.218641  0.193092  1
  Er  Er9  1  0.588173  0.782128  0.807090  1
  Er  Er10  1  0.024962  0.218917  0.807090  1
  Er  Er11  1  0.974451  0.779922  0.193092  1
  In  In12  1  0.500002  0.499995  0.999997  1
  Co  Co13  1  0.110540  0.612923  0.499897  1
  Co  Co14  1  0.886975  0.389357  0.499897  1
  Co  Co15  1  0.376769  0.999326  0.376095  1
  Co  Co16  1  0.623692  0.999932  0.623624  1
  Ru  Ru17  1  0.999541  0.998257  0.997798  1
