# generated using pymatgen
data_NdSmY6(WO6)4
_symmetry_space_group_name_H-M   'P 1'
_cell_length_a   5.45011000
_cell_length_b   7.77526682
_cell_length_c   11.56305303
_cell_angle_alpha   75.56172612
_cell_angle_beta   90.00000000
_cell_angle_gamma   90.00000000
_symmetry_Int_Tables_number   1
_chemical_formula_structural   NdSmY6(WO6)4
_chemical_formula_sum   'Nd1 Sm1 Y6 W4 O24'
_cell_volume   474.52097047
_cell_formula_units_Z   1
loop_
 _symmetry_equiv_pos_site_id
 _symmetry_equiv_pos_as_xyz
  1  'x, y, z'
loop_
 _atom_site_type_symbol
 _atom_site_label
 _atom_site_symmetry_multiplicity
 _atom_site_fract_x
 _atom_site_fract_y
 _atom_site_fract_z
 _atom_site_occupancy
  Nd  Nd0  1  0.684582  0.500000  0.750000  1
  Sm  Sm1  1  0.316089  0.500000  0.250000  1
  Y  Y2  1  0.741106  0.000000  0.750000  1
  Y  Y3  1  0.259726  0.000000  0.250000  1
  Y  Y4  1  0.186562  0.796565  0.576755  1
  Y  Y5  1  0.813961  0.795586  0.077586  1
  Y  Y6  1  0.186562  0.203435  0.923245  1
  Y  Y7  1  0.813961  0.204414  0.422414  1
  W  W8  1  0.253911  0.726652  0.885229  1
  W  W9  1  0.746037  0.725987  0.384196  1
  W  W10  1  0.253911  0.273348  0.614771  1
  W  W11  1  0.746037  0.274013  0.115804  1
  O  O12  1  0.042868  0.940019  0.896249  1
  O  O13  1  0.532065  0.846631  0.930564  1
  O  O14  1  0.956563  0.940512  0.394870  1
  O  O15  1  0.455292  0.793330  0.728002  1
  O  O16  1  0.468978  0.846900  0.430250  1
  O  O17  1  0.985530  0.717122  0.770933  1
  O  O18  1  0.543461  0.791917  0.227737  1
  O  O19  1  0.852234  0.639339  0.545279  1
  O  O20  1  0.350720  0.492975  0.887596  1
  O  O21  1  0.016276  0.714054  0.271378  1
  O  O22  1  0.350720  0.507025  0.612404  1
  O  O23  1  0.852234  0.360661  0.954721  1
  O  O24  1  0.149586  0.639727  0.047015  1
  O  O25  1  0.645206  0.492993  0.386443  1
  O  O26  1  0.985530  0.282878  0.729067  1
  O  O27  1  0.645206  0.507007  0.113557  1
  O  O28  1  0.149586  0.360273  0.452985  1
  O  O29  1  0.455292  0.206670  0.771998  1
  O  O30  1  0.016276  0.285946  0.228622  1
  O  O31  1  0.532065  0.153369  0.569436  1
  O  O32  1  0.543461  0.208083  0.272263  1
  O  O33  1  0.042868  0.059981  0.603751  1
  O  O34  1  0.468978  0.153100  0.069750  1
  O  O35  1  0.956563  0.059488  0.105130  1
