# generated using pymatgen
data_TbDy7Tc3B24Os
_symmetry_space_group_name_H-M   'P 1'
_cell_length_a   3.68343700
_cell_length_b   9.17403523
_cell_length_c   11.56549300
_cell_angle_alpha   89.95292727
_cell_angle_beta   90.00000000
_cell_angle_gamma   90.00000000
_symmetry_Int_Tables_number   1
_chemical_formula_structural   TbDy7Tc3B24Os
_chemical_formula_sum   'Tb1 Dy7 Tc3 B24 Os1'
_cell_volume   390.82078550
_cell_formula_units_Z   1
loop_
 _symmetry_equiv_pos_site_id
 _symmetry_equiv_pos_as_xyz
  1  'x, y, z'
loop_
 _atom_site_type_symbol
 _atom_site_label
 _atom_site_symmetry_multiplicity
 _atom_site_fract_x
 _atom_site_fract_y
 _atom_site_fract_z
 _atom_site_occupancy
  Tb  Tb0  1  0.000000  0.323731  0.413908  1
  Dy  Dy1  1  0.000000  0.675363  0.584383  1
  Dy  Dy2  1  0.000000  0.823069  0.087175  1
  Dy  Dy3  1  0.000000  0.177830  0.914565  1
  Dy  Dy4  1  0.000000  0.942392  0.369953  1
  Dy  Dy5  1  0.000000  0.058433  0.630156  1
  Dy  Dy6  1  0.000000  0.442649  0.130241  1
  Dy  Dy7  1  0.000000  0.557140  0.869331  1
  Tc  Tc8  1  0.000000  0.638417  0.320649  1
  Tc  Tc9  1  0.000000  0.361780  0.679978  1
  Tc  Tc10  1  0.000000  0.137668  0.178103  1
  B  B11  1  0.500000  0.553298  0.432843  1
  B  B12  1  0.500000  0.446919  0.567104  1
  B  B13  1  0.500000  0.053119  0.067032  1
  B  B14  1  0.500000  0.946280  0.932835  1
  B  B15  1  0.500000  0.748240  0.418572  1
  B  B16  1  0.500000  0.251531  0.581742  1
  B  B17  1  0.500000  0.248671  0.081492  1
  B  B18  1  0.500000  0.751674  0.918225  1
  B  B19  1  0.500000  0.791318  0.265582  1
  B  B20  1  0.500000  0.208978  0.734936  1
  B  B21  1  0.500000  0.291050  0.234397  1
  B  B22  1  0.500000  0.709501  0.765420  1
  B  B23  1  0.500000  0.631089  0.185773  1
  B  B24  1  0.500000  0.368891  0.814649  1
  B  B25  1  0.500000  0.130453  0.313719  1
  B  B26  1  0.500000  0.868956  0.685978  1
  B  B27  1  0.500000  0.982086  0.211660  1
  B  B28  1  0.500000  0.016768  0.788333  1
  B  B29  1  0.500000  0.482621  0.288026  1
  B  B30  1  0.500000  0.517359  0.711681  1
  B  B31  1  0.500000  0.602074  0.028201  1
  B  B32  1  0.500000  0.398897  0.971623  1
  B  B33  1  0.500000  0.101641  0.471781  1
  B  B34  1  0.500000  0.898142  0.528739  1
  Os  Os35  1  0.000000  0.861970  0.821220  1
