# generated using pymatgen
data_Tb2Y2Mn(Ga8Co)2
_symmetry_space_group_name_H-M   'P 1'
_cell_length_a   6.06505800
_cell_length_b   6.06505800
_cell_length_c   11.18986500
_cell_angle_alpha   90.00000000
_cell_angle_beta   90.00000000
_cell_angle_gamma   90.00000000
_symmetry_Int_Tables_number   1
_chemical_formula_structural   Tb2Y2Mn(Ga8Co)2
_chemical_formula_sum   'Tb2 Y2 Mn1 Ga16 Co2'
_cell_volume   411.61838443
_cell_formula_units_Z   1
loop_
 _symmetry_equiv_pos_site_id
 _symmetry_equiv_pos_as_xyz
  1  'x, y, z'
loop_
 _atom_site_type_symbol
 _atom_site_label
 _atom_site_symmetry_multiplicity
 _atom_site_fract_x
 _atom_site_fract_y
 _atom_site_fract_z
 _atom_site_occupancy
  Tb  Tb0  1  0.500000  0.000000  0.193806  1
  Tb  Tb1  1  0.000000  0.500000  0.193806  1
  Y  Y2  1  0.500000  0.000000  0.806202  1
  Y  Y3  1  0.000000  0.500000  0.806202  1
  Mn  Mn4  1  0.000000  0.000000  0.999976  1
  Ga  Ga5  1  0.249475  0.249475  0.614528  1
  Ga  Ga6  1  0.750525  0.750525  0.614528  1
  Ga  Ga7  1  0.750525  0.249475  0.614528  1
  Ga  Ga8  1  0.249475  0.750525  0.614528  1
  Ga  Ga9  1  0.750532  0.750532  0.385461  1
  Ga  Ga10  1  0.249468  0.249468  0.385461  1
  Ga  Ga11  1  0.249468  0.750532  0.385461  1
  Ga  Ga12  1  0.750532  0.249468  0.385461  1
  Ga  Ga13  1  0.283354  0.283354  0.999969  1
  Ga  Ga14  1  0.716646  0.716646  0.999969  1
  Ga  Ga15  1  0.716646  0.283354  0.999969  1
  Ga  Ga16  1  0.283354  0.716646  0.999969  1
  Ga  Ga17  1  0.500000  0.500000  0.804127  1
  Ga  Ga18  1  0.500000  0.500000  0.195898  1
  Ga  Ga19  1  0.000000  0.000000  0.779505  1
  Ga  Ga20  1  0.000000  0.000000  0.220554  1
  Co  Co21  1  0.500000  0.000000  0.500045  1
  Co  Co22  1  0.000000  0.500000  0.500045  1
