# generated using pymatgen
data_Cs6GaBi3
_symmetry_space_group_name_H-M   'P 1'
_cell_length_a   6.59147000
_cell_length_b   11.47174641
_cell_length_c   13.60505373
_cell_angle_alpha   78.48406238
_cell_angle_beta   90.00000000
_cell_angle_gamma   90.00000000
_symmetry_Int_Tables_number   1
_chemical_formula_structural   Cs6GaBi3
_chemical_formula_sum   'Cs12 Ga2 Bi6'
_cell_volume   1008.04562789
_cell_formula_units_Z   2
loop_
 _symmetry_equiv_pos_site_id
 _symmetry_equiv_pos_as_xyz
  1  'x, y, z'
loop_
 _atom_site_type_symbol
 _atom_site_label
 _atom_site_symmetry_multiplicity
 _atom_site_fract_x
 _atom_site_fract_y
 _atom_site_fract_z
 _atom_site_occupancy
  Cs  Cs0  1  0.750000  0.454143  0.081232  1
  Cs  Cs1  1  0.250000  0.545857  0.918768  1
  Cs  Cs2  1  0.750000  0.740202  0.231309  1
  Cs  Cs3  1  0.250000  0.259798  0.768691  1
  Cs  Cs4  1  0.250000  0.563026  0.544725  1
  Cs  Cs5  1  0.750000  0.436974  0.455275  1
  Cs  Cs6  1  0.250000  0.863584  0.020733  1
  Cs  Cs7  1  0.750000  0.136416  0.979267  1
  Cs  Cs8  1  0.250000  0.870866  0.677624  1
  Cs  Cs9  1  0.750000  0.129134  0.322376  1
  Cs  Cs10  1  0.250000  0.918571  0.371394  1
  Cs  Cs11  1  0.750000  0.081429  0.628606  1
  Ga  Ga12  1  0.750000  0.679738  0.718870  1
  Ga  Ga13  1  0.250000  0.320262  0.281130  1
  Bi  Bi14  1  0.250000  0.214377  0.482741  1
  Bi  Bi15  1  0.750000  0.785623  0.517259  1
  Bi  Bi16  1  0.250000  0.564710  0.228868  1
  Bi  Bi17  1  0.750000  0.435290  0.771132  1
  Bi  Bi18  1  0.750000  0.816493  0.870703  1
  Bi  Bi19  1  0.250000  0.183507  0.129297  1
