# generated using pymatgen
data_Tb3Dy13(TmSn4)4
_symmetry_space_group_name_H-M   'P 1'
_cell_length_a   8.00596903
_cell_length_b   8.15944201
_cell_length_c   15.43709504
_cell_angle_alpha   90.00246827
_cell_angle_beta   90.00833701
_cell_angle_gamma   89.99569000
_symmetry_Int_Tables_number   1
_chemical_formula_structural   Tb3Dy13(TmSn4)4
_chemical_formula_sum   'Tb3 Dy13 Tm4 Sn16'
_cell_volume   1008.41648696
_cell_formula_units_Z   1
loop_
 _symmetry_equiv_pos_site_id
 _symmetry_equiv_pos_as_xyz
  1  'x, y, z'
loop_
 _atom_site_type_symbol
 _atom_site_label
 _atom_site_symmetry_multiplicity
 _atom_site_fract_x
 _atom_site_fract_y
 _atom_site_fract_z
 _atom_site_occupancy
  Tb  Tb0  1  0.980110  0.820457  0.402700  1
  Tb  Tb1  1  0.519891  0.320466  0.597291  1
  Tb  Tb2  1  0.019898  0.179527  0.902707  1
  Dy  Dy3  1  0.366899  0.837146  0.877904  1
  Dy  Dy4  1  0.866881  0.662842  0.622124  1
  Dy  Dy5  1  0.633120  0.162835  0.377871  1
  Dy  Dy6  1  0.133133  0.337197  0.122124  1
  Dy  Dy7  1  0.633119  0.162815  0.122106  1
  Dy  Dy8  1  0.133133  0.337179  0.377885  1
  Dy  Dy9  1  0.366869  0.837170  0.622108  1
  Dy  Dy10  1  0.866877  0.662847  0.877893  1
  Dy  Dy11  1  0.519917  0.320490  0.902653  1
  Dy  Dy12  1  0.019909  0.179527  0.597357  1
  Dy  Dy13  1  0.480098  0.679519  0.402662  1
  Dy  Dy14  1  0.980096  0.820459  0.097354  1
  Dy  Dy15  1  0.480092  0.679523  0.097318  1
  Tm  Tm16  1  0.198231  0.502792  0.750012  1
  Tm  Tm17  1  0.698233  0.997211  0.749990  1
  Tm  Tm18  1  0.801736  0.497241  0.249991  1
  Tm  Tm19  1  0.301794  0.002759  0.249968  1
  Sn  Sn20  1  0.293146  0.035876  0.042554  1
  Sn  Sn21  1  0.793107  0.464045  0.457455  1
  Sn  Sn22  1  0.706894  0.964052  0.542545  1
  Sn  Sn23  1  0.206988  0.535995  0.957497  1
  Sn  Sn24  1  0.706803  0.963979  0.957513  1
  Sn  Sn25  1  0.206813  0.536009  0.542490  1
  Sn  Sn26  1  0.293188  0.036010  0.457511  1
  Sn  Sn27  1  0.793061  0.464085  0.042512  1
  Sn  Sn28  1  0.563796  0.618396  0.750009  1
  Sn  Sn29  1  0.063799  0.881597  0.749998  1
  Sn  Sn30  1  0.436207  0.381660  0.249990  1
  Sn  Sn31  1  0.936208  0.118405  0.249993  1
  Sn  Sn32  1  0.328981  0.148383  0.750043  1
  Sn  Sn33  1  0.828991  0.351606  0.749965  1
  Sn  Sn34  1  0.670919  0.851515  0.249969  1
  Sn  Sn35  1  0.171066  0.648388  0.249935  1
