# generated using pymatgen
data_Hf6Co16Re2(Si3P)3
_symmetry_space_group_name_H-M   'P 1'
_cell_length_a   12.06772914
_cell_length_b   12.03226776
_cell_length_c   3.67171500
_cell_angle_alpha   90.00000000
_cell_angle_beta   90.00000000
_cell_angle_gamma   119.89229602
_symmetry_Int_Tables_number   1
_chemical_formula_structural   Hf6Co16Re2(Si3P)3
_chemical_formula_sum   'Hf6 Co16 Re2 Si9 P3'
_cell_volume   462.21384847
_cell_formula_units_Z   1
loop_
 _symmetry_equiv_pos_site_id
 _symmetry_equiv_pos_as_xyz
  1  'x, y, z'
loop_
 _atom_site_type_symbol
 _atom_site_label
 _atom_site_symmetry_multiplicity
 _atom_site_fract_x
 _atom_site_fract_y
 _atom_site_fract_z
 _atom_site_occupancy
  Hf  Hf0  1  0.811976  0.813915  0.500000  1
  Hf  Hf1  1  0.998990  0.176921  0.500000  1
  Hf  Hf2  1  0.337130  0.666653  0.000000  1
  Hf  Hf3  1  0.664774  0.332409  0.000000  1
  Hf  Hf4  1  0.001463  0.559114  0.000000  1
  Hf  Hf5  1  0.189013  0.001166  0.500000  1
  Co  Co6  1  0.627012  0.825929  0.000000  1
  Co  Co7  1  0.374419  0.193990  0.000000  1
  Co  Co8  1  0.002147  0.728053  0.500000  1
  Co  Co9  1  0.279200  0.275035  0.500000  1
  Co  Co10  1  0.873810  0.352620  0.500000  1
  Co  Co11  1  0.722975  0.997442  0.500000  1
  Co  Co12  1  0.821926  0.631239  0.000000  1
  Co  Co13  1  0.182922  0.813236  0.000000  1
  Co  Co14  1  0.358714  0.884033  0.500000  1
  Co  Co15  1  0.125646  0.479155  0.500000  1
  Co  Co16  1  0.641907  0.523356  0.500000  1
  Co  Co17  1  0.994938  0.994502  0.000000  1
  Co  Co18  1  0.517710  0.646886  0.500000  1
  Co  Co19  1  0.480995  0.127501  0.500000  1
  Co  Co20  1  0.196859  0.369380  0.000000  1
  Co  Co21  1  0.801927  0.169599  0.000000  1
  Re  Re22  1  0.440155  0.441425  0.000000  1
  Re  Re23  1  0.554086  0.002255  0.000000  1
  Si  Si24  1  0.999092  0.345042  0.000000  1
  Si  Si25  1  0.822891  0.516063  0.500000  1
  Si  Si26  1  0.685225  0.166328  0.500000  1
  Si  Si27  1  0.176145  0.172922  0.000000  1
  Si  Si28  1  0.637859  0.642314  0.000000  1
  Si  Si29  1  0.516855  0.835439  0.500000  1
  Si  Si30  1  0.179479  0.693849  0.500000  1
  Si  Si31  1  0.483258  0.317666  0.500000  1
  Si  Si32  1  0.313830  0.479712  0.500000  1
  P  P33  1  0.821674  0.997140  0.000000  1
  P  P34  1  0.361809  0.004257  0.000000  1
  P  P35  1  0.001190  0.823454  0.000000  1
