# generated using pymatgen
data_Dy2TmCd3Ga2Hg
_symmetry_space_group_name_H-M   'P 1'
_cell_length_a   7.30725780
_cell_length_b   7.30725719
_cell_length_c   4.47397200
_cell_angle_alpha   90.00000000
_cell_angle_beta   90.00000000
_cell_angle_gamma   119.94645677
_symmetry_Int_Tables_number   1
_chemical_formula_structural   Dy2TmCd3Ga2Hg
_chemical_formula_sum   'Dy2 Tm1 Cd3 Ga2 Hg1'
_cell_volume   206.99830108
_cell_formula_units_Z   1
loop_
 _symmetry_equiv_pos_site_id
 _symmetry_equiv_pos_as_xyz
  1  'x, y, z'
loop_
 _atom_site_type_symbol
 _atom_site_label
 _atom_site_symmetry_multiplicity
 _atom_site_fract_x
 _atom_site_fract_y
 _atom_site_fract_z
 _atom_site_occupancy
  Dy  Dy0  1  0.574326  0.999707  0.500000  1
  Dy  Dy1  1  0.999707  0.574326  0.500000  1
  Tm  Tm2  1  0.425372  0.425372  0.500000  1
  Cd  Cd3  1  0.744606  0.744606  0.000000  1
  Cd  Cd4  1  0.255050  0.000289  0.000000  1
  Cd  Cd5  1  0.000289  0.255050  0.000000  1
  Ga  Ga6  1  0.666202  0.333558  0.000000  1
  Ga  Ga7  1  0.333558  0.666202  0.000000  1
  Hg  Hg8  1  0.000891  0.000891  0.500000  1
