# generated using pymatgen
data_Pr11In8HgRh4
_symmetry_space_group_name_H-M   'P 1'
_cell_length_a   13.49558705
_cell_length_b   13.49060623
_cell_length_c   3.88003200
_cell_angle_alpha   90.00000000
_cell_angle_beta   90.00000000
_cell_angle_gamma   112.69346905
_symmetry_Int_Tables_number   1
_chemical_formula_structural   Pr11In8HgRh4
_chemical_formula_sum   'Pr11 In8 Hg1 Rh4'
_cell_volume   651.72377600
_cell_formula_units_Z   1
loop_
 _symmetry_equiv_pos_site_id
 _symmetry_equiv_pos_as_xyz
  1  'x, y, z'
loop_
 _atom_site_type_symbol
 _atom_site_label
 _atom_site_symmetry_multiplicity
 _atom_site_fract_x
 _atom_site_fract_y
 _atom_site_fract_z
 _atom_site_occupancy
  Pr  Pr0  1  0.499966  0.499704  0.500000  1
  Pr  Pr1  1  0.812600  0.812869  0.500000  1
  Pr  Pr2  1  0.187837  0.188069  0.500000  1
  Pr  Pr3  1  0.579255  0.919282  0.500000  1
  Pr  Pr4  1  0.419219  0.077371  0.500000  1
  Pr  Pr5  1  0.918801  0.578416  0.500000  1
  Pr  Pr6  1  0.080809  0.420167  0.500000  1
  Pr  Pr7  1  0.127938  0.873319  0.500000  1
  Pr  Pr8  1  0.873442  0.126078  0.500000  1
  Pr  Pr9  1  0.339843  0.661232  0.500000  1
  Pr  Pr10  1  0.659153  0.339383  0.500000  1
  In  In11  1  0.663067  0.135651  0.000000  1
  In  In12  1  0.864861  0.337395  0.000000  1
  In  In13  1  0.135468  0.662411  0.000000  1
  In  In14  1  0.578500  0.720244  0.000000  1
  In  In15  1  0.421543  0.279345  0.000000  1
  In  In16  1  0.720227  0.579166  0.000000  1
  In  In17  1  0.279705  0.421605  0.000000  1
  In  In18  1  0.000175  0.999861  0.000000  1
  Hg  Hg19  1  0.339182  0.863717  0.000000  1
  Rh  Rh20  1  0.746464  0.952699  0.000000  1
  Rh  Rh21  1  0.250342  0.050615  0.000000  1
  Rh  Rh22  1  0.954447  0.749047  0.000000  1
  Rh  Rh23  1  0.047155  0.252351  0.000000  1
