# generated using pymatgen
data_Ho3ErLu4Ga3Co
_symmetry_space_group_name_H-M   'P 1'
_cell_length_a   9.85517700
_cell_length_b   9.85536415
_cell_length_c   6.87732202
_cell_angle_alpha   90.00802157
_cell_angle_beta   90.00000000
_cell_angle_gamma   119.99936848
_symmetry_Int_Tables_number   1
_chemical_formula_structural   Ho3ErLu4Ga3Co
_chemical_formula_sum   'Ho6 Er2 Lu8 Ga6 Co2'
_cell_volume   578.48200554
_cell_formula_units_Z   2
loop_
 _symmetry_equiv_pos_site_id
 _symmetry_equiv_pos_as_xyz
  1  'x, y, z'
loop_
 _atom_site_type_symbol
 _atom_site_label
 _atom_site_symmetry_multiplicity
 _atom_site_fract_x
 _atom_site_fract_y
 _atom_site_fract_z
 _atom_site_occupancy
  Ho  Ho0  1  0.464371  0.928741  0.208051  1
  Ho  Ho1  1  0.535553  0.464427  0.707995  1
  Ho  Ho2  1  0.928874  0.464427  0.707995  1
  Ho  Ho3  1  0.535586  0.071172  0.708020  1
  Ho  Ho4  1  0.000013  0.000027  0.230460  1
  Ho  Ho5  1  0.999997  0.999995  0.730465  1
  Er  Er6  1  0.464313  0.535645  0.207998  1
  Er  Er7  1  0.071332  0.535645  0.207998  1
  Lu  Lu8  1  0.173741  0.826179  0.511046  1
  Lu  Lu9  1  0.652437  0.826179  0.511046  1
  Lu  Lu10  1  0.173815  0.347630  0.510948  1
  Lu  Lu11  1  0.826309  0.173847  0.011160  1
  Lu  Lu12  1  0.347539  0.173847  0.011160  1
  Lu  Lu13  1  0.826218  0.652435  0.011235  1
  Lu  Lu14  1  0.333287  0.666576  0.826301  1
  Lu  Lu15  1  0.666707  0.333412  0.326138  1
  Ga  Ga16  1  0.163552  0.836338  0.959170  1
  Ga  Ga17  1  0.672784  0.836338  0.959170  1
  Ga  Ga18  1  0.163638  0.327277  0.959232  1
  Ga  Ga19  1  0.836436  0.163598  0.459094  1
  Ga  Ga20  1  0.327164  0.163598  0.459094  1
  Ga  Ga21  1  0.836403  0.672803  0.459068  1
  Co  Co22  1  0.333262  0.666524  0.445496  1
  Co  Co23  1  0.666670  0.333340  0.945695  1
