# generated using pymatgen
data_Dy7CoSn23Ir5
_symmetry_space_group_name_H-M   'P 1'
_cell_length_a   9.84076934
_cell_length_b   9.86517101
_cell_length_c   10.07561569
_cell_angle_alpha   90.00000249
_cell_angle_beta   89.94242289
_cell_angle_gamma   120.08205757
_symmetry_Int_Tables_number   1
_chemical_formula_structural   Dy7CoSn23Ir5
_chemical_formula_sum   'Dy7 Co1 Sn23 Ir5'
_cell_volume   846.40048924
_cell_formula_units_Z   1
loop_
 _symmetry_equiv_pos_site_id
 _symmetry_equiv_pos_as_xyz
  1  'x, y, z'
loop_
 _atom_site_type_symbol
 _atom_site_label
 _atom_site_symmetry_multiplicity
 _atom_site_fract_x
 _atom_site_fract_y
 _atom_site_fract_z
 _atom_site_occupancy
  Dy  Dy0  1  0.004166  0.002083  0.003072  1
  Dy  Dy1  1  0.480279  0.520442  0.308490  1
  Dy  Dy2  1  0.519662  0.479183  0.690935  1
  Dy  Dy3  1  0.480279  0.959837  0.308490  1
  Dy  Dy4  1  0.519662  0.040479  0.690935  1
  Dy  Dy5  1  0.039994  0.519997  0.307634  1
  Dy  Dy6  1  0.959167  0.479584  0.692149  1
  Co  Co7  1  0.662201  0.831101  0.801421  1
  Sn  Sn8  1  0.354855  0.000205  0.999340  1
  Sn  Sn9  1  0.649089  0.994208  0.994610  1
  Sn  Sn10  1  0.999763  0.352452  0.999757  1
  Sn  Sn11  1  0.999763  0.647311  0.999757  1
  Sn  Sn12  1  0.649089  0.654881  0.994610  1
  Sn  Sn13  1  0.354855  0.354650  0.999340  1
  Sn  Sn14  1  0.338662  0.669332  0.823266  1
  Sn  Sn15  1  0.666208  0.333103  0.173930  1
  Sn  Sn16  1  0.000121  0.000061  0.500451  1
  Sn  Sn17  1  0.780647  0.220673  0.457881  1
  Sn  Sn18  1  0.219826  0.779043  0.542137  1
  Sn  Sn19  1  0.780647  0.559974  0.457881  1
  Sn  Sn20  1  0.219826  0.440784  0.542137  1
  Sn  Sn21  1  0.441859  0.220929  0.457906  1
  Sn  Sn22  1  0.563303  0.781652  0.548611  1
  Sn  Sn23  1  0.334867  0.667434  0.117194  1
  Sn  Sn24  1  0.665105  0.332552  0.881255  1
  Sn  Sn25  1  0.117487  0.880289  0.283629  1
  Sn  Sn26  1  0.876265  0.110849  0.722206  1
  Sn  Sn27  1  0.117487  0.237198  0.283629  1
  Sn  Sn28  1  0.876265  0.765416  0.722206  1
  Sn  Sn29  1  0.761057  0.880528  0.283996  1
  Sn  Sn30  1  0.237138  0.118569  0.716146  1
  Ir  Ir31  1  0.828789  0.167177  0.197875  1
  Ir  Ir32  1  0.167910  0.830443  0.800117  1
  Ir  Ir33  1  0.828789  0.661611  0.197875  1
  Ir  Ir34  1  0.167910  0.337468  0.800117  1
  Ir  Ir35  1  0.337012  0.168505  0.199017  1
