# generated using pymatgen
data_Ce4TmCo19P12
_symmetry_space_group_name_H-M   'P 1'
_cell_length_a   12.04179800
_cell_length_b   12.04179889
_cell_length_c   3.73521700
_cell_angle_alpha   90.00000000
_cell_angle_beta   90.00000000
_cell_angle_gamma   119.99999756
_symmetry_Int_Tables_number   1
_chemical_formula_structural   Ce4TmCo19P12
_chemical_formula_sum   'Ce4 Tm1 Co19 P12'
_cell_volume   469.06085112
_cell_formula_units_Z   1
loop_
 _symmetry_equiv_pos_site_id
 _symmetry_equiv_pos_as_xyz
  1  'x, y, z'
loop_
 _atom_site_type_symbol
 _atom_site_label
 _atom_site_symmetry_multiplicity
 _atom_site_fract_x
 _atom_site_fract_y
 _atom_site_fract_z
 _atom_site_occupancy
  Ce  Ce0  1  0.666667  0.333333  0.000000  1
  Ce  Ce1  1  0.187996  0.186745  0.500000  1
  Ce  Ce2  1  0.813255  0.001251  0.500000  1
  Ce  Ce3  1  0.998749  0.812004  0.500000  1
  Tm  Tm4  1  0.333333  0.666667  0.000000  1
  Co  Co5  1  0.820704  0.199967  0.000000  1
  Co  Co6  1  0.800033  0.620735  0.000000  1
  Co  Co7  1  0.379265  0.179296  0.000000  1
  Co  Co8  1  0.199053  0.818164  0.000000  1
  Co  Co9  1  0.619110  0.800947  0.000000  1
  Co  Co10  1  0.181836  0.380890  0.000000  1
  Co  Co11  1  0.554686  0.554323  0.000000  1
  Co  Co12  1  0.445677  0.000363  0.000000  1
  Co  Co13  1  0.999637  0.445314  0.000000  1
  Co  Co14  1  0.640319  0.124470  0.500000  1
  Co  Co15  1  0.875530  0.515849  0.500000  1
  Co  Co16  1  0.484151  0.359681  0.500000  1
  Co  Co17  1  0.124624  0.637594  0.500000  1
  Co  Co18  1  0.512970  0.875376  0.500000  1
  Co  Co19  1  0.362406  0.487030  0.500000  1
  Co  Co20  1  0.711594  0.714633  0.500000  1
  Co  Co21  1  0.285367  0.996961  0.500000  1
  Co  Co22  1  0.003039  0.288406  0.500000  1
  Co  Co23  1  0.000000  0.000000  0.000000  1
  P  P24  1  0.371486  0.371602  0.000000  1
  P  P25  1  0.628398  0.999884  0.000000  1
  P  P26  1  0.000116  0.628514  0.000000  1
  P  P27  1  0.835592  0.312678  0.500000  1
  P  P28  1  0.687322  0.522914  0.500000  1
  P  P29  1  0.477086  0.164408  0.500000  1
  P  P30  1  0.310439  0.828601  0.500000  1
  P  P31  1  0.518161  0.689561  0.500000  1
  P  P32  1  0.171399  0.481839  0.500000  1
  P  P33  1  0.814824  0.816352  0.000000  1
  P  P34  1  0.183648  0.998472  0.000000  1
  P  P35  1  0.001528  0.185176  0.000000  1
