# generated using pymatgen
data_Th2Si2Tc
_symmetry_space_group_name_H-M   'P 1'
_cell_length_a   5.90765648
_cell_length_b   5.90765814
_cell_length_c   10.60867440
_cell_angle_alpha   62.10686357
_cell_angle_beta   62.10685485
_cell_angle_gamma   42.74179630
_symmetry_Int_Tables_number   1
_chemical_formula_structural   Th2Si2Tc
_chemical_formula_sum   'Th4 Si4 Tc2'
_cell_volume   217.27491083
_cell_formula_units_Z   2
loop_
 _symmetry_equiv_pos_site_id
 _symmetry_equiv_pos_as_xyz
  1  'x, y, z'
loop_
 _atom_site_type_symbol
 _atom_site_label
 _atom_site_symmetry_multiplicity
 _atom_site_fract_x
 _atom_site_fract_y
 _atom_site_fract_z
 _atom_site_occupancy
  Th  Th0  1  0.006451  0.006451  0.318917  1
  Th  Th1  1  0.993549  0.993549  0.681083  1
  Th  Th2  1  0.808498  0.808498  0.105843  1
  Th  Th3  1  0.191502  0.191502  0.894157  1
  Si  Si4  1  0.648581  0.648581  0.436368  1
  Si  Si5  1  0.351419  0.351419  0.563632  1
  Si  Si6  1  0.501079  0.501079  0.124083  1
  Si  Si7  1  0.498921  0.498921  0.875917  1
  Tc  Tc8  1  0.724131  0.724131  0.623041  1
  Tc  Tc9  1  0.275869  0.275869  0.376959  1
