# generated using pymatgen
data_Zn3Cd(PN2)6
_symmetry_space_group_name_H-M   'P 1'
_cell_length_a   7.30214951
_cell_length_b   7.30214934
_cell_length_c   7.30214900
_cell_angle_alpha   109.49609889
_cell_angle_beta   109.49609196
_cell_angle_gamma   109.49607527
_symmetry_Int_Tables_number   1
_chemical_formula_structural   Zn3Cd(PN2)6
_chemical_formula_sum   'Zn3 Cd1 P6 N12'
_cell_volume   299.45372770
_cell_formula_units_Z   1
loop_
 _symmetry_equiv_pos_site_id
 _symmetry_equiv_pos_as_xyz
  1  'x, y, z'
loop_
 _atom_site_type_symbol
 _atom_site_label
 _atom_site_symmetry_multiplicity
 _atom_site_fract_x
 _atom_site_fract_y
 _atom_site_fract_z
 _atom_site_occupancy
  Zn  Zn0  1  0.999855  0.433608  0.999855  1
  Zn  Zn1  1  0.999855  0.999855  0.433608  1
  Zn  Zn2  1  0.433608  0.999855  0.999855  1
  Cd  Cd3  1  0.918588  0.918588  0.918588  1
  P  P4  1  0.498613  0.255663  0.748802  1
  P  P5  1  0.255663  0.748802  0.498613  1
  P  P6  1  0.748802  0.498613  0.255663  1
  P  P7  1  0.748802  0.255663  0.498613  1
  P  P8  1  0.498613  0.748802  0.255663  1
  P  P9  1  0.255663  0.498613  0.748802  1
  N  N10  1  0.437869  0.718813  0.437869  1
  N  N11  1  0.718813  0.437869  0.437869  1
  N  N12  1  0.437869  0.437869  0.718813  1
  N  N13  1  0.719738  0.280231  0.719738  1
  N  N14  1  0.000179  0.564626  0.279033  1
  N  N15  1  0.279033  0.564626  0.000179  1
  N  N16  1  0.279033  0.000179  0.564626  1
  N  N17  1  0.000179  0.279033  0.564626  1
  N  N18  1  0.719738  0.719738  0.280231  1
  N  N19  1  0.564626  0.000179  0.279033  1
  N  N20  1  0.280231  0.719738  0.719738  1
  N  N21  1  0.564626  0.279033  0.000179  1
