# generated using pymatgen
data_Ce3In2SiIrRh2
_symmetry_space_group_name_H-M   'P 1'
_cell_length_a   7.45698254
_cell_length_b   7.47645559
_cell_length_c   3.96398500
_cell_angle_alpha   90.00000000
_cell_angle_beta   90.00000000
_cell_angle_gamma   120.34772465
_symmetry_Int_Tables_number   1
_chemical_formula_structural   Ce3In2SiIrRh2
_chemical_formula_sum   'Ce3 In2 Si1 Ir1 Rh2'
_cell_volume   190.71686652
_cell_formula_units_Z   1
loop_
 _symmetry_equiv_pos_site_id
 _symmetry_equiv_pos_as_xyz
  1  'x, y, z'
loop_
 _atom_site_type_symbol
 _atom_site_label
 _atom_site_symmetry_multiplicity
 _atom_site_fract_x
 _atom_site_fract_y
 _atom_site_fract_z
 _atom_site_occupancy
  Ce  Ce0  1  0.435015  0.999929  0.500000  1
  Ce  Ce1  1  0.994547  0.404539  0.500000  1
  Ce  Ce2  1  0.589460  0.597453  0.500000  1
  In  In3  1  0.006378  0.756037  0.000000  1
  In  In4  1  0.251383  0.243478  0.000000  1
  Si  Si5  1  0.743676  0.998517  0.000000  1
  Ir  Ir6  1  0.359849  0.682655  0.000000  1
  Rh  Rh7  1  0.677995  0.316974  0.000000  1
  Rh  Rh8  1  0.941698  0.000418  0.500000  1
