# generated using pymatgen
data_Tb2NdHoAl8
_symmetry_space_group_name_H-M   'P 1'
_cell_length_a   9.70173858
_cell_length_b   9.70173910
_cell_length_c   9.70173983
_cell_angle_alpha   33.53065665
_cell_angle_beta   33.53065382
_cell_angle_gamma   33.53064670
_symmetry_Int_Tables_number   1
_chemical_formula_structural   Tb2NdHoAl8
_chemical_formula_sum   'Tb2 Nd1 Ho1 Al8'
_cell_volume   248.17231281
_cell_formula_units_Z   1
loop_
 _symmetry_equiv_pos_site_id
 _symmetry_equiv_pos_as_xyz
  1  'x, y, z'
loop_
 _atom_site_type_symbol
 _atom_site_label
 _atom_site_symmetry_multiplicity
 _atom_site_fract_x
 _atom_site_fract_y
 _atom_site_fract_z
 _atom_site_occupancy
  Tb  Tb0  1  0.812846  0.812846  0.812846  1
  Tb  Tb1  1  0.312448  0.312448  0.312448  1
  Nd  Nd2  1  0.687474  0.687474  0.687474  1
  Ho  Ho3  1  0.187278  0.187278  0.187278  1
  Al  Al4  1  0.999717  0.999717  0.999717  1
  Al  Al5  1  0.500210  0.500210  0.500210  1
  Al  Al6  1  0.751109  0.250528  0.250528  1
  Al  Al7  1  0.248622  0.749619  0.749619  1
  Al  Al8  1  0.250528  0.751109  0.250528  1
  Al  Al9  1  0.749619  0.248622  0.749619  1
  Al  Al10  1  0.250528  0.250528  0.751109  1
  Al  Al11  1  0.749619  0.749619  0.248622  1
