# generated using pymatgen
data_Dy2Sc6Ti11Si16Rh
_symmetry_space_group_name_H-M   'P 1'
_cell_length_a   6.91287856
_cell_length_b   6.90421760
_cell_length_c   12.60485295
_cell_angle_alpha   89.82473273
_cell_angle_beta   90.03279850
_cell_angle_gamma   89.77532561
_symmetry_Int_Tables_number   1
_chemical_formula_structural   Dy2Sc6Ti11Si16Rh
_chemical_formula_sum   'Dy2 Sc6 Ti11 Si16 Rh1'
_cell_volume   601.59710297
_cell_formula_units_Z   1
loop_
 _symmetry_equiv_pos_site_id
 _symmetry_equiv_pos_as_xyz
  1  'x, y, z'
loop_
 _atom_site_type_symbol
 _atom_site_label
 _atom_site_symmetry_multiplicity
 _atom_site_fract_x
 _atom_site_fract_y
 _atom_site_fract_z
 _atom_site_occupancy
  Dy  Dy0  1  0.497519  0.839677  0.714436  1
  Dy  Dy1  1  0.342360  0.003265  0.467875  1
  Sc  Sc2  1  0.997247  0.658153  0.033016  1
  Sc  Sc3  1  0.999115  0.342978  0.531246  1
  Sc  Sc4  1  0.658480  0.997345  0.967986  1
  Sc  Sc5  1  0.154903  0.501697  0.784676  1
  Sc  Sc6  1  0.843144  0.498981  0.281449  1
  Sc  Sc7  1  0.502454  0.156300  0.217213  1
  Ti  Ti8  1  0.344741  0.505018  0.374884  1
  Ti  Ti9  1  0.851342  0.000095  0.371720  1
  Ti  Ti10  1  0.004325  0.147194  0.125116  1
  Ti  Ti11  1  0.999199  0.852201  0.627700  1
  Ti  Ti12  1  0.507208  0.347677  0.624796  1
  Ti  Ti13  1  0.147863  0.007298  0.876478  1
  Ti  Ti14  1  0.826155  0.175050  0.749787  1
  Ti  Ti15  1  0.171927  0.823852  0.251140  1
  Ti  Ti16  1  0.326274  0.326587  0.001371  1
  Ti  Ti17  1  0.494955  0.646164  0.126102  1
  Ti  Ti18  1  0.649732  0.495580  0.874943  1
  Si  Si19  1  0.039036  0.705136  0.435819  1
  Si  Si20  1  0.952052  0.297756  0.935654  1
  Si  Si21  1  0.718807  0.055136  0.562795  1
  Si  Si22  1  0.202129  0.454441  0.183480  1
  Si  Si23  1  0.799622  0.547157  0.683143  1
  Si  Si24  1  0.452312  0.207795  0.817663  1
  Si  Si25  1  0.554204  0.790449  0.314862  1
  Si  Si26  1  0.297762  0.952437  0.066191  1
  Si  Si27  1  0.795672  0.860807  0.179537  1
  Si  Si28  1  0.282158  0.622015  0.569868  1
  Si  Si29  1  0.706329  0.362778  0.070456  1
  Si  Si30  1  0.637345  0.302361  0.428980  1
  Si  Si31  1  0.362703  0.705426  0.932167  1
  Si  Si32  1  0.133604  0.209232  0.316599  1
  Si  Si33  1  0.200903  0.143460  0.683278  1
  Si  Si34  1  0.866254  0.794618  0.821458  1
  Rh  Rh35  1  0.680168  0.663883  0.496117  1
