# generated using pymatgen
data_Cs4MnHg5Te8
_symmetry_space_group_name_H-M   'P 1'
_cell_length_a   10.91018841
_cell_length_b   10.88727412
_cell_length_c   10.91018800
_cell_angle_alpha   143.62765693
_cell_angle_beta   105.14161940
_cell_angle_gamma   86.28284992
_symmetry_Int_Tables_number   1
_chemical_formula_structural   Cs4MnHg5Te8
_chemical_formula_sum   'Cs4 Mn1 Hg5 Te8'
_cell_volume   717.48962685
_cell_formula_units_Z   1
loop_
 _symmetry_equiv_pos_site_id
 _symmetry_equiv_pos_as_xyz
  1  'x, y, z'
loop_
 _atom_site_type_symbol
 _atom_site_label
 _atom_site_symmetry_multiplicity
 _atom_site_fract_x
 _atom_site_fract_y
 _atom_site_fract_z
 _atom_site_occupancy
  Cs  Cs0  1  0.124195  0.274094  0.396849  1
  Cs  Cs1  1  0.880887  0.739771  0.617970  1
  Cs  Cs2  1  0.622756  0.225906  0.850100  1
  Cs  Cs3  1  0.378198  0.760229  0.141116  1
  Mn  Mn4  1  0.012930  0.750000  0.262930  1
  Hg  Hg5  1  0.246167  0.250000  0.996167  1
  Hg  Hg6  1  0.750117  0.750000  0.000117  1
  Hg  Hg7  1  0.538002  0.250000  0.288002  1
  Hg  Hg8  1  0.460078  0.750000  0.710078  1
  Hg  Hg9  1  0.974047  0.250000  0.724047  1
  Te  Te10  1  0.492068  0.579537  0.351458  1
  Te  Te11  1  0.510806  0.417272  0.648048  1
  Te  Te12  1  0.219329  0.106788  0.620661  1
  Te  Te13  1  0.271920  0.920463  0.912530  1
  Te  Te14  1  0.778653  0.857058  0.352256  1
  Te  Te15  1  0.730776  0.082728  0.093535  1
  Te  Te16  1  0.013874  0.393212  0.112541  1
  Te  Te17  1  0.995199  0.642942  0.921597  1
