# generated using pymatgen
data_Li2SnHgSe4
_symmetry_space_group_name_H-M   'P 1'
_cell_length_a   6.99400100
_cell_length_b   7.37760900
_cell_length_c   8.49259700
_cell_angle_alpha   90.00000000
_cell_angle_beta   90.00000000
_cell_angle_gamma   90.00000000
_symmetry_Int_Tables_number   1
_chemical_formula_structural   Li2SnHgSe4
_chemical_formula_sum   'Li4 Sn2 Hg2 Se8'
_cell_volume   438.20955272
_cell_formula_units_Z   2
loop_
 _symmetry_equiv_pos_site_id
 _symmetry_equiv_pos_as_xyz
  1  'x, y, z'
loop_
 _atom_site_type_symbol
 _atom_site_label
 _atom_site_symmetry_multiplicity
 _atom_site_fract_x
 _atom_site_fract_y
 _atom_site_fract_z
 _atom_site_occupancy
  Li  Li0  1  0.488400  0.824545  0.747494  1
  Li  Li1  1  0.988400  0.175455  0.247494  1
  Li  Li2  1  0.988400  0.175455  0.752506  1
  Li  Li3  1  0.488400  0.824545  0.252506  1
  Sn  Sn4  1  0.480361  0.330280  0.500000  1
  Sn  Sn5  1  0.980361  0.669720  0.000000  1
  Hg  Hg6  1  0.977598  0.651653  0.500000  1
  Hg  Hg7  1  0.477598  0.348347  0.000000  1
  Se  Se8  1  0.368341  0.661102  0.500000  1
  Se  Se9  1  0.868341  0.338898  0.000000  1
  Se  Se10  1  0.848876  0.309380  0.500000  1
  Se  Se11  1  0.348876  0.690620  0.000000  1
  Se  Se12  1  0.856512  0.844386  0.757797  1
  Se  Se13  1  0.856512  0.844386  0.242203  1
  Se  Se14  1  0.356512  0.155614  0.257797  1
  Se  Se15  1  0.356512  0.155614  0.742203  1
