# generated using pymatgen
data_Tb7Er3(SiHg)4
_symmetry_space_group_name_H-M   'P 1'
_cell_length_a   8.80684173
_cell_length_b   8.79155674
_cell_length_c   7.54920332
_cell_angle_alpha   89.99817118
_cell_angle_beta   90.07035871
_cell_angle_gamma   129.38531393
_symmetry_Int_Tables_number   1
_chemical_formula_structural   Tb7Er3(SiHg)4
_chemical_formula_sum   'Tb7 Er3 Si4 Hg4'
_cell_volume   451.75998735
_cell_formula_units_Z   1
loop_
 _symmetry_equiv_pos_site_id
 _symmetry_equiv_pos_as_xyz
  1  'x, y, z'
loop_
 _atom_site_type_symbol
 _atom_site_label
 _atom_site_symmetry_multiplicity
 _atom_site_fract_x
 _atom_site_fract_y
 _atom_site_fract_z
 _atom_site_occupancy
  Tb  Tb0  1  0.055014  0.310416  0.324206  1
  Tb  Tb1  1  0.945603  0.689922  0.675652  1
  Tb  Tb2  1  0.444833  0.189451  0.823616  1
  Tb  Tb3  1  0.810043  0.554766  0.176443  1
  Tb  Tb4  1  0.554946  0.809750  0.176199  1
  Tb  Tb5  1  0.190716  0.445748  0.823908  1
  Tb  Tb6  1  0.690815  0.945309  0.675874  1
  Er  Er7  1  0.307316  0.054417  0.325205  1
  Er  Er8  1  0.000771  0.999665  0.000240  1
  Er  Er9  1  0.500164  0.499960  0.499945  1
  Si  Si10  1  0.380724  0.379626  0.122950  1
  Si  Si11  1  0.619405  0.618798  0.877890  1
  Si  Si12  1  0.119515  0.119149  0.621409  1
  Si  Si13  1  0.881897  0.881373  0.377823  1
  Hg  Hg14  1  0.782769  0.217682  0.999723  1
  Hg  Hg15  1  0.217899  0.783571  0.002008  1
  Hg  Hg16  1  0.714507  0.280206  0.498298  1
  Hg  Hg17  1  0.283065  0.720191  0.498612  1
