# generated using pymatgen
data_Sr2La3Ho2P12Pd17
_symmetry_space_group_name_H-M   'P 1'
_cell_length_a   12.50617434
_cell_length_b   12.50617538
_cell_length_c   13.75429268
_cell_angle_alpha   67.93480957
_cell_angle_beta   67.93480800
_cell_angle_gamma   18.77639188
_symmetry_Int_Tables_number   1
_chemical_formula_structural   Sr2La3Ho2P12Pd17
_chemical_formula_sum   'Sr2 La3 Ho2 P12 Pd17'
_cell_volume   640.27076750
_cell_formula_units_Z   1
loop_
 _symmetry_equiv_pos_site_id
 _symmetry_equiv_pos_as_xyz
  1  'x, y, z'
loop_
 _atom_site_type_symbol
 _atom_site_label
 _atom_site_symmetry_multiplicity
 _atom_site_fract_x
 _atom_site_fract_y
 _atom_site_fract_z
 _atom_site_occupancy
  Sr  Sr0  1  0.500867  0.500867  0.498907  1
  Sr  Sr1  1  0.366285  0.366285  0.000359  1
  La  La2  1  0.765182  0.765182  0.687147  1
  La  La3  1  0.417488  0.417488  0.260444  1
  La  La4  1  0.582527  0.582527  0.740054  1
  Ho  Ho5  1  0.633532  0.633532  0.003782  1
  Ho  Ho6  1  0.233154  0.233154  0.314187  1
  P  P7  1  0.061534  0.061534  0.928582  1
  P  P8  1  0.939805  0.939805  0.074122  1
  P  P9  1  0.887130  0.887130  0.825096  1
  P  P10  1  0.112613  0.112613  0.170075  1
  P  P11  1  0.187703  0.187703  0.620567  1
  P  P12  1  0.809098  0.809098  0.381266  1
  P  P13  1  0.363997  0.363997  0.579923  1
  P  P14  1  0.637837  0.637837  0.415255  1
  P  P15  1  0.010791  0.010791  0.675068  1
  P  P16  1  0.989669  0.989669  0.324552  1
  P  P17  1  0.231018  0.231018  0.885746  1
  P  P18  1  0.767100  0.767100  0.120901  1
  Pd  Pd19  1  0.836959  0.836959  0.196292  1
  Pd  Pd20  1  0.160941  0.160941  0.810492  1
  Pd  Pd21  1  0.027936  0.027936  0.123046  1
  Pd  Pd22  1  0.974692  0.974692  0.874714  1
  Pd  Pd23  1  0.888351  0.888351  0.457254  1
  Pd  Pd24  1  0.111948  0.111948  0.541679  1
  Pd  Pd25  1  0.502256  0.502256  0.000667  1
  Pd  Pd26  1  0.549087  0.549087  0.252436  1
  Pd  Pd27  1  0.452107  0.452107  0.743049  1
  Pd  Pd28  1  0.296059  0.296059  0.486285  1
  Pd  Pd29  1  0.703602  0.703602  0.505751  1
  Pd  Pd30  1  0.668800  0.668800  0.223591  1
  Pd  Pd31  1  0.332009  0.332009  0.780422  1
  Pd  Pd32  1  0.904517  0.904517  0.644538  1
  Pd  Pd33  1  0.097345  0.097345  0.351982  1
  Pd  Pd34  1  0.215386  0.215386  0.069111  1
  Pd  Pd35  1  0.780672  0.780672  0.932655  1
