# generated using pymatgen
data_La8Nd9Dy3Sn16
_symmetry_space_group_name_H-M   'P 1'
_cell_length_a   8.27431200
_cell_length_b   8.43091003
_cell_length_c   15.98986200
_cell_angle_alpha   90.00000000
_cell_angle_beta   90.00000000
_cell_angle_gamma   90.05600518
_symmetry_Int_Tables_number   1
_chemical_formula_structural   La8Nd9Dy3Sn16
_chemical_formula_sum   'La8 Nd9 Dy3 Sn16'
_cell_volume   1115.45192065
_cell_formula_units_Z   1
loop_
 _symmetry_equiv_pos_site_id
 _symmetry_equiv_pos_as_xyz
  1  'x, y, z'
loop_
 _atom_site_type_symbol
 _atom_site_label
 _atom_site_symmetry_multiplicity
 _atom_site_fract_x
 _atom_site_fract_y
 _atom_site_fract_z
 _atom_site_occupancy
  La  La0  1  0.518405  0.318591  0.901754  1
  La  La1  1  0.018433  0.181088  0.599103  1
  La  La2  1  0.481610  0.680731  0.402301  1
  La  La3  1  0.981614  0.818526  0.097655  1
  La  La4  1  0.481610  0.680731  0.097699  1
  La  La5  1  0.981614  0.818526  0.402345  1
  La  La6  1  0.518405  0.318591  0.598246  1
  La  La7  1  0.018433  0.181088  0.900897  1
  Nd  Nd8  1  0.366166  0.837576  0.877966  1
  Nd  Nd9  1  0.866486  0.661802  0.620421  1
  Nd  Nd10  1  0.634139  0.162835  0.379554  1
  Nd  Nd11  1  0.132992  0.337711  0.119683  1
  Nd  Nd12  1  0.634139  0.162835  0.120446  1
  Nd  Nd13  1  0.132992  0.337711  0.380317  1
  Nd  Nd14  1  0.366166  0.837576  0.622034  1
  Nd  Nd15  1  0.866486  0.661802  0.879579  1
  Nd  Nd16  1  0.303690  0.002602  0.250000  1
  Dy  Dy17  1  0.198656  0.502288  0.750000  1
  Dy  Dy18  1  0.697961  0.997078  0.750000  1
  Dy  Dy19  1  0.802155  0.496607  0.250000  1
  Sn  Sn20  1  0.293509  0.037028  0.041487  1
  Sn  Sn21  1  0.793083  0.465503  0.455288  1
  Sn  Sn22  1  0.706316  0.965167  0.544836  1
  Sn  Sn23  1  0.207233  0.535101  0.954824  1
  Sn  Sn24  1  0.706316  0.965167  0.955164  1
  Sn  Sn25  1  0.207233  0.535101  0.545176  1
  Sn  Sn26  1  0.293509  0.037028  0.458513  1
  Sn  Sn27  1  0.793083  0.465503  0.044712  1
  Sn  Sn28  1  0.564494  0.617673  0.750000  1
  Sn  Sn29  1  0.062845  0.881837  0.750000  1
  Sn  Sn30  1  0.437209  0.385139  0.250000  1
  Sn  Sn31  1  0.932633  0.118235  0.250000  1
  Sn  Sn32  1  0.323782  0.145722  0.750000  1
  Sn  Sn33  1  0.822325  0.355544  0.750000  1
  Sn  Sn34  1  0.678974  0.853564  0.250000  1
  Sn  Sn35  1  0.175303  0.640396  0.250000  1
