# generated using pymatgen
data_NdEu3(Si5Pt3)2
_symmetry_space_group_name_H-M   'P 1'
_cell_length_a   8.31962472
_cell_length_b   8.32532611
_cell_length_c   8.32532556
_cell_angle_alpha   137.21545630
_cell_angle_beta   104.91123307
_cell_angle_gamma   90.51262720
_symmetry_Int_Tables_number   1
_chemical_formula_structural   NdEu3(Si5Pt3)2
_chemical_formula_sum   'Nd1 Eu3 Si10 Pt6'
_cell_volume   360.89559998
_cell_formula_units_Z   1
loop_
 _symmetry_equiv_pos_site_id
 _symmetry_equiv_pos_as_xyz
  1  'x, y, z'
loop_
 _atom_site_type_symbol
 _atom_site_label
 _atom_site_symmetry_multiplicity
 _atom_site_fract_x
 _atom_site_fract_y
 _atom_site_fract_z
 _atom_site_occupancy
  Nd  Nd0  1  0.104328  0.871165  0.233163  1
  Eu  Eu1  1  0.895066  0.128685  0.766381  1
  Eu  Eu2  1  0.637497  0.370981  0.266516  1
  Eu  Eu3  1  0.362630  0.629377  0.733253  1
  Si  Si4  1  0.999569  0.749028  0.748493  1
  Si  Si5  1  0.999569  0.251076  0.250541  1
  Si  Si6  1  0.270808  0.020056  0.750604  1
  Si  Si7  1  0.729562  0.479413  0.749301  1
  Si  Si8  1  0.729562  0.980261  0.250149  1
  Si  Si9  1  0.270808  0.520204  0.250752  1
  Si  Si10  1  0.760855  0.611132  0.149723  1
  Si  Si11  1  0.239495  0.388709  0.850786  1
  Si  Si12  1  0.461761  0.111828  0.349933  1
  Si  Si13  1  0.538696  0.888283  0.650413  1
  Pt  Pt14  1  0.498986  0.750831  0.250231  1
  Pt  Pt15  1  0.498986  0.248755  0.748155  1
  Pt  Pt16  1  0.024015  0.636194  0.387822  1
  Pt  Pt17  1  0.976963  0.364082  0.612881  1
  Pt  Pt18  1  0.247378  0.135439  0.111939  1
  Pt  Pt19  1  0.753464  0.864501  0.888963  1
