# generated using pymatgen
data_Cs4Cr2FeCuSe8
_symmetry_space_group_name_H-M   'P 1'
_cell_length_a   14.79771744
_cell_length_b   13.13805414
_cell_length_c   7.89793356
_cell_angle_alpha   85.57449145
_cell_angle_beta   62.27567872
_cell_angle_gamma   32.14982741
_symmetry_Int_Tables_number   1
_chemical_formula_structural   Cs4Cr2FeCuSe8
_chemical_formula_sum   'Cs4 Cr2 Fe1 Cu1 Se8'
_cell_volume   535.37250294
_cell_formula_units_Z   1
loop_
 _symmetry_equiv_pos_site_id
 _symmetry_equiv_pos_as_xyz
  1  'x, y, z'
loop_
 _atom_site_type_symbol
 _atom_site_label
 _atom_site_symmetry_multiplicity
 _atom_site_fract_x
 _atom_site_fract_y
 _atom_site_fract_z
 _atom_site_occupancy
  Cs  Cs0  1  0.573810  0.573810  0.926190  1
  Cs  Cs1  1  0.926190  0.926190  0.573810  1
  Cs  Cs2  1  0.320144  0.320144  0.679856  1
  Cs  Cs3  1  0.679856  0.679856  0.320144  1
  Cr  Cr4  1  0.750000  0.750000  0.750000  1
  Cr  Cr5  1  0.500000  0.500000  0.500000  1
  Fe  Fe6  1  0.000000  0.000000  0.000000  1
  Cu  Cu7  1  0.250000  0.250000  0.250000  1
  Se  Se8  1  0.221680  0.880779  0.598925  1
  Se  Se9  1  0.298616  0.598925  0.880779  1
  Se  Se10  1  0.598925  0.298616  0.221680  1
  Se  Se11  1  0.880779  0.221680  0.298616  1
  Se  Se12  1  0.374027  0.022397  0.945187  1
  Se  Se13  1  0.945187  0.658389  0.374027  1
  Se  Se14  1  0.658389  0.945187  0.022397  1
  Se  Se15  1  0.022397  0.374027  0.658389  1
