# generated using pymatgen
data_Hf8TiRe(Si3C)2
_symmetry_space_group_name_H-M   'P 1'
_cell_length_a   7.76545800
_cell_length_b   7.76545809
_cell_length_c   5.46001400
_cell_angle_alpha   90.00000000
_cell_angle_beta   90.00000000
_cell_angle_gamma   119.99999963
_symmetry_Int_Tables_number   1
_chemical_formula_structural   Hf8TiRe(Si3C)2
_chemical_formula_sum   'Hf8 Ti1 Re1 Si6 C2'
_cell_volume   285.14026225
_cell_formula_units_Z   1
loop_
 _symmetry_equiv_pos_site_id
 _symmetry_equiv_pos_as_xyz
  1  'x, y, z'
loop_
 _atom_site_type_symbol
 _atom_site_label
 _atom_site_symmetry_multiplicity
 _atom_site_fract_x
 _atom_site_fract_y
 _atom_site_fract_z
 _atom_site_occupancy
  Hf  Hf0  1  0.333333  0.666667  0.000000  1
  Hf  Hf1  1  0.666667  0.333333  0.000000  1
  Hf  Hf2  1  0.235584  0.000065  0.248698  1
  Hf  Hf3  1  0.764481  0.000065  0.751302  1
  Hf  Hf4  1  0.999935  0.235519  0.248698  1
  Hf  Hf5  1  0.999935  0.764416  0.751302  1
  Hf  Hf6  1  0.764481  0.764416  0.248698  1
  Hf  Hf7  1  0.235584  0.235519  0.751302  1
  Ti  Ti8  1  0.333333  0.666667  0.500000  1
  Re  Re9  1  0.666667  0.333333  0.500000  1
  Si  Si10  1  0.593079  0.000985  0.270988  1
  Si  Si11  1  0.407906  0.000985  0.729012  1
  Si  Si12  1  0.999015  0.592094  0.270988  1
  Si  Si13  1  0.999015  0.406921  0.729012  1
  Si  Si14  1  0.407906  0.406921  0.270988  1
  Si  Si15  1  0.593079  0.592094  0.729012  1
  C  C16  1  0.000000  0.000000  0.000000  1
  C  C17  1  0.000000  0.000000  0.500000  1
