# generated using pymatgen
data_Ca11Sm(SiRh)8
_symmetry_space_group_name_H-M   'P 1'
_cell_length_a   5.80104589
_cell_length_b   7.67645379
_cell_length_c   13.39510200
_cell_angle_alpha   90.00000000
_cell_angle_beta   90.00000000
_cell_angle_gamma   90.05490673
_symmetry_Int_Tables_number   1
_chemical_formula_structural   Ca11Sm(SiRh)8
_chemical_formula_sum   'Ca11 Sm1 Si8 Rh8'
_cell_volume   596.50318536
_cell_formula_units_Z   1
loop_
 _symmetry_equiv_pos_site_id
 _symmetry_equiv_pos_as_xyz
  1  'x, y, z'
loop_
 _atom_site_type_symbol
 _atom_site_label
 _atom_site_symmetry_multiplicity
 _atom_site_fract_x
 _atom_site_fract_y
 _atom_site_fract_z
 _atom_site_occupancy
  Ca  Ca0  1  0.135063  0.606839  0.100387  1
  Ca  Ca1  1  0.134981  0.896659  0.900821  1
  Ca  Ca2  1  0.865739  0.107088  0.398354  1
  Ca  Ca3  1  0.868338  0.389235  0.600432  1
  Ca  Ca4  1  0.868338  0.389235  0.899568  1
  Ca  Ca5  1  0.865739  0.107088  0.101646  1
  Ca  Ca6  1  0.134981  0.896659  0.599179  1
  Ca  Ca7  1  0.135063  0.606839  0.399613  1
  Ca  Ca8  1  0.363742  0.266824  0.250000  1
  Ca  Ca9  1  0.362685  0.239499  0.750000  1
  Ca  Ca10  1  0.637011  0.766266  0.250000  1
  Sm  Sm11  1  0.630544  0.732606  0.750000  1
  Si  Si12  1  0.838437  0.417037  0.250000  1
  Si  Si13  1  0.837206  0.084973  0.750000  1
  Si  Si14  1  0.162595  0.915500  0.250000  1
  Si  Si15  1  0.147974  0.592914  0.750000  1
  Si  Si16  1  0.409135  0.248720  0.998568  1
  Si  Si17  1  0.591120  0.748678  0.499823  1
  Si  Si18  1  0.591120  0.748678  0.000177  1
  Si  Si19  1  0.409135  0.248720  0.501432  1
  Rh  Rh20  1  0.635586  0.471749  0.089190  1
  Rh  Rh21  1  0.636311  0.022395  0.908696  1
  Rh  Rh22  1  0.367214  0.972551  0.409310  1
  Rh  Rh23  1  0.366415  0.528277  0.591957  1
  Rh  Rh24  1  0.366415  0.528277  0.908043  1
  Rh  Rh25  1  0.367214  0.972551  0.090690  1
  Rh  Rh26  1  0.636311  0.022395  0.591304  1
  Rh  Rh27  1  0.635586  0.471749  0.410810  1
