# generated using pymatgen
data_Cs6LaTmBr12
_symmetry_space_group_name_H-M   'P 1'
_cell_length_a   10.08013883
_cell_length_b   10.10307955
_cell_length_c   8.38888900
_cell_angle_alpha   90.00000000
_cell_angle_beta   90.00000000
_cell_angle_gamma   90.19819212
_symmetry_Int_Tables_number   1
_chemical_formula_structural   Cs6LaTmBr12
_chemical_formula_sum   'Cs6 La1 Tm1 Br12'
_cell_volume   854.32307280
_cell_formula_units_Z   1
loop_
 _symmetry_equiv_pos_site_id
 _symmetry_equiv_pos_as_xyz
  1  'x, y, z'
loop_
 _atom_site_type_symbol
 _atom_site_label
 _atom_site_symmetry_multiplicity
 _atom_site_fract_x
 _atom_site_fract_y
 _atom_site_fract_z
 _atom_site_occupancy
  Cs  Cs0  1  0.000000  0.000000  0.500000  1
  Cs  Cs1  1  0.000000  0.000000  0.000000  1
  Cs  Cs2  1  0.237352  0.585962  0.500000  1
  Cs  Cs3  1  0.762648  0.414038  0.500000  1
  Cs  Cs4  1  0.415064  0.231380  0.000000  1
  Cs  Cs5  1  0.584936  0.768620  0.000000  1
  La  La6  1  0.000000  0.500000  0.000000  1
  Tm  Tm7  1  0.500000  0.000000  0.500000  1
  Br  Br8  1  0.688451  0.056696  0.735964  1
  Br  Br9  1  0.311549  0.943304  0.735964  1
  Br  Br10  1  0.939626  0.699254  0.248530  1
  Br  Br11  1  0.060374  0.300746  0.248530  1
  Br  Br12  1  0.311549  0.943304  0.264036  1
  Br  Br13  1  0.688451  0.056696  0.264036  1
  Br  Br14  1  0.060374  0.300746  0.751470  1
  Br  Br15  1  0.939626  0.699254  0.751470  1
  Br  Br16  1  0.568738  0.734290  0.500000  1
  Br  Br17  1  0.431262  0.265710  0.500000  1
  Br  Br18  1  0.282326  0.570811  0.000000  1
  Br  Br19  1  0.717674  0.429189  0.000000  1
