# generated using pymatgen
data_Th6SiCl15
_symmetry_space_group_name_H-M   'P 1'
_cell_length_a   9.78074095
_cell_length_b   9.78074156
_cell_length_c   9.78074100
_cell_angle_alpha   109.47121947
_cell_angle_beta   109.47122073
_cell_angle_gamma   109.47122221
_symmetry_Int_Tables_number   1
_chemical_formula_structural   Th6SiCl15
_chemical_formula_sum   'Th6 Si1 Cl15'
_cell_volume   720.26681442
_cell_formula_units_Z   1
loop_
 _symmetry_equiv_pos_site_id
 _symmetry_equiv_pos_as_xyz
  1  'x, y, z'
loop_
 _atom_site_type_symbol
 _atom_site_label
 _atom_site_symmetry_multiplicity
 _atom_site_fract_x
 _atom_site_fract_y
 _atom_site_fract_z
 _atom_site_occupancy
  Th  Th0  1  0.000000  0.247356  0.247356  1
  Th  Th1  1  0.000000  0.752644  0.752644  1
  Th  Th2  1  0.247356  0.000000  0.247356  1
  Th  Th3  1  0.752644  0.000000  0.752644  1
  Th  Th4  1  0.247356  0.247356  0.000000  1
  Th  Th5  1  0.752644  0.752644  0.000000  1
  Si  Si6  1  0.000000  0.000000  0.000000  1
  Cl  Cl7  1  0.495357  0.247679  0.247679  1
  Cl  Cl8  1  0.504643  0.752321  0.752321  1
  Cl  Cl9  1  0.000000  0.247679  0.752321  1
  Cl  Cl10  1  0.000000  0.752321  0.247679  1
  Cl  Cl11  1  0.247679  0.495357  0.247679  1
  Cl  Cl12  1  0.752321  0.000000  0.247679  1
  Cl  Cl13  1  0.752321  0.504643  0.752321  1
  Cl  Cl14  1  0.247679  0.000000  0.752321  1
  Cl  Cl15  1  0.247679  0.247679  0.495357  1
  Cl  Cl16  1  0.752321  0.752321  0.504643  1
  Cl  Cl17  1  0.752321  0.247679  0.000000  1
  Cl  Cl18  1  0.247679  0.752321  0.000000  1
  Cl  Cl19  1  0.000000  0.500000  0.500000  1
  Cl  Cl20  1  0.500000  0.000000  0.500000  1
  Cl  Cl21  1  0.500000  0.500000  0.000000  1
