# generated using pymatgen
data_La2CrH3Pd16
_symmetry_space_group_name_H-M   'P 1'
_cell_length_a   7.00482319
_cell_length_b   7.04520502
_cell_length_c   7.00482251
_cell_angle_alpha   83.48294425
_cell_angle_beta   82.56437420
_cell_angle_gamma   83.48295556
_symmetry_Int_Tables_number   1
_chemical_formula_structural   La2CrH3Pd16
_chemical_formula_sum   'La2 Cr1 H3 Pd16'
_cell_volume   338.85162291
_cell_formula_units_Z   1
loop_
 _symmetry_equiv_pos_site_id
 _symmetry_equiv_pos_as_xyz
  1  'x, y, z'
loop_
 _atom_site_type_symbol
 _atom_site_label
 _atom_site_symmetry_multiplicity
 _atom_site_fract_x
 _atom_site_fract_y
 _atom_site_fract_z
 _atom_site_occupancy
  La  La0  1  0.660501  0.669963  0.660501  1
  La  La1  1  0.339499  0.330037  0.339499  1
  Cr  Cr2  1  0.000000  0.500000  0.000000  1
  H  H3  1  0.500000  0.500000  0.000000  1
  H  H4  1  0.000000  0.500000  0.500000  1
  H  H5  1  0.500000  0.000000  0.500000  1
  Pd  Pd6  1  0.000000  0.000000  0.500000  1
  Pd  Pd7  1  0.500000  0.000000  0.000000  1
  Pd  Pd8  1  0.708000  0.298658  0.001760  1
  Pd  Pd9  1  0.998240  0.701342  0.292000  1
  Pd  Pd10  1  0.295962  0.000000  0.704038  1
  Pd  Pd11  1  0.001760  0.298658  0.708000  1
  Pd  Pd12  1  0.704038  0.000000  0.295962  1
  Pd  Pd13  1  0.292000  0.701342  0.998240  1
  Pd  Pd14  1  0.346065  0.350853  0.854877  1
  Pd  Pd15  1  0.854877  0.350853  0.346065  1
  Pd  Pd16  1  0.349650  0.844425  0.349650  1
  Pd  Pd17  1  0.653935  0.649147  0.145123  1
  Pd  Pd18  1  0.145123  0.649147  0.653935  1
  Pd  Pd19  1  0.650350  0.155575  0.650350  1
  Pd  Pd20  1  0.901592  0.890877  0.901592  1
  Pd  Pd21  1  0.098408  0.109123  0.098408  1
