# generated using pymatgen
data_Dy6AlFe4Os7
_symmetry_space_group_name_H-M   'P 1'
_cell_length_a   5.27133948
_cell_length_b   5.25803370
_cell_length_c   13.01520476
_cell_angle_alpha   90.15676739
_cell_angle_beta   89.56704994
_cell_angle_gamma   119.45959570
_symmetry_Int_Tables_number   1
_chemical_formula_structural   Dy6AlFe4Os7
_chemical_formula_sum   'Dy6 Al1 Fe4 Os7'
_cell_volume   314.08890002
_cell_formula_units_Z   1
loop_
 _symmetry_equiv_pos_site_id
 _symmetry_equiv_pos_as_xyz
  1  'x, y, z'
loop_
 _atom_site_type_symbol
 _atom_site_label
 _atom_site_symmetry_multiplicity
 _atom_site_fract_x
 _atom_site_fract_y
 _atom_site_fract_z
 _atom_site_occupancy
  Dy  Dy0  1  0.339236  0.671649  0.921229  1
  Dy  Dy1  1  0.997294  0.998357  0.250575  1
  Dy  Dy2  1  0.665966  0.333993  0.580791  1
  Dy  Dy3  1  0.326866  0.660553  0.663305  1
  Dy  Dy4  1  0.000348  0.000157  0.002493  1
  Dy  Dy5  1  0.667928  0.332281  0.331242  1
  Al  Al6  1  0.333792  0.165877  0.792860  1
  Fe  Fe7  1  0.496818  0.499663  0.125727  1
  Fe  Fe8  1  0.170166  0.836688  0.457423  1
  Fe  Fe9  1  0.834155  0.165872  0.791816  1
  Fe  Fe10  1  0.497061  0.998629  0.125360  1
  Os  Os11  1  0.170911  0.339691  0.456123  1
  Os  Os12  1  0.832798  0.663474  0.792962  1
  Os  Os13  1  0.332568  0.667816  0.288594  1
  Os  Os14  1  0.999057  0.996498  0.627821  1
  Os  Os15  1  0.666040  0.332779  0.958974  1
  Os  Os16  1  0.994399  0.497702  0.123090  1
  Os  Os17  1  0.674598  0.838325  0.459612  1
