# generated using pymatgen
data_Ca(LaSi)2
_symmetry_space_group_name_H-M   'P 1'
_cell_length_a   7.80835500
_cell_length_b   7.80835500
_cell_length_c   4.51499400
_cell_angle_alpha   90.00000000
_cell_angle_beta   90.00000000
_cell_angle_gamma   90.00000000
_symmetry_Int_Tables_number   1
_chemical_formula_structural   Ca(LaSi)2
_chemical_formula_sum   'Ca2 La4 Si4'
_cell_volume   275.28102542
_cell_formula_units_Z   2
loop_
 _symmetry_equiv_pos_site_id
 _symmetry_equiv_pos_as_xyz
  1  'x, y, z'
loop_
 _atom_site_type_symbol
 _atom_site_label
 _atom_site_symmetry_multiplicity
 _atom_site_fract_x
 _atom_site_fract_y
 _atom_site_fract_z
 _atom_site_occupancy
  Ca  Ca0  1  0.000000  0.000000  0.000000  1
  Ca  Ca1  1  0.500000  0.500000  0.000000  1
  La  La2  1  0.677940  0.177940  0.500000  1
  La  La3  1  0.322060  0.822060  0.500000  1
  La  La4  1  0.177940  0.322060  0.500000  1
  La  La5  1  0.822060  0.677940  0.500000  1
  Si  Si6  1  0.109698  0.609698  0.000000  1
  Si  Si7  1  0.890302  0.390302  0.000000  1
  Si  Si8  1  0.609698  0.890302  0.000000  1
  Si  Si9  1  0.390302  0.109698  0.000000  1
