# generated using pymatgen
data_Ce4TcOsC4
_symmetry_space_group_name_H-M   'P 1'
_cell_length_a   5.25616800
_cell_length_b   6.52509687
_cell_length_c   9.90869730
_cell_angle_alpha   89.73602451
_cell_angle_beta   90.00000000
_cell_angle_gamma   90.00000000
_symmetry_Int_Tables_number   1
_chemical_formula_structural   Ce4TcOsC4
_chemical_formula_sum   'Ce8 Tc2 Os2 C8'
_cell_volume   339.83503750
_cell_formula_units_Z   2
loop_
 _symmetry_equiv_pos_site_id
 _symmetry_equiv_pos_as_xyz
  1  'x, y, z'
loop_
 _atom_site_type_symbol
 _atom_site_label
 _atom_site_symmetry_multiplicity
 _atom_site_fract_x
 _atom_site_fract_y
 _atom_site_fract_z
 _atom_site_occupancy
  Ce  Ce0  1  0.250000  0.692345  0.545589  1
  Ce  Ce1  1  0.750000  0.307655  0.454411  1
  Ce  Ce2  1  0.750000  0.809611  0.046371  1
  Ce  Ce3  1  0.250000  0.190389  0.953629  1
  Ce  Ce4  1  0.250000  0.522862  0.223706  1
  Ce  Ce5  1  0.750000  0.477138  0.776294  1
  Ce  Ce6  1  0.750000  0.977495  0.720242  1
  Ce  Ce7  1  0.250000  0.022505  0.279758  1
  Tc  Tc8  1  0.250000  0.723385  0.862624  1
  Tc  Tc9  1  0.750000  0.276615  0.137376  1
  Os  Os10  1  0.750000  0.775576  0.363420  1
  Os  Os11  1  0.250000  0.224424  0.636580  1
  C  C12  1  0.250000  0.462695  0.754483  1
  C  C13  1  0.750000  0.537305  0.245517  1
  C  C14  1  0.750000  0.034127  0.254956  1
  C  C15  1  0.250000  0.965873  0.745044  1
  C  C16  1  0.250000  0.828730  0.053126  1
  C  C17  1  0.750000  0.171270  0.946874  1
  C  C18  1  0.750000  0.668629  0.552574  1
  C  C19  1  0.250000  0.331371  0.447426  1
