# generated using pymatgen
data_Tb12(FeC3)5
_symmetry_space_group_name_H-M   'P 1'
_cell_length_a   10.46251100
_cell_length_b   10.46454515
_cell_length_c   5.09317000
_cell_angle_alpha   90.00000000
_cell_angle_beta   90.00000000
_cell_angle_gamma   119.99712486
_symmetry_Int_Tables_number   1
_chemical_formula_structural   Tb12(FeC3)5
_chemical_formula_sum   'Tb12 Fe5 C15'
_cell_volume   482.93387483
_cell_formula_units_Z   1
loop_
 _symmetry_equiv_pos_site_id
 _symmetry_equiv_pos_as_xyz
  1  'x, y, z'
loop_
 _atom_site_type_symbol
 _atom_site_label
 _atom_site_symmetry_multiplicity
 _atom_site_fract_x
 _atom_site_fract_y
 _atom_site_fract_z
 _atom_site_occupancy
  Tb  Tb0  1  0.729663  0.184225  0.000000  1
  Tb  Tb1  1  0.454601  0.270337  0.000000  1
  Tb  Tb2  1  0.270336  0.454554  0.000000  1
  Tb  Tb3  1  0.815800  0.545442  0.000000  1
  Tb  Tb4  1  0.184271  0.729649  0.000000  1
  Tb  Tb5  1  0.545444  0.815787  0.000000  1
  Tb  Tb6  1  0.433281  0.999993  0.500000  1
  Tb  Tb7  1  0.791974  0.999976  0.500000  1
  Tb  Tb8  1  0.208052  0.208102  0.500000  1
  Tb  Tb9  1  0.000039  0.433331  0.500000  1
  Tb  Tb10  1  0.566700  0.566686  0.500000  1
  Tb  Tb11  1  0.999931  0.791920  0.500000  1
  Fe  Fe12  1  0.154469  0.999987  0.000000  1
  Fe  Fe13  1  0.999970  0.154488  0.000000  1
  Fe  Fe14  1  0.845493  0.845510  0.000000  1
  Fe  Fe15  1  0.666649  0.333300  0.500000  1
  Fe  Fe16  1  0.333347  0.666702  0.500000  1
  C  C17  1  0.323493  0.999991  0.000000  1
  C  C18  1  0.451752  0.000024  0.000000  1
  C  C19  1  0.802039  0.000004  0.000000  1
  C  C20  1  0.197949  0.197941  0.000000  1
  C  C21  1  0.999997  0.323474  0.000000  1
  C  C22  1  0.000054  0.451790  0.000000  1
  C  C23  1  0.548296  0.548272  0.000000  1
  C  C24  1  0.676522  0.676522  0.000000  1
  C  C25  1  0.000015  0.802051  0.000000  1
  C  C26  1  0.714775  0.191157  0.500000  1
  C  C27  1  0.476374  0.285225  0.500000  1
  C  C28  1  0.285237  0.476435  0.500000  1
  C  C29  1  0.808772  0.523575  0.500000  1
  C  C30  1  0.191141  0.714783  0.500000  1
  C  C31  1  0.523621  0.808825  0.500000  1
