# generated using pymatgen
data_La2CdPt2Au
_symmetry_space_group_name_H-M   'P 1'
_cell_length_a   4.22318900
_cell_length_b   7.46516900
_cell_length_c   8.97791000
_cell_angle_alpha   90.00000000
_cell_angle_beta   90.00000000
_cell_angle_gamma   90.00000000
_symmetry_Int_Tables_number   1
_chemical_formula_structural   La2CdPt2Au
_chemical_formula_sum   'La4 Cd2 Pt4 Au2'
_cell_volume   283.04494899
_cell_formula_units_Z   2
loop_
 _symmetry_equiv_pos_site_id
 _symmetry_equiv_pos_as_xyz
  1  'x, y, z'
loop_
 _atom_site_type_symbol
 _atom_site_label
 _atom_site_symmetry_multiplicity
 _atom_site_fract_x
 _atom_site_fract_y
 _atom_site_fract_z
 _atom_site_occupancy
  La  La0  1  0.750000  0.448291  0.809705  1
  La  La1  1  0.250000  0.043074  0.312408  1
  La  La2  1  0.750000  0.948291  0.690295  1
  La  La3  1  0.250000  0.543074  0.187592  1
  Cd  Cd4  1  0.750000  0.368588  0.441394  1
  Cd  Cd5  1  0.750000  0.868588  0.058606  1
  Pt  Pt6  1  0.250000  0.733160  0.882304  1
  Pt  Pt7  1  0.250000  0.233160  0.617696  1
  Pt  Pt8  1  0.750000  0.758289  0.364477  1
  Pt  Pt9  1  0.750000  0.258289  0.135523  1
  Au  Au10  1  0.250000  0.648597  0.568480  1
  Au  Au11  1  0.250000  0.148597  0.931520  1
