# generated using pymatgen
data_Sr4YbEr5Sn8
_symmetry_space_group_name_H-M   'P 1'
_cell_length_a   8.03444000
_cell_length_b   8.53917500
_cell_length_c   16.12337600
_cell_angle_alpha   90.00000000
_cell_angle_beta   90.00000000
_cell_angle_gamma   90.00000000
_symmetry_Int_Tables_number   1
_chemical_formula_structural   Sr4YbEr5Sn8
_chemical_formula_sum   'Sr8 Yb2 Er10 Sn16'
_cell_volume   1106.18434458
_cell_formula_units_Z   2
loop_
 _symmetry_equiv_pos_site_id
 _symmetry_equiv_pos_as_xyz
  1  'x, y, z'
loop_
 _atom_site_type_symbol
 _atom_site_label
 _atom_site_symmetry_multiplicity
 _atom_site_fract_x
 _atom_site_fract_y
 _atom_site_fract_z
 _atom_site_occupancy
  Sr  Sr0  1  0.501779  0.680371  0.593484  1
  Sr  Sr1  1  0.001779  0.819629  0.906516  1
  Sr  Sr2  1  0.495768  0.315614  0.091359  1
  Sr  Sr3  1  0.995768  0.184386  0.408641  1
  Sr  Sr4  1  0.495768  0.315614  0.408641  1
  Sr  Sr5  1  0.995768  0.184386  0.091359  1
  Sr  Sr6  1  0.501779  0.680371  0.906516  1
  Sr  Sr7  1  0.001779  0.819629  0.593484  1
  Yb  Yb8  1  0.163430  0.492416  0.250000  1
  Yb  Yb9  1  0.663430  0.007584  0.250000  1
  Er  Er10  1  0.675374  0.162737  0.624979  1
  Er  Er11  1  0.175374  0.337263  0.875021  1
  Er  Er12  1  0.326828  0.834080  0.122263  1
  Er  Er13  1  0.826828  0.665920  0.377737  1
  Er  Er14  1  0.326828  0.834080  0.377737  1
  Er  Er15  1  0.826828  0.665920  0.122263  1
  Er  Er16  1  0.675374  0.162737  0.875021  1
  Er  Er17  1  0.175374  0.337263  0.624979  1
  Er  Er18  1  0.839278  0.505580  0.750000  1
  Er  Er19  1  0.339278  0.994420  0.750000  1
  Sn  Sn20  1  0.666749  0.959591  0.459817  1
  Sn  Sn21  1  0.166749  0.540409  0.040183  1
  Sn  Sn22  1  0.333449  0.038578  0.955512  1
  Sn  Sn23  1  0.833449  0.461422  0.544488  1
  Sn  Sn24  1  0.333449  0.038578  0.544488  1
  Sn  Sn25  1  0.833449  0.461422  0.955512  1
  Sn  Sn26  1  0.666749  0.959591  0.040183  1
  Sn  Sn27  1  0.166749  0.540409  0.459817  1
  Sn  Sn28  1  0.477036  0.367718  0.750000  1
  Sn  Sn29  1  0.977036  0.132282  0.750000  1
  Sn  Sn30  1  0.528307  0.630383  0.250000  1
  Sn  Sn31  1  0.028307  0.869617  0.250000  1
  Sn  Sn32  1  0.710138  0.866787  0.750000  1
  Sn  Sn33  1  0.210138  0.633213  0.750000  1
  Sn  Sn34  1  0.281917  0.120573  0.250000  1
  Sn  Sn35  1  0.781917  0.379427  0.250000  1
