# generated using pymatgen
data_Pa3Al12(TcOs)2
_symmetry_space_group_name_H-M   'P 1'
_cell_length_a   8.89244529
_cell_length_b   8.89244484
_cell_length_c   9.44521791
_cell_angle_alpha   89.86392943
_cell_angle_beta   90.13606891
_cell_angle_gamma   119.92244410
_symmetry_Int_Tables_number   1
_chemical_formula_structural   Pa3Al12(TcOs)2
_chemical_formula_sum   'Pa6 Al24 Tc4 Os4'
_cell_volume   647.32478310
_cell_formula_units_Z   2
loop_
 _symmetry_equiv_pos_site_id
 _symmetry_equiv_pos_as_xyz
  1  'x, y, z'
loop_
 _atom_site_type_symbol
 _atom_site_label
 _atom_site_symmetry_multiplicity
 _atom_site_fract_x
 _atom_site_fract_y
 _atom_site_fract_z
 _atom_site_occupancy
  Pa  Pa0  1  0.196329  0.394765  0.249645  1
  Pa  Pa1  1  0.803671  0.605235  0.750355  1
  Pa  Pa2  1  0.605235  0.803671  0.249645  1
  Pa  Pa3  1  0.394765  0.196329  0.750355  1
  Pa  Pa4  1  0.197883  0.802117  0.247260  1
  Pa  Pa5  1  0.802117  0.197883  0.752740  1
  Al  Al6  1  0.333720  0.666280  0.014295  1
  Al  Al7  1  0.666280  0.333720  0.985705  1
  Al  Al8  1  0.666728  0.333272  0.515450  1
  Al  Al9  1  0.333272  0.666728  0.484550  1
  Al  Al10  1  0.161516  0.322656  0.579834  1
  Al  Al11  1  0.838484  0.677344  0.420166  1
  Al  Al12  1  0.677344  0.838484  0.579834  1
  Al  Al13  1  0.837109  0.676840  0.081012  1
  Al  Al14  1  0.322656  0.161516  0.420166  1
  Al  Al15  1  0.162891  0.323160  0.918988  1
  Al  Al16  1  0.161425  0.838575  0.579149  1
  Al  Al17  1  0.323160  0.162891  0.081012  1
  Al  Al18  1  0.838575  0.161425  0.420851  1
  Al  Al19  1  0.676840  0.837109  0.918988  1
  Al  Al20  1  0.838485  0.161515  0.082488  1
  Al  Al21  1  0.161515  0.838485  0.917512  1
  Al  Al22  1  0.562438  0.125741  0.250525  1
  Al  Al23  1  0.437562  0.874259  0.749475  1
  Al  Al24  1  0.874259  0.437562  0.250525  1
  Al  Al25  1  0.125741  0.562438  0.749475  1
  Al  Al26  1  0.562197  0.437803  0.250663  1
  Al  Al27  1  0.437803  0.562197  0.749337  1
  Al  Al28  1  0.000054  0.999946  0.250191  1
  Al  Al29  1  0.999946  0.000054  0.749809  1
  Tc  Tc30  1  0.500000  0.000000  0.000000  1
  Tc  Tc31  1  0.000000  0.500000  0.000000  1
  Tc  Tc32  1  0.000000  0.000000  0.000000  1
  Tc  Tc33  1  0.000000  0.000000  0.500000  1
  Os  Os34  1  0.500000  0.000000  0.500000  1
  Os  Os35  1  0.500000  0.500000  0.000000  1
  Os  Os36  1  0.000000  0.500000  0.500000  1
  Os  Os37  1  0.500000  0.500000  0.500000  1
