# generated using pymatgen
data_YbThReC2
_symmetry_space_group_name_H-M   'P 1'
_cell_length_a   5.22717300
_cell_length_b   6.52432400
_cell_length_c   10.39653400
_cell_angle_alpha   90.00000000
_cell_angle_beta   90.00000000
_cell_angle_gamma   90.00000000
_symmetry_Int_Tables_number   1
_chemical_formula_structural   YbThReC2
_chemical_formula_sum   'Yb4 Th4 Re4 C8'
_cell_volume   354.56100700
_cell_formula_units_Z   4
loop_
 _symmetry_equiv_pos_site_id
 _symmetry_equiv_pos_as_xyz
  1  'x, y, z'
loop_
 _atom_site_type_symbol
 _atom_site_label
 _atom_site_symmetry_multiplicity
 _atom_site_fract_x
 _atom_site_fract_y
 _atom_site_fract_z
 _atom_site_occupancy
  Yb  Yb0  1  0.250000  0.532146  0.228804  1
  Yb  Yb1  1  0.750000  0.467854  0.771196  1
  Yb  Yb2  1  0.750000  0.967854  0.728804  1
  Yb  Yb3  1  0.250000  0.032146  0.271196  1
  Th  Th4  1  0.250000  0.703070  0.556893  1
  Th  Th5  1  0.750000  0.296930  0.443107  1
  Th  Th6  1  0.750000  0.796930  0.056893  1
  Th  Th7  1  0.250000  0.203070  0.943107  1
  Re  Re8  1  0.250000  0.727638  0.861922  1
  Re  Re9  1  0.750000  0.272362  0.138078  1
  Re  Re10  1  0.750000  0.772362  0.361922  1
  Re  Re11  1  0.250000  0.227638  0.638078  1
  C  C12  1  0.250000  0.468847  0.754097  1
  C  C13  1  0.750000  0.531153  0.245903  1
  C  C14  1  0.750000  0.031153  0.254097  1
  C  C15  1  0.250000  0.968847  0.745903  1
  C  C16  1  0.250000  0.822049  0.039473  1
  C  C17  1  0.750000  0.177951  0.960527  1
  C  C18  1  0.750000  0.677951  0.539473  1
  C  C19  1  0.250000  0.322049  0.460527  1
