# generated using pymatgen
data_Tb8Zr11Si16Ru
_symmetry_space_group_name_H-M   'P 1'
_cell_length_a   7.30733681
_cell_length_b   7.30733601
_cell_length_c   13.37724830
_cell_angle_alpha   90.03864768
_cell_angle_beta   89.96135302
_cell_angle_gamma   89.99733758
_symmetry_Int_Tables_number   1
_chemical_formula_structural   Tb8Zr11Si16Ru
_chemical_formula_sum   'Tb8 Zr11 Si16 Ru1'
_cell_volume   714.30681459
_cell_formula_units_Z   1
loop_
 _symmetry_equiv_pos_site_id
 _symmetry_equiv_pos_as_xyz
  1  'x, y, z'
loop_
 _atom_site_type_symbol
 _atom_site_label
 _atom_site_symmetry_multiplicity
 _atom_site_fract_x
 _atom_site_fract_y
 _atom_site_fract_z
 _atom_site_occupancy
  Tb  Tb0  1  0.998304  0.346562  0.209942  1
  Tb  Tb1  1  0.006112  0.651702  0.716448  1
  Tb  Tb2  1  0.153306  0.494755  0.463663  1
  Tb  Tb3  1  0.501526  0.849258  0.034133  1
  Tb  Tb4  1  0.849258  0.501526  0.965867  1
  Tb  Tb5  1  0.494755  0.153306  0.536337  1
  Tb  Tb6  1  0.346562  0.998304  0.790058  1
  Tb  Tb7  1  0.651702  0.006112  0.283552  1
  Zr  Zr8  1  0.823301  0.823301  0.500000  1
  Zr  Zr9  1  0.322567  0.677193  0.247723  1
  Zr  Zr10  1  0.677193  0.322567  0.752277  1
  Zr  Zr11  1  0.144197  0.998019  0.371886  1
  Zr  Zr12  1  0.854909  0.004651  0.878372  1
  Zr  Zr13  1  0.501946  0.644921  0.626084  1
  Zr  Zr14  1  0.355079  0.496894  0.876395  1
  Zr  Zr15  1  0.496894  0.355079  0.123605  1
  Zr  Zr16  1  0.644921  0.501946  0.373916  1
  Zr  Zr17  1  0.998019  0.144197  0.628114  1
  Zr  Zr18  1  0.004651  0.854909  0.121628  1
  Si  Si19  1  0.357524  0.294516  0.314251  1
  Si  Si20  1  0.642271  0.705892  0.818031  1
  Si  Si21  1  0.206450  0.859278  0.566020  1
  Si  Si22  1  0.137804  0.792767  0.931957  1
  Si  Si23  1  0.792767  0.137804  0.068043  1
  Si  Si24  1  0.859278  0.206450  0.433980  1
  Si  Si25  1  0.294516  0.357524  0.685749  1
  Si  Si26  1  0.705892  0.642271  0.181969  1
  Si  Si27  1  0.291418  0.059402  0.180108  1
  Si  Si28  1  0.704893  0.946921  0.687618  1
  Si  Si29  1  0.446163  0.795726  0.436092  1
  Si  Si30  1  0.207389  0.550814  0.062347  1
  Si  Si31  1  0.550814  0.207389  0.937653  1
  Si  Si32  1  0.795726  0.446163  0.563908  1
  Si  Si33  1  0.059402  0.291418  0.819892  1
  Si  Si34  1  0.946921  0.704893  0.312382  1
  Ru  Ru35  1  0.175570  0.175570  0.000000  1
