# generated using pymatgen
data_Sc4Be8Cu3Ru7
_symmetry_space_group_name_H-M   'P 1'
_cell_length_a   3.21562000
_cell_length_b   8.48359168
_cell_length_c   10.14363765
_cell_angle_alpha   88.80646560
_cell_angle_beta   90.00000000
_cell_angle_gamma   90.00000000
_symmetry_Int_Tables_number   1
_chemical_formula_structural   Sc4Be8Cu3Ru7
_chemical_formula_sum   'Sc4 Be8 Cu3 Ru7'
_cell_volume   276.65847004
_cell_formula_units_Z   1
loop_
 _symmetry_equiv_pos_site_id
 _symmetry_equiv_pos_as_xyz
  1  'x, y, z'
loop_
 _atom_site_type_symbol
 _atom_site_label
 _atom_site_symmetry_multiplicity
 _atom_site_fract_x
 _atom_site_fract_y
 _atom_site_fract_z
 _atom_site_occupancy
  Sc  Sc0  1  0.500000  0.842835  0.198595  1
  Sc  Sc1  1  0.500000  0.159539  0.807958  1
  Sc  Sc2  1  0.500000  0.662845  0.682691  1
  Sc  Sc3  1  0.500000  0.336466  0.311299  1
  Be  Be4  1  0.500000  0.966712  0.598265  1
  Be  Be5  1  0.500000  0.035138  0.405808  1
  Be  Be6  1  0.500000  0.847616  0.908573  1
  Be  Be7  1  0.500000  0.155596  0.093503  1
  Be  Be8  1  0.500000  0.654917  0.405348  1
  Be  Be9  1  0.500000  0.346304  0.592834  1
  Be  Be10  1  0.500000  0.453397  0.902956  1
  Be  Be11  1  0.500000  0.533835  0.096259  1
  Cu  Cu12  1  0.000000  0.656224  0.951308  1
  Cu  Cu13  1  0.000000  0.001547  0.001538  1
  Cu  Cu14  1  0.000000  0.500275  0.497575  1
  Ru  Ru15  1  0.000000  0.345567  0.041309  1
  Ru  Ru16  1  0.000000  0.834871  0.463505  1
  Ru  Ru17  1  0.000000  0.165606  0.539601  1
  Ru  Ru18  1  0.000000  0.410689  0.749654  1
  Ru  Ru19  1  0.000000  0.593288  0.247114  1
  Ru  Ru20  1  0.000000  0.904974  0.753814  1
  Ru  Ru21  1  0.000000  0.091760  0.250496  1
