# generated using pymatgen
data_K3Cu3Cl8
_symmetry_space_group_name_H-M   'P 1'
_cell_length_a   6.89273299
_cell_length_b   6.89273330
_cell_length_c   17.36855131
_cell_angle_alpha   85.90470183
_cell_angle_beta   85.90470106
_cell_angle_gamma   63.13311600
_symmetry_Int_Tables_number   1
_chemical_formula_structural   K3Cu3Cl8
_chemical_formula_sum   'K6 Cu6 Cl16'
_cell_volume   733.51518222
_cell_formula_units_Z   2
loop_
 _symmetry_equiv_pos_site_id
 _symmetry_equiv_pos_as_xyz
  1  'x, y, z'
loop_
 _atom_site_type_symbol
 _atom_site_label
 _atom_site_symmetry_multiplicity
 _atom_site_fract_x
 _atom_site_fract_y
 _atom_site_fract_z
 _atom_site_occupancy
  K  K0  1  0.988313  0.011687  0.750000  1
  K  K1  1  0.011687  0.988313  0.250000  1
  K  K2  1  0.323758  0.317928  0.586893  1
  K  K3  1  0.682072  0.676242  0.913107  1
  K  K4  1  0.676242  0.682072  0.413107  1
  K  K5  1  0.317928  0.323758  0.086893  1
  Cu  Cu6  1  0.000000  0.000000  0.000000  1
  Cu  Cu7  1  0.000000  0.000000  0.500000  1
  Cu  Cu8  1  0.362945  0.323047  0.846123  1
  Cu  Cu9  1  0.676953  0.637055  0.653877  1
  Cu  Cu10  1  0.637055  0.676953  0.153877  1
  Cu  Cu11  1  0.323047  0.362945  0.346123  1
  Cl  Cl12  1  0.083229  0.489517  0.256938  1
  Cl  Cl13  1  0.510483  0.916771  0.243062  1
  Cl  Cl14  1  0.916771  0.510483  0.743062  1
  Cl  Cl15  1  0.489517  0.083229  0.756938  1
  Cl  Cl16  1  0.657661  0.237887  0.381726  1
  Cl  Cl17  1  0.762113  0.342339  0.118274  1
  Cl  Cl18  1  0.342339  0.762113  0.618274  1
  Cl  Cl19  1  0.237887  0.657661  0.881726  1
  Cl  Cl20  1  0.844767  0.295914  0.576165  1
  Cl  Cl21  1  0.704086  0.155233  0.923835  1
  Cl  Cl22  1  0.155233  0.704086  0.423835  1
  Cl  Cl23  1  0.295914  0.844767  0.076165  1
  Cl  Cl24  1  0.139603  0.212995  0.935187  1
  Cl  Cl25  1  0.787005  0.860397  0.564813  1
  Cl  Cl26  1  0.860397  0.787005  0.064813  1
  Cl  Cl27  1  0.212995  0.139603  0.435187  1
