# generated using pymatgen
data_TmCoP3Rh4
_symmetry_space_group_name_H-M   'P 1'
_cell_length_a   3.83541900
_cell_length_b   10.76910800
_cell_length_c   12.40697500
_cell_angle_alpha   90.00000000
_cell_angle_beta   90.00000000
_cell_angle_gamma   90.00000000
_symmetry_Int_Tables_number   1
_chemical_formula_structural   TmCoP3Rh4
_chemical_formula_sum   'Tm4 Co4 P12 Rh16'
_cell_volume   512.45820950
_cell_formula_units_Z   4
loop_
 _symmetry_equiv_pos_site_id
 _symmetry_equiv_pos_as_xyz
  1  'x, y, z'
loop_
 _atom_site_type_symbol
 _atom_site_label
 _atom_site_symmetry_multiplicity
 _atom_site_fract_x
 _atom_site_fract_y
 _atom_site_fract_z
 _atom_site_occupancy
  Tm  Tm0  1  0.250000  0.585149  0.707846  1
  Tm  Tm1  1  0.250000  0.914851  0.207846  1
  Tm  Tm2  1  0.750000  0.414851  0.292154  1
  Tm  Tm3  1  0.750000  0.085149  0.792154  1
  Co  Co4  1  0.250000  0.464066  0.933611  1
  Co  Co5  1  0.250000  0.035934  0.433611  1
  Co  Co6  1  0.750000  0.535934  0.066389  1
  Co  Co7  1  0.750000  0.964066  0.566389  1
  P  P8  1  0.250000  0.423934  0.106155  1
  P  P9  1  0.250000  0.076066  0.606155  1
  P  P10  1  0.750000  0.576066  0.893845  1
  P  P11  1  0.750000  0.923934  0.393845  1
  P  P12  1  0.250000  0.271433  0.872462  1
  P  P13  1  0.250000  0.228567  0.372462  1
  P  P14  1  0.750000  0.728567  0.127538  1
  P  P15  1  0.750000  0.771433  0.627538  1
  P  P16  1  0.250000  0.598824  0.387760  1
  P  P17  1  0.250000  0.901176  0.887760  1
  P  P18  1  0.750000  0.401176  0.612240  1
  P  P19  1  0.750000  0.098824  0.112240  1
  Rh  Rh20  1  0.250000  0.716560  0.987578  1
  Rh  Rh21  1  0.250000  0.783440  0.487578  1
  Rh  Rh22  1  0.750000  0.283440  0.012422  1
  Rh  Rh23  1  0.750000  0.216560  0.512422  1
  Rh  Rh24  1  0.250000  0.408218  0.479081  1
  Rh  Rh25  1  0.250000  0.091782  0.979081  1
  Rh  Rh26  1  0.750000  0.591782  0.520919  1
  Rh  Rh27  1  0.750000  0.908218  0.020919  1
  Rh  Rh28  1  0.250000  0.228189  0.178590  1
  Rh  Rh29  1  0.250000  0.271811  0.678590  1
  Rh  Rh30  1  0.750000  0.771811  0.821410  1
  Rh  Rh31  1  0.750000  0.728189  0.321410  1
  Rh  Rh32  1  0.250000  0.887450  0.699150  1
  Rh  Rh33  1  0.250000  0.612550  0.199150  1
  Rh  Rh34  1  0.750000  0.112550  0.300850  1
  Rh  Rh35  1  0.750000  0.387450  0.800850  1
