# generated using pymatgen
data_TbY2Cd3PdPt2
_symmetry_space_group_name_H-M   'P 1'
_cell_length_a   7.64401974
_cell_length_b   7.64402028
_cell_length_c   3.89348500
_cell_angle_alpha   90.00000000
_cell_angle_beta   90.00000000
_cell_angle_gamma   119.88668310
_symmetry_Int_Tables_number   1
_chemical_formula_structural   TbY2Cd3PdPt2
_chemical_formula_sum   'Tb1 Y2 Cd3 Pd1 Pt2'
_cell_volume   197.24569712
_cell_formula_units_Z   1
loop_
 _symmetry_equiv_pos_site_id
 _symmetry_equiv_pos_as_xyz
  1  'x, y, z'
loop_
 _atom_site_type_symbol
 _atom_site_label
 _atom_site_symmetry_multiplicity
 _atom_site_fract_x
 _atom_site_fract_y
 _atom_site_fract_z
 _atom_site_occupancy
  Tb  Tb0  1  0.410015  0.410015  0.000000  1
  Y  Y1  1  0.590126  0.999775  0.000000  1
  Y  Y2  1  0.999775  0.590126  0.000000  1
  Cd  Cd3  1  0.256289  0.999750  0.500000  1
  Cd  Cd4  1  0.999750  0.256289  0.500000  1
  Cd  Cd5  1  0.743907  0.743907  0.500000  1
  Pd  Pd6  1  0.000295  0.000295  0.000000  1
  Pt  Pt7  1  0.333570  0.666273  0.500000  1
  Pt  Pt8  1  0.666273  0.333570  0.500000  1
