# generated using pymatgen
data_Rb3PSO3
_symmetry_space_group_name_H-M   'P 1'
_cell_length_a   6.08023600
_cell_length_b   6.72234941
_cell_length_c   9.04566423
_cell_angle_alpha   79.37603763
_cell_angle_beta   90.00000000
_cell_angle_gamma   90.00000000
_symmetry_Int_Tables_number   1
_chemical_formula_structural   Rb3PSO3
_chemical_formula_sum   'Rb6 P2 S2 O6'
_cell_volume   363.38994346
_cell_formula_units_Z   2
loop_
 _symmetry_equiv_pos_site_id
 _symmetry_equiv_pos_as_xyz
  1  'x, y, z'
loop_
 _atom_site_type_symbol
 _atom_site_label
 _atom_site_symmetry_multiplicity
 _atom_site_fract_x
 _atom_site_fract_y
 _atom_site_fract_z
 _atom_site_occupancy
  Rb  Rb0  1  0.750000  0.688076  0.470858  1
  Rb  Rb1  1  0.250000  0.245551  0.003673  1
  Rb  Rb2  1  0.250000  0.311924  0.529142  1
  Rb  Rb3  1  0.750000  0.754449  0.996327  1
  Rb  Rb4  1  0.250000  0.773663  0.735428  1
  Rb  Rb5  1  0.750000  0.226337  0.264572  1
  P  P6  1  0.750000  0.313987  0.791296  1
  P  P7  1  0.250000  0.686013  0.208704  1
  S  S8  1  0.750000  0.085426  0.657874  1
  S  S9  1  0.250000  0.914574  0.342126  1
  O  O10  1  0.250000  0.790566  0.041131  1
  O  O11  1  0.750000  0.209434  0.958869  1
  O  O12  1  0.960059  0.443356  0.750100  1
  O  O13  1  0.039941  0.556644  0.249900  1
  O  O14  1  0.539941  0.443356  0.750100  1
  O  O15  1  0.460059  0.556644  0.249900  1
