# generated using pymatgen
data_Hf5Sc3(InAu2)4
_symmetry_space_group_name_H-M   'P 1'
_cell_length_a   7.59475607
_cell_length_b   7.59475607
_cell_length_c   7.06770900
_cell_angle_alpha   90.00000000
_cell_angle_beta   90.00000000
_cell_angle_gamma   89.98403663
_symmetry_Int_Tables_number   1
_chemical_formula_structural   Hf5Sc3(InAu2)4
_chemical_formula_sum   'Hf5 Sc3 In4 Au8'
_cell_volume   407.66769968
_cell_formula_units_Z   1
loop_
 _symmetry_equiv_pos_site_id
 _symmetry_equiv_pos_as_xyz
  1  'x, y, z'
loop_
 _atom_site_type_symbol
 _atom_site_label
 _atom_site_symmetry_multiplicity
 _atom_site_fract_x
 _atom_site_fract_y
 _atom_site_fract_z
 _atom_site_occupancy
  Hf  Hf0  1  0.142877  0.146058  0.000000  1
  Hf  Hf1  1  0.853942  0.857123  0.000000  1
  Hf  Hf2  1  0.644404  0.355596  0.500000  1
  Hf  Hf3  1  0.354789  0.645211  0.500000  1
  Hf  Hf4  1  0.689421  0.310579  0.000000  1
  Sc  Sc5  1  0.310627  0.689373  0.000000  1
  Sc  Sc6  1  0.812097  0.809728  0.500000  1
  Sc  Sc7  1  0.190272  0.187903  0.500000  1
  In  In8  1  0.499858  0.999044  0.249635  1
  In  In9  1  0.499858  0.999044  0.750365  1
  In  In10  1  0.000956  0.500142  0.249635  1
  In  In11  1  0.000956  0.500142  0.750365  1
  Au  Au12  1  0.368440  0.367826  0.209298  1
  Au  Au13  1  0.632174  0.631560  0.790702  1
  Au  Au14  1  0.632174  0.631560  0.209298  1
  Au  Au15  1  0.867904  0.132096  0.708761  1
  Au  Au16  1  0.867904  0.132096  0.291239  1
  Au  Au17  1  0.368440  0.367826  0.790702  1
  Au  Au18  1  0.131454  0.868546  0.289421  1
  Au  Au19  1  0.131454  0.868546  0.710579  1
