# generated using pymatgen
data_SrSmCd2(SiPt2)2
_symmetry_space_group_name_H-M   'P 1'
_cell_length_a   4.20176900
_cell_length_b   4.20176900
_cell_length_c   11.40244100
_cell_angle_alpha   90.00000000
_cell_angle_beta   90.00000000
_cell_angle_gamma   90.00000000
_symmetry_Int_Tables_number   1
_chemical_formula_structural   SrSmCd2(SiPt2)2
_chemical_formula_sum   'Sr1 Sm1 Cd2 Si2 Pt4'
_cell_volume   201.30853063
_cell_formula_units_Z   1
loop_
 _symmetry_equiv_pos_site_id
 _symmetry_equiv_pos_as_xyz
  1  'x, y, z'
loop_
 _atom_site_type_symbol
 _atom_site_label
 _atom_site_symmetry_multiplicity
 _atom_site_fract_x
 _atom_site_fract_y
 _atom_site_fract_z
 _atom_site_occupancy
  Sr  Sr0  1  0.000000  0.500000  0.760690  1
  Sm  Sm1  1  0.500000  0.000000  0.233611  1
  Cd  Cd2  1  0.500000  0.500000  0.496660  1
  Cd  Cd3  1  0.000000  0.000000  0.496660  1
  Si  Si4  1  0.000000  0.500000  0.118140  1
  Si  Si5  1  0.500000  0.000000  0.885180  1
  Pt  Pt6  1  0.500000  0.000000  0.676761  1
  Pt  Pt7  1  0.000000  0.000000  0.004470  1
  Pt  Pt8  1  0.500000  0.500000  0.004470  1
  Pt  Pt9  1  0.000000  0.500000  0.323358  1
