# generated using pymatgen
data_PrGaCo3B
_symmetry_space_group_name_H-M   'P 1'
_cell_length_a   5.27037400
_cell_length_b   5.27095618
_cell_length_c   6.67683200
_cell_angle_alpha   90.00000000
_cell_angle_beta   90.00000000
_cell_angle_gamma   119.99634641
_symmetry_Int_Tables_number   1
_chemical_formula_structural   PrGaCo3B
_chemical_formula_sum   'Pr2 Ga2 Co6 B2'
_cell_volume   160.63785963
_cell_formula_units_Z   2
loop_
 _symmetry_equiv_pos_site_id
 _symmetry_equiv_pos_as_xyz
  1  'x, y, z'
loop_
 _atom_site_type_symbol
 _atom_site_label
 _atom_site_symmetry_multiplicity
 _atom_site_fract_x
 _atom_site_fract_y
 _atom_site_fract_z
 _atom_site_occupancy
  Pr  Pr0  1  0.999981  0.000000  0.000000  1
  Pr  Pr1  1  0.999983  0.000000  0.500000  1
  Ga  Ga2  1  0.333288  0.666612  0.000000  1
  Ga  Ga3  1  0.666677  0.333388  0.000000  1
  Co  Co4  1  0.499983  0.000000  0.296644  1
  Co  Co5  1  0.499983  0.499999  0.296689  1
  Co  Co6  1  0.999984  0.500001  0.296689  1
  Co  Co7  1  0.499983  0.000000  0.703356  1
  Co  Co8  1  0.499983  0.499999  0.703311  1
  Co  Co9  1  0.999984  0.500001  0.703311  1
  B  B10  1  0.333351  0.666735  0.500000  1
  B  B11  1  0.666617  0.333265  0.500000  1
