# generated using pymatgen
data_Ho8Sc12Si11Ge5
_symmetry_space_group_name_H-M   'P 1'
_cell_length_a   7.12466966
_cell_length_b   7.38327341
_cell_length_c   14.01685424
_cell_angle_alpha   89.97755390
_cell_angle_beta   89.34711522
_cell_angle_gamma   90.03067533
_symmetry_Int_Tables_number   1
_chemical_formula_structural   Ho8Sc12Si11Ge5
_chemical_formula_sum   'Ho8 Sc12 Si11 Ge5'
_cell_volume   737.28593333
_cell_formula_units_Z   1
loop_
 _symmetry_equiv_pos_site_id
 _symmetry_equiv_pos_as_xyz
  1  'x, y, z'
loop_
 _atom_site_type_symbol
 _atom_site_label
 _atom_site_symmetry_multiplicity
 _atom_site_fract_x
 _atom_site_fract_y
 _atom_site_fract_z
 _atom_site_occupancy
  Ho  Ho0  1  0.009830  0.174890  0.096726  1
  Ho  Ho1  1  0.991595  0.825069  0.903101  1
  Ho  Ho2  1  0.490179  0.676198  0.902817  1
  Ho  Ho3  1  0.995523  0.821871  0.598749  1
  Ho  Ho4  1  0.506430  0.323301  0.097006  1
  Ho  Ho5  1  0.004295  0.177778  0.401078  1
  Ho  Ho6  1  0.503883  0.322190  0.401105  1
  Ho  Ho7  1  0.495923  0.677621  0.598878  1
  Sc  Sc8  1  0.168110  0.501521  0.751101  1
  Sc  Sc9  1  0.832188  0.498699  0.250320  1
  Sc  Sc10  1  0.332332  0.001489  0.249071  1
  Sc  Sc11  1  0.667836  0.998350  0.751049  1
  Sc  Sc12  1  0.340746  0.171961  0.626631  1
  Sc  Sc13  1  0.659432  0.828477  0.373053  1
  Sc  Sc14  1  0.159446  0.671911  0.373174  1
  Sc  Sc15  1  0.663422  0.825809  0.125881  1
  Sc  Sc16  1  0.840735  0.328115  0.626584  1
  Sc  Sc17  1  0.335223  0.176317  0.874828  1
  Sc  Sc18  1  0.835917  0.322319  0.875058  1
  Sc  Sc19  1  0.166413  0.676561  0.124685  1
  Si  Si20  1  0.040113  0.115979  0.750933  1
  Si  Si21  1  0.960299  0.883218  0.248655  1
  Si  Si22  1  0.460104  0.616377  0.249016  1
  Si  Si23  1  0.540821  0.383338  0.751088  1
  Si  Si24  1  0.291251  0.871954  0.750945  1
  Si  Si25  1  0.708590  0.128940  0.248888  1
  Si  Si26  1  0.207846  0.371844  0.248751  1
  Si  Si27  1  0.791699  0.627752  0.751364  1
  Si  Si28  1  0.164634  0.463532  0.960045  1
  Si  Si29  1  0.659433  0.035110  0.960851  1
  Si  Si30  1  0.340499  0.964570  0.039187  1
  Ge  Ge31  1  0.176868  0.460030  0.540583  1
  Ge  Ge32  1  0.823479  0.540034  0.459205  1
  Ge  Ge33  1  0.323620  0.959770  0.459216  1
  Ge  Ge34  1  0.834629  0.537063  0.039899  1
  Ge  Ge35  1  0.676658  0.040040  0.540480  1
