# generated using pymatgen
data_Na2V3Co9P7
_symmetry_space_group_name_H-M   'P 1'
_cell_length_a   3.58735800
_cell_length_b   9.05422214
_cell_length_c   9.05422200
_cell_angle_alpha   119.99999852
_cell_angle_beta   90.00000000
_cell_angle_gamma   90.00000000
_symmetry_Int_Tables_number   1
_chemical_formula_structural   Na2V3Co9P7
_chemical_formula_sum   'Na2 V3 Co9 P7'
_cell_volume   254.68750648
_cell_formula_units_Z   1
loop_
 _symmetry_equiv_pos_site_id
 _symmetry_equiv_pos_as_xyz
  1  'x, y, z'
loop_
 _atom_site_type_symbol
 _atom_site_label
 _atom_site_symmetry_multiplicity
 _atom_site_fract_x
 _atom_site_fract_y
 _atom_site_fract_z
 _atom_site_occupancy
  Na  Na0  1  0.000000  0.666667  0.333333  1
  Na  Na1  1  0.500000  0.333333  0.666667  1
  V  V2  1  0.500000  0.782891  0.901221  1
  V  V3  1  0.500000  0.118330  0.217109  1
  V  V4  1  0.500000  0.098779  0.881670  1
  Co  Co5  1  0.000000  0.571097  0.944638  1
  Co  Co6  1  0.000000  0.373540  0.428903  1
  Co  Co7  1  0.000000  0.055362  0.626460  1
  Co  Co8  1  0.000000  0.882488  0.158761  1
  Co  Co9  1  0.000000  0.276274  0.117512  1
  Co  Co10  1  0.000000  0.841239  0.723726  1
  Co  Co11  1  0.500000  0.953577  0.388365  1
  Co  Co12  1  0.500000  0.434786  0.046423  1
  Co  Co13  1  0.500000  0.611635  0.565214  1
  P  P14  1  0.000000  0.000000  0.000000  1
  P  P15  1  0.500000  0.710956  0.120665  1
  P  P16  1  0.500000  0.409708  0.289044  1
  P  P17  1  0.500000  0.879335  0.590292  1
  P  P18  1  0.000000  0.584751  0.701247  1
  P  P19  1  0.000000  0.116497  0.415249  1
  P  P20  1  0.000000  0.298753  0.883503  1
