# generated using pymatgen
data_Ba8CaAu6
_symmetry_space_group_name_H-M   'P 1'
_cell_length_a   8.74144327
_cell_length_b   8.74144410
_cell_length_c   8.74144404
_cell_angle_alpha   71.76000569
_cell_angle_beta   71.76000450
_cell_angle_gamma   71.75999943
_symmetry_Int_Tables_number   1
_chemical_formula_structural   Ba8CaAu6
_chemical_formula_sum   'Ba8 Ca1 Au6'
_cell_volume   585.15005348
_cell_formula_units_Z   1
loop_
 _symmetry_equiv_pos_site_id
 _symmetry_equiv_pos_as_xyz
  1  'x, y, z'
loop_
 _atom_site_type_symbol
 _atom_site_label
 _atom_site_symmetry_multiplicity
 _atom_site_fract_x
 _atom_site_fract_y
 _atom_site_fract_z
 _atom_site_occupancy
  Ba  Ba0  1  0.799710  0.799710  0.799710  1
  Ba  Ba1  1  0.200290  0.200290  0.200290  1
  Ba  Ba2  1  0.322631  0.614522  0.844525  1
  Ba  Ba3  1  0.844525  0.322631  0.614522  1
  Ba  Ba4  1  0.614522  0.844525  0.322631  1
  Ba  Ba5  1  0.677369  0.385478  0.155475  1
  Ba  Ba6  1  0.155475  0.677369  0.385478  1
  Ba  Ba7  1  0.385478  0.155475  0.677369  1
  Ca  Ca8  1  0.000000  0.000000  0.000000  1
  Au  Au9  1  0.144138  0.960807  0.607766  1
  Au  Au10  1  0.607766  0.144138  0.960807  1
  Au  Au11  1  0.960807  0.607766  0.144138  1
  Au  Au12  1  0.855862  0.039193  0.392234  1
  Au  Au13  1  0.392234  0.855862  0.039193  1
  Au  Au14  1  0.039193  0.392234  0.855862  1
