# generated using pymatgen
data_Er10Tl5BiSe2
_symmetry_space_group_name_H-M   'P 1'
_cell_length_a   9.06726500
_cell_length_b   9.06726426
_cell_length_c   6.63954800
_cell_angle_alpha   90.00000000
_cell_angle_beta   90.00000000
_cell_angle_gamma   120.06367432
_symmetry_Int_Tables_number   1
_chemical_formula_structural   Er10Tl5BiSe2
_chemical_formula_sum   'Er10 Tl5 Bi1 Se2'
_cell_volume   472.43570948
_cell_formula_units_Z   1
loop_
 _symmetry_equiv_pos_site_id
 _symmetry_equiv_pos_as_xyz
  1  'x, y, z'
loop_
 _atom_site_type_symbol
 _atom_site_label
 _atom_site_symmetry_multiplicity
 _atom_site_fract_x
 _atom_site_fract_y
 _atom_site_fract_z
 _atom_site_occupancy
  Er  Er0  1  0.670592  0.334517  0.004846  1
  Er  Er1  1  0.334517  0.670592  0.004846  1
  Er  Er2  1  0.334517  0.670592  0.495154  1
  Er  Er3  1  0.670592  0.334517  0.495154  1
  Er  Er4  1  0.748910  0.748910  0.750000  1
  Er  Er5  1  0.247325  0.992683  0.750000  1
  Er  Er6  1  0.992683  0.247325  0.750000  1
  Er  Er7  1  0.252904  0.252904  0.250000  1
  Er  Er8  1  0.746490  0.997361  0.250000  1
  Er  Er9  1  0.997361  0.746490  0.250000  1
  Tl  Tl10  1  0.599504  0.999297  0.750000  1
  Tl  Tl11  1  0.999297  0.599504  0.750000  1
  Tl  Tl12  1  0.602871  0.602871  0.250000  1
  Tl  Tl13  1  0.402003  0.002597  0.250000  1
  Tl  Tl14  1  0.002597  0.402003  0.250000  1
  Bi  Bi15  1  0.394921  0.394921  0.750000  1
  Se  Se16  1  0.001456  0.001456  0.998992  1
  Se  Se17  1  0.001456  0.001456  0.501008  1
