# generated using pymatgen
data_La10Ir3Os
_symmetry_space_group_name_H-M   'P 1'
_cell_length_a   9.21657305
_cell_length_b   9.18793019
_cell_length_c   7.44328190
_cell_angle_alpha   84.26421123
_cell_angle_beta   84.23483477
_cell_angle_gamma   43.08588549
_symmetry_Int_Tables_number   1
_chemical_formula_structural   La10Ir3Os
_chemical_formula_sum   'La10 Ir3 Os1'
_cell_volume   428.05287729
_cell_formula_units_Z   1
loop_
 _symmetry_equiv_pos_site_id
 _symmetry_equiv_pos_as_xyz
  1  'x, y, z'
loop_
 _atom_site_type_symbol
 _atom_site_label
 _atom_site_symmetry_multiplicity
 _atom_site_fract_x
 _atom_site_fract_y
 _atom_site_fract_z
 _atom_site_occupancy
  La  La0  1  0.015220  0.799662  0.908019  1
  La  La1  1  0.197762  0.984567  0.589036  1
  La  La2  1  0.986331  0.197924  0.088836  1
  La  La3  1  0.804618  0.010692  0.412232  1
  La  La4  1  0.355416  0.214596  0.817536  1
  La  La5  1  0.791237  0.641942  0.681513  1
  La  La6  1  0.641946  0.789048  0.181332  1
  La  La7  1  0.211661  0.359152  0.320074  1
  La  La8  1  0.573984  0.425187  0.749494  1
  La  La9  1  0.423758  0.574545  0.251907  1
  Ir  Ir10  1  0.406074  0.817582  0.921782  1
  Ir  Ir11  1  0.817632  0.406110  0.420360  1
  Ir  Ir12  1  0.593719  0.182557  0.079061  1
  Os  Os13  1  0.180642  0.596435  0.578817  1
