# generated using pymatgen
data_TmScB6Rh
_symmetry_space_group_name_H-M   'P 1'
_cell_length_a   3.53281600
_cell_length_b   8.98214300
_cell_length_c   11.32220800
_cell_angle_alpha   90.00000000
_cell_angle_beta   90.00000000
_cell_angle_gamma   90.00000000
_symmetry_Int_Tables_number   1
_chemical_formula_structural   TmScB6Rh
_chemical_formula_sum   'Tm4 Sc4 B24 Rh4'
_cell_volume   359.27923110
_cell_formula_units_Z   4
loop_
 _symmetry_equiv_pos_site_id
 _symmetry_equiv_pos_as_xyz
  1  'x, y, z'
loop_
 _atom_site_type_symbol
 _atom_site_label
 _atom_site_symmetry_multiplicity
 _atom_site_fract_x
 _atom_site_fract_y
 _atom_site_fract_z
 _atom_site_occupancy
  Tm  Tm0  1  0.500000  0.320190  0.413766  1
  Tm  Tm1  1  0.500000  0.679810  0.586234  1
  Tm  Tm2  1  0.500000  0.179810  0.913766  1
  Tm  Tm3  1  0.500000  0.820190  0.086234  1
  Sc  Sc4  1  0.500000  0.444568  0.124973  1
  Sc  Sc5  1  0.500000  0.555432  0.875027  1
  Sc  Sc6  1  0.500000  0.055432  0.624973  1
  Sc  Sc7  1  0.500000  0.944568  0.375027  1
  B  B8  1  0.000000  0.100875  0.472696  1
  B  B9  1  0.000000  0.899125  0.527304  1
  B  B10  1  0.000000  0.399125  0.972696  1
  B  B11  1  0.000000  0.600875  0.027304  1
  B  B12  1  0.000000  0.130467  0.318423  1
  B  B13  1  0.000000  0.869533  0.681577  1
  B  B14  1  0.000000  0.369533  0.818423  1
  B  B15  1  0.000000  0.630467  0.181577  1
  B  B16  1  0.000000  0.054400  0.065143  1
  B  B17  1  0.000000  0.945600  0.934857  1
  B  B18  1  0.000000  0.445600  0.565143  1
  B  B19  1  0.000000  0.554400  0.434857  1
  B  B20  1  0.000000  0.481232  0.285702  1
  B  B21  1  0.000000  0.518768  0.714298  1
  B  B22  1  0.000000  0.018768  0.785702  1
  B  B23  1  0.000000  0.981232  0.214298  1
  B  B24  1  0.000000  0.253541  0.079749  1
  B  B25  1  0.000000  0.746459  0.920251  1
  B  B26  1  0.000000  0.246459  0.579749  1
  B  B27  1  0.000000  0.753541  0.420251  1
  B  B28  1  0.000000  0.296047  0.235940  1
  B  B29  1  0.000000  0.703953  0.764060  1
  B  B30  1  0.000000  0.203953  0.735940  1
  B  B31  1  0.000000  0.796047  0.264060  1
  Rh  Rh32  1  0.500000  0.141295  0.181185  1
  Rh  Rh33  1  0.500000  0.858705  0.818815  1
  Rh  Rh34  1  0.500000  0.358705  0.681185  1
  Rh  Rh35  1  0.500000  0.641295  0.318815  1
