# generated using pymatgen
data_Er12TcNi2Os
_symmetry_space_group_name_H-M   'P 1'
_cell_length_a   6.29919485
_cell_length_b   7.07835304
_cell_length_c   9.17362400
_cell_angle_alpha   90.00000000
_cell_angle_beta   90.00000000
_cell_angle_gamma   89.91581596
_symmetry_Int_Tables_number   1
_chemical_formula_structural   Er12TcNi2Os
_chemical_formula_sum   'Er12 Tc1 Ni2 Os1'
_cell_volume   409.03241770
_cell_formula_units_Z   1
loop_
 _symmetry_equiv_pos_site_id
 _symmetry_equiv_pos_as_xyz
  1  'x, y, z'
loop_
 _atom_site_type_symbol
 _atom_site_label
 _atom_site_symmetry_multiplicity
 _atom_site_fract_x
 _atom_site_fract_y
 _atom_site_fract_z
 _atom_site_occupancy
  Er  Er0  1  0.328110  0.677279  0.060546  1
  Er  Er1  1  0.176641  0.182147  0.434966  1
  Er  Er2  1  0.677266  0.317030  0.564804  1
  Er  Er3  1  0.828560  0.822545  0.939202  1
  Er  Er4  1  0.677266  0.317030  0.935196  1
  Er  Er5  1  0.828560  0.822545  0.560798  1
  Er  Er6  1  0.328110  0.677279  0.439454  1
  Er  Er7  1  0.176641  0.182147  0.065034  1
  Er  Er8  1  0.866687  0.536209  0.250000  1
  Er  Er9  1  0.623123  0.037860  0.250000  1
  Er  Er10  1  0.129409  0.462981  0.750000  1
  Er  Er11  1  0.366106  0.961918  0.750000  1
  Tc  Tc12  1  0.036638  0.892129  0.250000  1
  Ni  Ni13  1  0.456712  0.389632  0.250000  1
  Ni  Ni14  1  0.956872  0.111969  0.750000  1
  Os  Os15  1  0.543299  0.609302  0.750000  1
