# generated using pymatgen
data_Ta6Si6Tc5Mo
_symmetry_space_group_name_H-M   'P 1'
_cell_length_a   7.57226064
_cell_length_b   7.56030642
_cell_length_c   7.56030543
_cell_angle_alpha   126.86577861
_cell_angle_beta   125.54259432
_cell_angle_gamma   79.52058455
_symmetry_Int_Tables_number   1
_chemical_formula_structural   Ta6Si6Tc5Mo
_chemical_formula_sum   'Ta6 Si6 Tc5 Mo1'
_cell_volume   272.34205973
_cell_formula_units_Z   1
loop_
 _symmetry_equiv_pos_site_id
 _symmetry_equiv_pos_as_xyz
  1  'x, y, z'
loop_
 _atom_site_type_symbol
 _atom_site_label
 _atom_site_symmetry_multiplicity
 _atom_site_fract_x
 _atom_site_fract_y
 _atom_site_fract_z
 _atom_site_occupancy
  Ta  Ta0  1  0.557318  0.097813  0.042438  1
  Ta  Ta1  1  0.442682  0.485120  0.540495  1
  Ta  Ta2  1  0.961820  0.495413  0.037293  1
  Ta  Ta3  1  0.038180  0.075474  0.533593  1
  Ta  Ta4  1  0.754567  0.910732  0.658577  1
  Ta  Ta5  1  0.245433  0.904008  0.156165  1
  Si  Si6  1  0.336189  0.825296  0.497328  1
  Si  Si7  1  0.663811  0.161138  0.489106  1
  Si  Si8  1  0.826435  0.821566  0.986409  1
  Si  Si9  1  0.173565  0.159974  0.995131  1
  Si  Si10  1  0.771975  0.532953  0.259959  1
  Si  Si11  1  0.228025  0.487984  0.760979  1
  Tc  Tc12  1  0.158977  0.752141  0.655333  1
  Tc  Tc13  1  0.841023  0.496355  0.593164  1
  Tc  Tc14  1  0.597459  0.750174  0.093170  1
  Tc  Tc15  1  0.402541  0.495710  0.152715  1
  Tc  Tc16  1  0.500000  0.245425  0.745425  1
  Mo  Mo17  1  0.000000  0.244720  0.244720  1
