# generated using pymatgen
data_CaDy6FeI12
_symmetry_space_group_name_H-M   'P 1'
_cell_length_a   9.77174435
_cell_length_b   9.77174373
_cell_length_c   9.77174532
_cell_angle_alpha   106.97334618
_cell_angle_beta   106.97334945
_cell_angle_gamma   106.97335814
_symmetry_Int_Tables_number   1
_chemical_formula_structural   CaDy6FeI12
_chemical_formula_sum   'Ca1 Dy6 Fe1 I12'
_cell_volume   777.63754597
_cell_formula_units_Z   1
loop_
 _symmetry_equiv_pos_site_id
 _symmetry_equiv_pos_as_xyz
  1  'x, y, z'
loop_
 _atom_site_type_symbol
 _atom_site_label
 _atom_site_symmetry_multiplicity
 _atom_site_fract_x
 _atom_site_fract_y
 _atom_site_fract_z
 _atom_site_occupancy
  Ca  Ca0  1  0.997723  0.997723  0.997723  1
  Dy  Dy1  1  0.520799  0.591689  0.788717  1
  Dy  Dy2  1  0.788717  0.520799  0.591689  1
  Dy  Dy3  1  0.591689  0.788717  0.520799  1
  Dy  Dy4  1  0.477025  0.406025  0.209232  1
  Dy  Dy5  1  0.209232  0.477025  0.406025  1
  Dy  Dy6  1  0.406025  0.209232  0.477025  1
  Fe  Fe7  1  0.499021  0.499021  0.499021  1
  I  I8  1  0.274146  0.817869  0.425126  1
  I  I9  1  0.425126  0.274146  0.817869  1
  I  I10  1  0.817869  0.425126  0.274146  1
  I  I11  1  0.723820  0.180183  0.572641  1
  I  I12  1  0.572641  0.723820  0.180183  1
  I  I13  1  0.180183  0.572641  0.723820  1
  I  I14  1  0.044316  0.123421  0.350305  1
  I  I15  1  0.350305  0.044316  0.123421  1
  I  I16  1  0.123421  0.350305  0.044316  1
  I  I17  1  0.953032  0.874078  0.646200  1
  I  I18  1  0.646200  0.953032  0.874078  1
  I  I19  1  0.874078  0.646200  0.953032  1
