# generated using pymatgen
data_Hf4In2Co2PdPt
_symmetry_space_group_name_H-M   'P 1'
_cell_length_a   7.48627932
_cell_length_b   7.48627901
_cell_length_c   3.22817800
_cell_angle_alpha   90.00000000
_cell_angle_beta   90.00000000
_cell_angle_gamma   88.54333465
_symmetry_Int_Tables_number   1
_chemical_formula_structural   Hf4In2Co2PdPt
_chemical_formula_sum   'Hf4 In2 Co2 Pd1 Pt1'
_cell_volume   180.86275380
_cell_formula_units_Z   1
loop_
 _symmetry_equiv_pos_site_id
 _symmetry_equiv_pos_as_xyz
  1  'x, y, z'
loop_
 _atom_site_type_symbol
 _atom_site_label
 _atom_site_symmetry_multiplicity
 _atom_site_fract_x
 _atom_site_fract_y
 _atom_site_fract_z
 _atom_site_occupancy
  Hf  Hf0  1  0.179637  0.314155  0.000000  1
  Hf  Hf1  1  0.814155  0.679637  0.000000  1
  Hf  Hf2  1  0.653840  0.153840  0.000000  1
  Hf  Hf3  1  0.351188  0.851188  0.000000  1
  In  In4  1  0.999627  0.996235  0.500000  1
  In  In5  1  0.496235  0.499627  0.500000  1
  Co  Co6  1  0.374846  0.126998  0.500000  1
  Co  Co7  1  0.626998  0.874846  0.500000  1
  Pd  Pd8  1  0.132185  0.632185  0.500000  1
  Pt  Pt9  1  0.871288  0.371288  0.500000  1
