# generated using pymatgen
data_TmLuMg2(B4Ru5)2
_symmetry_space_group_name_H-M   'P 1'
_cell_length_a   3.01341900
_cell_length_b   8.54373160
_cell_length_c   10.13786922
_cell_angle_alpha   91.19451728
_cell_angle_beta   90.00000000
_cell_angle_gamma   90.00000000
_symmetry_Int_Tables_number   1
_chemical_formula_structural   TmLuMg2(B4Ru5)2
_chemical_formula_sum   'Tm1 Lu1 Mg2 B8 Ru10'
_cell_volume   260.95126901
_cell_formula_units_Z   1
loop_
 _symmetry_equiv_pos_site_id
 _symmetry_equiv_pos_as_xyz
  1  'x, y, z'
loop_
 _atom_site_type_symbol
 _atom_site_label
 _atom_site_symmetry_multiplicity
 _atom_site_fract_x
 _atom_site_fract_y
 _atom_site_fract_z
 _atom_site_occupancy
  Tm  Tm0  1  0.500000  0.655033  0.815403  1
  Lu  Lu1  1  0.500000  0.345099  0.184862  1
  Mg  Mg2  1  0.500000  0.149559  0.680857  1
  Mg  Mg3  1  0.500000  0.850430  0.319037  1
  B  B4  1  0.500000  0.856528  0.599455  1
  B  B5  1  0.500000  0.143640  0.400246  1
  B  B6  1  0.500000  0.347863  0.896245  1
  B  B7  1  0.500000  0.651780  0.103992  1
  B  B8  1  0.500000  0.962910  0.911065  1
  B  B9  1  0.500000  0.037570  0.089092  1
  B  B10  1  0.500000  0.460741  0.588296  1
  B  B11  1  0.500000  0.538954  0.411421  1
  Ru  Ru12  1  0.000000  0.390367  0.736373  1
  Ru  Ru13  1  0.000000  0.608883  0.263565  1
  Ru  Ru14  1  0.000000  0.909257  0.759851  1
  Ru  Ru15  1  0.000000  0.091930  0.239957  1
  Ru  Ru16  1  0.000000  0.000061  0.499863  1
  Ru  Ru17  1  0.000000  0.499333  0.000508  1
  Ru  Ru18  1  0.000000  0.656438  0.549457  1
  Ru  Ru19  1  0.000000  0.343641  0.450183  1
  Ru  Ru20  1  0.000000  0.157420  0.955751  1
  Ru  Ru21  1  0.000000  0.842561  0.044523  1
