# generated using pymatgen
data_Ca2Zn(Ga3Pt2)3
_symmetry_space_group_name_H-M   'P 1'
_cell_length_a   4.14741300
_cell_length_b   7.41154410
_cell_length_c   21.11085600
_cell_angle_alpha   90.06027560
_cell_angle_beta   90.00000000
_cell_angle_gamma   90.00000000
_symmetry_Int_Tables_number   1
_chemical_formula_structural   Ca2Zn(Ga3Pt2)3
_chemical_formula_sum   'Ca4 Zn2 Ga18 Pt12'
_cell_volume   648.92063552
_cell_formula_units_Z   2
loop_
 _symmetry_equiv_pos_site_id
 _symmetry_equiv_pos_as_xyz
  1  'x, y, z'
loop_
 _atom_site_type_symbol
 _atom_site_label
 _atom_site_symmetry_multiplicity
 _atom_site_fract_x
 _atom_site_fract_y
 _atom_site_fract_z
 _atom_site_occupancy
  Ca  Ca0  1  0.250000  0.117336  0.640575  1
  Ca  Ca1  1  0.750000  0.883662  0.359079  1
  Ca  Ca2  1  0.250000  0.382370  0.140602  1
  Ca  Ca3  1  0.750000  0.618003  0.859877  1
  Zn  Zn4  1  0.750000  0.352443  0.383743  1
  Zn  Zn5  1  0.750000  0.881610  0.982029  1
  Ga  Ga6  1  0.750000  0.684120  0.200045  1
  Ga  Ga7  1  0.250000  0.871881  0.490841  1
  Ga  Ga8  1  0.250000  0.632508  0.989857  1
  Ga  Ga9  1  0.250000  0.317773  0.801214  1
  Ga  Ga10  1  0.750000  0.077851  0.206946  1
  Ga  Ga11  1  0.250000  0.648657  0.617087  1
  Ga  Ga12  1  0.250000  0.576682  0.294324  1
  Ga  Ga13  1  0.250000  0.186615  0.302369  1
  Ga  Ga14  1  0.750000  0.144475  0.884280  1
  Ga  Ga15  1  0.250000  0.922141  0.792869  1
  Ga  Ga16  1  0.750000  0.374077  0.009410  1
  Ga  Ga17  1  0.750000  0.615350  0.481315  1
  Ga  Ga18  1  0.750000  0.126179  0.508338  1
  Ga  Ga19  1  0.250000  0.110890  0.017291  1
  Ga  Ga20  1  0.250000  0.851850  0.116368  1
  Ga  Ga21  1  0.250000  0.381327  0.516643  1
  Ga  Ga22  1  0.750000  0.422061  0.706080  1
  Ga  Ga23  1  0.750000  0.818404  0.699211  1
  Pt  Pt24  1  0.750000  0.383738  0.260432  1
  Pt  Pt25  1  0.250000  0.884218  0.238615  1
  Pt  Pt26  1  0.250000  0.616449  0.738153  1
  Pt  Pt27  1  0.750000  0.117735  0.762044  1
  Pt  Pt28  1  0.250000  0.161748  0.425565  1
  Pt  Pt29  1  0.750000  0.421296  0.584796  1
  Pt  Pt30  1  0.750000  0.082645  0.086309  1
  Pt  Pt31  1  0.250000  0.922306  0.912877  1
  Pt  Pt32  1  0.750000  0.832597  0.574265  1
  Pt  Pt33  1  0.250000  0.333472  0.925791  1
  Pt  Pt34  1  0.750000  0.664305  0.076148  1
  Pt  Pt35  1  0.250000  0.581229  0.414609  1
