# generated using pymatgen
data_Nd3AgPt2(RhO7)2
_symmetry_space_group_name_H-M   'P 1'
_cell_length_a   7.24719941
_cell_length_b   7.27787381
_cell_length_c   7.27787178
_cell_angle_alpha   61.86103521
_cell_angle_beta   61.78825742
_cell_angle_gamma   61.78825548
_symmetry_Int_Tables_number   1
_chemical_formula_structural   Nd3AgPt2(RhO7)2
_chemical_formula_sum   'Nd3 Ag1 Pt2 Rh2 O14'
_cell_volume   282.45287456
_cell_formula_units_Z   1
loop_
 _symmetry_equiv_pos_site_id
 _symmetry_equiv_pos_as_xyz
  1  'x, y, z'
loop_
 _atom_site_type_symbol
 _atom_site_label
 _atom_site_symmetry_multiplicity
 _atom_site_fract_x
 _atom_site_fract_y
 _atom_site_fract_z
 _atom_site_occupancy
  Nd  Nd0  1  0.625000  0.625000  0.125000  1
  Nd  Nd1  1  0.625000  0.125000  0.625000  1
  Nd  Nd2  1  0.125000  0.625000  0.625000  1
  Ag  Ag3  1  0.625000  0.625000  0.625000  1
  Pt  Pt4  1  0.625000  0.125000  0.125000  1
  Pt  Pt5  1  0.125000  0.125000  0.125000  1
  Rh  Rh6  1  0.125000  0.125000  0.625000  1
  Rh  Rh7  1  0.125000  0.625000  0.125000  1
  O  O8  1  0.507040  0.506458  0.506458  1
  O  O9  1  0.742960  0.743542  0.743542  1
  O  O10  1  0.449299  0.054827  0.450840  1
  O  O11  1  0.210720  0.791341  0.212088  1
  O  O12  1  0.449299  0.450840  0.054827  1
  O  O13  1  0.057016  0.447940  0.447940  1
  O  O14  1  0.460775  0.036214  0.036214  1
  O  O15  1  0.039280  0.037912  0.458659  1
  O  O16  1  0.039280  0.458659  0.037912  1
  O  O17  1  0.789225  0.213786  0.213786  1
  O  O18  1  0.192984  0.802060  0.802060  1
  O  O19  1  0.800701  0.195173  0.799160  1
  O  O20  1  0.210720  0.212088  0.791341  1
  O  O21  1  0.800701  0.799160  0.195173  1
