# generated using pymatgen
data_Zr2AsPIrRu
_symmetry_space_group_name_H-M   'P 1'
_cell_length_a   3.93596200
_cell_length_b   6.59494100
_cell_length_c   7.51921800
_cell_angle_alpha   90.00000000
_cell_angle_beta   90.00000000
_cell_angle_gamma   90.00000000
_symmetry_Int_Tables_number   1
_chemical_formula_structural   Zr2AsPIrRu
_chemical_formula_sum   'Zr4 As2 P2 Ir2 Ru2'
_cell_volume   195.17962879
_cell_formula_units_Z   2
loop_
 _symmetry_equiv_pos_site_id
 _symmetry_equiv_pos_as_xyz
  1  'x, y, z'
loop_
 _atom_site_type_symbol
 _atom_site_label
 _atom_site_symmetry_multiplicity
 _atom_site_fract_x
 _atom_site_fract_y
 _atom_site_fract_z
 _atom_site_occupancy
  Zr  Zr0  1  0.750000  0.522629  0.320776  1
  Zr  Zr1  1  0.250000  0.973813  0.821029  1
  Zr  Zr2  1  0.750000  0.022629  0.179224  1
  Zr  Zr3  1  0.250000  0.473813  0.678971  1
  As  As4  1  0.750000  0.267920  0.872566  1
  As  As5  1  0.750000  0.767920  0.627434  1
  P  P6  1  0.250000  0.730823  0.117827  1
  P  P7  1  0.250000  0.230823  0.382173  1
  Ir  Ir8  1  0.250000  0.354274  0.076847  1
  Ir  Ir9  1  0.250000  0.854274  0.423153  1
  Ru  Ru10  1  0.750000  0.150540  0.544989  1
  Ru  Ru11  1  0.750000  0.650540  0.955011  1
