# generated using pymatgen
data_Tm3Co7(NiAs3)2
_symmetry_space_group_name_H-M   'P 1'
_cell_length_a   3.80090300
_cell_length_b   10.82981600
_cell_length_c   12.66441900
_cell_angle_alpha   90.00000000
_cell_angle_beta   90.00000000
_cell_angle_gamma   90.00000000
_symmetry_Int_Tables_number   1
_chemical_formula_structural   Tm3Co7(NiAs3)2
_chemical_formula_sum   'Tm6 Co14 Ni4 As12'
_cell_volume   521.30649402
_cell_formula_units_Z   2
loop_
 _symmetry_equiv_pos_site_id
 _symmetry_equiv_pos_as_xyz
  1  'x, y, z'
loop_
 _atom_site_type_symbol
 _atom_site_label
 _atom_site_symmetry_multiplicity
 _atom_site_fract_x
 _atom_site_fract_y
 _atom_site_fract_z
 _atom_site_occupancy
  Tm  Tm0  1  0.000000  0.500000  0.523926  1
  Tm  Tm1  1  0.500000  0.000000  0.478930  1
  Tm  Tm2  1  0.500000  0.816944  0.205844  1
  Tm  Tm3  1  0.500000  0.183056  0.205844  1
  Tm  Tm4  1  0.000000  0.684700  0.793568  1
  Tm  Tm5  1  0.000000  0.315300  0.793568  1
  Co  Co6  1  0.500000  0.500000  0.155442  1
  Co  Co7  1  0.000000  0.000000  0.843751  1
  Co  Co8  1  0.000000  0.500000  0.983867  1
  Co  Co9  1  0.500000  0.000000  0.015518  1
  Co  Co10  1  0.500000  0.333341  0.994824  1
  Co  Co11  1  0.500000  0.666659  0.994824  1
  Co  Co12  1  0.000000  0.166699  0.003954  1
  Co  Co13  1  0.000000  0.833301  0.003954  1
  Co  Co14  1  0.500000  0.299057  0.429740  1
  Co  Co15  1  0.500000  0.700943  0.429740  1
  Co  Co16  1  0.000000  0.198746  0.570485  1
  Co  Co17  1  0.000000  0.801254  0.570485  1
  Co  Co18  1  0.500000  0.879687  0.708638  1
  Co  Co19  1  0.500000  0.120313  0.708638  1
  Ni  Ni20  1  0.500000  0.500000  0.699716  1
  Ni  Ni21  1  0.000000  0.000000  0.297392  1
  Ni  Ni22  1  0.000000  0.621892  0.293013  1
  Ni  Ni23  1  0.000000  0.378108  0.293013  1
  As  As24  1  0.500000  0.500000  0.878378  1
  As  As25  1  0.000000  0.000000  0.119698  1
  As  As26  1  0.500000  0.500000  0.349720  1
  As  As27  1  0.000000  0.000000  0.653638  1
  As  As28  1  0.500000  0.312108  0.615242  1
  As  As29  1  0.500000  0.687892  0.615242  1
  As  As30  1  0.000000  0.184029  0.386284  1
  As  As31  1  0.000000  0.815971  0.386284  1
  As  As32  1  0.500000  0.847456  0.890289  1
  As  As33  1  0.500000  0.152544  0.890289  1
  As  As34  1  0.000000  0.653476  0.108132  1
  As  As35  1  0.000000  0.346524  0.108132  1
