# generated using pymatgen
data_Pr2Ga8Ni9
_symmetry_space_group_name_H-M   'P 1'
_cell_length_a   6.54989244
_cell_length_b   6.54989283
_cell_length_c   6.54989197
_cell_angle_alpha   85.50552447
_cell_angle_beta   94.49447474
_cell_angle_gamma   94.49447457
_symmetry_Int_Tables_number   1
_chemical_formula_structural   Pr2Ga8Ni9
_chemical_formula_sum   'Pr2 Ga8 Ni9'
_cell_volume   278.53363914
_cell_formula_units_Z   1
loop_
 _symmetry_equiv_pos_site_id
 _symmetry_equiv_pos_as_xyz
  1  'x, y, z'
loop_
 _atom_site_type_symbol
 _atom_site_label
 _atom_site_symmetry_multiplicity
 _atom_site_fract_x
 _atom_site_fract_y
 _atom_site_fract_z
 _atom_site_occupancy
  Pr  Pr0  1  0.640288  0.359713  0.359712  1
  Pr  Pr1  1  0.359712  0.640288  0.640288  1
  Ga  Ga2  1  0.312471  0.312471  0.000000  1
  Ga  Ga3  1  0.687529  0.687529  0.000000  1
  Ga  Ga4  1  0.887079  0.112921  0.112921  1
  Ga  Ga5  1  0.312470  0.000000  0.312470  1
  Ga  Ga6  1  0.000000  0.687530  0.312471  1
  Ga  Ga7  1  0.687530  0.000000  0.687529  1
  Ga  Ga8  1  0.000000  0.312471  0.687530  1
  Ga  Ga9  1  0.112921  0.887079  0.887078  1
  Ni  Ni10  1  0.499999  0.000000  0.000000  1
  Ni  Ni11  1  0.000000  0.499999  0.000000  1
  Ni  Ni12  1  0.340160  0.659841  0.155566  1
  Ni  Ni13  1  0.155566  0.340158  0.340159  1
  Ni  Ni14  1  0.659841  0.844434  0.340159  1
  Ni  Ni15  1  0.000000  0.000000  0.499999  1
  Ni  Ni16  1  0.340159  0.155565  0.659841  1
  Ni  Ni17  1  0.844435  0.659840  0.659841  1
  Ni  Ni18  1  0.659842  0.340159  0.844435  1
