# generated using pymatgen
data_HoEr4Os2C7
_symmetry_space_group_name_H-M   'P 1'
_cell_length_a   8.11723366
_cell_length_b   8.11723444
_cell_length_c   3.49007900
_cell_angle_alpha   90.00000000
_cell_angle_beta   90.00000000
_cell_angle_gamma   121.77828836
_symmetry_Int_Tables_number   1
_chemical_formula_structural   HoEr4Os2C7
_chemical_formula_sum   'Ho1 Er4 Os2 C7'
_cell_volume   195.48682155
_cell_formula_units_Z   1
loop_
 _symmetry_equiv_pos_site_id
 _symmetry_equiv_pos_as_xyz
  1  'x, y, z'
loop_
 _atom_site_type_symbol
 _atom_site_label
 _atom_site_symmetry_multiplicity
 _atom_site_fract_x
 _atom_site_fract_y
 _atom_site_fract_z
 _atom_site_occupancy
  Ho  Ho0  1  0.500000  0.500000  0.000000  1
  Er  Er1  1  0.077325  0.337860  0.500000  1
  Er  Er2  1  0.922675  0.662140  0.500000  1
  Er  Er3  1  0.662140  0.922675  0.500000  1
  Er  Er4  1  0.337860  0.077325  0.500000  1
  Os  Os5  1  0.714102  0.285898  0.000000  1
  Os  Os6  1  0.285898  0.714102  0.000000  1
  C  C7  1  0.630793  0.369207  0.500000  1
  C  C8  1  0.369207  0.630793  0.500000  1
  C  C9  1  0.000000  0.000000  0.000000  1
  C  C10  1  0.172039  0.172039  0.000000  1
  C  C11  1  0.827961  0.827961  0.000000  1
  C  C12  1  0.000000  0.500000  0.000000  1
  C  C13  1  0.500000  0.000000  0.000000  1
