# generated using pymatgen
data_Y7Ho3Sn5Bi
_symmetry_space_group_name_H-M   'P 1'
_cell_length_a   9.00996400
_cell_length_b   9.00704741
_cell_length_c   6.52613901
_cell_angle_alpha   90.00512854
_cell_angle_beta   89.99889369
_cell_angle_gamma   120.00905542
_symmetry_Int_Tables_number   1
_chemical_formula_structural   Y7Ho3Sn5Bi
_chemical_formula_sum   'Y7 Ho3 Sn5 Bi1'
_cell_volume   458.61981888
_cell_formula_units_Z   1
loop_
 _symmetry_equiv_pos_site_id
 _symmetry_equiv_pos_as_xyz
  1  'x, y, z'
loop_
 _atom_site_type_symbol
 _atom_site_label
 _atom_site_symmetry_multiplicity
 _atom_site_fract_x
 _atom_site_fract_y
 _atom_site_fract_z
 _atom_site_occupancy
  Y  Y0  1  0.994474  0.756622  0.750080  1
  Y  Y1  1  0.000366  0.239963  0.249899  1
  Y  Y2  1  0.760391  0.759983  0.249894  1
  Y  Y3  1  0.763846  0.999995  0.750090  1
  Y  Y4  1  0.237823  0.243334  0.750101  1
  Y  Y5  1  0.238669  0.999999  0.249908  1
  Y  Y6  1  0.332641  0.662716  0.498712  1
  Ho  Ho7  1  0.670097  0.337447  0.001396  1
  Ho  Ho8  1  0.670128  0.337497  0.498575  1
  Ho  Ho9  1  0.332629  0.662524  0.001374  1
  Sn  Sn10  1  0.395816  0.393843  0.249571  1
  Sn  Sn11  1  0.001199  0.605727  0.249599  1
  Sn  Sn12  1  0.999100  0.395808  0.750413  1
  Sn  Sn13  1  0.603654  0.603839  0.750372  1
  Sn  Sn14  1  0.605277  0.000360  0.249639  1
  Bi  Bi15  1  0.393891  0.000344  0.750376  1
