# generated using pymatgen
data_YbEu3Al8
_symmetry_space_group_name_H-M   'P 1'
_cell_length_a   9.80299479
_cell_length_b   9.80299509
_cell_length_c   9.80299600
_cell_angle_alpha   33.59333327
_cell_angle_beta   33.59333064
_cell_angle_gamma   33.59332694
_symmetry_Int_Tables_number   1
_chemical_formula_structural   YbEu3Al8
_chemical_formula_sum   'Yb1 Eu3 Al8'
_cell_volume   256.89632639
_cell_formula_units_Z   1
loop_
 _symmetry_equiv_pos_site_id
 _symmetry_equiv_pos_as_xyz
  1  'x, y, z'
loop_
 _atom_site_type_symbol
 _atom_site_label
 _atom_site_symmetry_multiplicity
 _atom_site_fract_x
 _atom_site_fract_y
 _atom_site_fract_z
 _atom_site_occupancy
  Yb  Yb0  1  0.687844  0.687844  0.687844  1
  Eu  Eu1  1  0.187967  0.187967  0.187967  1
  Eu  Eu2  1  0.811722  0.811722  0.811722  1
  Eu  Eu3  1  0.312753  0.312753  0.312753  1
  Al  Al4  1  0.999802  0.999802  0.999802  1
  Al  Al5  1  0.500017  0.500017  0.500017  1
  Al  Al6  1  0.749212  0.250066  0.250066  1
  Al  Al7  1  0.249862  0.750343  0.750343  1
  Al  Al8  1  0.250066  0.749212  0.250066  1
  Al  Al9  1  0.750343  0.249862  0.750343  1
  Al  Al10  1  0.250066  0.250066  0.749212  1
  Al  Al11  1  0.750343  0.750343  0.249862  1
