# generated using pymatgen
data_La3Dy5(CdIr)2
_symmetry_space_group_name_H-M   'P 1'
_cell_length_a   9.83773302
_cell_length_b   9.83773330
_cell_length_c   9.83773300
_cell_angle_alpha   60.00000438
_cell_angle_beta   60.00000341
_cell_angle_gamma   60.00000324
_symmetry_Int_Tables_number   1
_chemical_formula_structural   La3Dy5(CdIr)2
_chemical_formula_sum   'La6 Dy10 Cd4 Ir4'
_cell_volume   673.24036510
_cell_formula_units_Z   2
loop_
 _symmetry_equiv_pos_site_id
 _symmetry_equiv_pos_as_xyz
  1  'x, y, z'
loop_
 _atom_site_type_symbol
 _atom_site_label
 _atom_site_symmetry_multiplicity
 _atom_site_fract_x
 _atom_site_fract_y
 _atom_site_fract_z
 _atom_site_occupancy
  La  La0  1  0.192573  0.807427  0.807427  1
  La  La1  1  0.807427  0.192573  0.192573  1
  La  La2  1  0.807427  0.192573  0.807427  1
  La  La3  1  0.192573  0.807427  0.192573  1
  La  La4  1  0.807427  0.807427  0.192573  1
  La  La5  1  0.192573  0.192573  0.807427  1
  Dy  Dy6  1  0.596318  0.596318  0.596318  1
  Dy  Dy7  1  0.596318  0.596318  0.211046  1
  Dy  Dy8  1  0.596318  0.211046  0.596318  1
  Dy  Dy9  1  0.211046  0.596318  0.596318  1
  Dy  Dy10  1  0.063314  0.436686  0.436686  1
  Dy  Dy11  1  0.436686  0.063314  0.063314  1
  Dy  Dy12  1  0.436686  0.063314  0.436686  1
  Dy  Dy13  1  0.063314  0.436686  0.063314  1
  Dy  Dy14  1  0.436686  0.436686  0.063314  1
  Dy  Dy15  1  0.063314  0.063314  0.436686  1
  Cd  Cd16  1  0.828749  0.828749  0.828749  1
  Cd  Cd17  1  0.828749  0.828749  0.513752  1
  Cd  Cd18  1  0.828749  0.513752  0.828749  1
  Cd  Cd19  1  0.513752  0.828749  0.828749  1
  Ir  Ir20  1  0.391034  0.391034  0.391034  1
  Ir  Ir21  1  0.391034  0.391034  0.826897  1
  Ir  Ir22  1  0.391034  0.826897  0.391034  1
  Ir  Ir23  1  0.826897  0.391034  0.391034  1
