# generated using pymatgen
data_Li4AgAu3S4
_symmetry_space_group_name_H-M   'P 1'
_cell_length_a   7.23720748
_cell_length_b   7.23311934
_cell_length_c   6.53300569
_cell_angle_alpha   64.15088874
_cell_angle_beta   65.10113001
_cell_angle_gamma   51.30291959
_symmetry_Int_Tables_number   1
_chemical_formula_structural   Li4AgAu3S4
_chemical_formula_sum   'Li4 Ag1 Au3 S4'
_cell_volume   234.77794785
_cell_formula_units_Z   1
loop_
 _symmetry_equiv_pos_site_id
 _symmetry_equiv_pos_as_xyz
  1  'x, y, z'
loop_
 _atom_site_type_symbol
 _atom_site_label
 _atom_site_symmetry_multiplicity
 _atom_site_fract_x
 _atom_site_fract_y
 _atom_site_fract_z
 _atom_site_occupancy
  Li  Li0  1  0.132065  0.154703  0.864514  1
  Li  Li1  1  0.846130  0.855484  0.147860  1
  Li  Li2  1  0.117935  0.095297  0.385486  1
  Li  Li3  1  0.403870  0.394516  0.102140  1
  Ag  Ag4  1  0.625000  0.125000  0.625000  1
  Au  Au5  1  0.625000  0.625000  0.625000  1
  Au  Au6  1  0.125000  0.625000  0.625000  1
  Au  Au7  1  0.625000  0.625000  0.125000  1
  S  S8  1  0.038863  0.463750  0.460731  1
  S  S9  1  0.794846  0.204615  0.213646  1
  S  S10  1  0.455154  0.045385  0.036354  1
  S  S11  1  0.211137  0.786250  0.789269  1
