# generated using pymatgen
data_CeTaB6Os
_symmetry_space_group_name_H-M   'P 1'
_cell_length_a   3.52659500
_cell_length_b   9.04675800
_cell_length_c   11.39178300
_cell_angle_alpha   90.00000000
_cell_angle_beta   90.00000000
_cell_angle_gamma   90.00000000
_symmetry_Int_Tables_number   1
_chemical_formula_structural   CeTaB6Os
_chemical_formula_sum   'Ce4 Ta4 B24 Os4'
_cell_volume   363.44631020
_cell_formula_units_Z   4
loop_
 _symmetry_equiv_pos_site_id
 _symmetry_equiv_pos_as_xyz
  1  'x, y, z'
loop_
 _atom_site_type_symbol
 _atom_site_label
 _atom_site_symmetry_multiplicity
 _atom_site_fract_x
 _atom_site_fract_y
 _atom_site_fract_z
 _atom_site_occupancy
  Ce  Ce0  1  0.000000  0.323225  0.413710  1
  Ce  Ce1  1  0.000000  0.676775  0.586290  1
  Ce  Ce2  1  0.000000  0.823225  0.086290  1
  Ce  Ce3  1  0.000000  0.176775  0.913710  1
  Ta  Ta4  1  0.000000  0.947455  0.376166  1
  Ta  Ta5  1  0.000000  0.052545  0.623835  1
  Ta  Ta6  1  0.000000  0.447455  0.123834  1
  Ta  Ta7  1  0.000000  0.552545  0.876165  1
  B  B8  1  0.500000  0.555183  0.433082  1
  B  B9  1  0.500000  0.444817  0.566918  1
  B  B10  1  0.500000  0.055183  0.066918  1
  B  B11  1  0.500000  0.944817  0.933082  1
  B  B12  1  0.500000  0.755427  0.418647  1
  B  B13  1  0.500000  0.244573  0.581353  1
  B  B14  1  0.500000  0.255427  0.081353  1
  B  B15  1  0.500000  0.744573  0.918647  1
  B  B16  1  0.500000  0.799153  0.264053  1
  B  B17  1  0.500000  0.200847  0.735947  1
  B  B18  1  0.500000  0.299152  0.235947  1
  B  B19  1  0.500000  0.700847  0.764053  1
  B  B20  1  0.500000  0.629886  0.180306  1
  B  B21  1  0.500000  0.370114  0.819694  1
  B  B22  1  0.500000  0.129886  0.319694  1
  B  B23  1  0.500000  0.870114  0.680306  1
  B  B24  1  0.500000  0.981454  0.215512  1
  B  B25  1  0.500000  0.018546  0.784488  1
  B  B26  1  0.500000  0.481454  0.284488  1
  B  B27  1  0.500000  0.518546  0.715512  1
  B  B28  1  0.500000  0.599718  0.026490  1
  B  B29  1  0.500000  0.400282  0.973510  1
  B  B30  1  0.500000  0.099718  0.473510  1
  B  B31  1  0.500000  0.900282  0.526490  1
  Os  Os32  1  0.000000  0.644076  0.316912  1
  Os  Os33  1  0.000000  0.355924  0.683088  1
  Os  Os34  1  0.000000  0.144076  0.183088  1
  Os  Os35  1  0.000000  0.855924  0.816912  1
