# generated using pymatgen
data_Ba3NiRh2O9
_symmetry_space_group_name_H-M   'P 1'
_cell_length_a   5.83215109
_cell_length_b   5.83050521
_cell_length_c   14.37823500
_cell_angle_alpha   90.00000000
_cell_angle_beta   90.00000000
_cell_angle_gamma   119.98947090
_symmetry_Int_Tables_number   1
_chemical_formula_structural   Ba3NiRh2O9
_chemical_formula_sum   'Ba6 Ni2 Rh4 O18'
_cell_volume   423.46471750
_cell_formula_units_Z   2
loop_
 _symmetry_equiv_pos_site_id
 _symmetry_equiv_pos_as_xyz
  1  'x, y, z'
loop_
 _atom_site_type_symbol
 _atom_site_label
 _atom_site_symmetry_multiplicity
 _atom_site_fract_x
 _atom_site_fract_y
 _atom_site_fract_z
 _atom_site_occupancy
  Ba  Ba0  1  0.666651  0.333315  0.085698  1
  Ba  Ba1  1  0.999960  0.999981  0.250000  1
  Ba  Ba2  1  0.666651  0.333315  0.414303  1
  Ba  Ba3  1  0.333351  0.666685  0.585698  1
  Ba  Ba4  1  0.000040  0.000019  0.750000  1
  Ba  Ba5  1  0.333351  0.666685  0.914302  1
  Ni  Ni6  1  0.000000  0.000000  0.000000  1
  Ni  Ni7  1  0.000000  0.000000  0.500000  1
  Rh  Rh8  1  0.333346  0.666652  0.154987  1
  Rh  Rh9  1  0.333346  0.666652  0.345013  1
  Rh  Rh10  1  0.666656  0.333348  0.654987  1
  Rh  Rh11  1  0.666656  0.333348  0.845013  1
  O  O12  1  0.169701  0.830326  0.082032  1
  O  O13  1  0.660580  0.830301  0.082061  1
  O  O14  1  0.169686  0.339365  0.082019  1
  O  O15  1  0.032011  0.515983  0.250000  1
  O  O16  1  0.484025  0.515909  0.250000  1
  O  O17  1  0.484049  0.968118  0.250000  1
  O  O18  1  0.169686  0.339365  0.417982  1
  O  O19  1  0.169701  0.830326  0.417967  1
  O  O20  1  0.660580  0.830301  0.417938  1
  O  O21  1  0.339421  0.169701  0.582061  1
  O  O22  1  0.830299  0.169676  0.582032  1
  O  O23  1  0.830315  0.660635  0.582019  1
  O  O24  1  0.515953  0.031882  0.750000  1
  O  O25  1  0.515973  0.484091  0.750000  1
  O  O26  1  0.967991  0.484017  0.750000  1
  O  O27  1  0.830315  0.660635  0.917982  1
  O  O28  1  0.339421  0.169701  0.917939  1
  O  O29  1  0.830299  0.169676  0.917968  1
