# generated using pymatgen
data_Ta6Ti3Nb3Ga8(CoC)4
_symmetry_space_group_name_H-M   'P 1'
_cell_length_a   8.17286706
_cell_length_b   8.17372331
_cell_length_c   8.19384800
_cell_angle_alpha   59.91161001
_cell_angle_beta   60.06111091
_cell_angle_gamma   60.16644544
_symmetry_Int_Tables_number   1
_chemical_formula_structural   Ta6Ti3Nb3Ga8(CoC)4
_chemical_formula_sum   'Ta6 Ti3 Nb3 Ga8 Co4 C4'
_cell_volume   387.45327586
_cell_formula_units_Z   1
loop_
 _symmetry_equiv_pos_site_id
 _symmetry_equiv_pos_as_xyz
  1  'x, y, z'
loop_
 _atom_site_type_symbol
 _atom_site_label
 _atom_site_symmetry_multiplicity
 _atom_site_fract_x
 _atom_site_fract_y
 _atom_site_fract_z
 _atom_site_occupancy
  Ta  Ta0  1  0.944292  0.556238  0.943529  1
  Ta  Ta1  1  0.559005  0.555923  0.941531  1
  Ta  Ta2  1  0.942500  0.944494  0.558163  1
  Ta  Ta3  1  0.689354  0.693126  0.309956  1
  Ta  Ta4  1  0.308596  0.694658  0.691207  1
  Ta  Ta5  1  0.690892  0.306238  0.308300  1
  Ti  Ti6  1  0.690316  0.309807  0.690477  1
  Ti  Ti7  1  0.937666  0.560452  0.562679  1
  Ti  Ti8  1  0.563116  0.939663  0.937117  1
  Nb  Nb9  1  0.309876  0.307386  0.689371  1
  Nb  Nb10  1  0.557727  0.942685  0.557594  1
  Nb  Nb11  1  0.310288  0.689658  0.310065  1
  Ga  Ga12  1  0.329017  0.335094  0.334188  1
  Ga  Ga13  1  0.252333  0.917465  0.919128  1
  Ga  Ga14  1  0.918440  0.251182  0.910989  1
  Ga  Ga15  1  0.918991  0.910976  0.252802  1
  Ga  Ga16  1  0.334500  0.001330  0.328941  1
  Ga  Ga17  1  0.338288  0.330165  0.996374  1
  Ga  Ga18  1  0.996074  0.335368  0.338427  1
  Ga  Ga19  1  0.910801  0.919282  0.918194  1
  Co  Co20  1  0.116787  0.130819  0.128297  1
  Co  Co21  1  0.625806  0.127260  0.126936  1
  Co  Co22  1  0.124618  0.624503  0.118551  1
  Co  Co23  1  0.125615  0.118058  0.625449  1
  C  C24  1  0.628741  0.619067  0.625729  1
  C  C25  1  0.120179  0.626533  0.627361  1
  C  C26  1  0.628078  0.125558  0.627880  1
  C  C27  1  0.628104  0.627016  0.120766  1
