# generated using pymatgen
data_Y5Tm2Sn23Rh6
_symmetry_space_group_name_H-M   'P 1'
_cell_length_a   9.85629300
_cell_length_b   9.85629444
_cell_length_c   10.11816682
_cell_angle_alpha   89.96001931
_cell_angle_beta   90.03998244
_cell_angle_gamma   119.96743324
_symmetry_Int_Tables_number   1
_chemical_formula_structural   Y5Tm2Sn23Rh6
_chemical_formula_sum   'Y5 Tm2 Sn23 Rh6'
_cell_volume   851.53406585
_cell_formula_units_Z   1
loop_
 _symmetry_equiv_pos_site_id
 _symmetry_equiv_pos_as_xyz
  1  'x, y, z'
loop_
 _atom_site_type_symbol
 _atom_site_label
 _atom_site_symmetry_multiplicity
 _atom_site_fract_x
 _atom_site_fract_y
 _atom_site_fract_z
 _atom_site_occupancy
  Y  Y0  1  0.000115  0.999885  0.000240  1
  Y  Y1  1  0.478221  0.521779  0.308280  1
  Y  Y2  1  0.956307  0.478202  0.691323  1
  Y  Y3  1  0.521798  0.043693  0.691323  1
  Y  Y4  1  0.521759  0.478241  0.691503  1
  Tm  Tm5  1  0.041575  0.520605  0.307626  1
  Tm  Tm6  1  0.479395  0.958425  0.307626  1
  Sn  Sn7  1  0.000030  0.999970  0.499815  1
  Sn  Sn8  1  0.120202  0.879798  0.280787  1
  Sn  Sn9  1  0.760915  0.880752  0.280432  1
  Sn  Sn10  1  0.119248  0.239085  0.280432  1
  Sn  Sn11  1  0.880744  0.119256  0.719650  1
  Sn  Sn12  1  0.238393  0.119153  0.719645  1
  Sn  Sn13  1  0.880847  0.761607  0.719645  1
  Sn  Sn14  1  0.351318  0.999744  0.000098  1
  Sn  Sn15  1  0.648908  0.648751  0.000289  1
  Sn  Sn16  1  0.999978  0.351308  0.000340  1
  Sn  Sn17  1  0.351249  0.351092  0.000289  1
  Sn  Sn18  1  0.000256  0.648682  0.000098  1
  Sn  Sn19  1  0.648692  0.000022  0.000340  1
  Sn  Sn20  1  0.779295  0.557037  0.454168  1
  Sn  Sn21  1  0.778527  0.221473  0.454033  1
  Sn  Sn22  1  0.442963  0.220705  0.454168  1
  Sn  Sn23  1  0.220933  0.442983  0.544848  1
  Sn  Sn24  1  0.221566  0.778434  0.544201  1
  Sn  Sn25  1  0.557017  0.779067  0.544848  1
  Sn  Sn26  1  0.666693  0.333307  0.181283  1
  Sn  Sn27  1  0.333336  0.666664  0.818885  1
  Sn  Sn28  1  0.666666  0.333334  0.881017  1
  Sn  Sn29  1  0.332394  0.667606  0.121321  1
  Rh  Rh30  1  0.168505  0.831495  0.802136  1
  Rh  Rh31  1  0.663041  0.831549  0.802466  1
  Rh  Rh32  1  0.168451  0.336959  0.802466  1
  Rh  Rh33  1  0.830994  0.169006  0.198265  1
  Rh  Rh34  1  0.337192  0.167522  0.198055  1
  Rh  Rh35  1  0.832478  0.662808  0.198055  1
