# generated using pymatgen
data_Ho2Lu2ScBi3
_symmetry_space_group_name_H-M   'P 1'
_cell_length_a   8.05561100
_cell_length_b   9.32152500
_cell_length_c   11.87221200
_cell_angle_alpha   90.00000000
_cell_angle_beta   90.00000000
_cell_angle_gamma   90.00000000
_symmetry_Int_Tables_number   1
_chemical_formula_structural   Ho2Lu2ScBi3
_chemical_formula_sum   'Ho8 Lu8 Sc4 Bi12'
_cell_volume   891.49127697
_cell_formula_units_Z   4
loop_
 _symmetry_equiv_pos_site_id
 _symmetry_equiv_pos_as_xyz
  1  'x, y, z'
loop_
 _atom_site_type_symbol
 _atom_site_label
 _atom_site_symmetry_multiplicity
 _atom_site_fract_x
 _atom_site_fract_y
 _atom_site_fract_z
 _atom_site_occupancy
  Ho  Ho0  1  0.354302  0.250000  0.283322  1
  Ho  Ho1  1  0.645698  0.750000  0.716678  1
  Ho  Ho2  1  0.145698  0.750000  0.783322  1
  Ho  Ho3  1  0.854302  0.250000  0.216678  1
  Ho  Ho4  1  0.184966  0.250000  0.780903  1
  Ho  Ho5  1  0.815034  0.750000  0.219097  1
  Ho  Ho6  1  0.315034  0.750000  0.280903  1
  Ho  Ho7  1  0.684966  0.250000  0.719097  1
  Lu  Lu8  1  0.194410  0.067367  0.058438  1
  Lu  Lu9  1  0.805590  0.932633  0.941562  1
  Lu  Lu10  1  0.305590  0.932633  0.558438  1
  Lu  Lu11  1  0.805590  0.567367  0.941562  1
  Lu  Lu12  1  0.694410  0.067367  0.441562  1
  Lu  Lu13  1  0.194410  0.432633  0.058438  1
  Lu  Lu14  1  0.694410  0.432633  0.441562  1
  Lu  Lu15  1  0.305590  0.567367  0.558438  1
  Sc  Sc16  1  0.022912  0.250000  0.512125  1
  Sc  Sc17  1  0.977088  0.750000  0.487875  1
  Sc  Sc18  1  0.477088  0.750000  0.012125  1
  Sc  Sc19  1  0.522912  0.250000  0.987875  1
  Bi  Bi20  1  0.399773  0.250000  0.543153  1
  Bi  Bi21  1  0.600227  0.750000  0.456847  1
  Bi  Bi22  1  0.100227  0.750000  0.043153  1
  Bi  Bi23  1  0.899773  0.250000  0.956847  1
  Bi  Bi24  1  0.066129  0.004195  0.331669  1
  Bi  Bi25  1  0.933871  0.995805  0.668331  1
  Bi  Bi26  1  0.433871  0.995805  0.831669  1
  Bi  Bi27  1  0.933871  0.504195  0.668331  1
  Bi  Bi28  1  0.566129  0.004195  0.168331  1
  Bi  Bi29  1  0.066129  0.495805  0.331669  1
  Bi  Bi30  1  0.566129  0.495805  0.168331  1
  Bi  Bi31  1  0.433871  0.504195  0.831669  1
