# generated using pymatgen
data_Hf3Fe4Si4Mo
_symmetry_space_group_name_H-M   'P 1'
_cell_length_a   3.84381800
_cell_length_b   6.24876576
_cell_length_c   7.03252728
_cell_angle_alpha   89.54074625
_cell_angle_beta   90.00000000
_cell_angle_gamma   90.00000000
_symmetry_Int_Tables_number   1
_chemical_formula_structural   Hf3Fe4Si4Mo
_chemical_formula_sum   'Hf3 Fe4 Si4 Mo1'
_cell_volume   168.90967871
_cell_formula_units_Z   1
loop_
 _symmetry_equiv_pos_site_id
 _symmetry_equiv_pos_as_xyz
  1  'x, y, z'
loop_
 _atom_site_type_symbol
 _atom_site_label
 _atom_site_symmetry_multiplicity
 _atom_site_fract_x
 _atom_site_fract_y
 _atom_site_fract_z
 _atom_site_occupancy
  Hf  Hf0  1  0.250000  0.505026  0.196566  1
  Hf  Hf1  1  0.750000  0.993125  0.690188  1
  Hf  Hf2  1  0.750000  0.488353  0.806089  1
  Fe  Fe3  1  0.250000  0.153061  0.939490  1
  Fe  Fe4  1  0.250000  0.660147  0.563083  1
  Fe  Fe5  1  0.750000  0.841183  0.060491  1
  Fe  Fe6  1  0.750000  0.351355  0.429624  1
  Si  Si7  1  0.250000  0.283002  0.601170  1
  Si  Si8  1  0.250000  0.784957  0.890555  1
  Si  Si9  1  0.750000  0.728647  0.383925  1
  Si  Si10  1  0.750000  0.200547  0.119620  1
  Mo  Mo11  1  0.250000  0.010598  0.319199  1
