# generated using pymatgen
data_Lu3Al3Cu2Ge
_symmetry_space_group_name_H-M   'P 1'
_cell_length_a   6.78872400
_cell_length_b   6.78872585
_cell_length_c   4.14479400
_cell_angle_alpha   90.00000000
_cell_angle_beta   90.00000000
_cell_angle_gamma   120.00000074
_symmetry_Int_Tables_number   1
_chemical_formula_structural   Lu3Al3Cu2Ge
_chemical_formula_sum   'Lu3 Al3 Cu2 Ge1'
_cell_volume   165.42837447
_cell_formula_units_Z   1
loop_
 _symmetry_equiv_pos_site_id
 _symmetry_equiv_pos_as_xyz
  1  'x, y, z'
loop_
 _atom_site_type_symbol
 _atom_site_label
 _atom_site_symmetry_multiplicity
 _atom_site_fract_x
 _atom_site_fract_y
 _atom_site_fract_z
 _atom_site_occupancy
  Lu  Lu0  1  0.416704  0.422634  0.500000  1
  Lu  Lu1  1  0.577366  0.994070  0.500000  1
  Lu  Lu2  1  0.005930  0.583296  0.500000  1
  Al  Al3  1  0.753742  0.767898  0.000000  1
  Al  Al4  1  0.232102  0.985844  0.000000  1
  Al  Al5  1  0.014156  0.246258  0.000000  1
  Cu  Cu6  1  0.333333  0.666667  0.000000  1
  Cu  Cu7  1  0.000000  0.000000  0.500000  1
  Ge  Ge8  1  0.666667  0.333333  0.000000  1
