# generated using pymatgen
data_Rb2SrPu3O12
_symmetry_space_group_name_H-M   'P 1'
_cell_length_a   7.49096489
_cell_length_b   8.01094052
_cell_length_c   10.75597600
_cell_angle_alpha   89.90988950
_cell_angle_beta   85.20658397
_cell_angle_gamma   89.49783760
_symmetry_Int_Tables_number   1
_chemical_formula_structural   Rb2SrPu3O12
_chemical_formula_sum   'Rb4 Sr2 Pu6 O24'
_cell_volume   643.18015704
_cell_formula_units_Z   2
loop_
 _symmetry_equiv_pos_site_id
 _symmetry_equiv_pos_as_xyz
  1  'x, y, z'
loop_
 _atom_site_type_symbol
 _atom_site_label
 _atom_site_symmetry_multiplicity
 _atom_site_fract_x
 _atom_site_fract_y
 _atom_site_fract_z
 _atom_site_occupancy
  Rb  Rb0  1  0.532481  0.747061  0.608597  1
  Rb  Rb1  1  0.467519  0.252939  0.391403  1
  Rb  Rb2  1  0.009873  0.255170  0.151806  1
  Rb  Rb3  1  0.990127  0.744830  0.848194  1
  Sr  Sr4  1  0.721569  0.237461  0.744060  1
  Sr  Sr5  1  0.278431  0.762539  0.255940  1
  Pu  Pu6  1  0.816667  0.749227  0.210488  1
  Pu  Pu7  1  0.183333  0.250773  0.789512  1
  Pu  Pu8  1  0.000000  0.500000  0.500000  1
  Pu  Pu9  1  0.000000  0.000000  0.500000  1
  Pu  Pu10  1  0.500000  0.000000  0.000000  1
  Pu  Pu11  1  0.500000  0.500000  0.000000  1
  O  O12  1  0.028109  0.734564  0.109507  1
  O  O13  1  0.971891  0.265436  0.890493  1
  O  O14  1  0.604347  0.761434  0.313474  1
  O  O15  1  0.395653  0.238566  0.686526  1
  O  O16  1  0.765234  0.439506  0.554705  1
  O  O17  1  0.234766  0.560494  0.445295  1
  O  O18  1  0.757215  0.052646  0.534793  1
  O  O19  1  0.242785  0.947354  0.465207  1
  O  O20  1  0.626386  0.951830  0.846082  1
  O  O21  1  0.373614  0.048170  0.153918  1
  O  O22  1  0.630750  0.537938  0.846614  1
  O  O23  1  0.369250  0.462062  0.153386  1
  O  O24  1  0.586465  0.240872  0.974885  1
  O  O25  1  0.413535  0.759128  0.025115  1
  O  O26  1  0.284940  0.450867  0.907986  1
  O  O27  1  0.715060  0.549133  0.092014  1
  O  O28  1  0.265377  0.061794  0.900987  1
  O  O29  1  0.734623  0.938206  0.099013  1
  O  O30  1  0.034000  0.069938  0.682172  1
  O  O31  1  0.966000  0.930062  0.317828  1
  O  O32  1  0.946942  0.742956  0.562924  1
  O  O33  1  0.053058  0.257044  0.437076  1
  O  O34  1  0.080410  0.438178  0.683104  1
  O  O35  1  0.919590  0.561822  0.316896  1
