# generated using pymatgen
data_Ce3Er(AlIr)4
_symmetry_space_group_name_H-M   'P 1'
_cell_length_a   6.85065876
_cell_length_b   4.33016200
_cell_length_c   7.93772357
_cell_angle_alpha   90.00000000
_cell_angle_beta   89.54161360
_cell_angle_gamma   90.00000000
_symmetry_Int_Tables_number   1
_chemical_formula_structural   Ce3Er(AlIr)4
_chemical_formula_sum   'Ce3 Er1 Al4 Ir4'
_cell_volume   235.46076535
_cell_formula_units_Z   1
loop_
 _symmetry_equiv_pos_site_id
 _symmetry_equiv_pos_as_xyz
  1  'x, y, z'
loop_
 _atom_site_type_symbol
 _atom_site_label
 _atom_site_symmetry_multiplicity
 _atom_site_fract_x
 _atom_site_fract_y
 _atom_site_fract_z
 _atom_site_occupancy
  Ce  Ce0  1  0.464573  0.250000  0.316018  1
  Ce  Ce1  1  0.033825  0.750000  0.821487  1
  Ce  Ce2  1  0.536334  0.750000  0.683031  1
  Er  Er3  1  0.963853  0.250000  0.183820  1
  Al  Al4  1  0.864187  0.250000  0.558356  1
  Al  Al5  1  0.360745  0.250000  0.940543  1
  Al  Al6  1  0.133917  0.750000  0.435612  1
  Al  Al7  1  0.641557  0.750000  0.064272  1
  Ir  Ir8  1  0.738264  0.250000  0.879457  1
  Ir  Ir9  1  0.239355  0.250000  0.618371  1
  Ir  Ir10  1  0.262612  0.750000  0.115979  1
  Ir  Ir11  1  0.760778  0.750000  0.383054  1
