# generated using pymatgen
data_TbGd6Y(MoO6)4
_symmetry_space_group_name_H-M   'P 1'
_cell_length_a   5.46185944
_cell_length_b   10.04983296
_cell_length_c   10.04980918
_cell_angle_alpha   68.22581594
_cell_angle_beta   75.04315188
_cell_angle_gamma   75.04306327
_symmetry_Int_Tables_number   1
_chemical_formula_structural   TbGd6Y(MoO6)4
_chemical_formula_sum   'Tb1 Gd6 Y1 Mo4 O24'
_cell_volume   486.75705181
_cell_formula_units_Z   1
loop_
 _symmetry_equiv_pos_site_id
 _symmetry_equiv_pos_as_xyz
  1  'x, y, z'
loop_
 _atom_site_type_symbol
 _atom_site_label
 _atom_site_symmetry_multiplicity
 _atom_site_fract_x
 _atom_site_fract_y
 _atom_site_fract_z
 _atom_site_occupancy
  Tb  Tb0  1  0.249999  0.607191  0.392810  1
  Gd  Gd1  1  0.620157  0.784308  0.552594  1
  Gd  Gd2  1  0.120193  0.552545  0.784343  1
  Gd  Gd3  1  0.379806  0.215658  0.447457  1
  Gd  Gd4  1  0.879842  0.447408  0.215691  1
  Gd  Gd5  1  0.749992  0.863823  0.136178  1
  Gd  Gd6  1  0.250007  0.136187  0.863808  1
  Y  Y7  1  0.749999  0.393126  0.606874  1
  Mo  Mo8  1  0.060590  0.010808  0.296630  1
  Mo  Mo9  1  0.439405  0.703370  0.989194  1
  Mo  Mo10  1  0.939318  0.989192  0.703381  1
  Mo  Mo11  1  0.560686  0.296618  0.010806  1
  O  O12  1  0.922766  0.572954  0.607937  1
  O  O13  1  0.577235  0.392064  0.427044  1
  O  O14  1  0.077122  0.426862  0.392232  1
  O  O15  1  0.422876  0.607766  0.573139  1
  O  O16  1  0.919719  0.807802  0.337223  1
  O  O17  1  0.580276  0.662779  0.192199  1
  O  O18  1  0.079806  0.192452  0.662739  1
  O  O19  1  0.420202  0.337260  0.807548  1
  O  O20  1  0.367982  0.884003  0.327178  1
  O  O21  1  0.132014  0.672823  0.115998  1
  O  O22  1  0.632001  0.115909  0.672859  1
  O  O23  1  0.868004  0.327139  0.884091  1
  O  O24  1  0.636305  0.289127  0.180803  1
  O  O25  1  0.863696  0.819197  0.710873  1
  O  O26  1  0.363700  0.710878  0.819238  1
  O  O27  1  0.136299  0.180762  0.289121  1
  O  O28  1  0.515053  0.112615  0.047808  1
  O  O29  1  0.984950  0.952194  0.887384  1
  O  O30  1  0.758394  0.024687  0.430567  1
  O  O31  1  0.015079  0.047808  0.112601  1
  O  O32  1  0.258387  0.430528  0.024676  1
  O  O33  1  0.241613  0.975324  0.569471  1
  O  O34  1  0.741604  0.569432  0.975314  1
  O  O35  1  0.484923  0.887398  0.952193  1
