# generated using pymatgen
data_Tb2DyMg3Sn2Hg
_symmetry_space_group_name_H-M   'P 1'
_cell_length_a   7.54497300
_cell_length_b   7.55171545
_cell_length_c   4.56663200
_cell_angle_alpha   90.00000000
_cell_angle_beta   90.00000000
_cell_angle_gamma   120.02957475
_symmetry_Int_Tables_number   1
_chemical_formula_structural   Tb2DyMg3Sn2Hg
_chemical_formula_sum   'Tb2 Dy1 Mg3 Sn2 Hg1'
_cell_volume   225.26849170
_cell_formula_units_Z   1
loop_
 _symmetry_equiv_pos_site_id
 _symmetry_equiv_pos_as_xyz
  1  'x, y, z'
loop_
 _atom_site_type_symbol
 _atom_site_label
 _atom_site_symmetry_multiplicity
 _atom_site_fract_x
 _atom_site_fract_y
 _atom_site_fract_z
 _atom_site_occupancy
  Tb  Tb0  1  0.414578  0.414724  0.500000  1
  Tb  Tb1  1  0.585422  0.000146  0.500000  1
  Dy  Dy2  1  0.000000  0.585505  0.500000  1
  Mg  Mg3  1  0.761908  0.761814  0.000000  1
  Mg  Mg4  1  0.238092  0.999905  0.000000  1
  Mg  Mg5  1  0.000000  0.238206  0.000000  1
  Sn  Sn6  1  0.667257  0.333713  0.000000  1
  Sn  Sn7  1  0.332743  0.666456  0.000000  1
  Hg  Hg8  1  0.000000  0.999532  0.500000  1
