# generated using pymatgen
data_CaY2(CdNi)2
_symmetry_space_group_name_H-M   'P 1'
_cell_length_a   10.97888800
_cell_length_b   10.97888784
_cell_length_c   3.70598100
_cell_angle_alpha   90.00000000
_cell_angle_beta   90.00000000
_cell_angle_gamma   159.04606868
_symmetry_Int_Tables_number   1
_chemical_formula_structural   CaY2(CdNi)2
_chemical_formula_sum   'Ca1 Y2 Cd2 Ni2'
_cell_volume   159.74904692
_cell_formula_units_Z   1
loop_
 _symmetry_equiv_pos_site_id
 _symmetry_equiv_pos_as_xyz
  1  'x, y, z'
loop_
 _atom_site_type_symbol
 _atom_site_label
 _atom_site_symmetry_multiplicity
 _atom_site_fract_x
 _atom_site_fract_y
 _atom_site_fract_z
 _atom_site_occupancy
  Ca  Ca0  1  0.000000  0.000000  0.000000  1
  Y  Y1  1  0.823230  0.176770  0.000000  1
  Y  Y2  1  0.176770  0.823230  0.000000  1
  Cd  Cd3  1  0.410830  0.589170  0.500000  1
  Cd  Cd4  1  0.589170  0.410830  0.500000  1
  Ni  Ni5  1  0.281674  0.718326  0.500000  1
  Ni  Ni6  1  0.718326  0.281674  0.500000  1
