# generated using pymatgen
data_KY(SeO4)2
_symmetry_space_group_name_H-M   'P 1'
_cell_length_a   5.41365300
_cell_length_b   5.41365273
_cell_length_c   8.84983600
_cell_angle_alpha   90.00000000
_cell_angle_beta   90.00000000
_cell_angle_gamma   119.99999555
_symmetry_Int_Tables_number   1
_chemical_formula_structural   KY(SeO4)2
_chemical_formula_sum   'K1 Y1 Se2 O8'
_cell_volume   224.61909989
_cell_formula_units_Z   1
loop_
 _symmetry_equiv_pos_site_id
 _symmetry_equiv_pos_as_xyz
  1  'x, y, z'
loop_
 _atom_site_type_symbol
 _atom_site_label
 _atom_site_symmetry_multiplicity
 _atom_site_fract_x
 _atom_site_fract_y
 _atom_site_fract_z
 _atom_site_occupancy
  K  K0  1  0.000000  0.000000  0.000000  1
  Y  Y1  1  0.000000  0.000000  0.500000  1
  Se  Se2  1  0.333334  0.666668  0.274579  1
  Se  Se3  1  0.666666  0.333334  0.725421  1
  O  O4  1  0.333334  0.666668  0.088896  1
  O  O5  1  0.286698  0.355551  0.340798  1
  O  O6  1  0.068853  0.713302  0.340798  1
  O  O7  1  0.644449  0.931148  0.340798  1
  O  O8  1  0.355551  0.068854  0.659201  1
  O  O9  1  0.931146  0.286698  0.659201  1
  O  O10  1  0.713301  0.644448  0.659201  1
  O  O11  1  0.666666  0.333334  0.911103  1
