# generated using pymatgen
data_Er5LuOsPd
_symmetry_space_group_name_H-M   'P 1'
_cell_length_a   6.38772500
_cell_length_b   7.24997553
_cell_length_c   9.14918500
_cell_angle_alpha   90.00000000
_cell_angle_beta   90.00000000
_cell_angle_gamma   90.29103318
_symmetry_Int_Tables_number   1
_chemical_formula_structural   Er5LuOsPd
_chemical_formula_sum   'Er10 Lu2 Os2 Pd2'
_cell_volume   423.70106751
_cell_formula_units_Z   2
loop_
 _symmetry_equiv_pos_site_id
 _symmetry_equiv_pos_as_xyz
  1  'x, y, z'
loop_
 _atom_site_type_symbol
 _atom_site_label
 _atom_site_symmetry_multiplicity
 _atom_site_fract_x
 _atom_site_fract_y
 _atom_site_fract_z
 _atom_site_occupancy
  Er  Er0  1  0.621577  0.042146  0.250000  1
  Er  Er1  1  0.378423  0.957854  0.750000  1
  Er  Er2  1  0.179010  0.186724  0.061824  1
  Er  Er3  1  0.820990  0.813276  0.938176  1
  Er  Er4  1  0.665991  0.325615  0.942487  1
  Er  Er5  1  0.820990  0.813276  0.561824  1
  Er  Er6  1  0.334009  0.674385  0.057513  1
  Er  Er7  1  0.179010  0.186724  0.438176  1
  Er  Er8  1  0.334009  0.674385  0.442487  1
  Er  Er9  1  0.665991  0.325615  0.557513  1
  Lu  Lu10  1  0.122540  0.474972  0.750000  1
  Lu  Lu11  1  0.877460  0.525028  0.250000  1
  Os  Os12  1  0.464200  0.388193  0.250000  1
  Os  Os13  1  0.535800  0.611807  0.750000  1
  Pd  Pd14  1  0.956811  0.113471  0.750000  1
  Pd  Pd15  1  0.043189  0.886529  0.250000  1
