# generated using pymatgen
data_Ba3Nd(BO3)3
_symmetry_space_group_name_H-M   'P 1'
_cell_length_a   8.31896198
_cell_length_b   8.31896254
_cell_length_c   8.31896165
_cell_angle_alpha   105.41992100
_cell_angle_beta   105.41993051
_cell_angle_gamma   105.41993648
_symmetry_Int_Tables_number   1
_chemical_formula_structural   Ba3Nd(BO3)3
_chemical_formula_sum   'Ba6 Nd2 B6 O18'
_cell_volume   498.68641220
_cell_formula_units_Z   2
loop_
 _symmetry_equiv_pos_site_id
 _symmetry_equiv_pos_as_xyz
  1  'x, y, z'
loop_
 _atom_site_type_symbol
 _atom_site_label
 _atom_site_symmetry_multiplicity
 _atom_site_fract_x
 _atom_site_fract_y
 _atom_site_fract_z
 _atom_site_occupancy
  Ba  Ba0  1  0.354584  0.733097  0.848482  1
  Ba  Ba1  1  0.848482  0.354584  0.733097  1
  Ba  Ba2  1  0.733097  0.848482  0.354584  1
  Ba  Ba3  1  0.645416  0.266903  0.151518  1
  Ba  Ba4  1  0.151518  0.645416  0.266903  1
  Ba  Ba5  1  0.266903  0.151518  0.645416  1
  Nd  Nd6  1  0.500000  0.500000  0.500000  1
  Nd  Nd7  1  0.000000  0.000000  0.000000  1
  B  B8  1  0.710786  0.616479  0.959506  1
  B  B9  1  0.959506  0.710786  0.616479  1
  B  B10  1  0.616479  0.959506  0.710786  1
  B  B11  1  0.040494  0.289214  0.383521  1
  B  B12  1  0.383521  0.040494  0.289214  1
  B  B13  1  0.289214  0.383521  0.040494  1
  O  O14  1  0.057204  0.811612  0.543531  1
  O  O15  1  0.543531  0.057204  0.811612  1
  O  O16  1  0.428170  0.494703  0.204371  1
  O  O17  1  0.494703  0.204371  0.428170  1
  O  O18  1  0.204371  0.428170  0.494703  1
  O  O19  1  0.795629  0.571830  0.505297  1
  O  O20  1  0.571830  0.505297  0.795629  1
  O  O21  1  0.505297  0.795629  0.571830  1
  O  O22  1  0.257827  0.200254  0.979986  1
  O  O23  1  0.200254  0.979986  0.257827  1
  O  O24  1  0.979986  0.257827  0.200254  1
  O  O25  1  0.742173  0.799746  0.020014  1
  O  O26  1  0.799746  0.020014  0.742173  1
  O  O27  1  0.020014  0.742173  0.799746  1
  O  O28  1  0.188388  0.456469  0.942796  1
  O  O29  1  0.456469  0.942796  0.188388  1
  O  O30  1  0.942796  0.188388  0.456469  1
  O  O31  1  0.811612  0.543531  0.057204  1
