# generated using pymatgen
data_Pr4Ga4SnRh9
_symmetry_space_group_name_H-M   'P 1'
_cell_length_a   12.38808181
_cell_length_b   12.38808192
_cell_length_c   12.38808300
_cell_angle_alpha   26.58700204
_cell_angle_beta   26.58700099
_cell_angle_gamma   26.58700350
_symmetry_Int_Tables_number   1
_chemical_formula_structural   Pr4Ga4SnRh9
_chemical_formula_sum   'Pr4 Ga4 Sn1 Rh9'
_cell_volume   335.70287631
_cell_formula_units_Z   1
loop_
 _symmetry_equiv_pos_site_id
 _symmetry_equiv_pos_as_xyz
  1  'x, y, z'
loop_
 _atom_site_type_symbol
 _atom_site_label
 _atom_site_symmetry_multiplicity
 _atom_site_fract_x
 _atom_site_fract_y
 _atom_site_fract_z
 _atom_site_occupancy
  Pr  Pr0  1  0.951215  0.951215  0.951215  1
  Pr  Pr1  1  0.854385  0.854385  0.854385  1
  Pr  Pr2  1  0.145615  0.145615  0.145615  1
  Pr  Pr3  1  0.048785  0.048785  0.048785  1
  Ga  Ga4  1  0.279597  0.279597  0.279597  1
  Ga  Ga5  1  0.388058  0.388058  0.388058  1
  Ga  Ga6  1  0.720403  0.720403  0.720403  1
  Ga  Ga7  1  0.611942  0.611942  0.611942  1
  Sn  Sn8  1  0.500000  0.500000  0.500000  1
  Rh  Rh9  1  0.611824  0.611824  0.100226  1
  Rh  Rh10  1  0.899774  0.388176  0.388176  1
  Rh  Rh11  1  0.500000  0.000000  0.500000  1
  Rh  Rh12  1  0.388176  0.899774  0.388176  1
  Rh  Rh13  1  0.500000  0.500000  0.000000  1
  Rh  Rh14  1  0.100226  0.611824  0.611824  1
  Rh  Rh15  1  0.000000  0.500000  0.500000  1
  Rh  Rh16  1  0.388176  0.388176  0.899774  1
  Rh  Rh17  1  0.611824  0.100226  0.611824  1
