# generated using pymatgen
data_Eu4DyYTa2O12
_symmetry_space_group_name_H-M   'P 1'
_cell_length_a   5.94666400
_cell_length_b   5.78888548
_cell_length_c   10.07131501
_cell_angle_alpha   55.19983886
_cell_angle_beta   89.99617509
_cell_angle_gamma   89.99804221
_symmetry_Int_Tables_number   1
_chemical_formula_structural   Eu4DyYTa2O12
_chemical_formula_sum   'Eu4 Dy1 Y1 Ta2 O12'
_cell_volume   284.69233095
_cell_formula_units_Z   1
loop_
 _symmetry_equiv_pos_site_id
 _symmetry_equiv_pos_as_xyz
  1  'x, y, z'
loop_
 _atom_site_type_symbol
 _atom_site_label
 _atom_site_symmetry_multiplicity
 _atom_site_fract_x
 _atom_site_fract_y
 _atom_site_fract_z
 _atom_site_occupancy
  Eu  Eu0  1  0.451398  0.263069  0.750772  1
  Eu  Eu1  1  0.951512  0.736664  0.749449  1
  Eu  Eu2  1  0.048488  0.263336  0.250551  1
  Eu  Eu3  1  0.548602  0.736931  0.249228  1
  Dy  Dy4  1  0.000000  0.000000  0.000000  1
  Y  Y5  1  0.500000  0.000000  0.500000  1
  Ta  Ta6  1  0.500000  0.500000  0.000000  1
  Ta  Ta7  1  0.000000  0.500000  0.500000  1
  O  O8  1  0.722151  0.634200  0.554679  1
  O  O9  1  0.222084  0.365162  0.945508  1
  O  O10  1  0.277849  0.365800  0.445321  1
  O  O11  1  0.777916  0.634838  0.054492  1
  O  O12  1  0.193126  0.730318  0.548750  1
  O  O13  1  0.693467  0.269526  0.951380  1
  O  O14  1  0.806874  0.269682  0.451250  1
  O  O15  1  0.306533  0.730474  0.048620  1
  O  O16  1  0.032069  0.169310  0.734275  1
  O  O17  1  0.532201  0.830515  0.766131  1
  O  O18  1  0.967931  0.830690  0.265725  1
  O  O19  1  0.467799  0.169485  0.233869  1
