# generated using pymatgen
data_TbDy3HoIn3
_symmetry_space_group_name_H-M   'P 1'
_cell_length_a   6.03056530
_cell_length_b   9.18529268
_cell_length_c   9.18335212
_cell_angle_alpha   83.78880786
_cell_angle_beta   70.81044904
_cell_angle_gamma   70.81072018
_symmetry_Int_Tables_number   1
_chemical_formula_structural   TbDy3HoIn3
_chemical_formula_sum   'Tb2 Dy6 Ho2 In6'
_cell_volume   453.73088173
_cell_formula_units_Z   2
loop_
 _symmetry_equiv_pos_site_id
 _symmetry_equiv_pos_as_xyz
  1  'x, y, z'
loop_
 _atom_site_type_symbol
 _atom_site_label
 _atom_site_symmetry_multiplicity
 _atom_site_fract_x
 _atom_site_fract_y
 _atom_site_fract_z
 _atom_site_occupancy
  Tb  Tb0  1  0.719464  0.862346  0.698313  1
  Tb  Tb1  1  0.280536  0.137654  0.301687  1
  Dy  Dy2  1  0.780829  0.301361  0.137439  1
  Dy  Dy3  1  0.219171  0.698639  0.862561  1
  Dy  Dy4  1  0.581145  0.698875  0.137667  1
  Dy  Dy5  1  0.418855  0.301125  0.862333  1
  Dy  Dy6  1  0.080977  0.137785  0.699045  1
  Dy  Dy7  1  0.919023  0.862215  0.300955  1
  Ho  Ho8  1  0.750019  0.499920  0.500088  1
  Ho  Ho9  1  0.249981  0.500080  0.499912  1
  In  In10  1  0.161684  0.500239  0.175959  1
  In  In11  1  0.838316  0.499761  0.824041  1
  In  In12  1  0.338391  0.823663  0.499895  1
  In  In13  1  0.661609  0.176337  0.500105  1
  In  In14  1  0.249876  0.999689  0.000333  1
  In  In15  1  0.750124  0.000311  0.999667  1
