# generated using pymatgen
data_LuPuCrB6
_symmetry_space_group_name_H-M   'P 1'
_cell_length_a   3.56589400
_cell_length_b   9.06827600
_cell_length_c   11.40716000
_cell_angle_alpha   90.00000000
_cell_angle_beta   90.00000000
_cell_angle_gamma   90.00000000
_symmetry_Int_Tables_number   1
_chemical_formula_structural   LuPuCrB6
_chemical_formula_sum   'Lu4 Pu4 Cr4 B24'
_cell_volume   368.86775458
_cell_formula_units_Z   4
loop_
 _symmetry_equiv_pos_site_id
 _symmetry_equiv_pos_as_xyz
  1  'x, y, z'
loop_
 _atom_site_type_symbol
 _atom_site_label
 _atom_site_symmetry_multiplicity
 _atom_site_fract_x
 _atom_site_fract_y
 _atom_site_fract_z
 _atom_site_occupancy
  Lu  Lu0  1  0.000000  0.943444  0.370921  1
  Lu  Lu1  1  0.000000  0.056556  0.629079  1
  Lu  Lu2  1  0.000000  0.443444  0.129079  1
  Lu  Lu3  1  0.000000  0.556556  0.870921  1
  Pu  Pu4  1  0.000000  0.322397  0.413546  1
  Pu  Pu5  1  0.000000  0.677603  0.586454  1
  Pu  Pu6  1  0.000000  0.822397  0.086454  1
  Pu  Pu7  1  0.000000  0.177603  0.913546  1
  Cr  Cr8  1  0.000000  0.639542  0.320821  1
  Cr  Cr9  1  0.000000  0.360458  0.679179  1
  Cr  Cr10  1  0.000000  0.139542  0.179179  1
  Cr  Cr11  1  0.000000  0.860458  0.820821  1
  B  B12  1  0.500000  0.553362  0.433283  1
  B  B13  1  0.500000  0.446638  0.566717  1
  B  B14  1  0.500000  0.053362  0.066717  1
  B  B15  1  0.500000  0.946638  0.933283  1
  B  B16  1  0.500000  0.748557  0.418953  1
  B  B17  1  0.500000  0.251443  0.581047  1
  B  B18  1  0.500000  0.248557  0.081047  1
  B  B19  1  0.500000  0.751443  0.918953  1
  B  B20  1  0.500000  0.792661  0.264750  1
  B  B21  1  0.500000  0.207339  0.735250  1
  B  B22  1  0.500000  0.292661  0.235250  1
  B  B23  1  0.500000  0.707339  0.764750  1
  B  B24  1  0.500000  0.631697  0.184821  1
  B  B25  1  0.500000  0.368303  0.815179  1
  B  B26  1  0.500000  0.131697  0.315179  1
  B  B27  1  0.500000  0.868303  0.684821  1
  B  B28  1  0.500000  0.982952  0.211787  1
  B  B29  1  0.500000  0.017048  0.788213  1
  B  B30  1  0.500000  0.482952  0.288213  1
  B  B31  1  0.500000  0.517048  0.711787  1
  B  B32  1  0.500000  0.604938  0.029000  1
  B  B33  1  0.500000  0.395062  0.971000  1
  B  B34  1  0.500000  0.104938  0.471000  1
  B  B35  1  0.500000  0.895062  0.529000  1
