# generated using pymatgen
data_Er5Sc7AlZnCo4
_symmetry_space_group_name_H-M   'P 1'
_cell_length_a   7.91753095
_cell_length_b   7.94238537
_cell_length_c   7.94238556
_cell_angle_alpha   111.35026994
_cell_angle_beta   110.62646886
_cell_angle_gamma   106.59793499
_symmetry_Int_Tables_number   1
_chemical_formula_structural   Er5Sc7AlZnCo4
_chemical_formula_sum   'Er5 Sc7 Al1 Zn1 Co4'
_cell_volume   383.14255254
_cell_formula_units_Z   1
loop_
 _symmetry_equiv_pos_site_id
 _symmetry_equiv_pos_as_xyz
  1  'x, y, z'
loop_
 _atom_site_type_symbol
 _atom_site_label
 _atom_site_symmetry_multiplicity
 _atom_site_fract_x
 _atom_site_fract_y
 _atom_site_fract_z
 _atom_site_occupancy
  Er  Er0  1  0.970157  0.772399  0.197759  1
  Er  Er1  1  0.193654  0.287693  0.478665  1
  Er  Er2  1  0.805925  0.714974  0.525221  1
  Er  Er3  1  0.193654  0.714987  0.905961  1
  Er  Er4  1  0.805925  0.280706  0.090951  1
  Sc  Sc5  1  0.317150  0.617153  0.304414  1
  Sc  Sc6  1  0.680714  0.376866  0.689804  1
  Sc  Sc7  1  0.317150  0.012735  0.699998  1
  Sc  Sc8  1  0.680714  0.990911  0.303848  1
  Sc  Sc9  1  0.427277  0.224928  0.202348  1
  Sc  Sc10  1  0.566710  0.770671  0.796039  1
  Sc  Sc11  1  0.024462  0.230641  0.793819  1
  Al  Al12  1  0.493647  0.495648  0.997999  1
  Zn  Zn13  1  0.995935  0.006319  0.989616  1
  Co  Co14  1  0.124660  0.620980  0.503680  1
  Co  Co15  1  0.881930  0.381809  0.500120  1
  Co  Co16  1  0.383577  0.003035  0.380542  1
  Co  Co17  1  0.636764  0.997546  0.639218  1
