# generated using pymatgen
data_LaNd2Tc4(P2O)2
_symmetry_space_group_name_H-M   'P 1'
_cell_length_a   4.15975940
_cell_length_b   4.15972129
_cell_length_c   13.45140329
_cell_angle_alpha   98.89164883
_cell_angle_beta   98.89234970
_cell_angle_gamma   89.95415373
_symmetry_Int_Tables_number   1
_chemical_formula_structural   LaNd2Tc4(P2O)2
_chemical_formula_sum   'La1 Nd2 Tc4 P4 O2'
_cell_volume   227.13081469
_cell_formula_units_Z   1
loop_
 _symmetry_equiv_pos_site_id
 _symmetry_equiv_pos_as_xyz
  1  'x, y, z'
loop_
 _atom_site_type_symbol
 _atom_site_label
 _atom_site_symmetry_multiplicity
 _atom_site_fract_x
 _atom_site_fract_y
 _atom_site_fract_z
 _atom_site_occupancy
  La  La0  1  0.292871  0.292876  0.586409  1
  Nd  Nd1  1  0.000804  0.000809  0.001317  1
  Nd  Nd2  1  0.705653  0.705653  0.410954  1
  Tc  Tc3  1  0.593231  0.093073  0.186344  1
  Tc  Tc4  1  0.093078  0.593228  0.186342  1
  Tc  Tc5  1  0.907942  0.407848  0.815684  1
  Tc  Tc6  1  0.407841  0.907933  0.815668  1
  P  P7  1  0.549685  0.549680  0.099534  1
  P  P8  1  0.135090  0.135087  0.270050  1
  P  P9  1  0.865621  0.865617  0.731289  1
  P  P10  1  0.451022  0.451024  0.901854  1
  O  O11  1  0.748756  0.248416  0.497274  1
  O  O12  1  0.248414  0.748764  0.497279  1
