# generated using pymatgen
data_Ho19Mg(RuAu)6
_symmetry_space_group_name_H-M   'P 1'
_cell_length_a   11.17406527
_cell_length_b   11.13995211
_cell_length_c   6.27140300
_cell_angle_alpha   90.22263728
_cell_angle_beta   89.66214259
_cell_angle_gamma   89.92843393
_symmetry_Int_Tables_number   1
_chemical_formula_structural   Ho19Mg(RuAu)6
_chemical_formula_sum   'Ho19 Mg1 Ru6 Au6'
_cell_volume   780.63506726
_cell_formula_units_Z   1
loop_
 _symmetry_equiv_pos_site_id
 _symmetry_equiv_pos_as_xyz
  1  'x, y, z'
loop_
 _atom_site_type_symbol
 _atom_site_label
 _atom_site_symmetry_multiplicity
 _atom_site_fract_x
 _atom_site_fract_y
 _atom_site_fract_z
 _atom_site_occupancy
  Ho  Ho0  1  0.296003  0.085718  0.360105  1
  Ho  Ho1  1  0.298455  0.907512  0.860404  1
  Ho  Ho2  1  0.694758  0.082466  0.856842  1
  Ho  Ho3  1  0.699050  0.921763  0.357894  1
  Ho  Ho4  1  0.574979  0.792702  0.856957  1
  Ho  Ho5  1  0.569993  0.208141  0.356405  1
  Ho  Ho6  1  0.413603  0.796047  0.368726  1
  Ho  Ho7  1  0.407639  0.204360  0.871344  1
  Ho  Ho8  1  0.211975  0.422005  0.634663  1
  Ho  Ho9  1  0.212641  0.584307  0.131885  1
  Ho  Ho10  1  0.804571  0.413975  0.139731  1
  Ho  Ho11  1  0.803366  0.580801  0.640440  1
  Ho  Ho12  1  0.921219  0.698453  0.142845  1
  Ho  Ho13  1  0.925584  0.297691  0.641666  1
  Ho  Ho14  1  0.090055  0.702390  0.640728  1
  Ho  Ho15  1  0.098037  0.301085  0.140284  1
  Ho  Ho16  1  0.996928  0.000265  0.999690  1
  Ho  Ho17  1  0.492590  0.496529  0.998290  1
  Ho  Ho18  1  0.491536  0.503787  0.498381  1
  Mg  Mg19  1  0.997930  0.999116  0.500014  1
  Ru  Ru20  1  0.346953  0.345792  0.255410  1
  Ru  Ru21  1  0.347546  0.654648  0.747952  1
  Ru  Ru22  1  0.497987  0.000224  0.111743  1
  Ru  Ru23  1  0.498018  0.999845  0.612846  1
  Ru  Ru24  1  0.001655  0.500400  0.888603  1
  Ru  Ru25  1  0.002019  0.499512  0.387340  1
  Au  Au26  1  0.842970  0.153811  0.259391  1
  Au  Au27  1  0.844343  0.845762  0.744967  1
  Au  Au28  1  0.152051  0.151515  0.743814  1
  Au  Au29  1  0.151080  0.847960  0.256052  1
  Au  Au30  1  0.658179  0.345405  0.743151  1
  Au  Au31  1  0.656289  0.656016  0.251440  1
