# generated using pymatgen
data_Tb2YbY(AlPd)4
_symmetry_space_group_name_H-M   'P 1'
_cell_length_a   4.44139200
_cell_length_b   6.92385726
_cell_length_c   7.85283769
_cell_angle_alpha   90.59182344
_cell_angle_beta   90.00000000
_cell_angle_gamma   90.00000000
_symmetry_Int_Tables_number   1
_chemical_formula_structural   Tb2YbY(AlPd)4
_chemical_formula_sum   'Tb2 Yb1 Y1 Al4 Pd4'
_cell_volume   241.47416038
_cell_formula_units_Z   1
loop_
 _symmetry_equiv_pos_site_id
 _symmetry_equiv_pos_as_xyz
  1  'x, y, z'
loop_
 _atom_site_type_symbol
 _atom_site_label
 _atom_site_symmetry_multiplicity
 _atom_site_fract_x
 _atom_site_fract_y
 _atom_site_fract_z
 _atom_site_occupancy
  Tb  Tb0  1  0.250000  0.034080  0.322007  1
  Tb  Tb1  1  0.250000  0.533985  0.177556  1
  Yb  Yb2  1  0.750000  0.467125  0.822318  1
  Y  Y3  1  0.750000  0.964833  0.679637  1
  Al  Al4  1  0.250000  0.139105  0.940001  1
  Al  Al5  1  0.250000  0.641283  0.559664  1
  Al  Al6  1  0.750000  0.860457  0.061112  1
  Al  Al7  1  0.750000  0.359506  0.439218  1
  Pd  Pd8  1  0.250000  0.272052  0.622180  1
  Pd  Pd9  1  0.250000  0.773003  0.878297  1
  Pd  Pd10  1  0.750000  0.727464  0.376300  1
  Pd  Pd11  1  0.750000  0.227110  0.121709  1
