# generated using pymatgen
data_Ca14CdBi11
_symmetry_space_group_name_H-M   'P 1'
_cell_length_a   16.66989575
_cell_length_b   16.66999420
_cell_length_c   16.66999400
_cell_angle_alpha   93.78490046
_cell_angle_beta   117.83965662
_cell_angle_gamma   117.83965515
_symmetry_Int_Tables_number   1
_chemical_formula_structural   Ca14CdBi11
_chemical_formula_sum   'Ca56 Cd4 Bi44'
_cell_volume   3374.56563721
_cell_formula_units_Z   4
loop_
 _symmetry_equiv_pos_site_id
 _symmetry_equiv_pos_as_xyz
  1  'x, y, z'
loop_
 _atom_site_type_symbol
 _atom_site_label
 _atom_site_symmetry_multiplicity
 _atom_site_fract_x
 _atom_site_fract_y
 _atom_site_fract_z
 _atom_site_occupancy
  Ca  Ca0  1  0.968804  0.254432  0.372352  1
  Ca  Ca1  1  0.352501  0.879173  0.479772  1
  Ca  Ca2  1  0.588808  0.837136  0.566566  1
  Ca  Ca3  1  0.100598  0.473330  0.120829  1
  Ca  Ca4  1  0.229429  0.977756  0.066565  1
  Ca  Ca5  1  0.088805  0.522243  0.751671  1
  Ca  Ca6  1  0.031196  0.745568  0.627648  1
  Ca  Ca7  1  0.882075  0.754426  0.785627  1
  Ca  Ca8  1  0.147500  0.627272  0.526671  1
  Ca  Ca9  1  0.411192  0.162864  0.433434  1
  Ca  Ca10  1  0.600598  0.620829  0.973330  1
  Ca  Ca11  1  0.899402  0.872729  0.020229  1
  Ca  Ca12  1  0.354069  0.249999  0.604069  1
  Ca  Ca13  1  0.647499  0.120827  0.520228  1
  Ca  Ca14  1  0.647500  0.026671  0.127272  1
  Ca  Ca15  1  0.968804  0.214372  0.596454  1
  Ca  Ca16  1  0.854069  0.104069  0.749999  1
  Ca  Ca17  1  0.588805  0.251671  0.022243  1
  Ca  Ca18  1  0.399402  0.379171  0.026670  1
  Ca  Ca19  1  0.531196  0.127648  0.245568  1
  Ca  Ca20  1  0.270571  0.433435  0.522244  1
  Ca  Ca21  1  0.852501  0.979772  0.379173  1
  Ca  Ca22  1  0.270575  0.337134  0.748330  1
  Ca  Ca23  1  0.770575  0.248330  0.837134  1
  Ca  Ca24  1  0.399402  0.520229  0.372729  1
  Ca  Ca25  1  0.382075  0.285627  0.254426  1
  Ca  Ca26  1  0.911192  0.933434  0.662864  1
  Ca  Ca27  1  0.352500  0.973329  0.872728  1
  Ca  Ca28  1  0.100598  0.127271  0.979771  1
  Ca  Ca29  1  0.145933  0.750000  0.895933  1
  Ca  Ca30  1  0.899402  0.526670  0.879171  1
  Ca  Ca31  1  0.729429  0.566565  0.477756  1
  Ca  Ca32  1  0.411195  0.748329  0.977757  1
  Ca  Ca33  1  0.354067  0.604067  0.750000  1
  Ca  Ca34  1  0.882078  0.627649  0.096452  1
  Ca  Ca35  1  0.468804  0.096454  0.714372  1
  Ca  Ca36  1  0.854067  0.250000  0.104067  1
  Ca  Ca37  1  0.852500  0.372728  0.473329  1
  Ca  Ca38  1  0.468804  0.872352  0.754432  1
  Ca  Ca39  1  0.770571  0.022244  0.933435  1
  Ca  Ca40  1  0.617922  0.403548  0.872351  1
  Ca  Ca41  1  0.911195  0.477757  0.248329  1
  Ca  Ca42  1  0.145931  0.895931  0.250001  1
  Ca  Ca43  1  0.645933  0.395933  0.250000  1
  Ca  Ca44  1  0.147499  0.020228  0.620827  1
  Ca  Ca45  1  0.729425  0.662866  0.251670  1
  Ca  Ca46  1  0.531196  0.903546  0.285628  1
  Ca  Ca47  1  0.382078  0.596452  0.127649  1
  Ca  Ca48  1  0.117925  0.245574  0.214373  1
  Ca  Ca49  1  0.031196  0.785628  0.403546  1
  Ca  Ca50  1  0.088808  0.066566  0.337136  1
  Ca  Ca51  1  0.229425  0.751670  0.162866  1
  Ca  Ca52  1  0.117922  0.372351  0.903548  1
  Ca  Ca53  1  0.600598  0.479771  0.627271  1
  Ca  Ca54  1  0.617925  0.714373  0.745574  1
  Ca  Ca55  1  0.645931  0.750001  0.395931  1
  Cd  Cd56  1  0.250003  0.625002  0.375008  1
  Cd  Cd57  1  0.249997  0.124992  0.874998  1
  Cd  Cd58  1  0.750003  0.875008  0.125002  1
  Cd  Cd59  1  0.749997  0.374998  0.624992  1
  Bi  Bi60  1  0.101236  0.413204  0.303812  1
  Bi  Bi61  1  0.155840  0.072754  0.177577  1
  Bi  Bi62  1  0.609391  0.797423  0.196187  1
  Bi  Bi63  1  0.750000  0.125000  0.375000  1
  Bi  Bi64  1  0.609391  0.311967  0.413201  1
  Bi  Bi65  1  0.109391  0.913201  0.811967  1
  Bi  Bi66  1  0.250000  0.738238  0.761762  1
  Bi  Bi67  1  0.890609  0.086799  0.188033  1
  Bi  Bi68  1  0.895176  0.822423  0.478263  1
  Bi  Bi69  1  0.604823  0.083086  0.927246  1
  Bi  Bi70  1  0.250000  0.011762  0.488238  1
  Bi  Bi71  1  0.155841  0.583086  0.978264  1
  Bi  Bi72  1  0.101237  0.188031  0.797424  1
  Bi  Bi73  1  0.898764  0.586796  0.696188  1
  Bi  Bi74  1  0.601237  0.297424  0.688031  1
  Bi  Bi75  1  0.604824  0.021737  0.677577  1
  Bi  Bi76  1  0.109391  0.696187  0.297423  1
  Bi  Bi77  1  0.344160  0.322423  0.427246  1
  Bi  Bi78  1  0.601236  0.803812  0.913204  1
  Bi  Bi79  1  0.250000  0.875000  0.625000  1
  Bi  Bi80  1  0.398764  0.196188  0.086796  1
  Bi  Bi81  1  0.104824  0.177577  0.521737  1
  Bi  Bi82  1  0.750000  0.988238  0.511762  1
  Bi  Bi83  1  0.750000  0.261762  0.238238  1
  Bi  Bi84  1  0.390609  0.688033  0.586799  1
  Bi  Bi85  1  0.844160  0.927246  0.822423  1
  Bi  Bi86  1  0.398763  0.702576  0.311969  1
  Bi  Bi87  1  0.476473  0.488236  0.738237  1
  Bi  Bi88  1  0.390609  0.202577  0.803813  1
  Bi  Bi89  1  0.976473  0.238237  0.988236  1
  Bi  Bi90  1  0.844159  0.416914  0.021736  1
  Bi  Bi91  1  0.750000  0.624999  0.875001  1
  Bi  Bi92  1  0.344159  0.521736  0.916914  1
  Bi  Bi93  1  0.104823  0.427246  0.583086  1
  Bi  Bi94  1  0.898763  0.811969  0.202576  1
  Bi  Bi95  1  0.395176  0.978263  0.322423  1
  Bi  Bi96  1  0.895177  0.572754  0.416914  1
  Bi  Bi97  1  0.655840  0.677577  0.572754  1
  Bi  Bi98  1  0.250000  0.375001  0.124999  1
  Bi  Bi99  1  0.890609  0.303813  0.702577  1
  Bi  Bi100  1  0.523527  0.511764  0.261763  1
  Bi  Bi101  1  0.395177  0.916914  0.072754  1
  Bi  Bi102  1  0.023527  0.761763  0.011764  1
  Bi  Bi103  1  0.655841  0.478264  0.083086  1
