# generated using pymatgen
data_SmAlFe4
_symmetry_space_group_name_H-M   'P 1'
_cell_length_a   5.19552153
_cell_length_b   5.19552158
_cell_length_c   3.96163500
_cell_angle_alpha   90.00000000
_cell_angle_beta   90.00000000
_cell_angle_gamma   121.73685562
_symmetry_Int_Tables_number   1
_chemical_formula_structural   SmAlFe4
_chemical_formula_sum   'Sm1 Al1 Fe4'
_cell_volume   90.94802087
_cell_formula_units_Z   1
loop_
 _symmetry_equiv_pos_site_id
 _symmetry_equiv_pos_as_xyz
  1  'x, y, z'
loop_
 _atom_site_type_symbol
 _atom_site_label
 _atom_site_symmetry_multiplicity
 _atom_site_fract_x
 _atom_site_fract_y
 _atom_site_fract_z
 _atom_site_occupancy
  Sm  Sm0  1  0.500000  0.500000  0.000000  1
  Al  Al1  1  0.000000  0.000000  0.500000  1
  Fe  Fe2  1  0.177446  0.822554  0.000000  1
  Fe  Fe3  1  0.822554  0.177446  0.000000  1
  Fe  Fe4  1  0.000000  0.500000  0.500000  1
  Fe  Fe5  1  0.500000  0.000000  0.500000  1
