# generated using pymatgen
data_Ca3(AcGe2)2
_symmetry_space_group_name_H-M   'P 1'
_cell_length_a   7.77816300
_cell_length_b   8.26489200
_cell_length_c   15.82386000
_cell_angle_alpha   90.00000000
_cell_angle_beta   90.00000000
_cell_angle_gamma   90.00000000
_symmetry_Int_Tables_number   1
_chemical_formula_structural   Ca3(AcGe2)2
_chemical_formula_sum   'Ca12 Ac8 Ge16'
_cell_volume   1017.24755528
_cell_formula_units_Z   4
loop_
 _symmetry_equiv_pos_site_id
 _symmetry_equiv_pos_as_xyz
  1  'x, y, z'
loop_
 _atom_site_type_symbol
 _atom_site_label
 _atom_site_symmetry_multiplicity
 _atom_site_fract_x
 _atom_site_fract_y
 _atom_site_fract_z
 _atom_site_occupancy
  Ca  Ca0  1  0.327105  0.824021  0.877116  1
  Ca  Ca1  1  0.827105  0.675979  0.622884  1
  Ca  Ca2  1  0.672895  0.175979  0.377116  1
  Ca  Ca3  1  0.172895  0.324021  0.122884  1
  Ca  Ca4  1  0.672895  0.175979  0.122884  1
  Ca  Ca5  1  0.172895  0.324021  0.377116  1
  Ca  Ca6  1  0.327105  0.824021  0.622884  1
  Ca  Ca7  1  0.827105  0.675979  0.877116  1
  Ca  Ca8  1  0.157516  0.503574  0.750000  1
  Ca  Ca9  1  0.657516  0.996426  0.750000  1
  Ca  Ca10  1  0.842484  0.496426  0.250000  1
  Ca  Ca11  1  0.342484  0.003574  0.250000  1
  Ac  Ac12  1  0.484662  0.316982  0.902845  1
  Ac  Ac13  1  0.984662  0.183018  0.597155  1
  Ac  Ac14  1  0.515338  0.683018  0.402845  1
  Ac  Ac15  1  0.015338  0.816982  0.097155  1
  Ac  Ac16  1  0.515338  0.683018  0.097155  1
  Ac  Ac17  1  0.015338  0.816982  0.402845  1
  Ac  Ac18  1  0.484662  0.316982  0.597155  1
  Ac  Ac19  1  0.984662  0.183018  0.902845  1
  Ge  Ge20  1  0.347705  0.033373  0.037676  1
  Ge  Ge21  1  0.847705  0.466627  0.462324  1
  Ge  Ge22  1  0.652295  0.966627  0.537676  1
  Ge  Ge23  1  0.152295  0.533373  0.962324  1
  Ge  Ge24  1  0.652295  0.966627  0.962324  1
  Ge  Ge25  1  0.152295  0.533373  0.537676  1
  Ge  Ge26  1  0.347705  0.033373  0.462324  1
  Ge  Ge27  1  0.847705  0.466627  0.037676  1
  Ge  Ge28  1  0.535013  0.601377  0.750000  1
  Ge  Ge29  1  0.035013  0.898623  0.750000  1
  Ge  Ge30  1  0.464987  0.398623  0.250000  1
  Ge  Ge31  1  0.964987  0.101377  0.250000  1
  Ge  Ge32  1  0.275377  0.125496  0.750000  1
  Ge  Ge33  1  0.775377  0.374504  0.750000  1
  Ge  Ge34  1  0.724623  0.874504  0.250000  1
  Ge  Ge35  1  0.224623  0.625496  0.250000  1
