# generated using pymatgen
data_Nd2PaOs2
_symmetry_space_group_name_H-M   'P 1'
_cell_length_a   6.10817717
_cell_length_b   6.10817849
_cell_length_c   6.10817832
_cell_angle_alpha   138.41975915
_cell_angle_beta   123.96822581
_cell_angle_gamma   72.13591686
_symmetry_Int_Tables_number   1
_chemical_formula_structural   Nd2PaOs2
_chemical_formula_sum   'Nd2 Pa1 Os2'
_cell_volume   122.85014147
_cell_formula_units_Z   1
loop_
 _symmetry_equiv_pos_site_id
 _symmetry_equiv_pos_as_xyz
  1  'x, y, z'
loop_
 _atom_site_type_symbol
 _atom_site_label
 _atom_site_symmetry_multiplicity
 _atom_site_fract_x
 _atom_site_fract_y
 _atom_site_fract_z
 _atom_site_occupancy
  Nd  Nd0  1  0.698719  0.198718  0.500001  1
  Nd  Nd1  1  0.301282  0.801281  0.500000  1
  Pa  Pa2  1  0.000000  0.000000  0.000000  1
  Os  Os3  1  0.736271  0.500000  0.236272  1
  Os  Os4  1  0.263729  0.500000  0.763729  1
