# generated using pymatgen
data_SmLu3(Si3Rh)2
_symmetry_space_group_name_H-M   'P 1'
_cell_length_a   8.14070300
_cell_length_b   8.14070359
_cell_length_c   7.81572900
_cell_angle_alpha   90.00000000
_cell_angle_beta   90.00000000
_cell_angle_gamma   120.00000165
_symmetry_Int_Tables_number   1
_chemical_formula_structural   SmLu3(Si3Rh)2
_chemical_formula_sum   'Sm2 Lu6 Si12 Rh4'
_cell_volume   448.56353908
_cell_formula_units_Z   2
loop_
 _symmetry_equiv_pos_site_id
 _symmetry_equiv_pos_as_xyz
  1  'x, y, z'
loop_
 _atom_site_type_symbol
 _atom_site_label
 _atom_site_symmetry_multiplicity
 _atom_site_fract_x
 _atom_site_fract_y
 _atom_site_fract_z
 _atom_site_occupancy
  Sm  Sm0  1  0.000000  0.000000  0.750000  1
  Sm  Sm1  1  0.000000  0.000000  0.250000  1
  Lu  Lu2  1  0.981231  0.490615  0.250000  1
  Lu  Lu3  1  0.509385  0.490615  0.250000  1
  Lu  Lu4  1  0.490615  0.981231  0.750000  1
  Lu  Lu5  1  0.018769  0.509385  0.750000  1
  Lu  Lu6  1  0.490615  0.509385  0.750000  1
  Lu  Lu7  1  0.509385  0.018769  0.250000  1
  Si  Si8  1  0.168229  0.831771  0.500367  1
  Si  Si9  1  0.168229  0.336457  0.500367  1
  Si  Si10  1  0.663543  0.831771  0.500367  1
  Si  Si11  1  0.336457  0.168229  0.000367  1
  Si  Si12  1  0.831771  0.663543  0.499633  1
  Si  Si13  1  0.831771  0.168229  0.000367  1
  Si  Si14  1  0.831771  0.663543  0.000367  1
  Si  Si15  1  0.168229  0.336457  0.999633  1
  Si  Si16  1  0.663543  0.831771  0.999633  1
  Si  Si17  1  0.336457  0.168229  0.499633  1
  Si  Si18  1  0.831771  0.168229  0.499633  1
  Si  Si19  1  0.168229  0.831771  0.999633  1
  Rh  Rh20  1  0.333333  0.666667  0.035594  1
  Rh  Rh21  1  0.666667  0.333333  0.964406  1
  Rh  Rh22  1  0.666667  0.333333  0.535594  1
  Rh  Rh23  1  0.333333  0.666667  0.464406  1
