# generated using pymatgen
data_Yb7ZrP6
_symmetry_space_group_name_H-M   'P 1'
_cell_length_a   7.41715150
_cell_length_b   7.41715084
_cell_length_c   7.31833700
_cell_angle_alpha   109.20156622
_cell_angle_beta   109.20156446
_cell_angle_gamma   109.73952729
_symmetry_Int_Tables_number   1
_chemical_formula_structural   Yb7ZrP6
_chemical_formula_sum   'Yb7 Zr1 P6'
_cell_volume   310.95621563
_cell_formula_units_Z   1
loop_
 _symmetry_equiv_pos_site_id
 _symmetry_equiv_pos_as_xyz
  1  'x, y, z'
loop_
 _atom_site_type_symbol
 _atom_site_label
 _atom_site_symmetry_multiplicity
 _atom_site_fract_x
 _atom_site_fract_y
 _atom_site_fract_z
 _atom_site_occupancy
  Yb  Yb0  1  0.643386  0.644745  0.642819  1
  Yb  Yb1  1  0.004132  0.365606  0.498470  1
  Yb  Yb2  1  0.361474  0.495868  0.994338  1
  Yb  Yb3  1  0.001358  0.856614  0.499432  1
  Yb  Yb4  1  0.855255  0.498642  0.998075  1
  Yb  Yb5  1  0.500000  0.000000  0.867672  1
  Yb  Yb6  1  0.134394  0.138526  0.132864  1
  Zr  Zr7  1  0.500000  0.000000  0.375775  1
  P  P8  1  0.856839  0.119810  0.727508  1
  P  P9  1  0.380190  0.237029  0.607697  1
  P  P10  1  0.136572  0.757568  0.892941  1
  P  P11  1  0.742432  0.879004  0.135373  1
  P  P12  1  0.262971  0.643161  0.370669  1
  P  P13  1  0.620996  0.363428  0.256369  1
