# generated using pymatgen
data_ZrSi2MoIr2
_symmetry_space_group_name_H-M   'P 1'
_cell_length_a   3.88099400
_cell_length_b   6.45978700
_cell_length_c   7.32556500
_cell_angle_alpha   90.00000000
_cell_angle_beta   90.00000000
_cell_angle_gamma   90.00000000
_symmetry_Int_Tables_number   1
_chemical_formula_structural   ZrSi2MoIr2
_chemical_formula_sum   'Zr2 Si4 Mo2 Ir4'
_cell_volume   183.65480513
_cell_formula_units_Z   2
loop_
 _symmetry_equiv_pos_site_id
 _symmetry_equiv_pos_as_xyz
  1  'x, y, z'
loop_
 _atom_site_type_symbol
 _atom_site_label
 _atom_site_symmetry_multiplicity
 _atom_site_fract_x
 _atom_site_fract_y
 _atom_site_fract_z
 _atom_site_occupancy
  Zr  Zr0  1  0.750000  0.975691  0.672345  1
  Zr  Zr1  1  0.750000  0.475691  0.827655  1
  Si  Si2  1  0.250000  0.268137  0.611598  1
  Si  Si3  1  0.250000  0.768137  0.888402  1
  Si  Si4  1  0.750000  0.727263  0.367506  1
  Si  Si5  1  0.750000  0.227263  0.132494  1
  Mo  Mo6  1  0.250000  0.024868  0.322116  1
  Mo  Mo7  1  0.250000  0.524868  0.177884  1
  Ir  Ir8  1  0.250000  0.148595  0.938677  1
  Ir  Ir9  1  0.250000  0.648595  0.561323  1
  Ir  Ir10  1  0.750000  0.855446  0.063818  1
  Ir  Ir11  1  0.750000  0.355446  0.436182  1
