# generated using pymatgen
data_ThTa4(NbCl9)2
_symmetry_space_group_name_H-M   'P 1'
_cell_length_a   10.33253171
_cell_length_b   10.33514964
_cell_length_c   10.33089551
_cell_angle_alpha   55.85561361
_cell_angle_beta   55.89097667
_cell_angle_gamma   55.85873328
_symmetry_Int_Tables_number   1
_chemical_formula_structural   ThTa4(NbCl9)2
_chemical_formula_sum   'Th1 Ta4 Nb2 Cl18'
_cell_volume   705.38143001
_cell_formula_units_Z   1
loop_
 _symmetry_equiv_pos_site_id
 _symmetry_equiv_pos_as_xyz
  1  'x, y, z'
loop_
 _atom_site_type_symbol
 _atom_site_label
 _atom_site_symmetry_multiplicity
 _atom_site_fract_x
 _atom_site_fract_y
 _atom_site_fract_z
 _atom_site_occupancy
  Th  Th0  1  0.000454  0.999308  0.000260  1
  Ta  Ta1  1  0.413242  0.307948  0.643512  1
  Ta  Ta2  1  0.356405  0.587092  0.691850  1
  Ta  Ta3  1  0.692827  0.355905  0.586957  1
  Ta  Ta4  1  0.307697  0.644309  0.412280  1
  Nb  Nb5  1  0.644847  0.412676  0.306416  1
  Nb  Nb6  1  0.587698  0.693267  0.355060  1
  Cl  Cl7  1  0.565977  0.165204  0.444875  1
  Cl  Cl8  1  0.227374  0.372274  0.902106  1
  Cl  Cl9  1  0.903720  0.226052  0.374521  1
  Cl  Cl10  1  0.369188  0.902957  0.227206  1
  Cl  Cl11  1  0.773960  0.628859  0.095056  1
  Cl  Cl12  1  0.097925  0.772547  0.627520  1
  Cl  Cl13  1  0.703625  0.959938  0.159204  1
  Cl  Cl14  1  0.955496  0.160230  0.703744  1
  Cl  Cl15  1  0.161230  0.701954  0.955797  1
  Cl  Cl16  1  0.296819  0.045120  0.839188  1
  Cl  Cl17  1  0.043113  0.838464  0.298392  1
  Cl  Cl18  1  0.841691  0.295626  0.040413  1
  Cl  Cl19  1  0.558012  0.432020  0.833005  1
  Cl  Cl20  1  0.167064  0.442428  0.567557  1
  Cl  Cl21  1  0.438972  0.569992  0.166933  1
  Cl  Cl22  1  0.430103  0.832944  0.560885  1
  Cl  Cl23  1  0.834826  0.554898  0.434336  1
  Cl  Cl24  1  0.627733  0.097988  0.772929  1
