# generated using pymatgen
data_Dy4ErIn3Cl
_symmetry_space_group_name_H-M   'P 1'
_cell_length_a   9.12129100
_cell_length_b   9.12129063
_cell_length_c   6.63495800
_cell_angle_alpha   90.00000000
_cell_angle_beta   90.00000000
_cell_angle_gamma   120.00000499
_symmetry_Int_Tables_number   1
_chemical_formula_structural   Dy4ErIn3Cl
_chemical_formula_sum   'Dy8 Er2 In6 Cl2'
_cell_volume   478.05888359
_cell_formula_units_Z   2
loop_
 _symmetry_equiv_pos_site_id
 _symmetry_equiv_pos_as_xyz
  1  'x, y, z'
loop_
 _atom_site_type_symbol
 _atom_site_label
 _atom_site_symmetry_multiplicity
 _atom_site_fract_x
 _atom_site_fract_y
 _atom_site_fract_z
 _atom_site_occupancy
  Dy  Dy0  1  0.741238  0.741238  0.250844  1
  Dy  Dy1  1  0.000000  0.741238  0.749156  1
  Dy  Dy2  1  0.741238  0.000000  0.749156  1
  Dy  Dy3  1  0.258762  0.258762  0.749156  1
  Dy  Dy4  1  0.000000  0.258762  0.250844  1
  Dy  Dy5  1  0.258762  0.000000  0.250844  1
  Dy  Dy6  1  0.333333  0.666667  0.000000  1
  Dy  Dy7  1  0.666667  0.333333  0.000000  1
  Er  Er8  1  0.333333  0.666667  0.500000  1
  Er  Er9  1  0.666667  0.333333  0.500000  1
  In  In10  1  0.394290  0.000000  0.747629  1
  In  In11  1  0.000000  0.605710  0.252371  1
  In  In12  1  0.605710  0.000000  0.252371  1
  In  In13  1  0.000000  0.394290  0.747629  1
  In  In14  1  0.394290  0.394290  0.252371  1
  In  In15  1  0.605710  0.605710  0.747629  1
  Cl  Cl16  1  0.000000  0.000000  0.500000  1
  Cl  Cl17  1  0.000000  0.000000  0.000000  1
