# generated using pymatgen
data_CoTcO4F
_symmetry_space_group_name_H-M   'P 1'
_cell_length_a   5.81500304
_cell_length_b   5.83943369
_cell_length_c   7.58525808
_cell_angle_alpha   105.97480469
_cell_angle_beta   105.33388184
_cell_angle_gamma   99.87047359
_symmetry_Int_Tables_number   1
_chemical_formula_structural   CoTcO4F
_chemical_formula_sum   'Co2 Tc2 O8 F2'
_cell_volume   230.37387230
_cell_formula_units_Z   2
loop_
 _symmetry_equiv_pos_site_id
 _symmetry_equiv_pos_as_xyz
  1  'x, y, z'
loop_
 _atom_site_type_symbol
 _atom_site_label
 _atom_site_symmetry_multiplicity
 _atom_site_fract_x
 _atom_site_fract_y
 _atom_site_fract_z
 _atom_site_occupancy
  Co  Co0  1  0.000000  0.000000  0.000000  1
  Co  Co1  1  0.000000  0.000000  0.500000  1
  Tc  Tc2  1  0.352567  0.669224  0.238595  1
  Tc  Tc3  1  0.647433  0.330776  0.761405  1
  O  O4  1  0.692825  0.138151  0.898845  1
  O  O5  1  0.771444  0.638458  0.913384  1
  O  O6  1  0.794917  0.259640  0.589303  1
  O  O7  1  0.331931  0.278808  0.644060  1
  O  O8  1  0.228556  0.361542  0.086616  1
  O  O9  1  0.205083  0.740360  0.410697  1
  O  O10  1  0.668069  0.721192  0.355940  1
  O  O11  1  0.307175  0.861849  0.101155  1
  F  F12  1  0.030921  0.918308  0.738793  1
  F  F13  1  0.969079  0.081692  0.261207  1
