# generated using pymatgen
data_Tb2PaSn3Pt2Rh
_symmetry_space_group_name_H-M   'P 1'
_cell_length_a   7.47992700
_cell_length_b   7.50665148
_cell_length_c   4.07175300
_cell_angle_alpha   90.00000000
_cell_angle_beta   90.00000000
_cell_angle_gamma   119.88230672
_symmetry_Int_Tables_number   1
_chemical_formula_structural   Tb2PaSn3Pt2Rh
_chemical_formula_sum   'Tb2 Pa1 Sn3 Pt2 Rh1'
_cell_volume   198.23005544
_cell_formula_units_Z   1
loop_
 _symmetry_equiv_pos_site_id
 _symmetry_equiv_pos_as_xyz
  1  'x, y, z'
loop_
 _atom_site_type_symbol
 _atom_site_label
 _atom_site_symmetry_multiplicity
 _atom_site_fract_x
 _atom_site_fract_y
 _atom_site_fract_z
 _atom_site_occupancy
  Tb  Tb0  1  0.998061  0.405782  0.500000  1
  Tb  Tb1  1  0.592279  0.594218  0.500000  1
  Pa  Pa2  1  0.407713  0.000000  0.500000  1
  Sn  Sn3  1  0.756334  0.000000  0.000000  1
  Sn  Sn4  1  0.987889  0.735368  0.000000  1
  Sn  Sn5  1  0.252522  0.264632  0.000000  1
  Pt  Pt6  1  0.335915  0.686012  0.000000  1
  Pt  Pt7  1  0.649905  0.313988  0.000000  1
  Rh  Rh8  1  0.019379  0.000000  0.500000  1
