# generated using pymatgen
data_KSrO6
_symmetry_space_group_name_H-M   'P 1'
_cell_length_a   6.93222971
_cell_length_b   6.93222939
_cell_length_c   6.93222993
_cell_angle_alpha   105.76649773
_cell_angle_beta   105.76649909
_cell_angle_gamma   117.16566752
_symmetry_Int_Tables_number   1
_chemical_formula_structural   KSrO6
_chemical_formula_sum   'K2 Sr2 O12'
_cell_volume   252.93416793
_cell_formula_units_Z   2
loop_
 _symmetry_equiv_pos_site_id
 _symmetry_equiv_pos_as_xyz
  1  'x, y, z'
loop_
 _atom_site_type_symbol
 _atom_site_label
 _atom_site_symmetry_multiplicity
 _atom_site_fract_x
 _atom_site_fract_y
 _atom_site_fract_z
 _atom_site_occupancy
  K  K0  1  0.750000  0.250000  0.500000  1
  K  K1  1  0.250000  0.750000  0.500000  1
  Sr  Sr2  1  0.250000  0.250000  0.000000  1
  Sr  Sr3  1  0.750000  0.750000  0.000000  1
  O  O4  1  0.728974  0.573836  0.302809  1
  O  O5  1  0.426164  0.728974  0.155139  1
  O  O6  1  0.573836  0.271026  0.844861  1
  O  O7  1  0.271026  0.426164  0.697191  1
  O  O8  1  0.241171  0.258829  0.500000  1
  O  O9  1  0.258829  0.758829  0.017656  1
  O  O10  1  0.741171  0.241171  0.982344  1
  O  O11  1  0.758829  0.741171  0.500000  1
  O  O12  1  0.073836  0.228974  0.302809  1
  O  O13  1  0.228974  0.926164  0.155139  1
  O  O14  1  0.771026  0.073836  0.844861  1
  O  O15  1  0.926164  0.771026  0.697191  1
