# generated using pymatgen
data_La3FeI3
_symmetry_space_group_name_H-M   'P 1'
_cell_length_a   4.32291200
_cell_length_b   9.63120995
_cell_length_c   12.31748073
_cell_angle_alpha   87.28182571
_cell_angle_beta   90.00000000
_cell_angle_gamma   90.00000000
_symmetry_Int_Tables_number   1
_chemical_formula_structural   La3FeI3
_chemical_formula_sum   'La6 Fe2 I6'
_cell_volume   512.25974545
_cell_formula_units_Z   2
loop_
 _symmetry_equiv_pos_site_id
 _symmetry_equiv_pos_as_xyz
  1  'x, y, z'
loop_
 _atom_site_type_symbol
 _atom_site_label
 _atom_site_symmetry_multiplicity
 _atom_site_fract_x
 _atom_site_fract_y
 _atom_site_fract_z
 _atom_site_occupancy
  La  La0  1  0.250000  0.316796  0.877450  1
  La  La1  1  0.750000  0.683204  0.122550  1
  La  La2  1  0.750000  0.117214  0.678166  1
  La  La3  1  0.250000  0.882786  0.321834  1
  La  La4  1  0.750000  0.095406  0.102887  1
  La  La5  1  0.250000  0.904594  0.897113  1
  Fe  Fe6  1  0.750000  0.115063  0.862067  1
  Fe  Fe7  1  0.250000  0.884937  0.137933  1
  I  I8  1  0.750000  0.132681  0.379327  1
  I  I9  1  0.250000  0.867319  0.620673  1
  I  I10  1  0.250000  0.370290  0.618445  1
  I  I11  1  0.750000  0.629710  0.381555  1
  I  I12  1  0.750000  0.607477  0.862236  1
  I  I13  1  0.250000  0.392523  0.137764  1
