# generated using pymatgen
data_SiBiP5(Pd10Pb)2
_symmetry_space_group_name_H-M   'P 1'
_cell_length_a   8.72841554
_cell_length_b   8.71182586
_cell_length_c   8.71182716
_cell_angle_alpha   60.12601776
_cell_angle_beta   59.93699486
_cell_angle_gamma   59.93699276
_symmetry_Int_Tables_number   1
_chemical_formula_structural   SiBiP5(Pd10Pb)2
_chemical_formula_sum   'Si1 Bi1 P5 Pd20 Pb2'
_cell_volume   468.42030740
_cell_formula_units_Z   1
loop_
 _symmetry_equiv_pos_site_id
 _symmetry_equiv_pos_as_xyz
  1  'x, y, z'
loop_
 _atom_site_type_symbol
 _atom_site_label
 _atom_site_symmetry_multiplicity
 _atom_site_fract_x
 _atom_site_fract_y
 _atom_site_fract_z
 _atom_site_occupancy
  Si  Si0  1  0.731933  0.268067  0.268067  1
  Bi  Bi1  1  0.998366  0.001634  0.001634  1
  P  P2  1  0.266558  0.733442  0.733442  1
  P  P3  1  0.267218  0.732782  0.265464  1
  P  P4  1  0.734536  0.265464  0.732782  1
  P  P5  1  0.267218  0.265464  0.732782  1
  P  P6  1  0.734536  0.732782  0.265464  1
  Pd  Pd7  1  0.382417  0.384912  0.384912  1
  Pd  Pd8  1  0.615117  0.615200  0.615200  1
  Pd  Pd9  1  0.384800  0.384883  0.845514  1
  Pd  Pd10  1  0.384800  0.845514  0.384883  1
  Pd  Pd11  1  0.615088  0.617583  0.152243  1
  Pd  Pd12  1  0.615088  0.152243  0.617583  1
  Pd  Pd13  1  0.847757  0.384912  0.384912  1
  Pd  Pd14  1  0.154486  0.615200  0.615200  1
  Pd  Pd15  1  0.343217  0.001236  0.001236  1
  Pd  Pd16  1  0.654312  0.001236  0.001236  1
  Pd  Pd17  1  0.998764  0.345688  0.656783  1
  Pd  Pd18  1  0.998764  0.656783  0.345688  1
  Pd  Pd19  1  0.000612  0.345714  0.999388  1
  Pd  Pd20  1  0.654286  0.999388  0.345714  1
  Pd  Pd21  1  0.000926  0.654296  0.999074  1
  Pd  Pd22  1  0.345704  0.999074  0.654296  1
  Pd  Pd23  1  0.000612  0.999388  0.345714  1
  Pd  Pd24  1  0.000926  0.999074  0.654296  1
  Pd  Pd25  1  0.654286  0.345714  0.999388  1
  Pd  Pd26  1  0.345704  0.654296  0.999074  1
  Pb  Pb27  1  0.250985  0.249015  0.249015  1
  Pb  Pb28  1  0.750985  0.749015  0.749015  1
