# generated using pymatgen
data_LaDy7(AlRu)8
_symmetry_space_group_name_H-M   'P 1'
_cell_length_a   4.08725600
_cell_length_b   7.02675961
_cell_length_c   16.00377289
_cell_angle_alpha   90.14302794
_cell_angle_beta   90.00000000
_cell_angle_gamma   90.00000000
_symmetry_Int_Tables_number   1
_chemical_formula_structural   LaDy7(AlRu)8
_chemical_formula_sum   'La1 Dy7 Al8 Ru8'
_cell_volume   459.62957182
_cell_formula_units_Z   1
loop_
 _symmetry_equiv_pos_site_id
 _symmetry_equiv_pos_as_xyz
  1  'x, y, z'
loop_
 _atom_site_type_symbol
 _atom_site_label
 _atom_site_symmetry_multiplicity
 _atom_site_fract_x
 _atom_site_fract_y
 _atom_site_fract_z
 _atom_site_occupancy
  La  La0  1  0.250000  0.533556  0.721380  1
  Dy  Dy1  1  0.750000  0.963871  0.219631  1
  Dy  Dy2  1  0.250000  0.160036  0.561056  1
  Dy  Dy3  1  0.750000  0.842314  0.436444  1
  Dy  Dy4  1  0.750000  0.463209  0.281305  1
  Dy  Dy5  1  0.750000  0.339087  0.063817  1
  Dy  Dy6  1  0.250000  0.658479  0.938892  1
  Dy  Dy7  1  0.250000  0.036129  0.781925  1
  Al  Al8  1  0.750000  0.504238  0.561214  1
  Al  Al9  1  0.750000  0.358142  0.853881  1
  Al  Al10  1  0.750000  0.996843  0.935649  1
  Al  Al11  1  0.750000  0.873998  0.648801  1
  Al  Al12  1  0.250000  0.500914  0.433879  1
  Al  Al13  1  0.250000  0.996912  0.066301  1
  Al  Al14  1  0.250000  0.633218  0.151489  1
  Al  Al15  1  0.250000  0.135063  0.348646  1
  Ru  Ru16  1  0.750000  0.750446  0.812612  1
  Ru  Ru17  1  0.250000  0.231597  0.938159  1
  Ru  Ru18  1  0.750000  0.264969  0.435533  1
  Ru  Ru19  1  0.250000  0.752589  0.311062  1
  Ru  Ru20  1  0.750000  0.763156  0.064561  1
  Ru  Ru21  1  0.750000  0.247538  0.685335  1
  Ru  Ru22  1  0.250000  0.252792  0.187137  1
  Ru  Ru23  1  0.250000  0.740904  0.561293  1
