# generated using pymatgen
data_TmLu3Th6(Bi3C)2
_symmetry_space_group_name_H-M   'P 1'
_cell_length_a   9.31131100
_cell_length_b   9.31131223
_cell_length_c   6.44252000
_cell_angle_alpha   90.00000000
_cell_angle_beta   90.00000000
_cell_angle_gamma   119.99999918
_symmetry_Int_Tables_number   1
_chemical_formula_structural   TmLu3Th6(Bi3C)2
_chemical_formula_sum   'Tm1 Lu3 Th6 Bi6 C2'
_cell_volume   483.73569237
_cell_formula_units_Z   1
loop_
 _symmetry_equiv_pos_site_id
 _symmetry_equiv_pos_as_xyz
  1  'x, y, z'
loop_
 _atom_site_type_symbol
 _atom_site_label
 _atom_site_symmetry_multiplicity
 _atom_site_fract_x
 _atom_site_fract_y
 _atom_site_fract_z
 _atom_site_occupancy
  Tm  Tm0  1  0.666667  0.333333  0.500000  1
  Lu  Lu1  1  0.666667  0.333333  0.000000  1
  Lu  Lu2  1  0.333333  0.666667  0.000000  1
  Lu  Lu3  1  0.333333  0.666667  0.500000  1
  Th  Th4  1  0.780000  0.780023  0.749998  1
  Th  Th5  1  0.219977  0.999977  0.749998  1
  Th  Th6  1  0.000023  0.220000  0.749998  1
  Th  Th7  1  0.219977  0.220000  0.250002  1
  Th  Th8  1  0.780000  0.999977  0.250002  1
  Th  Th9  1  0.000023  0.780023  0.250002  1
  Bi  Bi10  1  0.406564  0.406686  0.750121  1
  Bi  Bi11  1  0.593314  0.999878  0.750121  1
  Bi  Bi12  1  0.000122  0.593436  0.750121  1
  Bi  Bi13  1  0.593314  0.593436  0.249879  1
  Bi  Bi14  1  0.406564  0.999878  0.249879  1
  Bi  Bi15  1  0.000122  0.406686  0.249879  1
  C  C16  1  0.000000  0.000000  0.000000  1
  C  C17  1  0.000000  0.000000  0.500000  1
