# generated using pymatgen
data_Nd2TcC2
_symmetry_space_group_name_H-M   'P 1'
_cell_length_a   5.34143100
_cell_length_b   6.71543300
_cell_length_c   10.22261800
_cell_angle_alpha   90.00000000
_cell_angle_beta   90.00000000
_cell_angle_gamma   90.00000000
_symmetry_Int_Tables_number   1
_chemical_formula_structural   Nd2TcC2
_chemical_formula_sum   'Nd8 Tc4 C8'
_cell_volume   366.68553260
_cell_formula_units_Z   4
loop_
 _symmetry_equiv_pos_site_id
 _symmetry_equiv_pos_as_xyz
  1  'x, y, z'
loop_
 _atom_site_type_symbol
 _atom_site_label
 _atom_site_symmetry_multiplicity
 _atom_site_fract_x
 _atom_site_fract_y
 _atom_site_fract_z
 _atom_site_occupancy
  Nd  Nd0  1  0.250000  0.473924  0.786224  1
  Nd  Nd1  1  0.750000  0.026076  0.286224  1
  Nd  Nd2  1  0.250000  0.973924  0.713776  1
  Nd  Nd3  1  0.750000  0.526076  0.213776  1
  Nd  Nd4  1  0.250000  0.813290  0.052185  1
  Nd  Nd5  1  0.750000  0.686710  0.552185  1
  Nd  Nd6  1  0.250000  0.313290  0.447815  1
  Nd  Nd7  1  0.750000  0.186710  0.947815  1
  Tc  Tc8  1  0.250000  0.271072  0.142001  1
  Tc  Tc9  1  0.750000  0.228928  0.642001  1
  Tc  Tc10  1  0.250000  0.771072  0.357999  1
  Tc  Tc11  1  0.750000  0.728928  0.857999  1
  C  C12  1  0.250000  0.687179  0.536725  1
  C  C13  1  0.750000  0.812821  0.036725  1
  C  C14  1  0.250000  0.187179  0.963275  1
  C  C15  1  0.750000  0.312821  0.463275  1
  C  C16  1  0.250000  0.035036  0.257338  1
  C  C17  1  0.750000  0.464964  0.757338  1
  C  C18  1  0.250000  0.535036  0.242662  1
  C  C19  1  0.750000  0.964964  0.742662  1
