# generated using pymatgen
data_Sc11IrRu2Pt
_symmetry_space_group_name_H-M   'P 1'
_cell_length_a   9.50230255
_cell_length_b   9.53277938
_cell_length_c   9.47280349
_cell_angle_alpha   59.99560067
_cell_angle_beta   60.31538620
_cell_angle_gamma   59.68900344
_symmetry_Int_Tables_number   1
_chemical_formula_structural   Sc11IrRu2Pt
_chemical_formula_sum   'Sc22 Ir2 Ru4 Pt2'
_cell_volume   606.71667815
_cell_formula_units_Z   2
loop_
 _symmetry_equiv_pos_site_id
 _symmetry_equiv_pos_as_xyz
  1  'x, y, z'
loop_
 _atom_site_type_symbol
 _atom_site_label
 _atom_site_symmetry_multiplicity
 _atom_site_fract_x
 _atom_site_fract_y
 _atom_site_fract_z
 _atom_site_occupancy
  Sc  Sc0  1  0.803554  0.803554  0.196446  1
  Sc  Sc1  1  0.197023  0.802977  0.197023  1
  Sc  Sc2  1  0.803618  0.196382  0.196382  1
  Sc  Sc3  1  0.196446  0.196446  0.803554  1
  Sc  Sc4  1  0.802977  0.197023  0.802977  1
  Sc  Sc5  1  0.196382  0.803618  0.803618  1
  Sc  Sc6  1  0.617587  0.617394  0.150722  1
  Sc  Sc7  1  0.614299  0.150722  0.617394  1
  Sc  Sc8  1  0.150722  0.614299  0.617587  1
  Sc  Sc9  1  0.617394  0.617587  0.614299  1
  Sc  Sc10  1  0.382413  0.382606  0.849278  1
  Sc  Sc11  1  0.385701  0.849278  0.382606  1
  Sc  Sc12  1  0.849278  0.385701  0.382413  1
  Sc  Sc13  1  0.382606  0.382413  0.385701  1
  Sc  Sc14  1  0.840152  0.841521  0.471032  1
  Sc  Sc15  1  0.847293  0.471032  0.841521  1
  Sc  Sc16  1  0.471032  0.847293  0.840152  1
  Sc  Sc17  1  0.841521  0.840152  0.847293  1
  Sc  Sc18  1  0.159848  0.158479  0.528968  1
  Sc  Sc19  1  0.152707  0.528968  0.158479  1
  Sc  Sc20  1  0.528968  0.152707  0.159848  1
  Sc  Sc21  1  0.158479  0.159848  0.152707  1
  Ir  Ir22  1  0.000000  0.500000  0.500000  1
  Ir  Ir23  1  0.500000  0.000000  0.000000  1
  Ru  Ru24  1  0.000000  0.000000  0.000000  1
  Ru  Ru25  1  0.500000  0.500000  0.500000  1
  Ru  Ru26  1  0.500000  0.000000  0.500000  1
  Ru  Ru27  1  0.000000  0.500000  0.000000  1
  Pt  Pt28  1  0.000000  0.000000  0.500000  1
  Pt  Pt29  1  0.500000  0.500000  0.000000  1
