# generated using pymatgen
data_BeCr2Si5Mo8
_symmetry_space_group_name_H-M   'P 1'
_cell_length_a   7.18722218
_cell_length_b   7.18719978
_cell_length_c   7.18722180
_cell_angle_alpha   96.27185156
_cell_angle_beta   96.27902511
_cell_angle_gamma   141.38769734
_symmetry_Int_Tables_number   1
_chemical_formula_structural   BeCr2Si5Mo8
_chemical_formula_sum   'Be1 Cr2 Si5 Mo8'
_cell_volume   218.65669365
_cell_formula_units_Z   1
loop_
 _symmetry_equiv_pos_site_id
 _symmetry_equiv_pos_as_xyz
  1  'x, y, z'
loop_
 _atom_site_type_symbol
 _atom_site_label
 _atom_site_symmetry_multiplicity
 _atom_site_fract_x
 _atom_site_fract_y
 _atom_site_fract_z
 _atom_site_occupancy
  Be  Be0  1  0.250062  0.250000  0.000062  1
  Cr  Cr1  1  0.249931  0.750000  0.499931  1
  Cr  Cr2  1  0.749935  0.250000  0.499935  1
  Si  Si3  1  0.750152  0.750000  0.000152  1
  Si  Si4  1  0.160184  0.660305  0.820837  1
  Si  Si5  1  0.839444  0.339524  0.179225  1
  Si  Si6  1  0.339700  0.160476  0.499919  1
  Si  Si7  1  0.660533  0.839695  0.499880  1
  Mo  Mo8  1  0.081208  0.225956  0.302558  1
  Mo  Mo9  1  0.923411  0.778560  0.697396  1
  Mo  Mo10  1  0.778539  0.081176  0.855180  1
  Mo  Mo11  1  0.418835  0.721440  0.144850  1
  Mo  Mo12  1  0.225944  0.923362  0.144879  1
  Mo  Mo13  1  0.576602  0.274044  0.855251  1
  Mo  Mo14  1  0.721516  0.576638  0.302581  1
  Mo  Mo15  1  0.274004  0.418824  0.697364  1
