# generated using pymatgen
data_Yb5(InAu5)2
_symmetry_space_group_name_H-M   'P 1'
_cell_length_a   8.60940700
_cell_length_b   8.60940751
_cell_length_c   10.28632100
_cell_angle_alpha   90.00000000
_cell_angle_beta   90.00000000
_cell_angle_gamma   72.39089272
_symmetry_Int_Tables_number   1
_chemical_formula_structural   Yb5(InAu5)2
_chemical_formula_sum   'Yb10 In4 Au20'
_cell_volume   726.71555181
_cell_formula_units_Z   2
loop_
 _symmetry_equiv_pos_site_id
 _symmetry_equiv_pos_as_xyz
  1  'x, y, z'
loop_
 _atom_site_type_symbol
 _atom_site_label
 _atom_site_symmetry_multiplicity
 _atom_site_fract_x
 _atom_site_fract_y
 _atom_site_fract_z
 _atom_site_occupancy
  Yb  Yb0  1  0.000000  0.000000  0.000000  1
  Yb  Yb1  1  0.302484  0.302484  0.000000  1
  Yb  Yb2  1  0.697517  0.697517  0.000000  1
  Yb  Yb3  1  0.693648  0.306351  0.200452  1
  Yb  Yb4  1  0.193648  0.806351  0.299548  1
  Yb  Yb5  1  0.197516  0.197516  0.500000  1
  Yb  Yb6  1  0.500000  0.500000  0.500000  1
  Yb  Yb7  1  0.802484  0.802484  0.500000  1
  Yb  Yb8  1  0.806351  0.193648  0.700452  1
  Yb  Yb9  1  0.306351  0.693648  0.799548  1
  In  In10  1  0.471235  0.028765  0.250000  1
  In  In11  1  0.971235  0.528765  0.250000  1
  In  In12  1  0.028765  0.471235  0.750000  1
  In  In13  1  0.528765  0.971235  0.750000  1
  Au  Au14  1  0.067195  0.645177  0.011087  1
  Au  Au15  1  0.354823  0.932805  0.011087  1
  Au  Au16  1  0.398822  0.601178  0.095380  1
  Au  Au17  1  0.114013  0.169874  0.210454  1
  Au  Au18  1  0.830127  0.885988  0.210454  1
  Au  Au19  1  0.330126  0.385987  0.289547  1
  Au  Au20  1  0.614012  0.669874  0.289547  1
  Au  Au21  1  0.898822  0.101178  0.404621  1
  Au  Au22  1  0.567195  0.145177  0.488913  1
  Au  Au23  1  0.854823  0.432805  0.488913  1
  Au  Au24  1  0.145177  0.567195  0.511086  1
  Au  Au25  1  0.432805  0.854823  0.511086  1
  Au  Au26  1  0.101178  0.898822  0.595380  1
  Au  Au27  1  0.385987  0.330126  0.710453  1
  Au  Au28  1  0.669874  0.614012  0.710453  1
  Au  Au29  1  0.169874  0.114013  0.789547  1
  Au  Au30  1  0.885988  0.830127  0.789547  1
  Au  Au31  1  0.601178  0.398822  0.904621  1
  Au  Au32  1  0.645177  0.067195  0.988913  1
  Au  Au33  1  0.932805  0.354823  0.988913  1
