# generated using pymatgen
data_Sn(SeF6)2
_symmetry_space_group_name_H-M   'P 1'
_cell_length_a   6.38182500
_cell_length_b   8.02114800
_cell_length_c   10.11743100
_cell_angle_alpha   90.00000000
_cell_angle_beta   90.00000000
_cell_angle_gamma   90.00000000
_symmetry_Int_Tables_number   1
_chemical_formula_structural   Sn(SeF6)2
_chemical_formula_sum   'Sn2 Se4 F24'
_cell_volume   517.90686990
_cell_formula_units_Z   2
loop_
 _symmetry_equiv_pos_site_id
 _symmetry_equiv_pos_as_xyz
  1  'x, y, z'
loop_
 _atom_site_type_symbol
 _atom_site_label
 _atom_site_symmetry_multiplicity
 _atom_site_fract_x
 _atom_site_fract_y
 _atom_site_fract_z
 _atom_site_occupancy
  Sn  Sn0  1  0.000000  0.500000  0.000000  1
  Sn  Sn1  1  0.500000  0.000000  0.500000  1
  Se  Se2  1  0.500000  0.582660  0.238792  1
  Se  Se3  1  0.500000  0.417340  0.761208  1
  Se  Se4  1  0.000000  0.082660  0.261208  1
  Se  Se5  1  0.000000  0.917340  0.738792  1
  F  F6  1  0.224344  0.368724  0.906699  1
  F  F7  1  0.224344  0.631276  0.093301  1
  F  F8  1  0.275656  0.868724  0.593301  1
  F  F9  1  0.275656  0.131276  0.406699  1
  F  F10  1  0.775656  0.631276  0.093301  1
  F  F11  1  0.775656  0.368724  0.906699  1
  F  F12  1  0.803693  0.970526  0.850234  1
  F  F13  1  0.803693  0.029474  0.149766  1
  F  F14  1  0.696307  0.470526  0.649766  1
  F  F15  1  0.696307  0.529474  0.350234  1
  F  F16  1  0.196307  0.029474  0.149766  1
  F  F17  1  0.196307  0.970526  0.850234  1
  F  F18  1  0.303693  0.529474  0.350234  1
  F  F19  1  0.303693  0.470526  0.649766  1
  F  F20  1  0.000000  0.663517  0.849402  1
  F  F21  1  0.000000  0.336483  0.150598  1
  F  F22  1  0.500000  0.163517  0.650598  1
  F  F23  1  0.500000  0.836483  0.349402  1
  F  F24  1  0.500000  0.616844  0.830076  1
  F  F25  1  0.500000  0.383156  0.169924  1
  F  F26  1  0.000000  0.116844  0.669924  1
  F  F27  1  0.000000  0.883156  0.330076  1
  F  F28  1  0.724344  0.868724  0.593301  1
  F  F29  1  0.724344  0.131276  0.406699  1
