# generated using pymatgen
data_OsBr11
_symmetry_space_group_name_H-M   'P 1'
_cell_length_a   7.70515903
_cell_length_b   8.03900297
_cell_length_c   8.47115893
_cell_angle_alpha   90.83893603
_cell_angle_beta   91.11066549
_cell_angle_gamma   113.98032655
_symmetry_Int_Tables_number   1
_chemical_formula_structural   OsBr11
_chemical_formula_sum   'Os1 Br11'
_cell_volume   479.19198721
_cell_formula_units_Z   1
loop_
 _symmetry_equiv_pos_site_id
 _symmetry_equiv_pos_as_xyz
  1  'x, y, z'
loop_
 _atom_site_type_symbol
 _atom_site_label
 _atom_site_symmetry_multiplicity
 _atom_site_fract_x
 _atom_site_fract_y
 _atom_site_fract_z
 _atom_site_occupancy
  Os  Os0  1  0.000000  0.500000  0.500000  1
  Br  Br1  1  0.000000  0.000000  0.000000  1
  Br  Br2  1  0.664972  0.763861  0.051248  1
  Br  Br3  1  0.535920  0.219131  0.182662  1
  Br  Br4  1  0.098417  0.555290  0.225080  1
  Br  Br5  1  0.738521  0.192442  0.421488  1
  Br  Br6  1  0.783172  0.651276  0.457344  1
  Br  Br7  1  0.216828  0.348724  0.542657  1
  Br  Br8  1  0.261479  0.807558  0.578512  1
  Br  Br9  1  0.901584  0.444710  0.774920  1
  Br  Br10  1  0.464079  0.780869  0.817338  1
  Br  Br11  1  0.335029  0.236139  0.948753  1
