# generated using pymatgen
data_Hf2Mn7Rh9
_symmetry_space_group_name_H-M   'P 1'
_cell_length_a   7.60330401
_cell_length_b   7.60296522
_cell_length_c   5.39220101
_cell_angle_alpha   90.00777293
_cell_angle_beta   89.99805048
_cell_angle_gamma   119.99746817
_symmetry_Int_Tables_number   1
_chemical_formula_structural   Hf2Mn7Rh9
_chemical_formula_sum   'Hf2 Mn7 Rh9'
_cell_volume   269.95609651
_cell_formula_units_Z   1
loop_
 _symmetry_equiv_pos_site_id
 _symmetry_equiv_pos_as_xyz
  1  'x, y, z'
loop_
 _atom_site_type_symbol
 _atom_site_label
 _atom_site_symmetry_multiplicity
 _atom_site_fract_x
 _atom_site_fract_y
 _atom_site_fract_z
 _atom_site_occupancy
  Hf  Hf0  1  0.000029  0.333611  0.892067  1
  Hf  Hf1  1  0.666375  0.666390  0.892069  1
  Mn  Mn2  1  0.664829  0.999979  0.230369  1
  Mn  Mn3  1  0.332980  0.330830  0.230394  1
  Mn  Mn4  1  0.002168  0.669194  0.230400  1
  Mn  Mn5  1  0.002106  0.000003  0.553314  1
  Mn  Mn6  1  0.664446  0.331107  0.554131  1
  Mn  Mn7  1  0.333369  0.668885  0.554142  1
  Mn  Mn8  1  0.333666  0.000000  0.892014  1
  Rh  Rh9  1  0.003356  0.999977  0.061634  1
  Rh  Rh10  1  0.663236  0.329849  0.062585  1
  Rh  Rh11  1  0.333364  0.670169  0.062570  1
  Rh  Rh12  1  0.333593  0.000001  0.392021  1
  Rh  Rh13  1  0.999976  0.333568  0.392047  1
  Rh  Rh14  1  0.666440  0.666439  0.392047  1
  Rh  Rh15  1  0.663517  0.000017  0.722008  1
  Rh  Rh16  1  0.333115  0.329634  0.722027  1
  Rh  Rh17  1  0.003438  0.670347  0.722016  1
