# generated using pymatgen
data_CeDyPt2Pb
_symmetry_space_group_name_H-M   'P 1'
_cell_length_a   7.93980000
_cell_length_b   7.93980000
_cell_length_c   7.33355500
_cell_angle_alpha   90.00000000
_cell_angle_beta   90.00000000
_cell_angle_gamma   90.00000000
_symmetry_Int_Tables_number   1
_chemical_formula_structural   CeDyPt2Pb
_chemical_formula_sum   'Ce4 Dy4 Pt8 Pb4'
_cell_volume   462.31041692
_cell_formula_units_Z   4
loop_
 _symmetry_equiv_pos_site_id
 _symmetry_equiv_pos_as_xyz
  1  'x, y, z'
loop_
 _atom_site_type_symbol
 _atom_site_label
 _atom_site_symmetry_multiplicity
 _atom_site_fract_x
 _atom_site_fract_y
 _atom_site_fract_z
 _atom_site_occupancy
  Ce  Ce0  1  0.676592  0.676592  0.000000  1
  Ce  Ce1  1  0.823408  0.176592  0.500000  1
  Ce  Ce2  1  0.323408  0.323408  0.000000  1
  Ce  Ce3  1  0.176592  0.823408  0.500000  1
  Dy  Dy4  1  0.338416  0.338416  0.500000  1
  Dy  Dy5  1  0.661584  0.661584  0.500000  1
  Dy  Dy6  1  0.838416  0.161584  0.000000  1
  Dy  Dy7  1  0.161584  0.838416  0.000000  1
  Pt  Pt8  1  0.871491  0.871491  0.736212  1
  Pt  Pt9  1  0.128509  0.128509  0.736212  1
  Pt  Pt10  1  0.628509  0.371491  0.763788  1
  Pt  Pt11  1  0.628509  0.371491  0.236212  1
  Pt  Pt12  1  0.371491  0.628509  0.236212  1
  Pt  Pt13  1  0.128509  0.128509  0.263788  1
  Pt  Pt14  1  0.871491  0.871491  0.263788  1
  Pt  Pt15  1  0.371491  0.628509  0.763788  1
  Pb  Pb16  1  0.500000  0.000000  0.750000  1
  Pb  Pb17  1  0.500000  0.000000  0.250000  1
  Pb  Pb18  1  0.000000  0.500000  0.750000  1
  Pb  Pb19  1  0.000000  0.500000  0.250000  1
