# generated using pymatgen
data_Ba4SmWO8
_symmetry_space_group_name_H-M   'P 1'
_cell_length_a   7.44446290
_cell_length_b   7.44446186
_cell_length_c   6.14206900
_cell_angle_alpha   90.00000000
_cell_angle_beta   90.00000000
_cell_angle_gamma   131.41453511
_symmetry_Int_Tables_number   1
_chemical_formula_structural   Ba4SmWO8
_chemical_formula_sum   'Ba4 Sm1 W1 O8'
_cell_volume   255.27588360
_cell_formula_units_Z   1
loop_
 _symmetry_equiv_pos_site_id
 _symmetry_equiv_pos_as_xyz
  1  'x, y, z'
loop_
 _atom_site_type_symbol
 _atom_site_label
 _atom_site_symmetry_multiplicity
 _atom_site_fract_x
 _atom_site_fract_y
 _atom_site_fract_z
 _atom_site_occupancy
  Ba  Ba0  1  0.356042  0.643958  0.000000  1
  Ba  Ba1  1  0.855355  0.144645  0.500000  1
  Ba  Ba2  1  0.144645  0.855355  0.500000  1
  Ba  Ba3  1  0.643958  0.356042  0.000000  1
  Sm  Sm4  1  0.000000  0.000000  0.000000  1
  W  W5  1  0.500000  0.500000  0.500000  1
  O  O6  1  0.261041  0.261041  0.730801  1
  O  O7  1  0.738959  0.738959  0.269199  1
  O  O8  1  0.738959  0.738959  0.730801  1
  O  O9  1  0.261041  0.261041  0.269199  1
  O  O10  1  0.170319  0.829681  0.000000  1
  O  O11  1  0.647203  0.352797  0.500000  1
  O  O12  1  0.352797  0.647203  0.500000  1
  O  O13  1  0.829681  0.170319  0.000000  1
