# generated using pymatgen
data_KPdF4
_symmetry_space_group_name_H-M   'P 1'
_cell_length_a   6.45928954
_cell_length_b   6.45928973
_cell_length_c   8.03942900
_cell_angle_alpha   90.00000000
_cell_angle_beta   90.00000000
_cell_angle_gamma   142.31418257
_symmetry_Int_Tables_number   1
_chemical_formula_structural   KPdF4
_chemical_formula_sum   'K2 Pd2 F8'
_cell_volume   205.05542322
_cell_formula_units_Z   2
loop_
 _symmetry_equiv_pos_site_id
 _symmetry_equiv_pos_as_xyz
  1  'x, y, z'
loop_
 _atom_site_type_symbol
 _atom_site_label
 _atom_site_symmetry_multiplicity
 _atom_site_fract_x
 _atom_site_fract_y
 _atom_site_fract_z
 _atom_site_occupancy
  K  K0  1  0.275379  0.724621  0.750000  1
  K  K1  1  0.724621  0.275379  0.250000  1
  Pd  Pd2  1  0.000000  0.000000  0.000000  1
  Pd  Pd3  1  0.000000  0.000000  0.500000  1
  F  F4  1  0.842541  0.157459  0.552805  1
  F  F5  1  0.157459  0.842541  0.447194  1
  F  F6  1  0.157459  0.842541  0.052805  1
  F  F7  1  0.842541  0.157459  0.947195  1
  F  F8  1  0.500000  0.500000  0.000000  1
  F  F9  1  0.500000  0.500000  0.500000  1
  F  F10  1  0.044804  0.955196  0.750000  1
  F  F11  1  0.955196  0.044804  0.250000  1
