# generated using pymatgen
data_SmErBi2O7
_symmetry_space_group_name_H-M   'P 1'
_cell_length_a   6.63513526
_cell_length_b   6.72418034
_cell_length_c   7.80158332
_cell_angle_alpha   106.66470782
_cell_angle_beta   89.56514744
_cell_angle_gamma   98.52900751
_symmetry_Int_Tables_number   1
_chemical_formula_structural   SmErBi2O7
_chemical_formula_sum   'Sm2 Er2 Bi4 O14'
_cell_volume   329.54282057
_cell_formula_units_Z   2
loop_
 _symmetry_equiv_pos_site_id
 _symmetry_equiv_pos_as_xyz
  1  'x, y, z'
loop_
 _atom_site_type_symbol
 _atom_site_label
 _atom_site_symmetry_multiplicity
 _atom_site_fract_x
 _atom_site_fract_y
 _atom_site_fract_z
 _atom_site_occupancy
  Sm  Sm0  1  0.261774  0.539597  0.885672  1
  Sm  Sm1  1  0.738226  0.460403  0.114328  1
  Er  Er2  1  0.460914  0.005476  0.252127  1
  Er  Er3  1  0.539086  0.994524  0.747873  1
  Bi  Bi4  1  0.000000  0.000000  0.500000  1
  Bi  Bi5  1  0.000000  0.000000  0.000000  1
  Bi  Bi6  1  0.725693  0.462340  0.613237  1
  Bi  Bi7  1  0.274307  0.537660  0.386763  1
  O  O8  1  0.447168  0.657083  0.169898  1
  O  O9  1  0.552832  0.342917  0.830102  1
  O  O10  1  0.304042  0.929433  0.948619  1
  O  O11  1  0.695958  0.070567  0.051381  1
  O  O12  1  0.302245  0.923193  0.513769  1
  O  O13  1  0.697755  0.076807  0.486231  1
  O  O14  1  0.539338  0.355987  0.343474  1
  O  O15  1  0.460662  0.644013  0.656526  1
  O  O16  1  0.932369  0.671571  0.960451  1
  O  O17  1  0.067631  0.328429  0.039549  1
  O  O18  1  0.087964  0.325186  0.626112  1
  O  O19  1  0.912036  0.674814  0.373888  1
  O  O20  1  0.872802  0.925746  0.732134  1
  O  O21  1  0.127198  0.074254  0.267866  1
