# generated using pymatgen
data_Hf13Zr3(NbSi4)4
_symmetry_space_group_name_H-M   'P 1'
_cell_length_a   7.02057031
_cell_length_b   7.01990100
_cell_length_c   12.83416455
_cell_angle_alpha   90.00154379
_cell_angle_beta   89.96643563
_cell_angle_gamma   90.00372188
_symmetry_Int_Tables_number   1
_chemical_formula_structural   Hf13Zr3(NbSi4)4
_chemical_formula_sum   'Hf13 Zr3 Nb4 Si16'
_cell_volume   632.51511495
_cell_formula_units_Z   1
loop_
 _symmetry_equiv_pos_site_id
 _symmetry_equiv_pos_as_xyz
  1  'x, y, z'
loop_
 _atom_site_type_symbol
 _atom_site_label
 _atom_site_symmetry_multiplicity
 _atom_site_fract_x
 _atom_site_fract_y
 _atom_site_fract_z
 _atom_site_occupancy
  Hf  Hf0  1  0.346125  0.998131  0.781629  1
  Hf  Hf1  1  0.847030  0.502168  0.968145  1
  Hf  Hf2  1  0.153263  0.498184  0.468300  1
  Hf  Hf3  1  0.002282  0.653416  0.718372  1
  Hf  Hf4  1  0.998194  0.346727  0.218209  1
  Hf  Hf5  1  0.496553  0.354760  0.125815  1
  Hf  Hf6  1  0.503080  0.645513  0.626398  1
  Hf  Hf7  1  0.855204  0.003481  0.875952  1
  Hf  Hf8  1  0.145285  0.996342  0.376113  1
  Hf  Hf9  1  0.645528  0.503342  0.373813  1
  Hf  Hf10  1  0.354515  0.496965  0.873609  1
  Hf  Hf11  1  0.003496  0.854445  0.123590  1
  Hf  Hf12  1  0.996621  0.145159  0.624049  1
  Zr  Zr13  1  0.497075  0.153411  0.531859  1
  Zr  Zr14  1  0.502525  0.846225  0.031352  1
  Zr  Zr15  1  0.653859  0.002525  0.281625  1
  Nb  Nb16  1  0.675520  0.325118  0.750231  1
  Nb  Nb17  1  0.324026  0.674396  0.250141  1
  Nb  Nb18  1  0.825532  0.824107  0.500357  1
  Nb  Nb19  1  0.174853  0.175631  0.999753  1
  Si  Si20  1  0.797724  0.147518  0.072112  1
  Si  Si21  1  0.202547  0.852694  0.572413  1
  Si  Si22  1  0.647140  0.702817  0.822245  1
  Si  Si23  1  0.352492  0.297757  0.322158  1
  Si  Si24  1  0.855068  0.204337  0.427906  1
  Si  Si25  1  0.145910  0.796448  0.927253  1
  Si  Si26  1  0.704417  0.644912  0.177780  1
  Si  Si27  1  0.296035  0.354032  0.678112  1
  Si  Si28  1  0.548114  0.198765  0.934962  1
  Si  Si29  1  0.450965  0.800446  0.435604  1
  Si  Si30  1  0.698361  0.951305  0.685895  1
  Si  Si31  1  0.300367  0.049096  0.185563  1
  Si  Si32  1  0.802737  0.452741  0.564791  1
  Si  Si33  1  0.197284  0.547376  0.064619  1
  Si  Si34  1  0.952482  0.697241  0.314637  1
  Si  Si35  1  0.047793  0.302466  0.814638  1
