# generated using pymatgen
data_TbEu3(AuO3)4
_symmetry_space_group_name_H-M   'P 1'
_cell_length_a   3.92368895
_cell_length_b   5.65121600
_cell_length_c   12.98700500
_cell_angle_alpha   90.00000000
_cell_angle_beta   90.16334410
_cell_angle_gamma   90.00000000
_symmetry_Int_Tables_number   1
_chemical_formula_structural   TbEu3(AuO3)4
_chemical_formula_sum   'Tb1 Eu3 Au4 O12'
_cell_volume   287.96766233
_cell_formula_units_Z   1
loop_
 _symmetry_equiv_pos_site_id
 _symmetry_equiv_pos_as_xyz
  1  'x, y, z'
loop_
 _atom_site_type_symbol
 _atom_site_label
 _atom_site_symmetry_multiplicity
 _atom_site_fract_x
 _atom_site_fract_y
 _atom_site_fract_z
 _atom_site_occupancy
  Tb  Tb0  1  0.738005  0.750000  0.577746  1
  Eu  Eu1  1  0.259654  0.750000  0.080635  1
  Eu  Eu2  1  0.258896  0.250000  0.422342  1
  Eu  Eu3  1  0.740558  0.250000  0.917814  1
  Au  Au4  1  0.065073  0.750000  0.828723  1
  Au  Au5  1  0.066549  0.250000  0.668399  1
  Au  Au6  1  0.934613  0.250000  0.169897  1
  Au  Au7  1  0.934533  0.750000  0.331738  1
  O  O8  1  0.191355  0.500007  0.251116  1
  O  O9  1  0.807222  0.995936  0.745999  1
  O  O10  1  0.807222  0.504064  0.745999  1
  O  O11  1  0.191355  0.999993  0.251116  1
  O  O12  1  0.748281  0.499698  0.075816  1
  O  O13  1  0.745371  0.504946  0.427607  1
  O  O14  1  0.251931  0.999905  0.923047  1
  O  O15  1  0.256901  0.994401  0.577767  1
  O  O16  1  0.745371  0.995054  0.427607  1
  O  O17  1  0.748281  0.000302  0.075816  1
  O  O18  1  0.256901  0.505599  0.577767  1
  O  O19  1  0.251931  0.500095  0.923047  1
