# generated using pymatgen
data_Sc10Si5Bi
_symmetry_space_group_name_H-M   'P 1'
_cell_length_a   8.01899600
_cell_length_b   8.04315339
_cell_length_c   5.88493900
_cell_angle_alpha   90.00000000
_cell_angle_beta   90.00000000
_cell_angle_gamma   119.90067913
_symmetry_Int_Tables_number   1
_chemical_formula_structural   Sc10Si5Bi
_chemical_formula_sum   'Sc10 Si5 Bi1'
_cell_volume   329.04305418
_cell_formula_units_Z   1
loop_
 _symmetry_equiv_pos_site_id
 _symmetry_equiv_pos_as_xyz
  1  'x, y, z'
loop_
 _atom_site_type_symbol
 _atom_site_label
 _atom_site_symmetry_multiplicity
 _atom_site_fract_x
 _atom_site_fract_y
 _atom_site_fract_z
 _atom_site_occupancy
  Sc  Sc0  1  0.982792  0.744820  0.750000  1
  Sc  Sc1  1  0.999216  0.243051  0.250000  1
  Sc  Sc2  1  0.756165  0.756949  0.250000  1
  Sc  Sc3  1  0.770282  0.000000  0.750000  1
  Sc  Sc4  1  0.237972  0.255180  0.750000  1
  Sc  Sc5  1  0.237907  0.000000  0.250000  1
  Sc  Sc6  1  0.330726  0.653314  0.494242  1
  Sc  Sc7  1  0.677413  0.346686  0.005758  1
  Sc  Sc8  1  0.677413  0.346686  0.494242  1
  Sc  Sc9  1  0.330726  0.653314  0.005758  1
  Si  Si10  1  0.393898  0.390536  0.250000  1
  Si  Si11  1  0.003362  0.609464  0.250000  1
  Si  Si12  1  0.998221  0.395196  0.750000  1
  Si  Si13  1  0.603026  0.604804  0.750000  1
  Si  Si14  1  0.608384  0.000000  0.250000  1
  Bi  Bi15  1  0.392498  0.000000  0.750000  1
