# generated using pymatgen
data_ErNp3Ga12Pd
_symmetry_space_group_name_H-M   'P 1'
_cell_length_a   7.48178403
_cell_length_b   7.53437977
_cell_length_c   7.48178502
_cell_angle_alpha   109.61368672
_cell_angle_beta   109.32838410
_cell_angle_gamma   109.61368961
_symmetry_Int_Tables_number   1
_chemical_formula_structural   ErNp3Ga12Pd
_chemical_formula_sum   'Er1 Np3 Ga12 Pd1'
_cell_volume   324.09278362
_cell_formula_units_Z   1
loop_
 _symmetry_equiv_pos_site_id
 _symmetry_equiv_pos_as_xyz
  1  'x, y, z'
loop_
 _atom_site_type_symbol
 _atom_site_label
 _atom_site_symmetry_multiplicity
 _atom_site_fract_x
 _atom_site_fract_y
 _atom_site_fract_z
 _atom_site_occupancy
  Er  Er0  1  0.000000  0.500000  0.000000  1
  Np  Np1  1  0.500000  0.000000  0.000000  1
  Np  Np2  1  0.000000  0.000000  0.500000  1
  Np  Np3  1  0.500000  0.500000  0.500000  1
  Ga  Ga4  1  0.295625  0.001488  0.295625  1
  Ga  Ga5  1  0.499273  0.249636  0.749636  1
  Ga  Ga6  1  0.000000  0.705865  0.704375  1
  Ga  Ga7  1  0.704375  0.998512  0.704375  1
  Ga  Ga8  1  0.749636  0.500000  0.250364  1
  Ga  Ga9  1  0.250364  0.750364  0.500727  1
  Ga  Ga10  1  0.749636  0.249636  0.499273  1
  Ga  Ga11  1  0.704375  0.705865  0.000000  1
  Ga  Ga12  1  0.250364  0.500000  0.749636  1
  Ga  Ga13  1  0.500727  0.750364  0.250364  1
  Ga  Ga14  1  0.295625  0.294135  0.000000  1
  Ga  Ga15  1  0.000000  0.294135  0.295625  1
  Pd  Pd16  1  0.000000  0.000000  0.000000  1
