# generated using pymatgen
data_Ca11Yb(TmGe2)8
_symmetry_space_group_name_H-M   'P 1'
_cell_length_a   7.39539804
_cell_length_b   7.90391805
_cell_length_c   15.14907100
_cell_angle_alpha   90.00000000
_cell_angle_beta   90.00000000
_cell_angle_gamma   90.01243166
_symmetry_Int_Tables_number   1
_chemical_formula_structural   Ca11Yb(TmGe2)8
_chemical_formula_sum   'Ca11 Yb1 Tm8 Ge16'
_cell_volume   885.50287054
_cell_formula_units_Z   1
loop_
 _symmetry_equiv_pos_site_id
 _symmetry_equiv_pos_as_xyz
  1  'x, y, z'
loop_
 _atom_site_type_symbol
 _atom_site_label
 _atom_site_symmetry_multiplicity
 _atom_site_fract_x
 _atom_site_fract_y
 _atom_site_fract_z
 _atom_site_occupancy
  Ca  Ca0  1  0.981663  0.814535  0.406177  1
  Ca  Ca1  1  0.482100  0.685830  0.093854  1
  Ca  Ca2  1  0.518123  0.314254  0.593717  1
  Ca  Ca3  1  0.018043  0.185584  0.906298  1
  Ca  Ca4  1  0.018043  0.185584  0.593702  1
  Ca  Ca5  1  0.518123  0.314254  0.906283  1
  Ca  Ca6  1  0.482100  0.685830  0.406146  1
  Ca  Ca7  1  0.981663  0.814535  0.093823  1
  Ca  Ca8  1  0.343561  0.019049  0.750000  1
  Ca  Ca9  1  0.843511  0.480980  0.750000  1
  Ca  Ca10  1  0.156621  0.519191  0.250000  1
  Yb  Yb11  1  0.656551  0.980751  0.250000  1
  Tm  Tm12  1  0.318465  0.171791  0.121515  1
  Tm  Tm13  1  0.818173  0.328185  0.378482  1
  Tm  Tm14  1  0.181744  0.671663  0.878736  1
  Tm  Tm15  1  0.681705  0.828495  0.621208  1
  Tm  Tm16  1  0.318465  0.171791  0.378485  1
  Tm  Tm17  1  0.818173  0.328185  0.121518  1
  Tm  Tm18  1  0.181744  0.671663  0.621264  1
  Tm  Tm19  1  0.681705  0.828495  0.878792  1
  Ge  Ge20  1  0.845129  0.536462  0.539437  1
  Ge  Ge21  1  0.345235  0.963617  0.960539  1
  Ge  Ge22  1  0.654641  0.035932  0.459768  1
  Ge  Ge23  1  0.154819  0.463390  0.039595  1
  Ge  Ge24  1  0.154819  0.463390  0.460405  1
  Ge  Ge25  1  0.654641  0.035932  0.040232  1
  Ge  Ge26  1  0.345235  0.963617  0.539461  1
  Ge  Ge27  1  0.845129  0.536462  0.960563  1
  Ge  Ge28  1  0.975696  0.872688  0.750000  1
  Ge  Ge29  1  0.475773  0.627383  0.750000  1
  Ge  Ge30  1  0.524832  0.371914  0.250000  1
  Ge  Ge31  1  0.023121  0.126351  0.250000  1
  Ge  Ge32  1  0.237393  0.389613  0.750000  1
  Ge  Ge33  1  0.737366  0.110300  0.750000  1
  Ge  Ge34  1  0.264039  0.890687  0.250000  1
  Ge  Ge35  1  0.761858  0.611617  0.250000  1
