# generated using pymatgen
data_Nd4ZnGa3Pd4
_symmetry_space_group_name_H-M   'P 1'
_cell_length_a   4.55001500
_cell_length_b   7.12747457
_cell_length_c   7.84551379
_cell_angle_alpha   90.09696331
_cell_angle_beta   90.00000000
_cell_angle_gamma   90.00000000
_symmetry_Int_Tables_number   1
_chemical_formula_structural   Nd4ZnGa3Pd4
_chemical_formula_sum   'Nd4 Zn1 Ga3 Pd4'
_cell_volume   254.43055951
_cell_formula_units_Z   1
loop_
 _symmetry_equiv_pos_site_id
 _symmetry_equiv_pos_as_xyz
  1  'x, y, z'
loop_
 _atom_site_type_symbol
 _atom_site_label
 _atom_site_symmetry_multiplicity
 _atom_site_fract_x
 _atom_site_fract_y
 _atom_site_fract_z
 _atom_site_occupancy
  Nd  Nd0  1  0.250000  0.023228  0.697200  1
  Nd  Nd1  1  0.250000  0.525896  0.805082  1
  Nd  Nd2  1  0.750000  0.976322  0.303976  1
  Nd  Nd3  1  0.750000  0.474547  0.194419  1
  Zn  Zn4  1  0.250000  0.168974  0.075003  1
  Ga  Ga5  1  0.250000  0.671286  0.426904  1
  Ga  Ga6  1  0.750000  0.832997  0.927555  1
  Ga  Ga7  1  0.750000  0.332285  0.572084  1
  Pd  Pd8  1  0.250000  0.283926  0.403168  1
  Pd  Pd9  1  0.250000  0.775659  0.101148  1
  Pd  Pd10  1  0.750000  0.717571  0.599353  1
  Pd  Pd11  1  0.750000  0.217309  0.894107  1
