# generated using pymatgen
data_Tb2HoIn3Hg2Pd
_symmetry_space_group_name_H-M   'P 1'
_cell_length_a   7.77942600
_cell_length_b   7.76726451
_cell_length_c   4.14398300
_cell_angle_alpha   90.00000000
_cell_angle_beta   90.00000000
_cell_angle_gamma   120.05180767
_symmetry_Int_Tables_number   1
_chemical_formula_structural   Tb2HoIn3Hg2Pd
_chemical_formula_sum   'Tb2 Ho1 In3 Hg2 Pd1'
_cell_volume   216.73911040
_cell_formula_units_Z   1
loop_
 _symmetry_equiv_pos_site_id
 _symmetry_equiv_pos_as_xyz
  1  'x, y, z'
loop_
 _atom_site_type_symbol
 _atom_site_label
 _atom_site_symmetry_multiplicity
 _atom_site_fract_x
 _atom_site_fract_y
 _atom_site_fract_z
 _atom_site_occupancy
  Tb  Tb0  1  0.000072  0.601832  0.000000  1
  Tb  Tb1  1  0.398240  0.398168  0.000000  1
  Ho  Ho2  1  0.602132  0.000000  0.000000  1
  In  In3  1  0.752975  0.753261  0.500000  1
  In  In4  1  0.999714  0.246739  0.500000  1
  In  In5  1  0.247071  0.000000  0.500000  1
  Hg  Hg6  1  0.333867  0.667414  0.500000  1
  Hg  Hg7  1  0.666454  0.332586  0.500000  1
  Pd  Pd8  1  0.999474  0.000000  0.000000  1
