# generated using pymatgen
data_K16CePaSb8
_symmetry_space_group_name_H-M   'P 1'
_cell_length_a   11.79007708
_cell_length_b   11.79007759
_cell_length_c   11.79007800
_cell_angle_alpha   59.99999885
_cell_angle_beta   59.99999742
_cell_angle_gamma   59.99999971
_symmetry_Int_Tables_number   1
_chemical_formula_structural   K16CePaSb8
_chemical_formula_sum   'K16 Ce1 Pa1 Sb8'
_cell_volume   1158.87067947
_cell_formula_units_Z   1
loop_
 _symmetry_equiv_pos_site_id
 _symmetry_equiv_pos_as_xyz
  1  'x, y, z'
loop_
 _atom_site_type_symbol
 _atom_site_label
 _atom_site_symmetry_multiplicity
 _atom_site_fract_x
 _atom_site_fract_y
 _atom_site_fract_z
 _atom_site_occupancy
  K  K0  1  0.624051  0.127847  0.624051  1
  K  K1  1  0.624051  0.624051  0.127847  1
  K  K2  1  0.127847  0.624051  0.624051  1
  K  K3  1  0.624051  0.624051  0.624051  1
  K  K4  1  0.033973  0.033973  0.466027  1
  K  K5  1  0.778131  0.221869  0.221869  1
  K  K6  1  0.221869  0.778131  0.778131  1
  K  K7  1  0.778131  0.778131  0.221869  1
  K  K8  1  0.778131  0.221869  0.778131  1
  K  K9  1  0.221869  0.778131  0.221869  1
  K  K10  1  0.466027  0.033973  0.466027  1
  K  K11  1  0.466027  0.033973  0.033973  1
  K  K12  1  0.033973  0.466027  0.466027  1
  K  K13  1  0.033973  0.466027  0.033973  1
  K  K14  1  0.221869  0.221869  0.778131  1
  K  K15  1  0.466027  0.466027  0.033973  1
  Ce  Ce16  1  0.500000  0.500000  0.500000  1
  Pa  Pa17  1  0.750000  0.750000  0.750000  1
  Sb  Sb18  1  0.393249  0.820253  0.393249  1
  Sb  Sb19  1  0.853858  0.853858  0.438427  1
  Sb  Sb20  1  0.438427  0.853858  0.853858  1
  Sb  Sb21  1  0.853858  0.853858  0.853858  1
  Sb  Sb22  1  0.820253  0.393249  0.393249  1
  Sb  Sb23  1  0.393249  0.393249  0.393249  1
  Sb  Sb24  1  0.393249  0.393249  0.820253  1
  Sb  Sb25  1  0.853858  0.438427  0.853858  1
