# generated using pymatgen
data_Nd4MnCoCu4(PdO10)2
_symmetry_space_group_name_H-M   'P 1'
_cell_length_a   5.66921600
_cell_length_b   7.82984498
_cell_length_c   8.58224200
_cell_angle_alpha   89.77761717
_cell_angle_beta   90.00000000
_cell_angle_gamma   90.00000000
_symmetry_Int_Tables_number   1
_chemical_formula_structural   Nd4MnCoCu4(PdO10)2
_chemical_formula_sum   'Nd4 Mn1 Co1 Cu4 Pd2 O20'
_cell_volume   380.95497799
_cell_formula_units_Z   1
loop_
 _symmetry_equiv_pos_site_id
 _symmetry_equiv_pos_as_xyz
  1  'x, y, z'
loop_
 _atom_site_type_symbol
 _atom_site_label
 _atom_site_symmetry_multiplicity
 _atom_site_fract_x
 _atom_site_fract_y
 _atom_site_fract_z
 _atom_site_occupancy
  Nd  Nd0  1  0.004637  0.349908  0.674005  1
  Nd  Nd1  1  0.004637  0.650092  0.325995  1
  Nd  Nd2  1  0.004681  0.848177  0.827654  1
  Nd  Nd3  1  0.004681  0.151823  0.172346  1
  Mn  Mn4  1  0.261370  0.000000  0.500000  1
  Co  Co5  1  0.258351  0.500000  0.000000  1
  Cu  Cu6  1  0.497899  0.066799  0.849248  1
  Cu  Cu7  1  0.497899  0.933201  0.150752  1
  Cu  Cu8  1  0.497611  0.565915  0.651539  1
  Cu  Cu9  1  0.497611  0.434085  0.348461  1
  Pd  Pd10  1  0.742386  0.000000  0.500000  1
  Pd  Pd11  1  0.741064  0.500000  0.000000  1
  O  O12  1  0.245710  0.910626  0.288072  1
  O  O13  1  0.245710  0.089374  0.711928  1
  O  O14  1  0.753934  0.405355  0.218308  1
  O  O15  1  0.753934  0.594645  0.781692  1
  O  O16  1  0.754445  0.094805  0.717890  1
  O  O17  1  0.754445  0.905195  0.282110  1
  O  O18  1  0.246335  0.586530  0.791235  1
  O  O19  1  0.246335  0.413470  0.208765  1
  O  O20  1  0.482706  0.346372  0.941991  1
  O  O21  1  0.482706  0.653628  0.058009  1
  O  O22  1  0.487520  0.842217  0.561931  1
  O  O23  1  0.487520  0.157783  0.438069  1
  O  O24  1  0.275739  0.000000  0.000000  1
  O  O25  1  0.719867  0.500000  0.500000  1
  O  O26  1  0.721022  0.000000  0.000000  1
  O  O27  1  0.275155  0.500000  0.500000  1
  O  O28  1  0.013342  0.164809  0.447571  1
  O  O29  1  0.013342  0.835191  0.552429  1
  O  O30  1  0.013703  0.661722  0.051164  1
  O  O31  1  0.013703  0.338278  0.948836  1
