# generated using pymatgen
data_YLu2Hf(NiP)4
_symmetry_space_group_name_H-M   'P 1'
_cell_length_a   3.85841700
_cell_length_b   3.85841849
_cell_length_c   14.86303600
_cell_angle_alpha   90.00000000
_cell_angle_beta   90.00000000
_cell_angle_gamma   120.00001291
_symmetry_Int_Tables_number   1
_chemical_formula_structural   YLu2Hf(NiP)4
_chemical_formula_sum   'Y1 Lu2 Hf1 Ni4 P4'
_cell_volume   191.62695470
_cell_formula_units_Z   1
loop_
 _symmetry_equiv_pos_site_id
 _symmetry_equiv_pos_as_xyz
  1  'x, y, z'
loop_
 _atom_site_type_symbol
 _atom_site_label
 _atom_site_symmetry_multiplicity
 _atom_site_fract_x
 _atom_site_fract_y
 _atom_site_fract_z
 _atom_site_occupancy
  Y  Y0  1  0.000000  0.000000  0.005358  1
  Lu  Lu1  1  0.000000  0.000000  0.495498  1
  Lu  Lu2  1  0.000000  0.000000  0.746989  1
  Hf  Hf3  1  0.000000  0.000000  0.252586  1
  Ni  Ni4  1  0.333333  0.666667  0.350112  1
  Ni  Ni5  1  0.666667  0.333333  0.627062  1
  Ni  Ni6  1  0.666667  0.333333  0.867015  1
  Ni  Ni7  1  0.333333  0.666667  0.155247  1
  P  P8  1  0.333333  0.666667  0.876935  1
  P  P9  1  0.666667  0.333333  0.128496  1
  P  P10  1  0.666667  0.333333  0.377205  1
  P  P11  1  0.333333  0.666667  0.617496  1
