# generated using pymatgen
data_KS27
_symmetry_space_group_name_H-M   'P 1'
_cell_length_a   14.53833961
_cell_length_b   14.53834034
_cell_length_c   14.53834059
_cell_angle_alpha   118.23754996
_cell_angle_beta   118.23755028
_cell_angle_gamma   118.23754823
_symmetry_Int_Tables_number   1
_chemical_formula_structural   KS27
_chemical_formula_sum   'K1 S27'
_cell_volume   1049.41705336
_cell_formula_units_Z   1
loop_
 _symmetry_equiv_pos_site_id
 _symmetry_equiv_pos_as_xyz
  1  'x, y, z'
loop_
 _atom_site_type_symbol
 _atom_site_label
 _atom_site_symmetry_multiplicity
 _atom_site_fract_x
 _atom_site_fract_y
 _atom_site_fract_z
 _atom_site_occupancy
  K  K0  1  0.447065  0.447065  0.447065  1
  S  S1  1  0.032646  0.636142  0.636142  1
  S  S2  1  0.636142  0.636142  0.032646  1
  S  S3  1  0.636142  0.032646  0.636142  1
  S  S4  1  0.225819  0.842844  0.708581  1
  S  S5  1  0.842844  0.708581  0.225819  1
  S  S6  1  0.708581  0.225819  0.842844  1
  S  S7  1  0.842844  0.225819  0.708581  1
  S  S8  1  0.225819  0.708581  0.842844  1
  S  S9  1  0.708581  0.842844  0.225819  1
  S  S10  1  0.113358  0.645728  0.456509  1
  S  S11  1  0.645728  0.456509  0.113358  1
  S  S12  1  0.456509  0.113358  0.645728  1
  S  S13  1  0.645728  0.113358  0.456509  1
  S  S14  1  0.113358  0.456509  0.645728  1
  S  S15  1  0.456509  0.645728  0.113358  1
  S  S16  1  0.343214  0.727342  0.592866  1
  S  S17  1  0.727342  0.592866  0.343214  1
  S  S18  1  0.592866  0.343214  0.727342  1
  S  S19  1  0.727342  0.343214  0.592866  1
  S  S20  1  0.343214  0.592866  0.727342  1
  S  S21  1  0.592866  0.727342  0.343214  1
  S  S22  1  0.197598  0.469824  0.469824  1
  S  S23  1  0.469824  0.469824  0.197598  1
  S  S24  1  0.469824  0.197598  0.469824  1
  S  S25  1  0.007652  0.918843  0.918843  1
  S  S26  1  0.918843  0.918843  0.007652  1
  S  S27  1  0.918843  0.007652  0.918843  1
