# generated using pymatgen
data_Hf3Ta(TiPb)2
_symmetry_space_group_name_H-M   'P 1'
_cell_length_a   8.27682000
_cell_length_b   8.39575155
_cell_length_c   5.69660000
_cell_angle_alpha   90.00000000
_cell_angle_beta   90.00000000
_cell_angle_gamma   119.53249895
_symmetry_Int_Tables_number   1
_chemical_formula_structural   Hf3Ta(TiPb)2
_chemical_formula_sum   'Hf6 Ta2 Ti4 Pb4'
_cell_volume   344.42615781
_cell_formula_units_Z   2
loop_
 _symmetry_equiv_pos_site_id
 _symmetry_equiv_pos_as_xyz
  1  'x, y, z'
loop_
 _atom_site_type_symbol
 _atom_site_label
 _atom_site_symmetry_multiplicity
 _atom_site_fract_x
 _atom_site_fract_y
 _atom_site_fract_z
 _atom_site_occupancy
  Hf  Hf0  1  0.245019  0.000000  0.250000  1
  Hf  Hf1  1  0.754981  0.000000  0.750000  1
  Hf  Hf2  1  0.978588  0.215012  0.250000  1
  Hf  Hf3  1  0.021412  0.784988  0.750000  1
  Hf  Hf4  1  0.763576  0.784988  0.250000  1
  Hf  Hf5  1  0.236424  0.215012  0.750000  1
  Ta  Ta6  1  0.592852  0.000000  0.250000  1
  Ta  Ta7  1  0.407148  0.000000  0.750000  1
  Ti  Ti8  1  0.350402  0.700805  0.000000  1
  Ti  Ti9  1  0.649598  0.299195  0.000000  1
  Ti  Ti10  1  0.649598  0.299195  0.500000  1
  Ti  Ti11  1  0.350402  0.700805  0.500000  1
  Pb  Pb12  1  0.987052  0.594610  0.250000  1
  Pb  Pb13  1  0.012948  0.405390  0.750000  1
  Pb  Pb14  1  0.392442  0.405390  0.250000  1
  Pb  Pb15  1  0.607558  0.594610  0.750000  1
