# generated using pymatgen
data_PrThS3
_symmetry_space_group_name_H-M   'P 1'
_cell_length_a   4.05693800
_cell_length_b   10.71340900
_cell_length_c   10.97265000
_cell_angle_alpha   90.00000000
_cell_angle_beta   90.00000000
_cell_angle_gamma   90.00000000
_symmetry_Int_Tables_number   1
_chemical_formula_structural   PrThS3
_chemical_formula_sum   'Pr4 Th4 S12'
_cell_volume   476.91126645
_cell_formula_units_Z   4
loop_
 _symmetry_equiv_pos_site_id
 _symmetry_equiv_pos_as_xyz
  1  'x, y, z'
loop_
 _atom_site_type_symbol
 _atom_site_label
 _atom_site_symmetry_multiplicity
 _atom_site_fract_x
 _atom_site_fract_y
 _atom_site_fract_z
 _atom_site_occupancy
  Pr  Pr0  1  0.250000  0.007188  0.307288  1
  Pr  Pr1  1  0.750000  0.992812  0.692712  1
  Pr  Pr2  1  0.750000  0.507188  0.192712  1
  Pr  Pr3  1  0.250000  0.492811  0.807288  1
  Th  Th4  1  0.250000  0.685665  0.485667  1
  Th  Th5  1  0.750000  0.314335  0.514333  1
  Th  Th6  1  0.750000  0.185665  0.014333  1
  Th  Th7  1  0.250000  0.814335  0.985667  1
  S  S8  1  0.250000  0.056953  0.880581  1
  S  S9  1  0.750000  0.943047  0.119419  1
  S  S10  1  0.750000  0.556953  0.619419  1
  S  S11  1  0.250000  0.443047  0.380581  1
  S  S12  1  0.250000  0.130076  0.549489  1
  S  S13  1  0.750000  0.869924  0.450511  1
  S  S14  1  0.750000  0.630076  0.950511  1
  S  S15  1  0.250000  0.369924  0.049489  1
  S  S16  1  0.250000  0.706160  0.225635  1
  S  S17  1  0.750000  0.293840  0.774365  1
  S  S18  1  0.750000  0.206160  0.274365  1
  S  S19  1  0.250000  0.793840  0.725635  1
