# generated using pymatgen
data_Dy15YMgZn3Co4
_symmetry_space_group_name_H-M   'P 1'
_cell_length_a   9.40238371
_cell_length_b   9.37935520
_cell_length_c   9.36952100
_cell_angle_alpha   60.03468137
_cell_angle_beta   60.11555484
_cell_angle_gamma   60.11400204
_symmetry_Int_Tables_number   1
_chemical_formula_structural   Dy15YMgZn3Co4
_chemical_formula_sum   'Dy15 Y1 Mg1 Zn3 Co4'
_cell_volume   585.43503849
_cell_formula_units_Z   1
loop_
 _symmetry_equiv_pos_site_id
 _symmetry_equiv_pos_as_xyz
  1  'x, y, z'
loop_
 _atom_site_type_symbol
 _atom_site_label
 _atom_site_symmetry_multiplicity
 _atom_site_fract_x
 _atom_site_fract_y
 _atom_site_fract_z
 _atom_site_occupancy
  Dy  Dy0  1  0.349193  0.346421  0.346965  1
  Dy  Dy1  1  0.349193  0.346421  0.957421  1
  Dy  Dy2  1  0.348858  0.957388  0.346877  1
  Dy  Dy3  1  0.947746  0.350689  0.350782  1
  Dy  Dy4  1  0.808423  0.191230  0.190660  1
  Dy  Dy5  1  0.187809  0.812414  0.812221  1
  Dy  Dy6  1  0.187809  0.812414  0.187557  1
  Dy  Dy7  1  0.808423  0.191230  0.809687  1
  Dy  Dy8  1  0.187656  0.187975  0.812185  1
  Dy  Dy9  1  0.808338  0.810022  0.190820  1
  Dy  Dy10  1  0.933234  0.562220  0.562607  1
  Dy  Dy11  1  0.560741  0.937647  0.937938  1
  Dy  Dy12  1  0.560741  0.937647  0.563675  1
  Dy  Dy13  1  0.933234  0.562220  0.941938  1
  Dy  Dy14  1  0.561196  0.563920  0.937443  1
  Y  Y15  1  0.932722  0.941057  0.563111  1
  Mg  Mg16  1  0.287784  0.570820  0.570698  1
  Zn  Zn17  1  0.584900  0.578006  0.577810  1
  Zn  Zn18  1  0.584900  0.578006  0.259283  1
  Zn  Zn19  1  0.584674  0.259482  0.577922  1
  Co  Co20  1  0.139038  0.142991  0.142499  1
  Co  Co21  1  0.139038  0.142991  0.575470  1
  Co  Co22  1  0.138969  0.575335  0.142847  1
  Co  Co23  1  0.575381  0.141455  0.141582  1
