# generated using pymatgen
data_Tb2DyTh11Ru6
_symmetry_space_group_name_H-M   'P 1'
_cell_length_a   9.82057552
_cell_length_b   9.89169374
_cell_length_c   6.39934443
_cell_angle_alpha   90.07815064
_cell_angle_beta   89.97794859
_cell_angle_gamma   120.26477761
_symmetry_Int_Tables_number   1
_chemical_formula_structural   Tb2DyTh11Ru6
_chemical_formula_sum   'Tb2 Dy1 Th11 Ru6'
_cell_volume   536.91849428
_cell_formula_units_Z   1
loop_
 _symmetry_equiv_pos_site_id
 _symmetry_equiv_pos_as_xyz
  1  'x, y, z'
loop_
 _atom_site_type_symbol
 _atom_site_label
 _atom_site_symmetry_multiplicity
 _atom_site_fract_x
 _atom_site_fract_y
 _atom_site_fract_z
 _atom_site_occupancy
  Tb  Tb0  1  0.460799  0.536360  0.295534  1
  Tb  Tb1  1  0.073368  0.535661  0.300494  1
  Dy  Dy2  1  0.925626  0.462107  0.799824  1
  Th  Th3  1  0.249261  0.126035  0.510874  1
  Th  Th4  1  0.542510  0.083517  0.796106  1
  Th  Th5  1  0.748185  0.873833  0.012103  1
  Th  Th6  1  0.666169  0.333006  0.279080  1
  Th  Th7  1  0.125159  0.870572  0.008464  1
  Th  Th8  1  0.459562  0.917567  0.296630  1
  Th  Th9  1  0.539500  0.463193  0.797642  1
  Th  Th10  1  0.876389  0.128866  0.511295  1
  Th  Th11  1  0.124155  0.251855  0.012965  1
  Th  Th12  1  0.874395  0.748906  0.509002  1
  Th  Th13  1  0.334139  0.666417  0.775671  1
  Ru  Ru14  1  0.811661  0.630865  0.047149  1
  Ru  Ru15  1  0.814143  0.181868  0.046023  1
  Ru  Ru16  1  0.632079  0.816581  0.545831  1
  Ru  Ru17  1  0.370447  0.187642  0.041875  1
  Ru  Ru18  1  0.183851  0.365547  0.553323  1
  Ru  Ru19  1  0.188604  0.819602  0.544112  1
