# generated using pymatgen
data_HfCu6WS8
_symmetry_space_group_name_H-M   'P 1'
_cell_length_a   7.68107500
_cell_length_b   7.68107468
_cell_length_c   12.53871900
_cell_angle_alpha   90.00000000
_cell_angle_beta   90.00000000
_cell_angle_gamma   119.99999706
_symmetry_Int_Tables_number   1
_chemical_formula_structural   HfCu6WS8
_chemical_formula_sum   'Hf2 Cu12 W2 S16'
_cell_volume   640.66029248
_cell_formula_units_Z   2
loop_
 _symmetry_equiv_pos_site_id
 _symmetry_equiv_pos_as_xyz
  1  'x, y, z'
loop_
 _atom_site_type_symbol
 _atom_site_label
 _atom_site_symmetry_multiplicity
 _atom_site_fract_x
 _atom_site_fract_y
 _atom_site_fract_z
 _atom_site_occupancy
  Hf  Hf0  1  0.000000  0.000000  0.849383  1
  Hf  Hf1  1  0.000000  0.000000  0.349383  1
  Cu  Cu2  1  0.836020  0.672040  0.104313  1
  Cu  Cu3  1  0.501623  0.498377  0.354694  1
  Cu  Cu4  1  0.003246  0.501623  0.854694  1
  Cu  Cu5  1  0.836020  0.163980  0.104313  1
  Cu  Cu6  1  0.498377  0.501623  0.854694  1
  Cu  Cu7  1  0.163980  0.327960  0.604313  1
  Cu  Cu8  1  0.501623  0.003246  0.354694  1
  Cu  Cu9  1  0.996754  0.498377  0.354694  1
  Cu  Cu10  1  0.163980  0.836020  0.604313  1
  Cu  Cu11  1  0.498377  0.996754  0.854694  1
  Cu  Cu12  1  0.672040  0.836020  0.604313  1
  Cu  Cu13  1  0.327960  0.163980  0.104313  1
  W  W14  1  0.333333  0.666667  0.480280  1
  W  W15  1  0.666667  0.333333  0.980280  1
  S  S16  1  0.000000  0.000000  0.042390  1
  S  S17  1  0.345052  0.172526  0.289099  1
  S  S18  1  0.827474  0.172526  0.289099  1
  S  S19  1  0.010959  0.505480  0.540140  1
  S  S20  1  0.827474  0.654948  0.289099  1
  S  S21  1  0.666667  0.333333  0.799213  1
  S  S22  1  0.172526  0.345052  0.789099  1
  S  S23  1  0.494520  0.505480  0.540140  1
  S  S24  1  0.000000  0.000000  0.542390  1
  S  S25  1  0.333333  0.666667  0.299213  1
  S  S26  1  0.989041  0.494520  0.040140  1
  S  S27  1  0.494520  0.989041  0.540140  1
  S  S28  1  0.172526  0.827474  0.789099  1
  S  S29  1  0.654948  0.827474  0.789099  1
  S  S30  1  0.505480  0.010959  0.040140  1
  S  S31  1  0.505480  0.494520  0.040140  1
