# generated using pymatgen
data_Hf5Zr5Ga2(SnSb)3
_symmetry_space_group_name_H-M   'P 1'
_cell_length_a   8.67923503
_cell_length_b   8.68057125
_cell_length_c   5.84902900
_cell_angle_alpha   90.00000000
_cell_angle_beta   90.00000000
_cell_angle_gamma   120.00508601
_symmetry_Int_Tables_number   1
_chemical_formula_structural   Hf5Zr5Ga2(SnSb)3
_chemical_formula_sum   'Hf5 Zr5 Ga2 Sn3 Sb3'
_cell_volume   381.61189341
_cell_formula_units_Z   1
loop_
 _symmetry_equiv_pos_site_id
 _symmetry_equiv_pos_as_xyz
  1  'x, y, z'
loop_
 _atom_site_type_symbol
 _atom_site_label
 _atom_site_symmetry_multiplicity
 _atom_site_fract_x
 _atom_site_fract_y
 _atom_site_fract_z
 _atom_site_occupancy
  Hf  Hf0  1  0.000000  0.726260  0.250000  1
  Hf  Hf1  1  0.666568  0.333808  0.002983  1
  Hf  Hf2  1  0.333432  0.667242  0.002983  1
  Hf  Hf3  1  0.333432  0.667242  0.497017  1
  Hf  Hf4  1  0.666568  0.333808  0.497017  1
  Zr  Zr5  1  0.738354  0.736852  0.750000  1
  Zr  Zr6  1  0.261646  0.998498  0.750000  1
  Zr  Zr7  1  0.000000  0.261953  0.750000  1
  Zr  Zr8  1  0.272560  0.274034  0.250000  1
  Zr  Zr9  1  0.727440  0.001473  0.250000  1
  Ga  Ga10  1  0.000000  0.998879  0.013753  1
  Ga  Ga11  1  0.000000  0.998879  0.486247  1
  Sn  Sn12  1  0.615458  0.615546  0.250000  1
  Sn  Sn13  1  0.384542  0.000088  0.250000  1
  Sn  Sn14  1  0.000000  0.386354  0.250000  1
  Sb  Sb15  1  0.392943  0.393162  0.750000  1
  Sb  Sb16  1  0.607057  0.000220  0.750000  1
  Sb  Sb17  1  0.000000  0.605702  0.750000  1
