# generated using pymatgen
data_HfScMn5(NiP)7
_symmetry_space_group_name_H-M   'P 1'
_cell_length_a   9.03909975
_cell_length_b   9.05730584
_cell_length_c   3.57863800
_cell_angle_alpha   90.00000000
_cell_angle_beta   90.00000000
_cell_angle_gamma   119.98030032
_symmetry_Int_Tables_number   1
_chemical_formula_structural   HfScMn5(NiP)7
_chemical_formula_sum   'Hf1 Sc1 Mn5 Ni7 P7'
_cell_volume   253.78081570
_cell_formula_units_Z   1
loop_
 _symmetry_equiv_pos_site_id
 _symmetry_equiv_pos_as_xyz
  1  'x, y, z'
loop_
 _atom_site_type_symbol
 _atom_site_label
 _atom_site_symmetry_multiplicity
 _atom_site_fract_x
 _atom_site_fract_y
 _atom_site_fract_z
 _atom_site_occupancy
  Hf  Hf0  1  0.333498  0.665951  0.000000  1
  Sc  Sc1  1  0.668603  0.333428  0.500000  1
  Mn  Mn2  1  0.383773  0.434335  0.500000  1
  Mn  Mn3  1  0.053189  0.616793  0.500000  1
  Mn  Mn4  1  0.217523  0.091472  0.500000  1
  Mn  Mn5  1  0.872614  0.779860  0.500000  1
  Mn  Mn6  1  0.906202  0.130910  0.500000  1
  Ni  Ni7  1  0.717513  0.879163  0.000000  1
  Ni  Ni8  1  0.120818  0.842314  0.000000  1
  Ni  Ni9  1  0.158432  0.277802  0.000000  1
  Ni  Ni10  1  0.938737  0.372625  0.000000  1
  Ni  Ni11  1  0.631015  0.566423  0.000000  1
  Ni  Ni12  1  0.435526  0.063716  0.000000  1
  Ni  Ni13  1  0.559545  0.945556  0.500000  1
  P  P14  1  0.997756  0.999376  0.000000  1
  P  P15  1  0.416143  0.297477  0.000000  1
  P  P16  1  0.585388  0.704703  0.500000  1
  P  P17  1  0.288612  0.875781  0.500000  1
  P  P18  1  0.124618  0.416232  0.500000  1
  P  P19  1  0.706611  0.120919  0.000000  1
  P  P20  1  0.883886  0.585160  0.000000  1
