# generated using pymatgen
data_Tm20Cd6OsRu
_symmetry_space_group_name_H-M   'P 1'
_cell_length_a   9.44767700
_cell_length_b   9.44767787
_cell_length_c   9.74081100
_cell_angle_alpha   90.00000000
_cell_angle_beta   90.00000000
_cell_angle_gamma   120.00000047
_symmetry_Int_Tables_number   1
_chemical_formula_structural   Tm20Cd6OsRu
_chemical_formula_sum   'Tm20 Cd6 Os1 Ru1'
_cell_volume   752.96685694
_cell_formula_units_Z   1
loop_
 _symmetry_equiv_pos_site_id
 _symmetry_equiv_pos_as_xyz
  1  'x, y, z'
loop_
 _atom_site_type_symbol
 _atom_site_label
 _atom_site_symmetry_multiplicity
 _atom_site_fract_x
 _atom_site_fract_y
 _atom_site_fract_z
 _atom_site_occupancy
  Tm  Tm0  1  0.000000  0.000000  0.499765  1
  Tm  Tm1  1  0.000000  0.000000  0.000235  1
  Tm  Tm2  1  0.209753  0.790247  0.441320  1
  Tm  Tm3  1  0.209753  0.419507  0.441320  1
  Tm  Tm4  1  0.580493  0.790247  0.441320  1
  Tm  Tm5  1  0.790109  0.209891  0.559280  1
  Tm  Tm6  1  0.790109  0.580216  0.559280  1
  Tm  Tm7  1  0.419784  0.209891  0.559280  1
  Tm  Tm8  1  0.790109  0.209891  0.940720  1
  Tm  Tm9  1  0.790109  0.580216  0.940720  1
  Tm  Tm10  1  0.419784  0.209891  0.940720  1
  Tm  Tm11  1  0.209753  0.790247  0.058680  1
  Tm  Tm12  1  0.209753  0.419507  0.058680  1
  Tm  Tm13  1  0.580493  0.790247  0.058680  1
  Tm  Tm14  1  0.539885  0.460115  0.250000  1
  Tm  Tm15  1  0.539885  0.079771  0.250000  1
  Tm  Tm16  1  0.920229  0.460115  0.250000  1
  Tm  Tm17  1  0.458805  0.541195  0.750000  1
  Tm  Tm18  1  0.458805  0.917610  0.750000  1
  Tm  Tm19  1  0.082390  0.541195  0.750000  1
  Cd  Cd20  1  0.885467  0.114533  0.250000  1
  Cd  Cd21  1  0.885467  0.770936  0.250000  1
  Cd  Cd22  1  0.229064  0.114533  0.250000  1
  Cd  Cd23  1  0.114536  0.885464  0.750000  1
  Cd  Cd24  1  0.114536  0.229071  0.750000  1
  Cd  Cd25  1  0.770929  0.885464  0.750000  1
  Os  Os26  1  0.333333  0.666667  0.250000  1
  Ru  Ru27  1  0.666667  0.333333  0.750000  1
