# generated using pymatgen
data_DyHo15In4(NiRh)2
_symmetry_space_group_name_H-M   'P 1'
_cell_length_a   9.57961850
_cell_length_b   9.59612625
_cell_length_c   9.57789452
_cell_angle_alpha   59.95023269
_cell_angle_beta   60.10104247
_cell_angle_gamma   59.95456271
_symmetry_Int_Tables_number   1
_chemical_formula_structural   DyHo15In4(NiRh)2
_chemical_formula_sum   'Dy1 Ho15 In4 Ni2 Rh2'
_cell_volume   622.61048174
_cell_formula_units_Z   1
loop_
 _symmetry_equiv_pos_site_id
 _symmetry_equiv_pos_as_xyz
  1  'x, y, z'
loop_
 _atom_site_type_symbol
 _atom_site_label
 _atom_site_symmetry_multiplicity
 _atom_site_fract_x
 _atom_site_fract_y
 _atom_site_fract_z
 _atom_site_occupancy
  Dy  Dy0  1  0.187593  0.187877  0.813553  1
  Ho  Ho1  1  0.597196  0.600129  0.202519  1
  Ho  Ho2  1  0.439069  0.060974  0.438914  1
  Ho  Ho3  1  0.439854  0.438530  0.062483  1
  Ho  Ho4  1  0.811940  0.187919  0.812078  1
  Ho  Ho5  1  0.188101  0.811727  0.188273  1
  Ho  Ho6  1  0.439942  0.059130  0.062513  1
  Ho  Ho7  1  0.187714  0.810661  0.813488  1
  Ho  Ho8  1  0.060115  0.439965  0.060192  1
  Ho  Ho9  1  0.813513  0.810842  0.187701  1
  Ho  Ho10  1  0.202490  0.600263  0.597162  1
  Ho  Ho11  1  0.062449  0.438622  0.439741  1
  Ho  Ho12  1  0.062454  0.059148  0.439900  1
  Ho  Ho13  1  0.813359  0.187946  0.187843  1
  Ho  Ho14  1  0.598012  0.203661  0.597879  1
  Ho  Ho15  1  0.597923  0.600504  0.597876  1
  In  In16  1  0.832781  0.832619  0.832740  1
  In  In17  1  0.832289  0.832747  0.502250  1
  In  In18  1  0.502538  0.832519  0.832264  1
  In  In19  1  0.832593  0.502145  0.832713  1
  Ni  Ni20  1  0.391717  0.823022  0.391742  1
  Ni  Ni21  1  0.391775  0.393541  0.391608  1
  Rh  Rh22  1  0.822923  0.392733  0.391607  1
  Rh  Rh23  1  0.391658  0.392778  0.822957  1
