# generated using pymatgen
data_Tb11Y5(TmSn4)4
_symmetry_space_group_name_H-M   'P 1'
_cell_length_a   8.02453301
_cell_length_b   8.18377401
_cell_length_c   15.48440901
_cell_angle_alpha   90.00421643
_cell_angle_beta   90.00255457
_cell_angle_gamma   90.00414291
_symmetry_Int_Tables_number   1
_chemical_formula_structural   Tb11Y5(TmSn4)4
_chemical_formula_sum   'Tb11 Y5 Tm4 Sn16'
_cell_volume   1016.87607096
_cell_formula_units_Z   1
loop_
 _symmetry_equiv_pos_site_id
 _symmetry_equiv_pos_as_xyz
  1  'x, y, z'
loop_
 _atom_site_type_symbol
 _atom_site_label
 _atom_site_symmetry_multiplicity
 _atom_site_fract_x
 _atom_site_fract_y
 _atom_site_fract_z
 _atom_site_occupancy
  Tb  Tb0  1  0.133084  0.337129  0.377916  1
  Tb  Tb1  1  0.366924  0.837118  0.622083  1
  Tb  Tb2  1  0.866925  0.662873  0.877921  1
  Tb  Tb3  1  0.519837  0.320435  0.902645  1
  Tb  Tb4  1  0.019830  0.179562  0.597371  1
  Tb  Tb5  1  0.480161  0.679559  0.402632  1
  Tb  Tb6  1  0.980133  0.820449  0.097378  1
  Tb  Tb7  1  0.480106  0.679522  0.097362  1
  Tb  Tb8  1  0.980102  0.820505  0.402634  1
  Tb  Tb9  1  0.519892  0.320498  0.597366  1
  Tb  Tb10  1  0.019898  0.179512  0.902626  1
  Y  Y11  1  0.366813  0.837196  0.877928  1
  Y  Y12  1  0.866834  0.662788  0.622061  1
  Y  Y13  1  0.633156  0.162782  0.377927  1
  Y  Y14  1  0.133137  0.337215  0.122061  1
  Y  Y15  1  0.633144  0.162830  0.122094  1
  Tm  Tm16  1  0.198324  0.502645  0.750021  1
  Tm  Tm17  1  0.698320  0.997360  0.749982  1
  Tm  Tm18  1  0.801661  0.497309  0.250002  1
  Tm  Tm19  1  0.301700  0.002663  0.249981  1
  Sn  Sn20  1  0.293146  0.035873  0.042541  1
  Sn  Sn21  1  0.793041  0.464149  0.457470  1
  Sn  Sn22  1  0.706971  0.964154  0.542505  1
  Sn  Sn23  1  0.206972  0.535841  0.957496  1
  Sn  Sn24  1  0.706791  0.964203  0.957493  1
  Sn  Sn25  1  0.206814  0.535865  0.542565  1
  Sn  Sn26  1  0.293188  0.035867  0.457400  1
  Sn  Sn27  1  0.793128  0.464061  0.042607  1
  Sn  Sn28  1  0.563800  0.618254  0.749980  1
  Sn  Sn29  1  0.063801  0.881739  0.750024  1
  Sn  Sn30  1  0.436250  0.381678  0.249967  1
  Sn  Sn31  1  0.936150  0.118280  0.249995  1
  Sn  Sn32  1  0.328871  0.148383  0.750012  1
  Sn  Sn33  1  0.828881  0.351635  0.749988  1
  Sn  Sn34  1  0.671105  0.851682  0.249988  1
  Sn  Sn35  1  0.171112  0.648386  0.249978  1
