# generated using pymatgen
data_V(O2F3)2
_symmetry_space_group_name_H-M   'P 1'
_cell_length_a   5.52771022
_cell_length_b   6.58810253
_cell_length_c   6.23814356
_cell_angle_alpha   109.09204177
_cell_angle_beta   94.31330765
_cell_angle_gamma   116.92278951
_symmetry_Int_Tables_number   1
_chemical_formula_structural   V(O2F3)2
_chemical_formula_sum   'V1 O4 F6'
_cell_volume   184.56669967
_cell_formula_units_Z   1
loop_
 _symmetry_equiv_pos_site_id
 _symmetry_equiv_pos_as_xyz
  1  'x, y, z'
loop_
 _atom_site_type_symbol
 _atom_site_label
 _atom_site_symmetry_multiplicity
 _atom_site_fract_x
 _atom_site_fract_y
 _atom_site_fract_z
 _atom_site_occupancy
  V  V0  1  0.706324  0.261468  0.485707  1
  O  O1  1  0.126497  0.053147  0.927271  1
  O  O2  1  0.271657  0.972792  0.852227  1
  O  O3  1  0.299267  0.532622  0.083351  1
  O  O4  1  0.517943  0.657745  0.052049  1
  F  F5  1  0.680996  0.400399  0.782692  1
  F  F6  1  0.733628  0.119673  0.188128  1
  F  F7  1  0.043303  0.537049  0.545793  1
  F  F8  1  0.370359  0.984425  0.417790  1
  F  F9  1  0.884232  0.126772  0.591619  1
  F  F10  1  0.531005  0.397094  0.377531  1
