# generated using pymatgen
data_Tb10Tl5BiSe2
_symmetry_space_group_name_H-M   'P 1'
_cell_length_a   9.21504700
_cell_length_b   9.25388483
_cell_length_c   6.82432400
_cell_angle_alpha   90.00000000
_cell_angle_beta   90.00000000
_cell_angle_gamma   120.13951515
_symmetry_Int_Tables_number   1
_chemical_formula_structural   Tb10Tl5BiSe2
_chemical_formula_sum   'Tb10 Tl5 Bi1 Se2'
_cell_volume   503.26837931
_cell_formula_units_Z   1
loop_
 _symmetry_equiv_pos_site_id
 _symmetry_equiv_pos_as_xyz
  1  'x, y, z'
loop_
 _atom_site_type_symbol
 _atom_site_label
 _atom_site_symmetry_multiplicity
 _atom_site_fract_x
 _atom_site_fract_y
 _atom_site_fract_z
 _atom_site_occupancy
  Tb  Tb0  1  0.664453  0.334798  0.494776  1
  Tb  Tb1  1  0.335547  0.670346  0.494776  1
  Tb  Tb2  1  0.335547  0.670346  0.005224  1
  Tb  Tb3  1  0.664453  0.334798  0.005224  1
  Tb  Tb4  1  0.750285  0.746691  0.250000  1
  Tb  Tb5  1  0.249715  0.996406  0.250000  1
  Tb  Tb6  1  0.000000  0.249930  0.250000  1
  Tb  Tb7  1  0.252215  0.246834  0.750000  1
  Tb  Tb8  1  0.747785  0.994619  0.750000  1
  Tb  Tb9  1  0.000000  0.750651  0.750000  1
  Tl  Tl10  1  0.401121  0.403384  0.250000  1
  Tl  Tl11  1  0.598879  0.002264  0.250000  1
  Tl  Tl12  1  0.000000  0.601691  0.250000  1
  Tl  Tl13  1  0.598642  0.598971  0.750000  1
  Tl  Tl14  1  0.401358  0.000329  0.750000  1
  Bi  Bi15  1  0.000000  0.396275  0.750000  1
  Se  Se16  1  0.000000  0.000833  0.501422  1
  Se  Se17  1  0.000000  0.000833  0.998578  1
