# generated using pymatgen
data_Y2Ho2ReB12Os
_symmetry_space_group_name_H-M   'P 1'
_cell_length_a   3.66720100
_cell_length_b   9.16250783
_cell_length_c   11.55362406
_cell_angle_alpha   90.13294263
_cell_angle_beta   90.00000000
_cell_angle_gamma   90.00000000
_symmetry_Int_Tables_number   1
_chemical_formula_structural   Y2Ho2ReB12Os
_chemical_formula_sum   'Y4 Ho4 Re2 B24 Os2'
_cell_volume   388.20947961
_cell_formula_units_Z   2
loop_
 _symmetry_equiv_pos_site_id
 _symmetry_equiv_pos_as_xyz
  1  'x, y, z'
loop_
 _atom_site_type_symbol
 _atom_site_label
 _atom_site_symmetry_multiplicity
 _atom_site_fract_x
 _atom_site_fract_y
 _atom_site_fract_z
 _atom_site_occupancy
  Y  Y0  1  0.000000  0.320678  0.412447  1
  Y  Y1  1  0.000000  0.679322  0.587553  1
  Y  Y2  1  0.000000  0.824516  0.084728  1
  Y  Y3  1  0.000000  0.175484  0.915272  1
  Ho  Ho4  1  0.000000  0.943346  0.370652  1
  Ho  Ho5  1  0.000000  0.056654  0.629348  1
  Ho  Ho6  1  0.000000  0.442566  0.128863  1
  Ho  Ho7  1  0.000000  0.557434  0.871137  1
  Re  Re8  1  0.000000  0.138450  0.179710  1
  Re  Re9  1  0.000000  0.861550  0.820290  1
  B  B10  1  0.500000  0.553822  0.432853  1
  B  B11  1  0.500000  0.446178  0.567147  1
  B  B12  1  0.500000  0.053261  0.067113  1
  B  B13  1  0.500000  0.946739  0.932887  1
  B  B14  1  0.500000  0.748704  0.418538  1
  B  B15  1  0.500000  0.251296  0.581462  1
  B  B16  1  0.500000  0.248779  0.081275  1
  B  B17  1  0.500000  0.751221  0.918725  1
  B  B18  1  0.500000  0.790621  0.266092  1
  B  B19  1  0.500000  0.209379  0.733908  1
  B  B20  1  0.500000  0.291582  0.234415  1
  B  B21  1  0.500000  0.708418  0.765585  1
  B  B22  1  0.500000  0.630738  0.186235  1
  B  B23  1  0.500000  0.369262  0.813765  1
  B  B24  1  0.500000  0.131200  0.314655  1
  B  B25  1  0.500000  0.868800  0.685345  1
  B  B26  1  0.500000  0.982890  0.212672  1
  B  B27  1  0.500000  0.017110  0.787328  1
  B  B28  1  0.500000  0.483215  0.287849  1
  B  B29  1  0.500000  0.516785  0.712151  1
  B  B30  1  0.500000  0.603047  0.028810  1
  B  B31  1  0.500000  0.396953  0.971190  1
  B  B32  1  0.500000  0.103525  0.471463  1
  B  B33  1  0.500000  0.896475  0.528537  1
  Os  Os34  1  0.000000  0.637609  0.321723  1
  Os  Os35  1  0.000000  0.362391  0.678277  1
