# generated using pymatgen
data_Zr8Ta7Ti5Si16
_symmetry_space_group_name_H-M   'P 1'
_cell_length_a   6.86146766
_cell_length_b   6.86470568
_cell_length_c   12.66714933
_cell_angle_alpha   89.98065513
_cell_angle_beta   90.01726400
_cell_angle_gamma   90.04721999
_symmetry_Int_Tables_number   1
_chemical_formula_structural   Zr8Ta7Ti5Si16
_chemical_formula_sum   'Zr8 Ta7 Ti5 Si16'
_cell_volume   596.64724676
_cell_formula_units_Z   1
loop_
 _symmetry_equiv_pos_site_id
 _symmetry_equiv_pos_as_xyz
  1  'x, y, z'
loop_
 _atom_site_type_symbol
 _atom_site_label
 _atom_site_symmetry_multiplicity
 _atom_site_fract_x
 _atom_site_fract_y
 _atom_site_fract_z
 _atom_site_occupancy
  Zr  Zr0  1  0.000841  0.659926  0.030260  1
  Zr  Zr1  1  0.999038  0.340765  0.530449  1
  Zr  Zr2  1  0.658433  0.000814  0.970179  1
  Zr  Zr3  1  0.160136  0.498810  0.780012  1
  Zr  Zr4  1  0.840726  0.501811  0.280133  1
  Zr  Zr5  1  0.497963  0.158370  0.219966  1
  Zr  Zr6  1  0.500529  0.841972  0.719886  1
  Zr  Zr7  1  0.341252  0.998875  0.469982  1
  Ta  Ta8  1  0.504663  0.346382  0.623549  1
  Ta  Ta9  1  0.495177  0.652809  0.123997  1
  Ta  Ta10  1  0.152695  0.004801  0.873757  1
  Ta  Ta11  1  0.669628  0.668886  0.499821  1
  Ta  Ta12  1  0.830317  0.169869  0.749453  1
  Ta  Ta13  1  0.169589  0.830594  0.250078  1
  Ta  Ta14  1  0.330484  0.330857  0.000096  1
  Ti  Ti15  1  0.346961  0.504580  0.376297  1
  Ti  Ti16  1  0.846723  0.995118  0.373386  1
  Ti  Ti17  1  0.005243  0.152864  0.126422  1
  Ti  Ti18  1  0.994970  0.845930  0.626620  1
  Ti  Ti19  1  0.653140  0.494871  0.876223  1
  Si  Si20  1  0.044846  0.704304  0.436178  1
  Si  Si21  1  0.953295  0.299331  0.936899  1
  Si  Si22  1  0.706385  0.042444  0.562094  1
  Si  Si23  1  0.200685  0.453172  0.187466  1
  Si  Si24  1  0.799106  0.546552  0.686582  1
  Si  Si25  1  0.457018  0.204571  0.814207  1
  Si  Si26  1  0.545024  0.797264  0.314977  1
  Si  Si27  1  0.295746  0.957113  0.064481  1
  Si  Si28  1  0.863172  0.790947  0.822383  1
  Si  Si29  1  0.133113  0.207265  0.323164  1
  Si  Si30  1  0.794013  0.868884  0.177989  1
  Si  Si31  1  0.291005  0.636509  0.571926  1
  Si  Si32  1  0.709386  0.363600  0.072868  1
  Si  Si33  1  0.633857  0.291264  0.425661  1
  Si  Si34  1  0.368219  0.706424  0.926433  1
  Si  Si35  1  0.206623  0.131454  0.676126  1
