# generated using pymatgen
data_La3MgAu5
_symmetry_space_group_name_H-M   'P 1'
_cell_length_a   8.20640328
_cell_length_b   8.20640276
_cell_length_c   8.20640333
_cell_angle_alpha   65.90820206
_cell_angle_beta   65.90820098
_cell_angle_gamma   65.90818843
_symmetry_Int_Tables_number   1
_chemical_formula_structural   La3MgAu5
_chemical_formula_sum   'La6 Mg2 Au10'
_cell_volume   440.79769849
_cell_formula_units_Z   2
loop_
 _symmetry_equiv_pos_site_id
 _symmetry_equiv_pos_as_xyz
  1  'x, y, z'
loop_
 _atom_site_type_symbol
 _atom_site_label
 _atom_site_symmetry_multiplicity
 _atom_site_fract_x
 _atom_site_fract_y
 _atom_site_fract_z
 _atom_site_occupancy
  La  La0  1  0.891910  0.193063  0.620020  1
  La  La1  1  0.620020  0.891910  0.193063  1
  La  La2  1  0.193063  0.620020  0.891910  1
  La  La3  1  0.108090  0.806937  0.379980  1
  La  La4  1  0.379980  0.108090  0.806937  1
  La  La5  1  0.806937  0.379980  0.108090  1
  Mg  Mg6  1  0.654947  0.654947  0.654947  1
  Mg  Mg7  1  0.345053  0.345053  0.345053  1
  Au  Au8  1  0.000000  0.000000  0.000000  1
  Au  Au9  1  0.500000  0.500000  0.500000  1
  Au  Au10  1  0.800795  0.800795  0.800795  1
  Au  Au11  1  0.199205  0.199205  0.199205  1
  Au  Au12  1  0.941778  0.550660  0.318768  1
  Au  Au13  1  0.318768  0.941778  0.550660  1
  Au  Au14  1  0.550660  0.318768  0.941778  1
  Au  Au15  1  0.058222  0.449340  0.681232  1
  Au  Au16  1  0.681232  0.058222  0.449340  1
  Au  Au17  1  0.449340  0.681232  0.058222  1
