# generated using pymatgen
data_K4Si2Se5
_symmetry_space_group_name_H-M   'P 1'
_cell_length_a   7.80707205
_cell_length_b   8.89604820
_cell_length_c   11.35534614
_cell_angle_alpha   72.76493674
_cell_angle_beta   69.49181730
_cell_angle_gamma   78.44970827
_symmetry_Int_Tables_number   1
_chemical_formula_structural   K4Si2Se5
_chemical_formula_sum   'K8 Si4 Se10'
_cell_volume   701.39069932
_cell_formula_units_Z   2
loop_
 _symmetry_equiv_pos_site_id
 _symmetry_equiv_pos_as_xyz
  1  'x, y, z'
loop_
 _atom_site_type_symbol
 _atom_site_label
 _atom_site_symmetry_multiplicity
 _atom_site_fract_x
 _atom_site_fract_y
 _atom_site_fract_z
 _atom_site_occupancy
  K  K0  1  0.206851  0.001052  0.588663  1
  K  K1  1  0.793149  0.998948  0.411337  1
  K  K2  1  0.915208  0.513538  0.691846  1
  K  K3  1  0.084792  0.486462  0.308154  1
  K  K4  1  0.500000  0.500000  0.500000  1
  K  K5  1  0.000000  0.000000  0.000000  1
  K  K6  1  0.276150  0.510281  0.904711  1
  K  K7  1  0.723850  0.489719  0.095289  1
  Si  Si8  1  0.429947  0.855678  0.219330  1
  Si  Si9  1  0.570053  0.144322  0.780670  1
  Si  Si10  1  0.380447  0.137678  0.163278  1
  Si  Si11  1  0.619553  0.862322  0.836722  1
  Se  Se12  1  0.088784  0.228835  0.156197  1
  Se  Se13  1  0.911216  0.771165  0.843803  1
  Se  Se14  1  0.607655  0.223292  0.955422  1
  Se  Se15  1  0.392345  0.776708  0.044578  1
  Se  Se16  1  0.808748  0.236937  0.603051  1
  Se  Se17  1  0.191252  0.763063  0.396949  1
  Se  Se18  1  0.544783  0.768282  0.697528  1
  Se  Se19  1  0.455217  0.231718  0.302472  1
  Se  Se20  1  0.289539  0.236913  0.752962  1
  Se  Se21  1  0.710461  0.763087  0.247038  1
