# generated using pymatgen
data_Li8Ce3MnBr24
_symmetry_space_group_name_H-M   'P 1'
_cell_length_a   6.90025100
_cell_length_b   6.90025155
_cell_length_c   28.89929600
_cell_angle_alpha   90.00000000
_cell_angle_beta   90.00000000
_cell_angle_gamma   120.00000218
_symmetry_Int_Tables_number   1
_chemical_formula_structural   Li8Ce3MnBr24
_chemical_formula_sum   'Li8 Ce3 Mn1 Br24'
_cell_volume   1191.64720087
_cell_formula_units_Z   1
loop_
 _symmetry_equiv_pos_site_id
 _symmetry_equiv_pos_as_xyz
  1  'x, y, z'
loop_
 _atom_site_type_symbol
 _atom_site_label
 _atom_site_symmetry_multiplicity
 _atom_site_fract_x
 _atom_site_fract_y
 _atom_site_fract_z
 _atom_site_occupancy
  Li  Li0  1  0.000000  0.000000  0.249536  1
  Li  Li1  1  0.000000  0.000000  0.750464  1
  Li  Li2  1  0.333333  0.666667  0.999605  1
  Li  Li3  1  0.333333  0.666667  0.500379  1
  Li  Li4  1  0.333333  0.666667  0.249800  1
  Li  Li5  1  0.666667  0.333333  0.750200  1
  Li  Li6  1  0.666667  0.333333  0.000395  1
  Li  Li7  1  0.666667  0.333333  0.499621  1
  Ce  Ce8  1  0.000000  0.000000  0.500000  1
  Ce  Ce9  1  0.333333  0.666667  0.752580  1
  Ce  Ce10  1  0.666667  0.333333  0.247420  1
  Mn  Mn11  1  0.000000  0.000000  0.000000  1
  Br  Br12  1  0.332046  0.999520  0.302501  1
  Br  Br13  1  0.334395  0.005042  0.806151  1
  Br  Br14  1  0.001026  0.296375  0.048620  1
  Br  Br15  1  0.999086  0.334829  0.554135  1
  Br  Br16  1  0.000480  0.332527  0.302501  1
  Br  Br17  1  0.994958  0.329352  0.806151  1
  Br  Br18  1  0.329352  0.334395  0.193849  1
  Br  Br19  1  0.332527  0.332046  0.697499  1
  Br  Br20  1  0.334829  0.335742  0.445865  1
  Br  Br21  1  0.296375  0.295350  0.951380  1
  Br  Br22  1  0.664258  0.999086  0.445865  1
  Br  Br23  1  0.295350  0.998974  0.048620  1
  Br  Br24  1  0.335742  0.000914  0.554135  1
  Br  Br25  1  0.703625  0.704650  0.048620  1
  Br  Br26  1  0.665171  0.664258  0.554135  1
  Br  Br27  1  0.667473  0.667954  0.302501  1
  Br  Br28  1  0.670648  0.665605  0.806151  1
  Br  Br29  1  0.005042  0.670648  0.193849  1
  Br  Br30  1  0.999520  0.667473  0.697499  1
  Br  Br31  1  0.000914  0.665171  0.445865  1
  Br  Br32  1  0.998974  0.703625  0.951380  1
  Br  Br33  1  0.704650  0.001026  0.951380  1
  Br  Br34  1  0.665605  0.994958  0.193849  1
  Br  Br35  1  0.667954  0.000480  0.697499  1
