# generated using pymatgen
data_Na5Zr3Cu16As5P7
_symmetry_space_group_name_H-M   'P 1'
_cell_length_a   12.89789807
_cell_length_b   12.92442455
_cell_length_c   3.92611900
_cell_angle_alpha   90.00000000
_cell_angle_beta   90.00000000
_cell_angle_gamma   119.71548977
_symmetry_Int_Tables_number   1
_chemical_formula_structural   Na5Zr3Cu16As5P7
_chemical_formula_sum   'Na5 Zr3 Cu16 As5 P7'
_cell_volume   568.41064951
_cell_formula_units_Z   1
loop_
 _symmetry_equiv_pos_site_id
 _symmetry_equiv_pos_as_xyz
  1  'x, y, z'
loop_
 _atom_site_type_symbol
 _atom_site_label
 _atom_site_symmetry_multiplicity
 _atom_site_fract_x
 _atom_site_fract_y
 _atom_site_fract_z
 _atom_site_occupancy
  Na  Na0  1  0.182958  0.183366  0.500000  1
  Na  Na1  1  0.817896  0.000743  0.500000  1
  Na  Na2  1  0.000245  0.817163  0.500000  1
  Na  Na3  1  0.328759  0.661580  0.000000  1
  Na  Na4  1  0.666784  0.333134  0.000000  1
  Zr  Zr5  1  0.564473  0.565476  0.000000  1
  Zr  Zr6  1  0.433413  0.999264  0.000000  1
  Zr  Zr7  1  0.003239  0.434430  0.000000  1
  Cu  Cu8  1  0.731263  0.731434  0.500000  1
  Cu  Cu9  1  0.266988  0.999358  0.500000  1
  Cu  Cu10  1  0.005389  0.271728  0.500000  1
  Cu  Cu11  1  0.183769  0.368904  0.000000  1
  Cu  Cu12  1  0.637670  0.819516  0.000000  1
  Cu  Cu13  1  0.180675  0.817523  0.000000  1
  Cu  Cu14  1  0.819767  0.637944  0.000000  1
  Cu  Cu15  1  0.819063  0.181530  0.000000  1
  Cu  Cu16  1  0.361841  0.181913  0.000000  1
  Cu  Cu17  1  0.349994  0.474360  0.500000  1
  Cu  Cu18  1  0.527006  0.884449  0.500000  1
  Cu  Cu19  1  0.119910  0.636025  0.500000  1
  Cu  Cu20  1  0.885588  0.527358  0.500000  1
  Cu  Cu21  1  0.643366  0.116418  0.500000  1
  Cu  Cu22  1  0.471933  0.358147  0.500000  1
  Cu  Cu23  1  0.999765  0.000331  0.000000  1
  As  As24  1  0.514228  0.686590  0.500000  1
  As  As25  1  0.312885  0.827964  0.500000  1
  As  As26  1  0.686681  0.515533  0.500000  1
  As  As27  1  0.829769  0.313895  0.500000  1
  As  As28  1  0.484387  0.171614  0.500000  1
  P  P29  1  0.825061  0.825117  0.000000  1
  P  P30  1  0.175511  0.000839  0.000000  1
  P  P31  1  0.001535  0.176840  0.000000  1
  P  P32  1  0.166514  0.478521  0.500000  1
  P  P33  1  0.362953  0.364119  0.000000  1
  P  P34  1  0.636966  0.000618  0.000000  1
  P  P35  1  0.001757  0.636257  0.000000  1
