# generated using pymatgen
data_Li6YbCeUN6
_symmetry_space_group_name_H-M   'P 1'
_cell_length_a   6.10314200
_cell_length_b   6.10314422
_cell_length_c   5.43874500
_cell_angle_alpha   90.00000000
_cell_angle_beta   90.00000000
_cell_angle_gamma   119.99999881
_symmetry_Int_Tables_number   1
_chemical_formula_structural   Li6YbCeUN6
_chemical_formula_sum   'Li6 Yb1 Ce1 U1 N6'
_cell_volume   175.44316006
_cell_formula_units_Z   1
loop_
 _symmetry_equiv_pos_site_id
 _symmetry_equiv_pos_as_xyz
  1  'x, y, z'
loop_
 _atom_site_type_symbol
 _atom_site_label
 _atom_site_symmetry_multiplicity
 _atom_site_fract_x
 _atom_site_fract_y
 _atom_site_fract_z
 _atom_site_occupancy
  Li  Li0  1  0.978355  0.651450  0.605291  1
  Li  Li1  1  0.348550  0.326905  0.605291  1
  Li  Li2  1  0.673095  0.021645  0.605291  1
  Li  Li3  1  0.007092  0.334417  0.392488  1
  Li  Li4  1  0.665583  0.672674  0.392488  1
  Li  Li5  1  0.327326  0.992908  0.392488  1
  Yb  Yb6  1  0.000000  0.000000  0.997810  1
  Ce  Ce7  1  0.333333  0.666667  0.993133  1
  U  U8  1  0.666667  0.333333  0.006675  1
  N  N9  1  0.980860  0.635193  0.225682  1
  N  N10  1  0.364807  0.345666  0.225682  1
  N  N11  1  0.654334  0.019140  0.225682  1
  N  N12  1  0.977139  0.345803  0.777333  1
  N  N13  1  0.654197  0.631334  0.777333  1
  N  N14  1  0.368666  0.022861  0.777333  1
