# generated using pymatgen
data_Y8AlPd23Pt
_symmetry_space_group_name_H-M   'P 1'
_cell_length_a   8.36544200
_cell_length_b   8.37007800
_cell_length_c   8.37007800
_cell_angle_alpha   90.00000000
_cell_angle_beta   90.00000000
_cell_angle_gamma   90.00000000
_symmetry_Int_Tables_number   1
_chemical_formula_structural   Y8AlPd23Pt
_chemical_formula_sum   'Y8 Al1 Pd23 Pt1'
_cell_volume   586.06785663
_cell_formula_units_Z   1
loop_
 _symmetry_equiv_pos_site_id
 _symmetry_equiv_pos_as_xyz
  1  'x, y, z'
loop_
 _atom_site_type_symbol
 _atom_site_label
 _atom_site_symmetry_multiplicity
 _atom_site_fract_x
 _atom_site_fract_y
 _atom_site_fract_z
 _atom_site_occupancy
  Y  Y0  1  0.251194  0.250591  0.250591  1
  Y  Y1  1  0.748588  0.748505  0.748505  1
  Y  Y2  1  0.748588  0.748505  0.251495  1
  Y  Y3  1  0.748588  0.251495  0.748505  1
  Y  Y4  1  0.251194  0.250591  0.749409  1
  Y  Y5  1  0.251194  0.749409  0.250591  1
  Y  Y6  1  0.251194  0.749409  0.749409  1
  Y  Y7  1  0.748588  0.251495  0.251495  1
  Al  Al8  1  0.001078  0.000000  0.000000  1
  Pd  Pd9  1  0.259902  0.500000  0.000000  1
  Pd  Pd10  1  0.739753  0.500000  0.000000  1
  Pd  Pd11  1  0.999960  0.260202  0.500000  1
  Pd  Pd12  1  0.500024  0.260242  0.000000  1
  Pd  Pd13  1  0.999960  0.739798  0.500000  1
  Pd  Pd14  1  0.500024  0.739758  0.000000  1
  Pd  Pd15  1  0.500024  0.000000  0.260242  1
  Pd  Pd16  1  0.259902  0.000000  0.500000  1
  Pd  Pd17  1  0.500024  0.000000  0.739758  1
  Pd  Pd18  1  0.739753  0.000000  0.500000  1
  Pd  Pd19  1  0.999960  0.500000  0.260202  1
  Pd  Pd20  1  0.999960  0.500000  0.739798  1
  Pd  Pd21  1  0.252890  0.500000  0.500000  1
  Pd  Pd22  1  0.747322  0.500000  0.500000  1
  Pd  Pd23  1  0.500123  0.252781  0.500000  1
  Pd  Pd24  1  0.500123  0.747219  0.500000  1
  Pd  Pd25  1  0.500123  0.500000  0.252781  1
  Pd  Pd26  1  0.500123  0.500000  0.747219  1
  Pd  Pd27  1  0.711591  0.000000  0.000000  1
  Pd  Pd28  1  0.999423  0.290475  0.000000  1
  Pd  Pd29  1  0.999423  0.709525  0.000000  1
  Pd  Pd30  1  0.999423  0.000000  0.290475  1
  Pd  Pd31  1  0.999423  0.000000  0.709525  1
  Pt  Pt32  1  0.290559  0.000000  0.000000  1
