# generated using pymatgen
data_Tb2V3P7IrRh8
_symmetry_space_group_name_H-M   'P 1'
_cell_length_a   3.86409600
_cell_length_b   9.55660465
_cell_length_c   9.56232191
_cell_angle_alpha   119.92259130
_cell_angle_beta   90.00117667
_cell_angle_gamma   89.99897012
_symmetry_Int_Tables_number   1
_chemical_formula_structural   Tb2V3P7IrRh8
_chemical_formula_sum   'Tb2 V3 P7 Ir1 Rh8'
_cell_volume   306.04391549
_cell_formula_units_Z   1
loop_
 _symmetry_equiv_pos_site_id
 _symmetry_equiv_pos_as_xyz
  1  'x, y, z'
loop_
 _atom_site_type_symbol
 _atom_site_label
 _atom_site_symmetry_multiplicity
 _atom_site_fract_x
 _atom_site_fract_y
 _atom_site_fract_z
 _atom_site_occupancy
  Tb  Tb0  1  0.261843  0.666355  0.333462  1
  Tb  Tb1  1  0.761780  0.333215  0.666844  1
  V  V2  1  0.761984  0.093254  0.876527  1
  V  V3  1  0.761955  0.124279  0.217726  1
  V  V4  1  0.761962  0.782020  0.906890  1
  P  P5  1  0.262050  0.000934  0.999013  1
  P  P6  1  0.761913  0.884754  0.597160  1
  P  P7  1  0.761908  0.403596  0.288137  1
  P  P8  1  0.761886  0.711777  0.116435  1
  P  P9  1  0.261837  0.117752  0.412821  1
  P  P10  1  0.261841  0.587160  0.703324  1
  P  P11  1  0.261865  0.295180  0.882896  1
  Ir  Ir12  1  0.261887  0.885899  0.157837  1
  Rh  Rh13  1  0.261947  0.841499  0.727216  1
  Rh  Rh14  1  0.261962  0.273370  0.114372  1
  Rh  Rh15  1  0.761893  0.612403  0.561417  1
  Rh  Rh16  1  0.761909  0.439259  0.051361  1
  Rh  Rh17  1  0.761893  0.948250  0.388167  1
  Rh  Rh18  1  0.261886  0.367604  0.436370  1
  Rh  Rh19  1  0.261897  0.562701  0.929997  1
  Rh  Rh20  1  0.261903  0.068739  0.632027  1
