# generated using pymatgen
data_EuCd5Au3
_symmetry_space_group_name_H-M   'P 1'
_cell_length_a   4.43669100
_cell_length_b   12.93723800
_cell_length_c   14.41444000
_cell_angle_alpha   90.00000000
_cell_angle_beta   90.00000000
_cell_angle_gamma   90.00000000
_symmetry_Int_Tables_number   1
_chemical_formula_structural   EuCd5Au3
_chemical_formula_sum   'Eu4 Cd20 Au12'
_cell_volume   827.36762929
_cell_formula_units_Z   4
loop_
 _symmetry_equiv_pos_site_id
 _symmetry_equiv_pos_as_xyz
  1  'x, y, z'
loop_
 _atom_site_type_symbol
 _atom_site_label
 _atom_site_symmetry_multiplicity
 _atom_site_fract_x
 _atom_site_fract_y
 _atom_site_fract_z
 _atom_site_occupancy
  Eu  Eu0  1  0.250000  0.895781  0.294670  1
  Eu  Eu1  1  0.750000  0.104219  0.705330  1
  Eu  Eu2  1  0.750000  0.395781  0.205330  1
  Eu  Eu3  1  0.250000  0.604219  0.794670  1
  Cd  Cd4  1  0.250000  0.412563  0.998445  1
  Cd  Cd5  1  0.750000  0.587437  0.001555  1
  Cd  Cd6  1  0.750000  0.912563  0.501555  1
  Cd  Cd7  1  0.250000  0.087437  0.498445  1
  Cd  Cd8  1  0.250000  0.608182  0.322939  1
  Cd  Cd9  1  0.750000  0.391818  0.677061  1
  Cd  Cd10  1  0.750000  0.108182  0.177061  1
  Cd  Cd11  1  0.250000  0.891818  0.822939  1
  Cd  Cd12  1  0.250000  0.014012  0.066066  1
  Cd  Cd13  1  0.750000  0.985988  0.933934  1
  Cd  Cd14  1  0.750000  0.514012  0.433934  1
  Cd  Cd15  1  0.250000  0.485988  0.566066  1
  Cd  Cd16  1  0.250000  0.773148  0.028071  1
  Cd  Cd17  1  0.750000  0.226852  0.971929  1
  Cd  Cd18  1  0.750000  0.273148  0.471929  1
  Cd  Cd19  1  0.250000  0.726852  0.528071  1
  Cd  Cd20  1  0.250000  0.188782  0.301821  1
  Cd  Cd21  1  0.750000  0.811218  0.698179  1
  Cd  Cd22  1  0.750000  0.688782  0.198179  1
  Cd  Cd23  1  0.250000  0.311218  0.801821  1
  Au  Au24  1  0.250000  0.573982  0.128653  1
  Au  Au25  1  0.750000  0.426018  0.871347  1
  Au  Au26  1  0.750000  0.073982  0.371347  1
  Au  Au27  1  0.250000  0.926018  0.628653  1
  Au  Au28  1  0.250000  0.232919  0.107769  1
  Au  Au29  1  0.750000  0.767081  0.892231  1
  Au  Au30  1  0.750000  0.732919  0.392231  1
  Au  Au31  1  0.250000  0.267081  0.607769  1
  Au  Au32  1  0.250000  0.387733  0.375752  1
  Au  Au33  1  0.750000  0.612267  0.624248  1
  Au  Au34  1  0.750000  0.887733  0.124248  1
  Au  Au35  1  0.250000  0.112267  0.875752  1
