# generated using pymatgen
data_Dy2YHo5(CdPt)2
_symmetry_space_group_name_H-M   'P 1'
_cell_length_a   9.67564131
_cell_length_b   9.67564112
_cell_length_c   9.67630200
_cell_angle_alpha   59.99774734
_cell_angle_beta   59.99774800
_cell_angle_gamma   60.00450774
_symmetry_Int_Tables_number   1
_chemical_formula_structural   Dy2YHo5(CdPt)2
_chemical_formula_sum   'Dy4 Y2 Ho10 Cd4 Pt4'
_cell_volume   640.55132523
_cell_formula_units_Z   2
loop_
 _symmetry_equiv_pos_site_id
 _symmetry_equiv_pos_as_xyz
  1  'x, y, z'
loop_
 _atom_site_type_symbol
 _atom_site_label
 _atom_site_symmetry_multiplicity
 _atom_site_fract_x
 _atom_site_fract_y
 _atom_site_fract_z
 _atom_site_occupancy
  Dy  Dy0  1  0.935872  0.564128  0.564128  1
  Dy  Dy1  1  0.564128  0.935872  0.935872  1
  Dy  Dy2  1  0.564128  0.935872  0.564128  1
  Dy  Dy3  1  0.935872  0.564128  0.935872  1
  Y  Y4  1  0.564239  0.564239  0.935761  1
  Y  Y5  1  0.935761  0.935761  0.564239  1
  Ho  Ho6  1  0.352240  0.352240  0.352294  1
  Ho  Ho7  1  0.352240  0.352240  0.943226  1
  Ho  Ho8  1  0.352294  0.943226  0.352240  1
  Ho  Ho9  1  0.943226  0.352294  0.352240  1
  Ho  Ho10  1  0.810697  0.189303  0.189303  1
  Ho  Ho11  1  0.189303  0.810697  0.810697  1
  Ho  Ho12  1  0.189303  0.810697  0.189303  1
  Ho  Ho13  1  0.810697  0.189303  0.810697  1
  Ho  Ho14  1  0.189291  0.189291  0.810709  1
  Ho  Ho15  1  0.810709  0.810709  0.189291  1
  Cd  Cd16  1  0.581789  0.581789  0.581806  1
  Cd  Cd17  1  0.581789  0.581789  0.254616  1
  Cd  Cd18  1  0.581806  0.254616  0.581789  1
  Cd  Cd19  1  0.254616  0.581806  0.581789  1
  Pt  Pt20  1  0.143305  0.143305  0.143292  1
  Pt  Pt21  1  0.143305  0.143305  0.570099  1
  Pt  Pt22  1  0.143292  0.570099  0.143305  1
  Pt  Pt23  1  0.570099  0.143292  0.143305  1
