# generated using pymatgen
data_PrNd3Ga18(RuPt)3
_symmetry_space_group_name_H-M   'P 1'
_cell_length_a   7.67717882
_cell_length_b   7.67820403
_cell_length_c   9.67029524
_cell_angle_alpha   89.96808121
_cell_angle_beta   89.98378614
_cell_angle_gamma   119.31314926
_symmetry_Int_Tables_number   1
_chemical_formula_structural   PrNd3Ga18(RuPt)3
_chemical_formula_sum   'Pr1 Nd3 Ga18 Ru3 Pt3'
_cell_volume   497.04524121
_cell_formula_units_Z   1
loop_
 _symmetry_equiv_pos_site_id
 _symmetry_equiv_pos_as_xyz
  1  'x, y, z'
loop_
 _atom_site_type_symbol
 _atom_site_label
 _atom_site_symmetry_multiplicity
 _atom_site_fract_x
 _atom_site_fract_y
 _atom_site_fract_z
 _atom_site_occupancy
  Pr  Pr0  1  0.999553  0.670255  0.250523  1
  Nd  Nd1  1  0.003208  0.332410  0.749558  1
  Nd  Nd2  1  0.667512  0.996728  0.250494  1
  Nd  Nd3  1  0.329674  0.000349  0.749476  1
  Ga  Ga4  1  0.123459  0.125686  0.250388  1
  Ga  Ga5  1  0.874634  0.876730  0.749595  1
  Ga  Ga6  1  0.002540  0.329916  0.079122  1
  Ga  Ga7  1  0.996245  0.670057  0.919698  1
  Ga  Ga8  1  0.990790  0.664423  0.578175  1
  Ga  Ga9  1  0.335886  0.009472  0.422171  1
  Ga  Ga10  1  0.998388  0.331032  0.421947  1
  Ga  Ga11  1  0.668646  0.001617  0.578172  1
  Ga  Ga12  1  0.669824  0.997479  0.920740  1
  Ga  Ga13  1  0.330284  0.004038  0.079934  1
  Ga  Ga14  1  0.331751  0.325395  0.556994  1
  Ga  Ga15  1  0.674362  0.668318  0.443173  1
  Ga  Ga16  1  0.673041  0.673164  0.060678  1
  Ga  Ga17  1  0.326858  0.326648  0.939099  1
  Ga  Ga18  1  0.341984  0.541501  0.250314  1
  Ga  Ga19  1  0.656523  0.451590  0.745708  1
  Ga  Ga20  1  0.548011  0.343146  0.254319  1
  Ga  Ga21  1  0.458503  0.658253  0.749669  1
  Ru  Ru22  1  0.671055  0.328712  0.500179  1
  Ru  Ru23  1  0.999949  0.000142  0.999832  1
  Ru  Ru24  1  0.999125  0.001027  0.500150  1
  Pt  Pt25  1  0.670351  0.329528  0.999907  1
  Pt  Pt26  1  0.329391  0.670668  0.999906  1
  Pt  Pt27  1  0.328458  0.671715  0.500078  1
