# generated using pymatgen
data_TbY3Al18Pd5W
_symmetry_space_group_name_H-M   'P 1'
_cell_length_a   7.64693005
_cell_length_b   7.64678704
_cell_length_c   9.56330008
_cell_angle_alpha   89.63768043
_cell_angle_beta   89.64391144
_cell_angle_gamma   118.91127775
_symmetry_Int_Tables_number   1
_chemical_formula_structural   TbY3Al18Pd5W
_chemical_formula_sum   'Tb1 Y3 Al18 Pd5 W1'
_cell_volume   489.47690011
_cell_formula_units_Z   1
loop_
 _symmetry_equiv_pos_site_id
 _symmetry_equiv_pos_as_xyz
  1  'x, y, z'
loop_
 _atom_site_type_symbol
 _atom_site_label
 _atom_site_symmetry_multiplicity
 _atom_site_fract_x
 _atom_site_fract_y
 _atom_site_fract_z
 _atom_site_occupancy
  Tb  Tb0  1  0.995042  0.678263  0.247127  1
  Y  Y1  1  0.004939  0.321685  0.752933  1
  Y  Y2  1  0.678276  0.995099  0.247063  1
  Y  Y3  1  0.321727  0.004988  0.752903  1
  Al  Al4  1  0.135039  0.135068  0.249107  1
  Al  Al5  1  0.865008  0.865032  0.750886  1
  Al  Al6  1  0.003001  0.335297  0.075647  1
  Al  Al7  1  0.997005  0.664633  0.924287  1
  Al  Al8  1  0.998251  0.661108  0.577744  1
  Al  Al9  1  0.338903  0.001747  0.422246  1
  Al  Al10  1  0.001721  0.338871  0.422234  1
  Al  Al11  1  0.661131  0.998270  0.577760  1
  Al  Al12  1  0.664643  0.997019  0.924343  1
  Al  Al13  1  0.335469  0.003082  0.075619  1
  Al  Al14  1  0.333673  0.333675  0.554917  1
  Al  Al15  1  0.666299  0.666321  0.445115  1
  Al  Al16  1  0.666579  0.666660  0.052354  1
  Al  Al17  1  0.333319  0.333324  0.947603  1
  Al  Al18  1  0.341860  0.550133  0.250243  1
  Al  Al19  1  0.658115  0.449844  0.749760  1
  Al  Al20  1  0.550150  0.341900  0.250243  1
  Al  Al21  1  0.449845  0.658142  0.749748  1
  Pd  Pd22  1  0.672212  0.327706  0.999955  1
  Pd  Pd23  1  0.327793  0.672253  0.999954  1
  Pd  Pd24  1  0.328020  0.672060  0.500059  1
  Pd  Pd25  1  0.671971  0.327832  0.500069  1
  Pd  Pd26  1  0.000005  0.000051  0.500055  1
  W  W27  1  0.000004  0.999937  0.000027  1
