# generated using pymatgen
data_Tb3Nd(Sn5Rh3)2
_symmetry_space_group_name_H-M   'P 1'
_cell_length_a   13.51490368
_cell_length_b   13.51490358
_cell_length_c   7.22749430
_cell_angle_alpha   89.96743982
_cell_angle_beta   90.03256126
_cell_angle_gamma   160.89738224
_symmetry_Int_Tables_number   1
_chemical_formula_structural   Tb3Nd(Sn5Rh3)2
_chemical_formula_sum   'Tb3 Nd1 Sn10 Rh6'
_cell_volume   432.02406678
_cell_formula_units_Z   1
loop_
 _symmetry_equiv_pos_site_id
 _symmetry_equiv_pos_as_xyz
  1  'x, y, z'
loop_
 _atom_site_type_symbol
 _atom_site_label
 _atom_site_symmetry_multiplicity
 _atom_site_fract_x
 _atom_site_fract_y
 _atom_site_fract_z
 _atom_site_occupancy
  Tb  Tb0  1  0.828764  0.171236  0.255848  1
  Tb  Tb1  1  0.476241  0.523759  0.737400  1
  Tb  Tb2  1  0.523407  0.476593  0.236827  1
  Nd  Nd3  1  0.172083  0.827917  0.755294  1
  Sn  Sn4  1  0.879513  0.120487  0.732160  1
  Sn  Sn5  1  0.120659  0.879341  0.232917  1
  Sn  Sn6  1  0.704758  0.295242  0.049858  1
  Sn  Sn7  1  0.295601  0.704399  0.547412  1
  Sn  Sn8  1  0.595801  0.404199  0.608774  1
  Sn  Sn9  1  0.403277  0.596723  0.109789  1
  Sn  Sn10  1  0.952238  0.047762  0.400956  1
  Sn  Sn11  1  0.047364  0.952636  0.900903  1
  Sn  Sn12  1  0.290849  0.709151  0.978889  1
  Sn  Sn13  1  0.709945  0.290055  0.475894  1
  Rh  Rh14  1  0.050130  0.949870  0.516581  1
  Rh  Rh15  1  0.949371  0.050629  0.017480  1
  Rh  Rh16  1  0.777420  0.222580  0.765594  1
  Rh  Rh17  1  0.223479  0.776521  0.265711  1
  Rh  Rh18  1  0.394464  0.605536  0.482674  1
  Rh  Rh19  1  0.604634  0.395366  0.985040  1
