# generated using pymatgen
data_EuHoF6
_symmetry_space_group_name_H-M   'P 1'
_cell_length_a   4.41505700
_cell_length_b   6.55701200
_cell_length_c   6.99513300
_cell_angle_alpha   90.00000000
_cell_angle_beta   90.00000000
_cell_angle_gamma   90.00000000
_symmetry_Int_Tables_number   1
_chemical_formula_structural   EuHoF6
_chemical_formula_sum   'Eu2 Ho2 F12'
_cell_volume   202.50617449
_cell_formula_units_Z   2
loop_
 _symmetry_equiv_pos_site_id
 _symmetry_equiv_pos_as_xyz
  1  'x, y, z'
loop_
 _atom_site_type_symbol
 _atom_site_label
 _atom_site_symmetry_multiplicity
 _atom_site_fract_x
 _atom_site_fract_y
 _atom_site_fract_z
 _atom_site_occupancy
  Eu  Eu0  1  0.557397  0.130633  0.750000  1
  Eu  Eu1  1  0.057397  0.369367  0.250000  1
  Ho  Ho2  1  0.933400  0.633388  0.750000  1
  Ho  Ho3  1  0.433400  0.866612  0.250000  1
  F  F4  1  0.390636  0.158190  0.432352  1
  F  F5  1  0.890636  0.341810  0.567648  1
  F  F6  1  0.116467  0.670447  0.061726  1
  F  F7  1  0.616467  0.829553  0.938274  1
  F  F8  1  0.578413  0.528194  0.250000  1
  F  F9  1  0.078413  0.971806  0.750000  1
  F  F10  1  0.916583  0.012949  0.250000  1
  F  F11  1  0.416583  0.487051  0.750000  1
  F  F12  1  0.390636  0.158190  0.067648  1
  F  F13  1  0.890636  0.341810  0.932352  1
  F  F14  1  0.116467  0.670447  0.438274  1
  F  F15  1  0.616467  0.829553  0.561726  1
