# generated using pymatgen
data_TbY6(HoBi2)3
_symmetry_space_group_name_H-M   'P 1'
_cell_length_a   9.21594800
_cell_length_b   9.21594706
_cell_length_c   6.35791100
_cell_angle_alpha   90.00000000
_cell_angle_beta   90.00000000
_cell_angle_gamma   120.00000338
_symmetry_Int_Tables_number   1
_chemical_formula_structural   TbY6(HoBi2)3
_chemical_formula_sum   'Tb1 Y6 Ho3 Bi6'
_cell_volume   467.65442493
_cell_formula_units_Z   1
loop_
 _symmetry_equiv_pos_site_id
 _symmetry_equiv_pos_as_xyz
  1  'x, y, z'
loop_
 _atom_site_type_symbol
 _atom_site_label
 _atom_site_symmetry_multiplicity
 _atom_site_fract_x
 _atom_site_fract_y
 _atom_site_fract_z
 _atom_site_occupancy
  Tb  Tb0  1  0.666667  0.333333  0.500000  1
  Y  Y1  1  0.755575  0.755559  0.750065  1
  Y  Y2  1  0.244441  0.000016  0.750065  1
  Y  Y3  1  0.999984  0.244425  0.750065  1
  Y  Y4  1  0.244441  0.244425  0.249935  1
  Y  Y5  1  0.755575  0.000016  0.249935  1
  Y  Y6  1  0.999984  0.755559  0.249935  1
  Ho  Ho7  1  0.666667  0.333333  0.000000  1
  Ho  Ho8  1  0.333333  0.666667  0.000000  1
  Ho  Ho9  1  0.333333  0.666667  0.500000  1
  Bi  Bi10  1  0.387999  0.388383  0.750375  1
  Bi  Bi11  1  0.611617  0.999615  0.750375  1
  Bi  Bi12  1  0.000385  0.612001  0.750375  1
  Bi  Bi13  1  0.611617  0.612001  0.249625  1
  Bi  Bi14  1  0.387999  0.999615  0.249625  1
  Bi  Bi15  1  0.000385  0.388383  0.249625  1
