# generated using pymatgen
data_Tb3Co8TcP6
_symmetry_space_group_name_H-M   'P 1'
_cell_length_a   3.72593600
_cell_length_b   10.55518800
_cell_length_c   12.28566500
_cell_angle_alpha   90.00000000
_cell_angle_beta   90.00000000
_cell_angle_gamma   90.00000000
_symmetry_Int_Tables_number   1
_chemical_formula_structural   Tb3Co8TcP6
_chemical_formula_sum   'Tb6 Co16 Tc2 P12'
_cell_volume   483.17007972
_cell_formula_units_Z   2
loop_
 _symmetry_equiv_pos_site_id
 _symmetry_equiv_pos_as_xyz
  1  'x, y, z'
loop_
 _atom_site_type_symbol
 _atom_site_label
 _atom_site_symmetry_multiplicity
 _atom_site_fract_x
 _atom_site_fract_y
 _atom_site_fract_z
 _atom_site_occupancy
  Tb  Tb0  1  0.000000  0.500000  0.523573  1
  Tb  Tb1  1  0.500000  0.000000  0.476427  1
  Tb  Tb2  1  0.500000  0.817575  0.205765  1
  Tb  Tb3  1  0.500000  0.182425  0.205765  1
  Tb  Tb4  1  0.000000  0.682425  0.794235  1
  Tb  Tb5  1  0.000000  0.317575  0.794235  1
  Co  Co6  1  0.500000  0.500000  0.703239  1
  Co  Co7  1  0.000000  0.000000  0.296761  1
  Co  Co8  1  0.000000  0.500000  0.987445  1
  Co  Co9  1  0.500000  0.000000  0.012555  1
  Co  Co10  1  0.500000  0.332254  0.990458  1
  Co  Co11  1  0.500000  0.667746  0.990458  1
  Co  Co12  1  0.000000  0.167746  0.009542  1
  Co  Co13  1  0.000000  0.832254  0.009542  1
  Co  Co14  1  0.500000  0.296611  0.430880  1
  Co  Co15  1  0.500000  0.703389  0.430880  1
  Co  Co16  1  0.000000  0.203389  0.569120  1
  Co  Co17  1  0.000000  0.796611  0.569120  1
  Co  Co18  1  0.500000  0.879392  0.708009  1
  Co  Co19  1  0.500000  0.120608  0.708009  1
  Co  Co20  1  0.000000  0.620608  0.291991  1
  Co  Co21  1  0.000000  0.379392  0.291991  1
  Tc  Tc22  1  0.500000  0.500000  0.156312  1
  Tc  Tc23  1  0.000000  0.000000  0.843688  1
  P  P24  1  0.500000  0.500000  0.881908  1
  P  P25  1  0.000000  0.000000  0.118092  1
  P  P26  1  0.500000  0.500000  0.347918  1
  P  P27  1  0.000000  0.000000  0.652082  1
  P  P28  1  0.500000  0.310886  0.615804  1
  P  P29  1  0.500000  0.689114  0.615804  1
  P  P30  1  0.000000  0.189114  0.384196  1
  P  P31  1  0.000000  0.810886  0.384196  1
  P  P32  1  0.500000  0.846543  0.893126  1
  P  P33  1  0.500000  0.153457  0.893126  1
  P  P34  1  0.000000  0.653457  0.106874  1
  P  P35  1  0.000000  0.346543  0.106874  1
