# generated using pymatgen
data_Rb2U(OF2)2
_symmetry_space_group_name_H-M   'P 1'
_cell_length_a   8.19979720
_cell_length_b   8.19979771
_cell_length_c   7.57637800
_cell_angle_alpha   90.00000000
_cell_angle_beta   90.00000000
_cell_angle_gamma   134.93321361
_symmetry_Int_Tables_number   1
_chemical_formula_structural   Rb2U(OF2)2
_chemical_formula_sum   'Rb4 U2 O4 F8'
_cell_volume   360.62724089
_cell_formula_units_Z   2
loop_
 _symmetry_equiv_pos_site_id
 _symmetry_equiv_pos_as_xyz
  1  'x, y, z'
loop_
 _atom_site_type_symbol
 _atom_site_label
 _atom_site_symmetry_multiplicity
 _atom_site_fract_x
 _atom_site_fract_y
 _atom_site_fract_z
 _atom_site_occupancy
  Rb  Rb0  1  0.774843  0.225157  0.498063  1
  Rb  Rb1  1  0.225157  0.774843  0.998063  1
  Rb  Rb2  1  0.555985  0.444015  0.020299  1
  Rb  Rb3  1  0.444015  0.555985  0.520299  1
  U  U4  1  0.885288  0.114712  0.997021  1
  U  U5  1  0.114712  0.885288  0.497021  1
  O  O6  1  0.893237  0.650946  0.332850  1
  O  O7  1  0.106763  0.349054  0.832850  1
  O  O8  1  0.650946  0.893237  0.832850  1
  O  O9  1  0.349054  0.106763  0.332850  1
  F  F10  1  0.740083  0.259917  0.021485  1
  F  F11  1  0.259917  0.740083  0.521485  1
  F  F12  1  0.122728  0.357477  0.200841  1
  F  F13  1  0.877272  0.642523  0.700841  1
  F  F14  1  0.357477  0.122728  0.700841  1
  F  F15  1  0.642523  0.877272  0.200841  1
  F  F16  1  0.970589  0.029411  0.501751  1
  F  F17  1  0.029411  0.970589  0.001751  1
