# generated using pymatgen
data_DyIrF7
_symmetry_space_group_name_H-M   'P 1'
_cell_length_a   5.54253500
_cell_length_b   8.91884020
_cell_length_c   11.98525446
_cell_angle_alpha   62.64699507
_cell_angle_beta   90.00000000
_cell_angle_gamma   90.00000000
_symmetry_Int_Tables_number   1
_chemical_formula_structural   DyIrF7
_chemical_formula_sum   'Dy4 Ir4 F28'
_cell_volume   526.22467996
_cell_formula_units_Z   4
loop_
 _symmetry_equiv_pos_site_id
 _symmetry_equiv_pos_as_xyz
  1  'x, y, z'
loop_
 _atom_site_type_symbol
 _atom_site_label
 _atom_site_symmetry_multiplicity
 _atom_site_fract_x
 _atom_site_fract_y
 _atom_site_fract_z
 _atom_site_occupancy
  Dy  Dy0  1  0.760172  0.813575  0.765563  1
  Dy  Dy1  1  0.260172  0.186425  0.734437  1
  Dy  Dy2  1  0.239828  0.186425  0.234437  1
  Dy  Dy3  1  0.739828  0.813575  0.265563  1
  Ir  Ir4  1  0.757847  0.273215  0.956316  1
  Ir  Ir5  1  0.257847  0.726785  0.543684  1
  Ir  Ir6  1  0.242153  0.726785  0.043684  1
  Ir  Ir7  1  0.742153  0.273215  0.456316  1
  F  F8  1  0.439067  0.705401  0.915134  1
  F  F9  1  0.939067  0.294599  0.584866  1
  F  F10  1  0.560933  0.294599  0.084866  1
  F  F11  1  0.060933  0.705401  0.415134  1
  F  F12  1  0.441194  0.277451  0.544236  1
  F  F13  1  0.941194  0.722549  0.955764  1
  F  F14  1  0.558806  0.722549  0.455764  1
  F  F15  1  0.058806  0.277451  0.044236  1
  F  F16  1  0.772885  0.518452  0.860143  1
  F  F17  1  0.272885  0.481548  0.639857  1
  F  F18  1  0.227115  0.481548  0.139857  1
  F  F19  1  0.727115  0.518452  0.360143  1
  F  F20  1  0.755455  0.028024  0.049927  1
  F  F21  1  0.255455  0.971976  0.450073  1
  F  F22  1  0.244545  0.971976  0.950073  1
  F  F23  1  0.744545  0.028024  0.549927  1
  F  F24  1  0.965084  0.727473  0.637244  1
  F  F25  1  0.465084  0.272527  0.862756  1
  F  F26  1  0.034916  0.272527  0.362756  1
  F  F27  1  0.534916  0.727473  0.137244  1
  F  F28  1  0.049303  0.746496  0.174598  1
  F  F29  1  0.549303  0.253504  0.325402  1
  F  F30  1  0.950697  0.253504  0.825402  1
  F  F31  1  0.450697  0.746496  0.674598  1
  F  F32  1  0.415917  0.970342  0.231813  1
  F  F33  1  0.915917  0.029658  0.268187  1
  F  F34  1  0.584083  0.029658  0.768187  1
  F  F35  1  0.084083  0.970342  0.731813  1
