# generated using pymatgen
data_Na2YbY(Al3Pd)6
_symmetry_space_group_name_H-M   'P 1'
_cell_length_a   7.64749023
_cell_length_b   7.63745936
_cell_length_c   9.51101400
_cell_angle_alpha   90.00000000
_cell_angle_beta   90.00000000
_cell_angle_gamma   119.66359254
_symmetry_Int_Tables_number   1
_chemical_formula_structural   Na2YbY(Al3Pd)6
_chemical_formula_sum   'Na2 Yb1 Y1 Al18 Pd6'
_cell_volume   482.71137890
_cell_formula_units_Z   1
loop_
 _symmetry_equiv_pos_site_id
 _symmetry_equiv_pos_as_xyz
  1  'x, y, z'
loop_
 _atom_site_type_symbol
 _atom_site_label
 _atom_site_symmetry_multiplicity
 _atom_site_fract_x
 _atom_site_fract_y
 _atom_site_fract_z
 _atom_site_occupancy
  Na  Na0  1  0.007793  0.329277  0.750000  1
  Na  Na1  1  0.326752  0.004489  0.750000  1
  Yb  Yb2  1  0.996077  0.668671  0.250000  1
  Y  Y3  1  0.668863  0.999422  0.250000  1
  Al  Al4  1  0.129488  0.132088  0.250000  1
  Al  Al5  1  0.871486  0.869858  0.750000  1
  Al  Al6  1  0.001985  0.334925  0.069391  1
  Al  Al7  1  0.003501  0.665252  0.919807  1
  Al  Al8  1  0.003501  0.665252  0.580193  1
  Al  Al9  1  0.333209  0.001025  0.430399  1
  Al  Al10  1  0.001985  0.334925  0.430609  1
  Al  Al11  1  0.665690  0.004492  0.582961  1
  Al  Al12  1  0.665690  0.004492  0.917039  1
  Al  Al13  1  0.333209  0.001025  0.069601  1
  Al  Al14  1  0.330818  0.330444  0.558947  1
  Al  Al15  1  0.666473  0.666726  0.453222  1
  Al  Al16  1  0.666473  0.666726  0.046778  1
  Al  Al17  1  0.330818  0.330444  0.941053  1
  Al  Al18  1  0.341644  0.544231  0.250000  1
  Al  Al19  1  0.660690  0.448875  0.750000  1
  Al  Al20  1  0.540163  0.335577  0.250000  1
  Al  Al21  1  0.451513  0.658882  0.750000  1
  Pd  Pd22  1  0.672640  0.330550  0.003181  1
  Pd  Pd23  1  0.331801  0.673490  0.002520  1
  Pd  Pd24  1  0.331801  0.673490  0.497480  1
  Pd  Pd25  1  0.672640  0.330550  0.496819  1
  Pd  Pd26  1  0.996648  0.997413  0.002313  1
  Pd  Pd27  1  0.996648  0.997413  0.497687  1
