# generated using pymatgen
data_TbPrYAl7Cu2
_symmetry_space_group_name_H-M   'P 1'
_cell_length_a   9.14583768
_cell_length_b   9.14583851
_cell_length_c   9.14583700
_cell_angle_alpha   35.17758492
_cell_angle_beta   35.17758878
_cell_angle_gamma   35.17758276
_symmetry_Int_Tables_number   1
_chemical_formula_structural   TbPrYAl7Cu2
_chemical_formula_sum   'Tb1 Pr1 Y1 Al7 Cu2'
_cell_volume   226.78311876
_cell_formula_units_Z   1
loop_
 _symmetry_equiv_pos_site_id
 _symmetry_equiv_pos_as_xyz
  1  'x, y, z'
loop_
 _atom_site_type_symbol
 _atom_site_label
 _atom_site_symmetry_multiplicity
 _atom_site_fract_x
 _atom_site_fract_y
 _atom_site_fract_z
 _atom_site_occupancy
  Tb  Tb0  1  0.857801  0.857801  0.857801  1
  Pr  Pr1  1  0.999985  0.999985  0.999985  1
  Y  Y2  1  0.142190  0.142190  0.142190  1
  Al  Al3  1  0.417611  0.417611  0.926397  1
  Al  Al4  1  0.926397  0.417611  0.417611  1
  Al  Al5  1  0.417611  0.926397  0.417611  1
  Al  Al6  1  0.499995  0.499995  0.499995  1
  Al  Al7  1  0.582398  0.073596  0.582398  1
  Al  Al8  1  0.073596  0.582398  0.582398  1
  Al  Al9  1  0.582398  0.582398  0.073596  1
  Cu  Cu10  1  0.664597  0.664597  0.664597  1
  Cu  Cu11  1  0.335421  0.335421  0.335421  1
