# generated using pymatgen
data_UNb(Co7B2)3
_symmetry_space_group_name_H-M   'P 1'
_cell_length_a   7.46868100
_cell_length_b   7.46868051
_cell_length_c   7.46868100
_cell_angle_alpha   119.99999773
_cell_angle_beta   90.00000000
_cell_angle_gamma   119.99999773
_symmetry_Int_Tables_number   1
_chemical_formula_structural   UNb(Co7B2)3
_chemical_formula_sum   'U1 Nb1 Co21 B6'
_cell_volume   294.58914153
_cell_formula_units_Z   1
loop_
 _symmetry_equiv_pos_site_id
 _symmetry_equiv_pos_as_xyz
  1  'x, y, z'
loop_
 _atom_site_type_symbol
 _atom_site_label
 _atom_site_symmetry_multiplicity
 _atom_site_fract_x
 _atom_site_fract_y
 _atom_site_fract_z
 _atom_site_occupancy
  U  U0  1  0.250000  0.499999  0.749999  1
  Nb  Nb1  1  0.749999  0.499999  0.250000  1
  Co  Co2  1  0.000000  0.000000  0.000000  1
  Co  Co3  1  0.338131  0.002777  0.001389  1
  Co  Co4  1  0.664644  0.002777  0.001389  1
  Co  Co5  1  0.998611  0.336743  0.001389  1
  Co  Co6  1  0.338131  0.336743  0.001389  1
  Co  Co7  1  0.998611  0.663255  0.001389  1
  Co  Co8  1  0.664644  0.663255  0.001389  1
  Co  Co9  1  0.383081  0.766161  0.149241  1
  Co  Co10  1  0.998611  0.997223  0.335354  1
  Co  Co11  1  0.998611  0.336743  0.335354  1
  Co  Co12  1  0.338131  0.336743  0.335354  1
  Co  Co13  1  0.616655  0.233309  0.383346  1
  Co  Co14  1  0.150036  0.766691  0.383346  1
  Co  Co15  1  0.616655  0.766691  0.383346  1
  Co  Co16  1  0.383081  0.233839  0.616920  1
  Co  Co17  1  0.850759  0.233839  0.616920  1
  Co  Co18  1  0.383081  0.766161  0.616920  1
  Co  Co19  1  0.998611  0.997223  0.661867  1
  Co  Co20  1  0.998611  0.663255  0.661867  1
  Co  Co21  1  0.664644  0.663255  0.661867  1
  Co  Co22  1  0.616655  0.233309  0.849964  1
  B  B23  1  0.274434  0.000000  0.274434  1
  B  B24  1  0.274434  0.548868  0.274434  1
  B  B25  1  0.725566  0.000000  0.274434  1
  B  B26  1  0.274434  0.000000  0.725566  1
  B  B27  1  0.725566  0.000000  0.725566  1
  B  B28  1  0.725566  0.451133  0.725566  1
