# generated using pymatgen
data_Pr2YTlIn4
_symmetry_space_group_name_H-M   'P 1'
_cell_length_a   6.64052200
_cell_length_b   10.62452700
_cell_length_c   12.55044600
_cell_angle_alpha   90.00000000
_cell_angle_beta   90.00000000
_cell_angle_gamma   90.00000000
_symmetry_Int_Tables_number   1
_chemical_formula_structural   Pr2YTlIn4
_chemical_formula_sum   'Pr8 Y4 Tl4 In16'
_cell_volume   885.46415268
_cell_formula_units_Z   4
loop_
 _symmetry_equiv_pos_site_id
 _symmetry_equiv_pos_as_xyz
  1  'x, y, z'
loop_
 _atom_site_type_symbol
 _atom_site_label
 _atom_site_symmetry_multiplicity
 _atom_site_fract_x
 _atom_site_fract_y
 _atom_site_fract_z
 _atom_site_occupancy
  Pr  Pr0  1  0.887569  0.493249  0.145457  1
  Pr  Pr1  1  0.612431  0.006751  0.645457  1
  Pr  Pr2  1  0.112431  0.993249  0.854543  1
  Pr  Pr3  1  0.387569  0.506751  0.354543  1
  Pr  Pr4  1  0.112431  0.506751  0.854543  1
  Pr  Pr5  1  0.387569  0.993249  0.354543  1
  Pr  Pr6  1  0.887569  0.006751  0.145457  1
  Pr  Pr7  1  0.612431  0.493249  0.645457  1
  Y  Y8  1  0.351252  0.750000  0.061312  1
  Y  Y9  1  0.148748  0.750000  0.561312  1
  Y  Y10  1  0.648748  0.250000  0.938688  1
  Y  Y11  1  0.851252  0.250000  0.438688  1
  Tl  Tl12  1  0.611118  0.750000  0.503979  1
  Tl  Tl13  1  0.888882  0.750000  0.003979  1
  Tl  Tl14  1  0.388882  0.250000  0.496021  1
  Tl  Tl15  1  0.111118  0.250000  0.996021  1
  In  In16  1  0.651401  0.750000  0.246465  1
  In  In17  1  0.848599  0.750000  0.746465  1
  In  In18  1  0.348599  0.250000  0.753535  1
  In  In19  1  0.151401  0.250000  0.253535  1
  In  In20  1  0.111650  0.750000  0.287551  1
  In  In21  1  0.388350  0.750000  0.787551  1
  In  In22  1  0.888350  0.250000  0.712449  1
  In  In23  1  0.611650  0.250000  0.212449  1
  In  In24  1  0.875718  0.544726  0.404875  1
  In  In25  1  0.624282  0.955274  0.904875  1
  In  In26  1  0.124282  0.044726  0.595125  1
  In  In27  1  0.375718  0.455274  0.095125  1
  In  In28  1  0.124282  0.455274  0.595125  1
  In  In29  1  0.375718  0.044726  0.095125  1
  In  In30  1  0.875718  0.955274  0.404875  1
  In  In31  1  0.624282  0.544726  0.904875  1
