# generated using pymatgen
data_DyLu5TcRu
_symmetry_space_group_name_H-M   'P 1'
_cell_length_a   6.16379500
_cell_length_b   7.30534400
_cell_length_c   8.88734600
_cell_angle_alpha   90.00000000
_cell_angle_beta   90.00000000
_cell_angle_gamma   90.00000000
_symmetry_Int_Tables_number   1
_chemical_formula_structural   DyLu5TcRu
_chemical_formula_sum   'Dy2 Lu10 Tc2 Ru2'
_cell_volume   400.18512866
_cell_formula_units_Z   2
loop_
 _symmetry_equiv_pos_site_id
 _symmetry_equiv_pos_as_xyz
  1  'x, y, z'
loop_
 _atom_site_type_symbol
 _atom_site_label
 _atom_site_symmetry_multiplicity
 _atom_site_fract_x
 _atom_site_fract_y
 _atom_site_fract_z
 _atom_site_occupancy
  Dy  Dy0  1  0.878211  0.537815  0.250000  1
  Dy  Dy1  1  0.621789  0.037815  0.250000  1
  Lu  Lu2  1  0.338517  0.676130  0.061912  1
  Lu  Lu3  1  0.161483  0.176130  0.438088  1
  Lu  Lu4  1  0.660674  0.324860  0.563645  1
  Lu  Lu5  1  0.839326  0.824860  0.936355  1
  Lu  Lu6  1  0.660674  0.324860  0.936355  1
  Lu  Lu7  1  0.839326  0.824860  0.563645  1
  Lu  Lu8  1  0.338517  0.676130  0.438088  1
  Lu  Lu9  1  0.161483  0.176130  0.061912  1
  Lu  Lu10  1  0.130369  0.458150  0.750000  1
  Lu  Lu11  1  0.369631  0.958150  0.750000  1
  Tc  Tc12  1  0.041422  0.883763  0.250000  1
  Tc  Tc13  1  0.458578  0.383763  0.250000  1
  Ru  Ru14  1  0.961584  0.118288  0.750000  1
  Ru  Ru15  1  0.538416  0.618288  0.750000  1
