# generated using pymatgen
data_Pu2P2O11
_symmetry_space_group_name_H-M   'P 1'
_cell_length_a   6.96574200
_cell_length_b   7.98274365
_cell_length_c   9.85702406
_cell_angle_alpha   71.68972526
_cell_angle_beta   90.00000000
_cell_angle_gamma   90.00000000
_symmetry_Int_Tables_number   1
_chemical_formula_structural   Pu2P2O11
_chemical_formula_sum   'Pu4 P4 O22'
_cell_volume   520.35592202
_cell_formula_units_Z   2
loop_
 _symmetry_equiv_pos_site_id
 _symmetry_equiv_pos_as_xyz
  1  'x, y, z'
loop_
 _atom_site_type_symbol
 _atom_site_label
 _atom_site_symmetry_multiplicity
 _atom_site_fract_x
 _atom_site_fract_y
 _atom_site_fract_z
 _atom_site_occupancy
  Pu  Pu0  1  0.750000  0.811310  0.871191  1
  Pu  Pu1  1  0.750000  0.630088  0.301347  1
  Pu  Pu2  1  0.250000  0.369912  0.698653  1
  Pu  Pu3  1  0.250000  0.188690  0.128809  1
  P  P4  1  0.250000  0.919683  0.893746  1
  P  P5  1  0.750000  0.483234  0.678344  1
  P  P6  1  0.250000  0.516766  0.321656  1
  P  P7  1  0.750000  0.080317  0.106254  1
  O  O8  1  0.750000  0.954705  0.692994  1
  O  O9  1  0.070739  0.819374  0.877614  1
  O  O10  1  0.429261  0.819374  0.877614  1
  O  O11  1  0.750000  0.894397  0.236975  1
  O  O12  1  0.250000  0.967858  0.032885  1
  O  O13  1  0.750000  0.579941  0.790672  1
  O  O14  1  0.250000  0.605146  0.644943  1
  O  O15  1  0.750000  0.619083  0.524811  1
  O  O16  1  0.067945  0.634874  0.302291  1
  O  O17  1  0.432055  0.634874  0.302291  1
  O  O18  1  0.750000  0.663949  0.059971  1
  O  O19  1  0.250000  0.336051  0.940029  1
  O  O20  1  0.567945  0.365126  0.697709  1
  O  O21  1  0.932055  0.365126  0.697709  1
  O  O22  1  0.250000  0.380917  0.475189  1
  O  O23  1  0.750000  0.394854  0.355057  1
  O  O24  1  0.250000  0.420059  0.209328  1
  O  O25  1  0.750000  0.032142  0.967115  1
  O  O26  1  0.250000  0.105603  0.763025  1
  O  O27  1  0.570739  0.180626  0.122386  1
  O  O28  1  0.929261  0.180626  0.122386  1
  O  O29  1  0.250000  0.045295  0.307006  1
