# generated using pymatgen
data_TbErAl3Cu7
_symmetry_space_group_name_H-M   'P 1'
_cell_length_a   4.18507100
_cell_length_b   5.08612975
_cell_length_c   8.84355276
_cell_angle_alpha   90.76178678
_cell_angle_beta   90.00000000
_cell_angle_gamma   90.00000000
_symmetry_Int_Tables_number   1
_chemical_formula_structural   TbErAl3Cu7
_chemical_formula_sum   'Tb1 Er1 Al3 Cu7'
_cell_volume   188.22558203
_cell_formula_units_Z   1
loop_
 _symmetry_equiv_pos_site_id
 _symmetry_equiv_pos_as_xyz
  1  'x, y, z'
loop_
 _atom_site_type_symbol
 _atom_site_label
 _atom_site_symmetry_multiplicity
 _atom_site_fract_x
 _atom_site_fract_y
 _atom_site_fract_z
 _atom_site_occupancy
  Tb  Tb0  1  0.000000  0.001473  0.999050  1
  Er  Er1  1  0.000000  0.498764  0.500312  1
  Al  Al2  1  0.500000  0.514166  0.995150  1
  Al  Al3  1  0.500000  0.984746  0.505240  1
  Al  Al4  1  0.500000  0.250534  0.250574  1
  Cu  Cu5  1  0.000000  0.000149  0.337621  1
  Cu  Cu6  1  0.000000  0.500261  0.831330  1
  Cu  Cu7  1  0.000000  0.500836  0.167114  1
  Cu  Cu8  1  0.000000  0.000406  0.663937  1
  Cu  Cu9  1  0.500000  0.749391  0.750177  1
  Cu  Cu10  1  0.500000  0.749227  0.251039  1
  Cu  Cu11  1  0.500000  0.249849  0.748458  1
