# generated using pymatgen
data_Ta4Ni4MoP4
_symmetry_space_group_name_H-M   'P 1'
_cell_length_a   7.20568019
_cell_length_b   7.20568014
_cell_length_c   7.20568034
_cell_angle_alpha   93.44965941
_cell_angle_beta   93.44966052
_cell_angle_gamma   151.60101096
_symmetry_Int_Tables_number   1
_chemical_formula_structural   Ta4Ni4MoP4
_chemical_formula_sum   'Ta4 Ni4 Mo1 P4'
_cell_volume   172.50393975
_cell_formula_units_Z   1
loop_
 _symmetry_equiv_pos_site_id
 _symmetry_equiv_pos_as_xyz
  1  'x, y, z'
loop_
 _atom_site_type_symbol
 _atom_site_label
 _atom_site_symmetry_multiplicity
 _atom_site_fract_x
 _atom_site_fract_y
 _atom_site_fract_z
 _atom_site_occupancy
  Ta  Ta0  1  0.870227  0.195757  0.065984  1
  Ta  Ta1  1  0.129773  0.804243  0.934016  1
  Ta  Ta2  1  0.195757  0.129773  0.325532  1
  Ta  Ta3  1  0.804243  0.870227  0.674468  1
  Ni  Ni4  1  0.610048  0.087773  0.697822  1
  Ni  Ni5  1  0.389952  0.912227  0.302178  1
  Ni  Ni6  1  0.087773  0.389952  0.477724  1
  Ni  Ni7  1  0.912227  0.610048  0.522276  1
  Mo  Mo8  1  0.500000  0.500000  0.000000  1
  P  P9  1  0.756126  0.443814  0.199940  1
  P  P10  1  0.243874  0.556186  0.800060  1
  P  P11  1  0.443814  0.243874  0.687689  1
  P  P12  1  0.556186  0.756126  0.312311  1
