# generated using pymatgen
data_Pr2Zn2PPt6
_symmetry_space_group_name_H-M   'P 1'
_cell_length_a   9.35636262
_cell_length_b   9.35636075
_cell_length_c   4.07755600
_cell_angle_alpha   90.00000000
_cell_angle_beta   90.00000000
_cell_angle_gamma   145.56071495
_symmetry_Int_Tables_number   1
_chemical_formula_structural   Pr2Zn2PPt6
_chemical_formula_sum   'Pr2 Zn2 P1 Pt6'
_cell_volume   201.86991147
_cell_formula_units_Z   1
loop_
 _symmetry_equiv_pos_site_id
 _symmetry_equiv_pos_as_xyz
  1  'x, y, z'
loop_
 _atom_site_type_symbol
 _atom_site_label
 _atom_site_symmetry_multiplicity
 _atom_site_fract_x
 _atom_site_fract_y
 _atom_site_fract_z
 _atom_site_occupancy
  Pr  Pr0  1  0.609396  0.376093  0.500000  1
  Pr  Pr1  1  0.376093  0.609396  0.500000  1
  Zn  Zn2  1  0.194648  0.790435  0.500000  1
  Zn  Zn3  1  0.790435  0.194648  0.500000  1
  P  P4  1  0.228514  0.228514  0.000000  1
  Pt  Pt5  1  0.110324  0.885143  0.000000  1
  Pt  Pt6  1  0.885143  0.110324  0.000000  1
  Pt  Pt7  1  0.492173  0.988715  0.000000  1
  Pt  Pt8  1  0.988715  0.492173  0.000000  1
  Pt  Pt9  1  0.998117  0.998117  0.500000  1
  Pt  Pt10  1  0.640040  0.640040  0.000000  1
