# generated using pymatgen
data_P2RhO7
_symmetry_space_group_name_H-M   'P 1'
_cell_length_a   8.14114200
_cell_length_b   4.85465282
_cell_length_c   6.97607100
_cell_angle_alpha   74.03478766
_cell_angle_beta   90.00000000
_cell_angle_gamma   90.00000000
_symmetry_Int_Tables_number   1
_chemical_formula_structural   P2RhO7
_chemical_formula_sum   'P4 Rh2 O14'
_cell_volume   265.07670265
_cell_formula_units_Z   2
loop_
 _symmetry_equiv_pos_site_id
 _symmetry_equiv_pos_as_xyz
  1  'x, y, z'
loop_
 _atom_site_type_symbol
 _atom_site_label
 _atom_site_symmetry_multiplicity
 _atom_site_fract_x
 _atom_site_fract_y
 _atom_site_fract_z
 _atom_site_occupancy
  P  P0  1  0.867800  0.615628  0.507962  1
  P  P1  1  0.285618  0.764625  0.104926  1
  P  P2  1  0.785618  0.235375  0.895074  1
  P  P3  1  0.367800  0.384372  0.492038  1
  Rh  Rh4  1  0.553694  0.780605  0.726835  1
  Rh  Rh5  1  0.053694  0.219395  0.273165  1
  O  O6  1  0.740508  0.976139  0.819953  1
  O  O7  1  0.385523  0.874377  0.915938  1
  O  O8  1  0.998741  0.849863  0.471385  1
  O  O9  1  0.689680  0.722189  0.501803  1
  O  O10  1  0.372085  0.578597  0.633821  1
  O  O11  1  0.633415  0.416988  0.917978  1
  O  O12  1  0.908984  0.431428  0.732074  1
  O  O13  1  0.408984  0.568572  0.267926  1
  O  O14  1  0.133415  0.583012  0.082022  1
  O  O15  1  0.872085  0.421403  0.366179  1
  O  O16  1  0.189680  0.277811  0.498197  1
  O  O17  1  0.498741  0.150137  0.528615  1
  O  O18  1  0.885523  0.125623  0.084062  1
  O  O19  1  0.240508  0.023861  0.180047  1
