# generated using pymatgen
data_Hf6Al6Co5Cu
_symmetry_space_group_name_H-M   'P 1'
_cell_length_a   6.89615400
_cell_length_b   6.89615352
_cell_length_c   6.82331700
_cell_angle_alpha   90.00000000
_cell_angle_beta   90.00000000
_cell_angle_gamma   120.00000229
_symmetry_Int_Tables_number   1
_chemical_formula_structural   Hf6Al6Co5Cu
_chemical_formula_sum   'Hf6 Al6 Co5 Cu1'
_cell_volume   281.02182022
_cell_formula_units_Z   1
loop_
 _symmetry_equiv_pos_site_id
 _symmetry_equiv_pos_as_xyz
  1  'x, y, z'
loop_
 _atom_site_type_symbol
 _atom_site_label
 _atom_site_symmetry_multiplicity
 _atom_site_fract_x
 _atom_site_fract_y
 _atom_site_fract_z
 _atom_site_occupancy
  Hf  Hf0  1  0.599634  0.009195  0.743633  1
  Hf  Hf1  1  0.990805  0.590438  0.743633  1
  Hf  Hf2  1  0.409562  0.400366  0.743633  1
  Hf  Hf3  1  0.990059  0.589987  0.256406  1
  Hf  Hf4  1  0.599928  0.009941  0.256406  1
  Hf  Hf5  1  0.410013  0.400072  0.256406  1
  Al  Al6  1  0.757326  0.756462  0.999946  1
  Al  Al7  1  0.243538  0.000863  0.999946  1
  Al  Al8  1  0.999137  0.242674  0.999946  1
  Al  Al9  1  0.735379  0.741896  0.500006  1
  Al  Al10  1  0.258104  0.993484  0.500006  1
  Al  Al11  1  0.006516  0.264621  0.500006  1
  Co  Co12  1  0.000000  0.000000  0.731316  1
  Co  Co13  1  0.000000  0.000000  0.268634  1
  Co  Co14  1  0.666667  0.333333  0.999327  1
  Co  Co15  1  0.666667  0.333333  0.500585  1
  Co  Co16  1  0.333333  0.666667  0.499310  1
  Cu  Cu17  1  0.333333  0.666667  0.000853  1
