# generated using pymatgen
data_HoTm3SiBr6
_symmetry_space_group_name_H-M   'P 1'
_cell_length_a   4.00907600
_cell_length_b   13.12187343
_cell_length_c   13.86933241
_cell_angle_alpha   90.34349930
_cell_angle_beta   90.00000000
_cell_angle_gamma   90.00000000
_symmetry_Int_Tables_number   1
_chemical_formula_structural   HoTm3SiBr6
_chemical_formula_sum   'Ho2 Tm6 Si2 Br12'
_cell_volume   729.60514186
_cell_formula_units_Z   2
loop_
 _symmetry_equiv_pos_site_id
 _symmetry_equiv_pos_as_xyz
  1  'x, y, z'
loop_
 _atom_site_type_symbol
 _atom_site_label
 _atom_site_symmetry_multiplicity
 _atom_site_fract_x
 _atom_site_fract_y
 _atom_site_fract_z
 _atom_site_occupancy
  Ho  Ho0  1  0.000000  0.618582  0.921039  1
  Ho  Ho1  1  0.000000  0.381418  0.078961  1
  Tm  Tm2  1  0.500000  0.117077  0.342670  1
  Tm  Tm3  1  0.500000  0.882923  0.657330  1
  Tm  Tm4  1  0.500000  0.618048  0.158468  1
  Tm  Tm5  1  0.500000  0.381952  0.841532  1
  Tm  Tm6  1  0.000000  0.116455  0.577709  1
  Tm  Tm7  1  0.000000  0.883545  0.422291  1
  Si  Si8  1  0.500000  0.000000  0.500000  1
  Si  Si9  1  0.500000  0.500000  0.000000  1
  Br  Br10  1  0.500000  0.241378  0.166006  1
  Br  Br11  1  0.500000  0.758622  0.833994  1
  Br  Br12  1  0.500000  0.747211  0.337020  1
  Br  Br13  1  0.500000  0.252789  0.662980  1
  Br  Br14  1  0.000000  0.253982  0.412191  1
  Br  Br15  1  0.000000  0.746018  0.587809  1
  Br  Br16  1  0.000000  0.755511  0.092293  1
  Br  Br17  1  0.000000  0.244489  0.907707  1
  Br  Br18  1  0.000000  0.001740  0.244371  1
  Br  Br19  1  0.000000  0.998260  0.755629  1
  Br  Br20  1  0.000000  0.505975  0.258703  1
  Br  Br21  1  0.000000  0.494025  0.741297  1
