# generated using pymatgen
data_Y11TmCo5Sn
_symmetry_space_group_name_H-M   'P 1'
_cell_length_a   8.34017562
_cell_length_b   8.34280070
_cell_length_c   8.34017641
_cell_angle_alpha   110.73908118
_cell_angle_beta   110.59400735
_cell_angle_gamma   107.09395214
_symmetry_Int_Tables_number   1
_chemical_formula_structural   Y11TmCo5Sn
_chemical_formula_sum   'Y11 Tm1 Co5 Sn1'
_cell_volume   446.22094540
_cell_formula_units_Z   1
loop_
 _symmetry_equiv_pos_site_id
 _symmetry_equiv_pos_as_xyz
  1  'x, y, z'
loop_
 _atom_site_type_symbol
 _atom_site_label
 _atom_site_symmetry_multiplicity
 _atom_site_fract_x
 _atom_site_fract_y
 _atom_site_fract_z
 _atom_site_occupancy
  Y  Y0  1  0.289583  0.184966  0.475483  1
  Y  Y1  1  0.708274  0.814024  0.521257  1
  Y  Y2  1  0.292767  0.814024  0.105750  1
  Y  Y3  1  0.709483  0.184966  0.895382  1
  Y  Y4  1  0.619927  0.312890  0.305622  1
  Y  Y5  1  0.381495  0.687503  0.695540  1
  Y  Y6  1  0.007268  0.312890  0.692963  1
  Y  Y7  1  0.991963  0.687503  0.306010  1
  Y  Y8  1  0.208875  0.402583  0.193709  1
  Y  Y9  1  0.791568  0.599207  0.807638  1
  Y  Y10  1  0.208251  0.015217  0.806966  1
  Tm  Tm11  1  0.792427  0.986319  0.193892  1
  Co  Co12  1  0.999056  0.376864  0.377808  1
  Co  Co13  1  0.000397  0.619996  0.619599  1
  Co  Co14  1  0.389215  0.889504  0.500288  1
  Co  Co15  1  0.610857  0.109926  0.499070  1
  Co  Co16  1  0.998263  0.000875  0.002613  1
  Sn  Sn17  1  0.500330  0.500741  0.000411  1
