# generated using pymatgen
data_Ho10Lu10Bi11Sb
_symmetry_space_group_name_H-M   'P 1'
_cell_length_a   8.12762035
_cell_length_b   9.38769767
_cell_length_c   11.83924100
_cell_angle_alpha   89.98850141
_cell_angle_beta   90.01681309
_cell_angle_gamma   90.01840477
_symmetry_Int_Tables_number   1
_chemical_formula_structural   Ho10Lu10Bi11Sb
_chemical_formula_sum   'Ho10 Lu10 Bi11 Sb1'
_cell_volume   903.32975385
_cell_formula_units_Z   1
loop_
 _symmetry_equiv_pos_site_id
 _symmetry_equiv_pos_as_xyz
  1  'x, y, z'
loop_
 _atom_site_type_symbol
 _atom_site_label
 _atom_site_symmetry_multiplicity
 _atom_site_fract_x
 _atom_site_fract_y
 _atom_site_fract_z
 _atom_site_occupancy
  Ho  Ho0  1  0.353277  0.249959  0.285645  1
  Ho  Ho1  1  0.648025  0.750049  0.717193  1
  Ho  Ho2  1  0.145609  0.750268  0.782448  1
  Ho  Ho3  1  0.854271  0.249634  0.216865  1
  Ho  Ho4  1  0.189037  0.249913  0.779800  1
  Ho  Ho5  1  0.812955  0.750113  0.217878  1
  Ho  Ho6  1  0.313909  0.750404  0.281718  1
  Ho  Ho7  1  0.681293  0.249556  0.715599  1
  Ho  Ho8  1  0.688332  0.433591  0.442774  1
  Ho  Ho9  1  0.310416  0.560717  0.558604  1
  Lu  Lu10  1  0.026371  0.249772  0.511033  1
  Lu  Lu11  1  0.978086  0.750146  0.489542  1
  Lu  Lu12  1  0.477144  0.749837  0.011174  1
  Lu  Lu13  1  0.523522  0.250124  0.988766  1
  Lu  Lu14  1  0.192484  0.066908  0.059210  1
  Lu  Lu15  1  0.807665  0.933481  0.941203  1
  Lu  Lu16  1  0.308497  0.936978  0.559053  1
  Lu  Lu17  1  0.807986  0.566648  0.941107  1
  Lu  Lu18  1  0.689948  0.069123  0.442428  1
  Lu  Lu19  1  0.192110  0.433001  0.059358  1
  Bi  Bi20  1  0.597038  0.753925  0.457084  1
  Bi  Bi21  1  0.096893  0.749927  0.043115  1
  Bi  Bi22  1  0.904175  0.250066  0.955656  1
  Bi  Bi23  1  0.065295  0.003567  0.327043  1
  Bi  Bi24  1  0.933841  0.996847  0.673246  1
  Bi  Bi25  1  0.433960  0.995361  0.827472  1
  Bi  Bi26  1  0.932941  0.503026  0.673340  1
  Bi  Bi27  1  0.565924  0.004496  0.172806  1
  Bi  Bi28  1  0.066114  0.496409  0.326888  1
  Bi  Bi29  1  0.565991  0.495491  0.172732  1
  Bi  Bi30  1  0.433891  0.504469  0.827636  1
  Sb  Sb31  1  0.403005  0.246193  0.541580  1
