# generated using pymatgen
data_YEr5Hf4(Si5Ir2)4
_symmetry_space_group_name_H-M   'P 1'
_cell_length_a   12.50024800
_cell_length_b   12.50024800
_cell_length_c   4.17504600
_cell_angle_alpha   90.00000000
_cell_angle_beta   90.00000000
_cell_angle_gamma   90.00000000
_symmetry_Int_Tables_number   1
_chemical_formula_structural   YEr5Hf4(Si5Ir2)4
_chemical_formula_sum   'Y1 Er5 Hf4 Si20 Ir8'
_cell_volume   652.37682304
_cell_formula_units_Z   1
loop_
 _symmetry_equiv_pos_site_id
 _symmetry_equiv_pos_as_xyz
  1  'x, y, z'
loop_
 _atom_site_type_symbol
 _atom_site_label
 _atom_site_symmetry_multiplicity
 _atom_site_fract_x
 _atom_site_fract_y
 _atom_site_fract_z
 _atom_site_occupancy
  Y  Y0  1  0.500000  0.500000  0.000000  1
  Er  Er1  1  0.000000  0.000000  0.000000  1
  Er  Er2  1  0.884167  0.384124  0.500000  1
  Er  Er3  1  0.115833  0.615876  0.500000  1
  Er  Er4  1  0.384124  0.115833  0.500000  1
  Er  Er5  1  0.615876  0.884167  0.500000  1
  Hf  Hf6  1  0.673637  0.173905  0.500000  1
  Hf  Hf7  1  0.326363  0.826095  0.500000  1
  Hf  Hf8  1  0.173905  0.326363  0.500000  1
  Hf  Hf9  1  0.826095  0.673637  0.500000  1
  Si  Si10  1  0.566562  0.066419  0.000000  1
  Si  Si11  1  0.433438  0.933581  0.000000  1
  Si  Si12  1  0.066419  0.433438  0.000000  1
  Si  Si13  1  0.933581  0.566562  0.000000  1
  Si  Si14  1  0.665258  0.700304  0.000000  1
  Si  Si15  1  0.334742  0.299696  0.000000  1
  Si  Si16  1  0.164954  0.800379  0.000000  1
  Si  Si17  1  0.835046  0.199621  0.000000  1
  Si  Si18  1  0.299696  0.665258  0.000000  1
  Si  Si19  1  0.700304  0.334742  0.000000  1
  Si  Si20  1  0.199621  0.164954  0.000000  1
  Si  Si21  1  0.800379  0.835046  0.000000  1
  Si  Si22  1  0.656845  0.507771  0.500000  1
  Si  Si23  1  0.343155  0.492229  0.500000  1
  Si  Si24  1  0.156320  0.992492  0.500000  1
  Si  Si25  1  0.843680  0.007508  0.500000  1
  Si  Si26  1  0.492229  0.656845  0.500000  1
  Si  Si27  1  0.507771  0.343155  0.500000  1
  Si  Si28  1  0.007508  0.156320  0.500000  1
  Si  Si29  1  0.992492  0.843680  0.500000  1
  Ir  Ir30  1  0.746523  0.521165  0.000000  1
  Ir  Ir31  1  0.253477  0.478835  0.000000  1
  Ir  Ir32  1  0.246090  0.978883  0.000000  1
  Ir  Ir33  1  0.753910  0.021117  0.000000  1
  Ir  Ir34  1  0.478835  0.746523  0.000000  1
  Ir  Ir35  1  0.521165  0.253477  0.000000  1
  Ir  Ir36  1  0.021117  0.246090  0.000000  1
  Ir  Ir37  1  0.978883  0.753910  0.000000  1
