# generated using pymatgen
data_Tb3DyLu16(CoSb2)4
_symmetry_space_group_name_H-M   'P 1'
_cell_length_a   7.71425908
_cell_length_b   8.73859200
_cell_length_c   11.97494712
_cell_angle_alpha   90.00000000
_cell_angle_beta   90.01622531
_cell_angle_gamma   90.00000000
_symmetry_Int_Tables_number   1
_chemical_formula_structural   Tb3DyLu16(CoSb2)4
_chemical_formula_sum   'Tb3 Dy1 Lu16 Co4 Sb8'
_cell_volume   807.25226074
_cell_formula_units_Z   1
loop_
 _symmetry_equiv_pos_site_id
 _symmetry_equiv_pos_as_xyz
  1  'x, y, z'
loop_
 _atom_site_type_symbol
 _atom_site_label
 _atom_site_symmetry_multiplicity
 _atom_site_fract_x
 _atom_site_fract_y
 _atom_site_fract_z
 _atom_site_occupancy
  Tb  Tb0  1  0.122531  0.250000  0.192953  1
  Tb  Tb1  1  0.377458  0.250000  0.692942  1
  Tb  Tb2  1  0.877447  0.750000  0.807041  1
  Dy  Dy3  1  0.622347  0.750000  0.307203  1
  Lu  Lu4  1  0.155146  0.750000  0.203909  1
  Lu  Lu5  1  0.655043  0.250000  0.296128  1
  Lu  Lu6  1  0.844923  0.250000  0.796095  1
  Lu  Lu7  1  0.344938  0.750000  0.703892  1
  Lu  Lu8  1  0.446381  0.750000  0.997578  1
  Lu  Lu9  1  0.946269  0.250000  0.502428  1
  Lu  Lu10  1  0.553634  0.250000  0.002447  1
  Lu  Lu11  1  0.053604  0.750000  0.497542  1
  Lu  Lu12  1  0.823895  0.962392  0.065389  1
  Lu  Lu13  1  0.324038  0.037486  0.434583  1
  Lu  Lu14  1  0.176091  0.462265  0.934623  1
  Lu  Lu15  1  0.676049  0.537794  0.565271  1
  Lu  Lu16  1  0.176091  0.037735  0.934623  1
  Lu  Lu17  1  0.676049  0.962206  0.565271  1
  Lu  Lu18  1  0.823895  0.537608  0.065389  1
  Lu  Lu19  1  0.324038  0.462514  0.434583  1
  Co  Co20  1  0.431277  0.750000  0.491442  1
  Co  Co21  1  0.931150  0.250000  0.008442  1
  Co  Co22  1  0.568847  0.250000  0.508423  1
  Co  Co23  1  0.068818  0.750000  0.991573  1
  Sb  Sb24  1  0.930876  0.991345  0.329228  1
  Sb  Sb25  1  0.431335  0.008287  0.170851  1
  Sb  Sb26  1  0.068895  0.491491  0.670779  1
  Sb  Sb27  1  0.568915  0.508486  0.829258  1
  Sb  Sb28  1  0.068895  0.008509  0.670779  1
  Sb  Sb29  1  0.568915  0.991514  0.829258  1
  Sb  Sb30  1  0.930876  0.508655  0.329228  1
  Sb  Sb31  1  0.431335  0.491713  0.170851  1
