# generated using pymatgen
data_Zr16Co4Re3Rh
_symmetry_space_group_name_H-M   'P 1'
_cell_length_a   8.73410041
_cell_length_b   8.73409985
_cell_length_c   8.73410072
_cell_angle_alpha   59.86675885
_cell_angle_beta   59.86676010
_cell_angle_gamma   59.86676026
_symmetry_Int_Tables_number   1
_chemical_formula_structural   Zr16Co4Re3Rh
_chemical_formula_sum   'Zr16 Co4 Re3 Rh1'
_cell_volume   469.70425040
_cell_formula_units_Z   1
loop_
 _symmetry_equiv_pos_site_id
 _symmetry_equiv_pos_as_xyz
  1  'x, y, z'
loop_
 _atom_site_type_symbol
 _atom_site_label
 _atom_site_symmetry_multiplicity
 _atom_site_fract_x
 _atom_site_fract_y
 _atom_site_fract_z
 _atom_site_occupancy
  Zr  Zr0  1  0.698499  0.099774  0.099774  1
  Zr  Zr1  1  0.099774  0.698499  0.099774  1
  Zr  Zr2  1  0.099774  0.099774  0.698499  1
  Zr  Zr3  1  0.099994  0.099994  0.099994  1
  Zr  Zr4  1  0.314774  0.314774  0.690214  1
  Zr  Zr5  1  0.685839  0.685839  0.315300  1
  Zr  Zr6  1  0.314774  0.690214  0.314774  1
  Zr  Zr7  1  0.685839  0.315300  0.685839  1
  Zr  Zr8  1  0.690214  0.314774  0.314774  1
  Zr  Zr9  1  0.315300  0.685839  0.685839  1
  Zr  Zr10  1  0.953255  0.953255  0.546749  1
  Zr  Zr11  1  0.547327  0.547327  0.952095  1
  Zr  Zr12  1  0.953255  0.546749  0.953255  1
  Zr  Zr13  1  0.547327  0.952095  0.547327  1
  Zr  Zr14  1  0.546749  0.953255  0.953255  1
  Zr  Zr15  1  0.952095  0.547327  0.547327  1
  Co  Co16  1  0.330494  0.888869  0.888869  1
  Co  Co17  1  0.888869  0.330494  0.888869  1
  Co  Co18  1  0.888869  0.888869  0.330494  1
  Co  Co19  1  0.890153  0.890153  0.890153  1
  Re  Re20  1  0.005065  0.330113  0.330113  1
  Re  Re21  1  0.330113  0.005065  0.330113  1
  Re  Re22  1  0.330113  0.330113  0.005065  1
  Rh  Rh23  1  0.331531  0.331531  0.331531  1
