# generated using pymatgen
data_HoZn10Ag
_symmetry_space_group_name_H-M   'P 1'
_cell_length_a   8.26527866
_cell_length_b   8.26527811
_cell_length_c   8.26527795
_cell_angle_alpha   99.96042259
_cell_angle_beta   99.96041585
_cell_angle_gamma   130.84874047
_symmetry_Int_Tables_number   1
_chemical_formula_structural   HoZn10Ag
_chemical_formula_sum   'Ho2 Zn20 Ag2'
_cell_volume   388.42530500
_cell_formula_units_Z   2
loop_
 _symmetry_equiv_pos_site_id
 _symmetry_equiv_pos_as_xyz
  1  'x, y, z'
loop_
 _atom_site_type_symbol
 _atom_site_label
 _atom_site_symmetry_multiplicity
 _atom_site_fract_x
 _atom_site_fract_y
 _atom_site_fract_z
 _atom_site_occupancy
  Ho  Ho0  1  0.000000  0.000000  0.000000  1
  Ho  Ho1  1  0.250000  0.750000  0.500000  1
  Zn  Zn2  1  0.125000  0.375000  0.750000  1
  Zn  Zn3  1  0.625000  0.875000  0.250000  1
  Zn  Zn4  1  0.625000  0.375000  0.750000  1
  Zn  Zn5  1  0.625000  0.375000  0.250000  1
  Zn  Zn6  1  0.179914  0.507785  0.086230  1
  Zn  Zn7  1  0.179914  0.093684  0.672129  1
  Zn  Zn8  1  0.757785  0.929914  0.586230  1
  Zn  Zn9  1  0.757785  0.171555  0.827871  1
  Zn  Zn10  1  0.421555  0.507785  0.327871  1
  Zn  Zn11  1  0.421555  0.093684  0.913770  1
  Zn  Zn12  1  0.343684  0.929914  0.172129  1
  Zn  Zn13  1  0.343684  0.171555  0.413770  1
  Zn  Zn14  1  0.070086  0.242215  0.413770  1
  Zn  Zn15  1  0.070086  0.656316  0.827871  1
  Zn  Zn16  1  0.492215  0.820086  0.913770  1
  Zn  Zn17  1  0.492215  0.578445  0.672129  1
  Zn  Zn18  1  0.828445  0.242215  0.172129  1
  Zn  Zn19  1  0.828445  0.656316  0.586230  1
  Zn  Zn20  1  0.906316  0.820086  0.327871  1
  Zn  Zn21  1  0.906316  0.578445  0.086230  1
  Ag  Ag22  1  0.750000  0.250000  0.500000  1
  Ag  Ag23  1  0.500000  0.500000  0.000000  1
