# generated using pymatgen
data_La2ErTm(ZnSi)4
_symmetry_space_group_name_H-M   'P 1'
_cell_length_a   4.21641000
_cell_length_b   4.21640985
_cell_length_c   16.17607800
_cell_angle_alpha   90.00000000
_cell_angle_beta   90.00000000
_cell_angle_gamma   120.00000117
_symmetry_Int_Tables_number   1
_chemical_formula_structural   La2ErTm(ZnSi)4
_chemical_formula_sum   'La2 Er1 Tm1 Zn4 Si4'
_cell_volume   249.05170135
_cell_formula_units_Z   1
loop_
 _symmetry_equiv_pos_site_id
 _symmetry_equiv_pos_as_xyz
  1  'x, y, z'
loop_
 _atom_site_type_symbol
 _atom_site_label
 _atom_site_symmetry_multiplicity
 _atom_site_fract_x
 _atom_site_fract_y
 _atom_site_fract_z
 _atom_site_occupancy
  La  La0  1  0.000000  0.000000  0.001172  1
  La  La1  1  0.000000  0.000000  0.498828  1
  Er  Er2  1  0.000000  0.000000  0.750000  1
  Tm  Tm3  1  0.000000  0.000000  0.250000  1
  Zn  Zn4  1  0.333333  0.666667  0.151666  1
  Zn  Zn5  1  0.666667  0.333333  0.850432  1
  Zn  Zn6  1  0.666667  0.333333  0.649568  1
  Zn  Zn7  1  0.333333  0.666667  0.348334  1
  Si  Si8  1  0.333333  0.666667  0.624147  1
  Si  Si9  1  0.666667  0.333333  0.374755  1
  Si  Si10  1  0.666667  0.333333  0.125245  1
  Si  Si11  1  0.333333  0.666667  0.875853  1
