# generated using pymatgen
data_Yb5Sc(Si3Pt2)4
_symmetry_space_group_name_H-M   'P 1'
_cell_length_a   4.28857000
_cell_length_b   8.53286178
_cell_length_c   12.84767875
_cell_angle_alpha   79.59261638
_cell_angle_beta   90.00000000
_cell_angle_gamma   90.00000000
_symmetry_Int_Tables_number   1
_chemical_formula_structural   Yb5Sc(Si3Pt2)4
_chemical_formula_sum   'Yb5 Sc1 Si12 Pt8'
_cell_volume   462.41033302
_cell_formula_units_Z   1
loop_
 _symmetry_equiv_pos_site_id
 _symmetry_equiv_pos_as_xyz
  1  'x, y, z'
loop_
 _atom_site_type_symbol
 _atom_site_label
 _atom_site_symmetry_multiplicity
 _atom_site_fract_x
 _atom_site_fract_y
 _atom_site_fract_z
 _atom_site_occupancy
  Yb  Yb0  1  0.250000  0.587215  0.189521  1
  Yb  Yb1  1  0.750000  0.233268  0.561032  1
  Yb  Yb2  1  0.750000  0.414725  0.811336  1
  Yb  Yb3  1  0.750000  0.928083  0.811484  1
  Yb  Yb4  1  0.250000  0.068635  0.189640  1
  Sc  Sc5  1  0.250000  0.766713  0.436889  1
  Si  Si6  1  0.750000  0.590040  0.566523  1
  Si  Si7  1  0.750000  0.130749  0.006417  1
  Si  Si8  1  0.750000  0.869885  0.568946  1
  Si  Si9  1  0.250000  0.696599  0.708320  1
  Si  Si10  1  0.750000  0.303510  0.293078  1
  Si  Si11  1  0.750000  0.808047  0.281418  1
  Si  Si12  1  0.250000  0.869426  0.995216  1
  Si  Si13  1  0.250000  0.190940  0.721283  1
  Si  Si14  1  0.250000  0.377107  0.004218  1
  Si  Si15  1  0.250000  0.126592  0.429098  1
  Si  Si16  1  0.750000  0.622672  0.995147  1
  Si  Si17  1  0.250000  0.413755  0.430415  1
  Pt  Pt18  1  0.750000  0.352707  0.104373  1
  Pt  Pt19  1  0.250000  0.971245  0.618429  1
  Pt  Pt20  1  0.750000  0.849461  0.090194  1
  Pt  Pt21  1  0.750000  0.026932  0.380954  1
  Pt  Pt22  1  0.250000  0.647971  0.896319  1
  Pt  Pt23  1  0.250000  0.150543  0.910828  1
  Pt  Pt24  1  0.750000  0.535034  0.379527  1
  Pt  Pt25  1  0.250000  0.468145  0.619393  1
