# generated using pymatgen
data_Dy5ScCoTe2
_symmetry_space_group_name_H-M   'P 1'
_cell_length_a   8.19150267
_cell_length_b   8.34376572
_cell_length_c   3.94839800
_cell_angle_alpha   90.00000000
_cell_angle_beta   90.00000000
_cell_angle_gamma   120.61681239
_symmetry_Int_Tables_number   1
_chemical_formula_structural   Dy5ScCoTe2
_chemical_formula_sum   'Dy5 Sc1 Co1 Te2'
_cell_volume   232.24384861
_cell_formula_units_Z   1
loop_
 _symmetry_equiv_pos_site_id
 _symmetry_equiv_pos_as_xyz
  1  'x, y, z'
loop_
 _atom_site_type_symbol
 _atom_site_label
 _atom_site_symmetry_multiplicity
 _atom_site_fract_x
 _atom_site_fract_y
 _atom_site_fract_z
 _atom_site_occupancy
  Dy  Dy0  1  0.000000  0.411630  0.500000  1
  Dy  Dy1  1  0.613805  0.611231  0.500000  1
  Dy  Dy2  1  0.386195  0.997426  0.500000  1
  Dy  Dy3  1  0.229591  0.235662  0.000000  1
  Dy  Dy4  1  0.770409  0.006071  0.000000  1
  Sc  Sc5  1  0.000000  0.767452  0.000000  1
  Co  Co6  1  0.000000  0.962100  0.500000  1
  Te  Te7  1  0.331264  0.669846  0.000000  1
  Te  Te8  1  0.668736  0.338581  0.000000  1
