# generated using pymatgen
data_Er4Ag2B3Rh10
_symmetry_space_group_name_H-M   'P 1'
_cell_length_a   4.19126200
_cell_length_b   4.19126200
_cell_length_c   16.62982400
_cell_angle_alpha   90.00000000
_cell_angle_beta   90.00000000
_cell_angle_gamma   90.00000000
_symmetry_Int_Tables_number   1
_chemical_formula_structural   Er4Ag2B3Rh10
_chemical_formula_sum   'Er4 Ag2 B3 Rh10'
_cell_volume   292.13074931
_cell_formula_units_Z   1
loop_
 _symmetry_equiv_pos_site_id
 _symmetry_equiv_pos_as_xyz
  1  'x, y, z'
loop_
 _atom_site_type_symbol
 _atom_site_label
 _atom_site_symmetry_multiplicity
 _atom_site_fract_x
 _atom_site_fract_y
 _atom_site_fract_z
 _atom_site_occupancy
  Er  Er0  1  0.000000  0.000000  0.866094  1
  Er  Er1  1  0.000000  0.000000  0.133906  1
  Er  Er2  1  0.000000  0.000000  0.375668  1
  Er  Er3  1  0.000000  0.000000  0.624332  1
  Ag  Ag4  1  0.500000  0.000000  0.000000  1
  Ag  Ag5  1  0.000000  0.500000  0.000000  1
  B  B6  1  0.500000  0.500000  0.243015  1
  B  B7  1  0.500000  0.500000  0.500000  1
  B  B8  1  0.500000  0.500000  0.756985  1
  Rh  Rh9  1  0.500000  0.500000  0.879210  1
  Rh  Rh10  1  0.500000  0.500000  0.120790  1
  Rh  Rh11  1  0.500000  0.500000  0.374056  1
  Rh  Rh12  1  0.500000  0.500000  0.625944  1
  Rh  Rh13  1  0.500000  0.000000  0.251285  1
  Rh  Rh14  1  0.500000  0.000000  0.500000  1
  Rh  Rh15  1  0.500000  0.000000  0.748715  1
  Rh  Rh16  1  0.000000  0.500000  0.251285  1
  Rh  Rh17  1  0.000000  0.500000  0.500000  1
  Rh  Rh18  1  0.000000  0.500000  0.748715  1
