# generated using pymatgen
data_Hf9Mo4Pt
_symmetry_space_group_name_H-M   'P 1'
_cell_length_a   8.77548900
_cell_length_b   8.77548790
_cell_length_c   8.53011300
_cell_angle_alpha   90.00000000
_cell_angle_beta   90.00000000
_cell_angle_gamma   119.99999284
_symmetry_Int_Tables_number   1
_chemical_formula_structural   Hf9Mo4Pt
_chemical_formula_sum   'Hf18 Mo8 Pt2'
_cell_volume   568.88966668
_cell_formula_units_Z   2
loop_
 _symmetry_equiv_pos_site_id
 _symmetry_equiv_pos_as_xyz
  1  'x, y, z'
loop_
 _atom_site_type_symbol
 _atom_site_label
 _atom_site_symmetry_multiplicity
 _atom_site_fract_x
 _atom_site_fract_y
 _atom_site_fract_z
 _atom_site_occupancy
  Hf  Hf0  1  0.196281  0.803719  0.447533  1
  Hf  Hf1  1  0.196281  0.392561  0.447533  1
  Hf  Hf2  1  0.607439  0.803719  0.447533  1
  Hf  Hf3  1  0.803719  0.196281  0.552467  1
  Hf  Hf4  1  0.803719  0.607439  0.552467  1
  Hf  Hf5  1  0.392561  0.196281  0.552467  1
  Hf  Hf6  1  0.803719  0.196281  0.947533  1
  Hf  Hf7  1  0.803719  0.607439  0.947533  1
  Hf  Hf8  1  0.392561  0.196281  0.947533  1
  Hf  Hf9  1  0.196281  0.803719  0.052467  1
  Hf  Hf10  1  0.196281  0.392561  0.052467  1
  Hf  Hf11  1  0.607439  0.803719  0.052467  1
  Hf  Hf12  1  0.542945  0.457055  0.250000  1
  Hf  Hf13  1  0.542945  0.085890  0.250000  1
  Hf  Hf14  1  0.914110  0.457055  0.250000  1
  Hf  Hf15  1  0.457055  0.542945  0.750000  1
  Hf  Hf16  1  0.457055  0.914110  0.750000  1
  Hf  Hf17  1  0.085890  0.542945  0.750000  1
  Mo  Mo18  1  0.888388  0.111612  0.250000  1
  Mo  Mo19  1  0.888388  0.776775  0.250000  1
  Mo  Mo20  1  0.223225  0.111612  0.250000  1
  Mo  Mo21  1  0.111612  0.888388  0.750000  1
  Mo  Mo22  1  0.111612  0.223225  0.750000  1
  Mo  Mo23  1  0.776775  0.888388  0.750000  1
  Mo  Mo24  1  0.000000  0.000000  0.500000  1
  Mo  Mo25  1  0.000000  0.000000  0.000000  1
  Pt  Pt26  1  0.333333  0.666667  0.250000  1
  Pt  Pt27  1  0.666667  0.333333  0.750000  1
