# generated using pymatgen
data_YHo2In3Cu2Ru
_symmetry_space_group_name_H-M   'P 1'
_cell_length_a   7.54765585
_cell_length_b   7.50954912
_cell_length_c   3.89986200
_cell_angle_alpha   90.00000000
_cell_angle_beta   90.00000000
_cell_angle_gamma   119.95578918
_symmetry_Int_Tables_number   1
_chemical_formula_structural   YHo2In3Cu2Ru
_chemical_formula_sum   'Y1 Ho2 In3 Cu2 Ru1'
_cell_volume   191.51338313
_cell_formula_units_Z   1
loop_
 _symmetry_equiv_pos_site_id
 _symmetry_equiv_pos_as_xyz
  1  'x, y, z'
loop_
 _atom_site_type_symbol
 _atom_site_label
 _atom_site_symmetry_multiplicity
 _atom_site_fract_x
 _atom_site_fract_y
 _atom_site_fract_z
 _atom_site_occupancy
  Y  Y0  1  0.019724  0.599830  0.500000  1
  Ho  Ho1  1  0.400032  0.421186  0.500000  1
  Ho  Ho2  1  0.578003  0.978998  0.500000  1
  In  In3  1  0.748216  0.742908  0.000000  1
  In  In4  1  0.994511  0.251355  0.000000  1
  In  In5  1  0.257295  0.005946  0.000000  1
  Cu  Cu6  1  0.000117  0.000712  0.500000  1
  Cu  Cu7  1  0.665373  0.332346  0.000000  1
  Ru  Ru8  1  0.336729  0.666719  0.000000  1
