# generated using pymatgen
data_LaGd2BePd5
_symmetry_space_group_name_H-M   'P 1'
_cell_length_a   8.31583087
_cell_length_b   8.31583125
_cell_length_c   8.31583100
_cell_angle_alpha   127.75896197
_cell_angle_beta   124.74754579
_cell_angle_gamma   79.49608578
_symmetry_Int_Tables_number   1
_chemical_formula_structural   LaGd2BePd5
_chemical_formula_sum   'La2 Gd4 Be2 Pd10'
_cell_volume   361.05628383
_cell_formula_units_Z   2
loop_
 _symmetry_equiv_pos_site_id
 _symmetry_equiv_pos_as_xyz
  1  'x, y, z'
loop_
 _atom_site_type_symbol
 _atom_site_label
 _atom_site_symmetry_multiplicity
 _atom_site_fract_x
 _atom_site_fract_y
 _atom_site_fract_z
 _atom_site_occupancy
  La  La0  1  0.397348  0.249909  0.147257  1
  La  La1  1  0.602652  0.750091  0.852743  1
  Gd  Gd2  1  0.216887  0.446132  0.770942  1
  Gd  Gd3  1  0.783113  0.553868  0.229058  1
  Gd  Gd4  1  0.824809  0.054055  0.770942  1
  Gd  Gd5  1  0.175191  0.945945  0.229058  1
  Be  Be6  1  0.796842  0.249987  0.546829  1
  Be  Be7  1  0.203158  0.750013  0.453171  1
  Pd  Pd8  1  0.165910  0.406980  0.355266  1
  Pd  Pd9  1  0.834233  0.189316  0.241092  1
  Pd  Pd10  1  0.448224  0.093140  0.758908  1
  Pd  Pd11  1  0.551715  0.310646  0.644734  1
  Pd  Pd12  1  0.000000  0.500000  0.000000  1
  Pd  Pd13  1  0.000000  0.000000  0.500000  1
  Pd  Pd14  1  0.448285  0.689354  0.355266  1
  Pd  Pd15  1  0.551776  0.906860  0.241092  1
  Pd  Pd16  1  0.165767  0.810684  0.758908  1
  Pd  Pd17  1  0.834090  0.593020  0.644734  1
