# generated using pymatgen
data_Dy6Al24Os5Rh3
_symmetry_space_group_name_H-M   'P 1'
_cell_length_a   8.80077176
_cell_length_b   8.78040049
_cell_length_c   9.57301461
_cell_angle_alpha   90.20297418
_cell_angle_beta   89.99050614
_cell_angle_gamma   119.37944568
_symmetry_Int_Tables_number   1
_chemical_formula_structural   Dy6Al24Os5Rh3
_chemical_formula_sum   'Dy6 Al24 Os5 Rh3'
_cell_volume   644.60382197
_cell_formula_units_Z   1
loop_
 _symmetry_equiv_pos_site_id
 _symmetry_equiv_pos_as_xyz
  1  'x, y, z'
loop_
 _atom_site_type_symbol
 _atom_site_label
 _atom_site_symmetry_multiplicity
 _atom_site_fract_x
 _atom_site_fract_y
 _atom_site_fract_z
 _atom_site_occupancy
  Dy  Dy0  1  0.187074  0.386506  0.250961  1
  Dy  Dy1  1  0.812926  0.613494  0.749039  1
  Dy  Dy2  1  0.615482  0.811920  0.251512  1
  Dy  Dy3  1  0.384518  0.188080  0.748488  1
  Dy  Dy4  1  0.191519  0.803979  0.251293  1
  Dy  Dy5  1  0.808481  0.196021  0.748707  1
  Al  Al6  1  0.332283  0.666437  0.023061  1
  Al  Al7  1  0.667717  0.333563  0.976939  1
  Al  Al8  1  0.667236  0.332460  0.522068  1
  Al  Al9  1  0.332764  0.667540  0.477932  1
  Al  Al10  1  0.162952  0.326647  0.576261  1
  Al  Al11  1  0.837048  0.673353  0.423739  1
  Al  Al12  1  0.674019  0.838038  0.576648  1
  Al  Al13  1  0.837338  0.673618  0.076558  1
  Al  Al14  1  0.325981  0.161962  0.423352  1
  Al  Al15  1  0.162662  0.326382  0.923442  1
  Al  Al16  1  0.165223  0.836305  0.575822  1
  Al  Al17  1  0.325704  0.163919  0.077359  1
  Al  Al18  1  0.834777  0.163695  0.424178  1
  Al  Al19  1  0.674296  0.836081  0.922641  1
  Al  Al20  1  0.837398  0.165941  0.076431  1
  Al  Al21  1  0.162602  0.834059  0.923569  1
  Al  Al22  1  0.560768  0.124007  0.250066  1
  Al  Al23  1  0.439232  0.875993  0.749934  1
  Al  Al24  1  0.874284  0.438523  0.249648  1
  Al  Al25  1  0.125716  0.561477  0.750352  1
  Al  Al26  1  0.560358  0.439247  0.249663  1
  Al  Al27  1  0.439642  0.560753  0.750337  1
  Al  Al28  1  0.998238  0.000801  0.250093  1
  Al  Al29  1  0.001762  0.999199  0.749907  1
  Os  Os30  1  0.000000  0.500000  0.000000  1
  Os  Os31  1  0.500000  0.000000  0.500000  1
  Os  Os32  1  0.000000  0.500000  0.500000  1
  Os  Os33  1  0.000000  0.000000  0.000000  1
  Os  Os34  1  0.000000  0.000000  0.500000  1
  Rh  Rh35  1  0.500000  0.000000  0.000000  1
  Rh  Rh36  1  0.500000  0.500000  0.000000  1
  Rh  Rh37  1  0.500000  0.500000  0.500000  1
