# generated using pymatgen
data_LaNd6ThSe12
_symmetry_space_group_name_H-M   'P 1'
_cell_length_a   11.55873621
_cell_length_b   4.18296200
_cell_length_c   11.29638120
_cell_angle_alpha   90.00000000
_cell_angle_beta   90.02185279
_cell_angle_gamma   90.00000000
_symmetry_Int_Tables_number   1
_chemical_formula_structural   LaNd6ThSe12
_chemical_formula_sum   'La1 Nd6 Th1 Se12'
_cell_volume   546.17721643
_cell_formula_units_Z   1
loop_
 _symmetry_equiv_pos_site_id
 _symmetry_equiv_pos_as_xyz
  1  'x, y, z'
loop_
 _atom_site_type_symbol
 _atom_site_label
 _atom_site_symmetry_multiplicity
 _atom_site_fract_x
 _atom_site_fract_y
 _atom_site_fract_z
 _atom_site_occupancy
  La  La0  1  0.307871  0.250000  0.503945  1
  Nd  Nd1  1  0.484893  0.250000  0.186598  1
  Nd  Nd2  1  0.988096  0.250000  0.315499  1
  Nd  Nd3  1  0.510971  0.750000  0.810464  1
  Nd  Nd4  1  0.011823  0.750000  0.685866  1
  Nd  Nd5  1  0.692438  0.750000  0.489842  1
  Nd  Nd6  1  0.195165  0.750000  0.000871  1
  Th  Th7  1  0.807979  0.250000  0.003363  1
  Se  Se8  1  0.551227  0.250000  0.626822  1
  Se  Se9  1  0.042225  0.250000  0.875790  1
  Se  Se10  1  0.455817  0.750000  0.371698  1
  Se  Se11  1  0.952943  0.750000  0.124861  1
  Se  Se12  1  0.621366  0.750000  0.053594  1
  Se  Se13  1  0.119150  0.750000  0.445132  1
  Se  Se14  1  0.380127  0.250000  0.945205  1
  Se  Se15  1  0.875596  0.250000  0.556127  1
  Se  Se16  1  0.730261  0.250000  0.292358  1
  Se  Se17  1  0.225241  0.250000  0.197134  1
  Se  Se18  1  0.269781  0.750000  0.704067  1
  Se  Se19  1  0.777031  0.750000  0.810765  1
