# generated using pymatgen
data_Ca3(SbPt)2
_symmetry_space_group_name_H-M   'P 1'
_cell_length_a   5.88651100
_cell_length_b   8.55226800
_cell_length_c   13.65357500
_cell_angle_alpha   90.00000000
_cell_angle_beta   90.00000000
_cell_angle_gamma   90.00000000
_symmetry_Int_Tables_number   1
_chemical_formula_structural   Ca3(SbPt)2
_chemical_formula_sum   'Ca12 Sb8 Pt8'
_cell_volume   687.36219461
_cell_formula_units_Z   4
loop_
 _symmetry_equiv_pos_site_id
 _symmetry_equiv_pos_as_xyz
  1  'x, y, z'
loop_
 _atom_site_type_symbol
 _atom_site_label
 _atom_site_symmetry_multiplicity
 _atom_site_fract_x
 _atom_site_fract_y
 _atom_site_fract_z
 _atom_site_occupancy
  Ca  Ca0  1  0.145118  0.607971  0.098860  1
  Ca  Ca1  1  0.145118  0.892029  0.901140  1
  Ca  Ca2  1  0.854882  0.107971  0.401140  1
  Ca  Ca3  1  0.854882  0.392029  0.598860  1
  Ca  Ca4  1  0.854882  0.392029  0.901140  1
  Ca  Ca5  1  0.854882  0.107971  0.098860  1
  Ca  Ca6  1  0.145118  0.892029  0.598860  1
  Ca  Ca7  1  0.145118  0.607971  0.401140  1
  Ca  Ca8  1  0.367116  0.242411  0.250000  1
  Ca  Ca9  1  0.367116  0.257589  0.750000  1
  Ca  Ca10  1  0.632884  0.742411  0.250000  1
  Ca  Ca11  1  0.632884  0.757589  0.750000  1
  Sb  Sb12  1  0.318628  0.250000  0.000000  1
  Sb  Sb13  1  0.681372  0.750000  0.500000  1
  Sb  Sb14  1  0.681372  0.750000  0.000000  1
  Sb  Sb15  1  0.318628  0.250000  0.500000  1
  Sb  Sb16  1  0.864982  0.396013  0.250000  1
  Sb  Sb17  1  0.864982  0.103987  0.750000  1
  Sb  Sb18  1  0.135018  0.896013  0.250000  1
  Sb  Sb19  1  0.135018  0.603987  0.750000  1
  Pt  Pt20  1  0.613328  0.455896  0.089761  1
  Pt  Pt21  1  0.613328  0.044104  0.910239  1
  Pt  Pt22  1  0.386672  0.955896  0.410239  1
  Pt  Pt23  1  0.386672  0.544104  0.589761  1
  Pt  Pt24  1  0.386672  0.544104  0.910239  1
  Pt  Pt25  1  0.386672  0.955896  0.089761  1
  Pt  Pt26  1  0.613328  0.044104  0.589761  1
  Pt  Pt27  1  0.613328  0.455896  0.410239  1
