# generated using pymatgen
data_Tb7Ho(LuSb)12
_symmetry_space_group_name_H-M   'P 1'
_cell_length_a   8.09728076
_cell_length_b   9.13633900
_cell_length_c   11.79626200
_cell_angle_alpha   90.00000000
_cell_angle_beta   90.06833226
_cell_angle_gamma   90.00000000
_symmetry_Int_Tables_number   1
_chemical_formula_structural   Tb7Ho(LuSb)12
_chemical_formula_sum   'Tb7 Ho1 Lu12 Sb12'
_cell_volume   872.68096746
_cell_formula_units_Z   1
loop_
 _symmetry_equiv_pos_site_id
 _symmetry_equiv_pos_as_xyz
  1  'x, y, z'
loop_
 _atom_site_type_symbol
 _atom_site_label
 _atom_site_symmetry_multiplicity
 _atom_site_fract_x
 _atom_site_fract_y
 _atom_site_fract_z
 _atom_site_occupancy
  Tb  Tb0  1  0.175579  0.750000  0.228351  1
  Tb  Tb1  1  0.676112  0.250000  0.271143  1
  Tb  Tb2  1  0.824129  0.250000  0.771151  1
  Tb  Tb3  1  0.323890  0.750000  0.728825  1
  Tb  Tb4  1  0.658928  0.750000  0.291099  1
  Tb  Tb5  1  0.159002  0.250000  0.209065  1
  Tb  Tb6  1  0.341088  0.250000  0.709007  1
  Ho  Ho7  1  0.839856  0.750000  0.790642  1
  Lu  Lu8  1  0.809743  0.938721  0.065762  1
  Lu  Lu9  1  0.310015  0.061239  0.433963  1
  Lu  Lu10  1  0.190264  0.438716  0.934037  1
  Lu  Lu11  1  0.690232  0.561486  0.566610  1
  Lu  Lu12  1  0.190264  0.061284  0.934037  1
  Lu  Lu13  1  0.690232  0.938514  0.566610  1
  Lu  Lu14  1  0.809743  0.561279  0.065762  1
  Lu  Lu15  1  0.310015  0.438761  0.433963  1
  Lu  Lu16  1  0.525297  0.250000  0.995635  1
  Lu  Lu17  1  0.024772  0.750000  0.504713  1
  Lu  Lu18  1  0.474938  0.750000  0.003956  1
  Lu  Lu19  1  0.975028  0.250000  0.496030  1
  Sb  Sb20  1  0.937932  0.991431  0.327986  1
  Sb  Sb21  1  0.437840  0.008320  0.171931  1
  Sb  Sb22  1  0.061586  0.492224  0.672767  1
  Sb  Sb23  1  0.563702  0.509344  0.827934  1
  Sb  Sb24  1  0.061586  0.007776  0.672767  1
  Sb  Sb25  1  0.563702  0.990656  0.827934  1
  Sb  Sb26  1  0.937932  0.508569  0.327986  1
  Sb  Sb27  1  0.437840  0.491680  0.171931  1
  Sb  Sb28  1  0.901332  0.250000  0.024947  1
  Sb  Sb29  1  0.401263  0.750000  0.475086  1
  Sb  Sb30  1  0.097222  0.750000  0.973325  1
  Sb  Sb31  1  0.598943  0.250000  0.525044  1
