# generated using pymatgen
data_Rb5As3O10
_symmetry_space_group_name_H-M   'P 1'
_cell_length_a   6.64353553
_cell_length_b   6.64353543
_cell_length_c   21.15006057
_cell_angle_alpha   83.64191334
_cell_angle_beta   83.64191396
_cell_angle_gamma   58.02522537
_symmetry_Int_Tables_number   1
_chemical_formula_structural   Rb5As3O10
_chemical_formula_sum   'Rb10 As6 O20'
_cell_volume   785.48822045
_cell_formula_units_Z   2
loop_
 _symmetry_equiv_pos_site_id
 _symmetry_equiv_pos_as_xyz
  1  'x, y, z'
loop_
 _atom_site_type_symbol
 _atom_site_label
 _atom_site_symmetry_multiplicity
 _atom_site_fract_x
 _atom_site_fract_y
 _atom_site_fract_z
 _atom_site_occupancy
  Rb  Rb0  1  0.675238  0.146345  0.075540  1
  Rb  Rb1  1  0.972245  0.613795  0.819693  1
  Rb  Rb2  1  0.386205  0.027755  0.680307  1
  Rb  Rb3  1  0.853655  0.324762  0.424460  1
  Rb  Rb4  1  0.324762  0.853655  0.924460  1
  Rb  Rb5  1  0.613795  0.972245  0.319693  1
  Rb  Rb6  1  0.000000  0.500000  0.000000  1
  Rb  Rb7  1  0.027755  0.386205  0.180307  1
  Rb  Rb8  1  0.146345  0.675238  0.575540  1
  Rb  Rb9  1  0.500000  0.000000  0.500000  1
  As  As10  1  0.204781  0.654609  0.396274  1
  As  As11  1  0.654609  0.204781  0.896274  1
  As  As12  1  0.394308  0.605692  0.250000  1
  As  As13  1  0.605692  0.394308  0.750000  1
  As  As14  1  0.345391  0.795219  0.103726  1
  As  As15  1  0.795219  0.345391  0.603726  1
  O  O16  1  0.588196  0.641210  0.599726  1
  O  O17  1  0.844076  0.252632  0.689981  1
  O  O18  1  0.418168  0.358573  0.227446  1
  O  O19  1  0.825862  0.291062  0.924640  1
  O  O20  1  0.074149  0.274807  0.576113  1
  O  O21  1  0.358573  0.418168  0.727446  1
  O  O22  1  0.925851  0.725193  0.423887  1
  O  O23  1  0.274807  0.074149  0.076113  1
  O  O24  1  0.358790  0.411804  0.900274  1
  O  O25  1  0.725193  0.925851  0.923887  1
  O  O26  1  0.708938  0.174138  0.575360  1
  O  O27  1  0.411804  0.358790  0.400274  1
  O  O28  1  0.641210  0.588196  0.099726  1
  O  O29  1  0.641427  0.581832  0.272554  1
  O  O30  1  0.291062  0.825862  0.424640  1
  O  O31  1  0.174138  0.708938  0.075360  1
  O  O32  1  0.155924  0.747368  0.310019  1
  O  O33  1  0.581832  0.641427  0.772554  1
  O  O34  1  0.252632  0.844076  0.189981  1
  O  O35  1  0.747368  0.155924  0.810019  1
