# generated using pymatgen
data_Ca3Y2Zr3(As3Pd4)4
_symmetry_space_group_name_H-M   'P 1'
_cell_length_a   13.58433737
_cell_length_b   13.58433676
_cell_length_c   4.12868500
_cell_angle_alpha   90.00000000
_cell_angle_beta   90.00000000
_cell_angle_gamma   119.97335973
_symmetry_Int_Tables_number   1
_chemical_formula_structural   Ca3Y2Zr3(As3Pd4)4
_chemical_formula_sum   'Ca3 Y2 Zr3 As12 Pd16'
_cell_volume   659.98763775
_cell_formula_units_Z   1
loop_
 _symmetry_equiv_pos_site_id
 _symmetry_equiv_pos_as_xyz
  1  'x, y, z'
loop_
 _atom_site_type_symbol
 _atom_site_label
 _atom_site_symmetry_multiplicity
 _atom_site_fract_x
 _atom_site_fract_y
 _atom_site_fract_z
 _atom_site_occupancy
  Ca  Ca0  1  0.187867  0.187867  0.500000  1
  Ca  Ca1  1  0.333256  0.666642  0.000000  1
  Ca  Ca2  1  0.666642  0.333256  0.000000  1
  Y  Y3  1  0.811718  0.000124  0.500000  1
  Y  Y4  1  0.000124  0.811718  0.500000  1
  Zr  Zr5  1  0.555969  0.555969  0.000000  1
  Zr  Zr6  1  0.443983  0.999694  0.000000  1
  Zr  Zr7  1  0.999694  0.443983  0.000000  1
  As  As8  1  0.824918  0.824918  0.000000  1
  As  As9  1  0.174195  0.999481  0.000000  1
  As  As10  1  0.999481  0.174195  0.000000  1
  As  As11  1  0.165095  0.480401  0.500000  1
  As  As12  1  0.519237  0.684462  0.500000  1
  As  As13  1  0.316102  0.834867  0.500000  1
  As  As14  1  0.684462  0.519237  0.500000  1
  As  As15  1  0.834867  0.316102  0.500000  1
  As  As16  1  0.480401  0.165095  0.500000  1
  As  As17  1  0.357892  0.357892  0.000000  1
  As  As18  1  0.642335  0.000082  0.000000  1
  As  As19  1  0.000082  0.642335  0.000000  1
  Pd  Pd20  1  0.722762  0.722762  0.500000  1
  Pd  Pd21  1  0.277164  0.998754  0.500000  1
  Pd  Pd22  1  0.998754  0.277164  0.500000  1
  Pd  Pd23  1  0.182890  0.375287  0.000000  1
  Pd  Pd24  1  0.627211  0.809963  0.000000  1
  Pd  Pd25  1  0.189856  0.817926  0.000000  1
  Pd  Pd26  1  0.809963  0.627211  0.000000  1
  Pd  Pd27  1  0.817926  0.189856  0.000000  1
  Pd  Pd28  1  0.375287  0.182890  0.000000  1
  Pd  Pd29  1  0.357325  0.485655  0.500000  1
  Pd  Pd30  1  0.515056  0.871568  0.500000  1
  Pd  Pd31  1  0.128231  0.643023  0.500000  1
  Pd  Pd32  1  0.871568  0.515056  0.500000  1
  Pd  Pd33  1  0.643023  0.128231  0.500000  1
  Pd  Pd34  1  0.485655  0.357325  0.500000  1
  Pd  Pd35  1  0.999009  0.999009  0.000000  1
