# generated using pymatgen
data_GdTh3(Al8Pd3)3
_symmetry_space_group_name_H-M   'P 1'
_cell_length_a   7.62064406
_cell_length_b   7.61835869
_cell_length_c   13.33207900
_cell_angle_alpha   84.63974845
_cell_angle_beta   100.90869756
_cell_angle_gamma   119.82337620
_symmetry_Int_Tables_number   1
_chemical_formula_structural   GdTh3(Al8Pd3)3
_chemical_formula_sum   'Gd1 Th3 Al24 Pd9'
_cell_volume   659.37455696
_cell_formula_units_Z   1
loop_
 _symmetry_equiv_pos_site_id
 _symmetry_equiv_pos_as_xyz
  1  'x, y, z'
loop_
 _atom_site_type_symbol
 _atom_site_label
 _atom_site_symmetry_multiplicity
 _atom_site_fract_x
 _atom_site_fract_y
 _atom_site_fract_z
 _atom_site_occupancy
  Gd  Gd0  1  0.436448  0.832166  0.806999  1
  Th  Th1  1  0.562534  0.167082  0.192713  1
  Th  Th2  1  0.767968  0.502116  0.806248  1
  Th  Th3  1  0.232182  0.498090  0.192955  1
  Al  Al4  1  0.478409  0.164033  0.943583  1
  Al  Al5  1  0.520673  0.833238  0.051684  1
  Al  Al6  1  0.021701  0.165681  0.561403  1
  Al  Al7  1  0.979852  0.834794  0.441063  1
  Al  Al8  1  0.353389  0.833283  0.559992  1
  Al  Al9  1  0.647265  0.166576  0.442749  1
  Al  Al10  1  0.622768  0.834594  0.336474  1
  Al  Al11  1  0.378616  0.162204  0.666047  1
  Al  Al12  1  0.058830  0.493479  0.665519  1
  Al  Al13  1  0.945245  0.510341  0.336968  1
  Al  Al14  1  0.730225  0.844094  0.664775  1
  Al  Al15  1  0.266757  0.155380  0.337884  1
  Al  Al16  1  0.150178  0.499181  0.944443  1
  Al  Al17  1  0.851614  0.504282  0.052830  1
  Al  Al18  1  0.816996  0.835072  0.952771  1
  Al  Al19  1  0.178981  0.164092  0.042208  1
  Al  Al20  1  0.311895  0.498868  0.442502  1
  Al  Al21  1  0.688232  0.501160  0.558737  1
  Al  Al22  1  0.099379  0.836004  0.184595  1
  Al  Al23  1  0.897254  0.161876  0.815283  1
  Al  Al24  1  0.303643  0.368524  0.813720  1
  Al  Al25  1  0.696917  0.634377  0.185945  1
  Al  Al26  1  0.103133  0.962303  0.814894  1
  Al  Al27  1  0.898439  0.036808  0.184499  1
  Pd  Pd28  1  0.387490  0.506637  0.637460  1
  Pd  Pd29  1  0.612368  0.492294  0.362664  1
  Pd  Pd30  1  0.171880  0.829339  0.999518  1
  Pd  Pd31  1  0.828390  0.171014  0.000591  1
  Pd  Pd32  1  0.294726  0.833298  0.363111  1
  Pd  Pd33  1  0.706323  0.167768  0.637308  1
  Pd  Pd34  1  0.046261  0.825813  0.637572  1
  Pd  Pd35  1  0.952797  0.174450  0.362393  1
  Pd  Pd36  1  0.500241  0.499688  0.999900  1
