# generated using pymatgen
data_Ac3Yb(HgPd)4
_symmetry_space_group_name_H-M   'P 1'
_cell_length_a   4.35594100
_cell_length_b   7.67392762
_cell_length_c   9.04377600
_cell_angle_alpha   89.69515735
_cell_angle_beta   90.00000000
_cell_angle_gamma   90.00000000
_symmetry_Int_Tables_number   1
_chemical_formula_structural   Ac3Yb(HgPd)4
_chemical_formula_sum   'Ac3 Yb1 Hg4 Pd4'
_cell_volume   302.30361262
_cell_formula_units_Z   1
loop_
 _symmetry_equiv_pos_site_id
 _symmetry_equiv_pos_as_xyz
  1  'x, y, z'
loop_
 _atom_site_type_symbol
 _atom_site_label
 _atom_site_symmetry_multiplicity
 _atom_site_fract_x
 _atom_site_fract_y
 _atom_site_fract_z
 _atom_site_occupancy
  Ac  Ac0  1  0.250000  0.537459  0.189449  1
  Ac  Ac1  1  0.750000  0.462724  0.803336  1
  Ac  Ac2  1  0.250000  0.034897  0.317293  1
  Yb  Yb3  1  0.750000  0.959827  0.697477  1
  Hg  Hg4  1  0.250000  0.668340  0.565210  1
  Hg  Hg5  1  0.750000  0.346659  0.440735  1
  Hg  Hg6  1  0.250000  0.139155  0.931602  1
  Hg  Hg7  1  0.750000  0.853291  0.057896  1
  Pd  Pd8  1  0.750000  0.750333  0.371231  1
  Pd  Pd9  1  0.250000  0.241701  0.628596  1
  Pd  Pd10  1  0.750000  0.251730  0.126887  1
  Pd  Pd11  1  0.250000  0.753884  0.870290  1
