# generated using pymatgen
data_Ho2Hf(ScGa2)2
_symmetry_space_group_name_H-M   'P 1'
_cell_length_a   7.19693106
_cell_length_b   7.53909606
_cell_length_c   14.37113700
_cell_angle_alpha   89.99892203
_cell_angle_beta   89.99758978
_cell_angle_gamma   89.98497497
_symmetry_Int_Tables_number   1
_chemical_formula_structural   Ho2Hf(ScGa2)2
_chemical_formula_sum   'Ho8 Hf4 Sc8 Ga16'
_cell_volume   779.75422080
_cell_formula_units_Z   4
loop_
 _symmetry_equiv_pos_site_id
 _symmetry_equiv_pos_as_xyz
  1  'x, y, z'
loop_
 _atom_site_type_symbol
 _atom_site_label
 _atom_site_symmetry_multiplicity
 _atom_site_fract_x
 _atom_site_fract_y
 _atom_site_fract_z
 _atom_site_occupancy
  Ho  Ho0  1  0.010708  0.178988  0.093162  1
  Ho  Ho1  1  0.989106  0.820515  0.906606  1
  Ho  Ho2  1  0.489529  0.678709  0.906178  1
  Ho  Ho3  1  0.989172  0.821579  0.593232  1
  Ho  Ho4  1  0.510079  0.321643  0.093527  1
  Ho  Ho5  1  0.010672  0.177917  0.407029  1
  Ho  Ho6  1  0.509999  0.322813  0.406509  1
  Ho  Ho7  1  0.489657  0.678581  0.593485  1
  Hf  Hf8  1  0.328703  0.173040  0.624586  1
  Hf  Hf9  1  0.671194  0.825576  0.376421  1
  Hf  Hf10  1  0.171284  0.673224  0.377015  1
  Hf  Hf11  1  0.670525  0.828545  0.123808  1
  Sc  Sc12  1  0.162859  0.504077  0.750210  1
  Sc  Sc13  1  0.837974  0.496107  0.249651  1
  Sc  Sc14  1  0.337894  0.003423  0.249895  1
  Sc  Sc15  1  0.662854  0.996490  0.750360  1
  Sc  Sc16  1  0.828084  0.326405  0.623532  1
  Sc  Sc17  1  0.328683  0.172241  0.875621  1
  Sc  Sc18  1  0.828355  0.328370  0.876181  1
  Sc  Sc19  1  0.171677  0.672436  0.122972  1
  Ga  Ga20  1  0.031295  0.116745  0.748593  1
  Ga  Ga21  1  0.968370  0.880812  0.250859  1
  Ga  Ga22  1  0.469779  0.619692  0.251205  1
  Ga  Ga23  1  0.529595  0.382863  0.749049  1
  Ga  Ga24  1  0.284139  0.872311  0.748529  1
  Ga  Ga25  1  0.716017  0.125988  0.250494  1
  Ga  Ga26  1  0.216265  0.372526  0.251539  1
  Ga  Ga27  1  0.783457  0.629313  0.749542  1
  Ga  Ga28  1  0.164503  0.463166  0.540094  1
  Ga  Ga29  1  0.838194  0.538824  0.457941  1
  Ga  Ga30  1  0.337689  0.962768  0.459161  1
  Ga  Ga31  1  0.836129  0.537749  0.041728  1
  Ga  Ga32  1  0.660619  0.035903  0.540213  1
  Ga  Ga33  1  0.162445  0.463663  0.959141  1
  Ga  Ga34  1  0.662492  0.034458  0.960110  1
  Ga  Ga35  1  0.340005  0.962543  0.041821  1
