# generated using pymatgen
data_Hf6Zr2Pa8TaNb3Ge16
_symmetry_space_group_name_H-M   'P 1'
_cell_length_a   7.16581100
_cell_length_b   7.27724712
_cell_length_c   13.93333800
_cell_angle_alpha   90.01036911
_cell_angle_beta   90.00000000
_cell_angle_gamma   90.00000000
_symmetry_Int_Tables_number   1
_chemical_formula_structural   Hf6Zr2Pa8TaNb3Ge16
_chemical_formula_sum   'Hf6 Zr2 Pa8 Ta1 Nb3 Ge16'
_cell_volume   726.58702401
_cell_formula_units_Z   1
loop_
 _symmetry_equiv_pos_site_id
 _symmetry_equiv_pos_as_xyz
  1  'x, y, z'
loop_
 _atom_site_type_symbol
 _atom_site_label
 _atom_site_symmetry_multiplicity
 _atom_site_fract_x
 _atom_site_fract_y
 _atom_site_fract_z
 _atom_site_occupancy
  Hf  Hf0  1  0.845856  0.667495  0.124444  1
  Hf  Hf1  1  0.345796  0.832608  0.375641  1
  Hf  Hf2  1  0.654190  0.167972  0.875800  1
  Hf  Hf3  1  0.154093  0.332032  0.624244  1
  Hf  Hf4  1  0.153569  0.332373  0.875296  1
  Hf  Hf5  1  0.653634  0.167673  0.624572  1
  Zr  Zr6  1  0.345880  0.832694  0.123768  1
  Zr  Zr7  1  0.845947  0.667350  0.376288  1
  Pa  Pa8  1  0.007402  0.174616  0.095516  1
  Pa  Pa9  1  0.507433  0.325426  0.404580  1
  Pa  Pa10  1  0.492763  0.674472  0.904252  1
  Pa  Pa11  1  0.992749  0.825456  0.595681  1
  Pa  Pa12  1  0.993127  0.825455  0.904221  1
  Pa  Pa13  1  0.493083  0.674475  0.595611  1
  Pa  Pa14  1  0.507155  0.325004  0.095417  1
  Pa  Pa15  1  0.007142  0.175116  0.404683  1
  Ta  Ta16  1  0.673851  0.002689  0.250223  1
  Nb  Nb17  1  0.173848  0.497173  0.249874  1
  Nb  Nb18  1  0.826123  0.502066  0.750091  1
  Nb  Nb19  1  0.326090  0.997838  0.749821  1
  Ge  Ge20  1  0.809111  0.360318  0.249721  1
  Ge  Ge21  1  0.310480  0.138826  0.250446  1
  Ge  Ge22  1  0.690442  0.861756  0.749977  1
  Ge  Ge23  1  0.190430  0.638253  0.749929  1
  Ge  Ge24  1  0.043119  0.877926  0.250084  1
  Ge  Ge25  1  0.543622  0.622726  0.249985  1
  Ge  Ge26  1  0.455906  0.376788  0.749972  1
  Ge  Ge27  1  0.955870  0.123101  0.749978  1
  Ge  Ge28  1  0.817130  0.458947  0.957471  1
  Ge  Ge29  1  0.317124  0.041162  0.542425  1
  Ge  Ge30  1  0.684509  0.959017  0.042535  1
  Ge  Ge31  1  0.184720  0.541004  0.457940  1
  Ge  Ge32  1  0.181753  0.539732  0.042019  1
  Ge  Ge33  1  0.681776  0.960431  0.457499  1
  Ge  Ge34  1  0.317193  0.041783  0.956362  1
  Ge  Ge35  1  0.817088  0.458243  0.543635  1
