# generated using pymatgen
data_Zr10ZnSn3Bi4
_symmetry_space_group_name_H-M   'P 1'
_cell_length_a   8.89248068
_cell_length_b   8.90822526
_cell_length_c   5.96038910
_cell_angle_alpha   90.02038671
_cell_angle_beta   89.98978368
_cell_angle_gamma   120.05859144
_symmetry_Int_Tables_number   1
_chemical_formula_structural   Zr10ZnSn3Bi4
_chemical_formula_sum   'Zr10 Zn1 Sn3 Bi4'
_cell_volume   408.66046367
_cell_formula_units_Z   1
loop_
 _symmetry_equiv_pos_site_id
 _symmetry_equiv_pos_as_xyz
  1  'x, y, z'
loop_
 _atom_site_type_symbol
 _atom_site_label
 _atom_site_symmetry_multiplicity
 _atom_site_fract_x
 _atom_site_fract_y
 _atom_site_fract_z
 _atom_site_occupancy
  Zr  Zr0  1  0.334572  0.667287  0.000000  1
  Zr  Zr1  1  0.660677  0.330338  0.500000  1
  Zr  Zr2  1  0.661739  0.330869  0.000000  1
  Zr  Zr3  1  0.334884  0.667442  0.500000  1
  Zr  Zr4  1  0.275462  0.005146  0.236330  1
  Zr  Zr5  1  0.275462  0.270316  0.763670  1
  Zr  Zr6  1  0.004591  0.730382  0.763415  1
  Zr  Zr7  1  0.004591  0.274209  0.236585  1
  Zr  Zr8  1  0.724720  0.725010  0.237234  1
  Zr  Zr9  1  0.724720  0.999710  0.762766  1
  Zn  Zn10  1  0.999901  0.999951  0.000000  1
  Sn  Sn11  1  0.000101  0.000051  0.500000  1
  Sn  Sn12  1  0.385774  0.386262  0.252370  1
  Sn  Sn13  1  0.385774  0.999512  0.747630  1
  Bi  Bi14  1  0.613652  0.000315  0.253346  1
  Bi  Bi15  1  0.613652  0.613337  0.746654  1
  Bi  Bi16  1  0.999865  0.385472  0.746792  1
  Bi  Bi17  1  0.999865  0.614393  0.253208  1
