# generated using pymatgen
data_Dy20Ir2Ru3Au7
_symmetry_space_group_name_H-M   'P 1'
_cell_length_a   11.23192421
_cell_length_b   11.24046751
_cell_length_c   6.37054138
_cell_angle_alpha   89.74777959
_cell_angle_beta   89.77760852
_cell_angle_gamma   90.44630028
_symmetry_Int_Tables_number   1
_chemical_formula_structural   Dy20Ir2Ru3Au7
_chemical_formula_sum   'Dy20 Ir2 Ru3 Au7'
_cell_volume   804.25573595
_cell_formula_units_Z   1
loop_
 _symmetry_equiv_pos_site_id
 _symmetry_equiv_pos_as_xyz
  1  'x, y, z'
loop_
 _atom_site_type_symbol
 _atom_site_label
 _atom_site_symmetry_multiplicity
 _atom_site_fract_x
 _atom_site_fract_y
 _atom_site_fract_z
 _atom_site_occupancy
  Dy  Dy0  1  0.301284  0.079372  0.357171  1
  Dy  Dy1  1  0.300534  0.907292  0.857933  1
  Dy  Dy2  1  0.697663  0.081292  0.852421  1
  Dy  Dy3  1  0.696675  0.915543  0.351803  1
  Dy  Dy4  1  0.576047  0.794516  0.853624  1
  Dy  Dy5  1  0.582326  0.200226  0.355461  1
  Dy  Dy6  1  0.411884  0.793681  0.367753  1
  Dy  Dy7  1  0.415651  0.195382  0.857341  1
  Dy  Dy8  1  0.205812  0.424181  0.647447  1
  Dy  Dy9  1  0.206722  0.589278  0.131130  1
  Dy  Dy10  1  0.799566  0.417051  0.143324  1
  Dy  Dy11  1  0.803219  0.584575  0.644358  1
  Dy  Dy12  1  0.920101  0.700514  0.140783  1
  Dy  Dy13  1  0.917269  0.300273  0.649714  1
  Dy  Dy14  1  0.093848  0.701686  0.642127  1
  Dy  Dy15  1  0.085092  0.301741  0.147154  1
  Dy  Dy16  1  0.997738  0.001584  0.499070  1
  Dy  Dy17  1  0.999143  0.002411  0.998028  1
  Dy  Dy18  1  0.494426  0.502584  0.997464  1
  Dy  Dy19  1  0.496741  0.506001  0.501064  1
  Ir  Ir20  1  0.348262  0.651590  0.750127  1
  Ir  Ir21  1  0.001144  0.500667  0.395673  1
  Ru  Ru22  1  0.499496  0.998473  0.107712  1
  Ru  Ru23  1  0.499171  0.999193  0.605209  1
  Ru  Ru24  1  0.000450  0.500878  0.897169  1
  Au  Au25  1  0.843693  0.155780  0.249985  1
  Au  Au26  1  0.842369  0.844964  0.751203  1
  Au  Au27  1  0.155366  0.157486  0.748193  1
  Au  Au28  1  0.153871  0.846732  0.250163  1
  Au  Au29  1  0.652951  0.346176  0.749433  1
  Au  Au30  1  0.657436  0.655530  0.246249  1
  Au  Au31  1  0.344051  0.343351  0.253713  1
