# generated using pymatgen
data_RbLaSnSe4
_symmetry_space_group_name_H-M   'P 1'
_cell_length_a   7.23873359
_cell_length_b   7.33289501
_cell_length_c   9.62911627
_cell_angle_alpha   89.99479693
_cell_angle_beta   107.27801892
_cell_angle_gamma   90.00083151
_symmetry_Int_Tables_number   1
_chemical_formula_structural   RbLaSnSe4
_chemical_formula_sum   'Rb2 La2 Sn2 Se8'
_cell_volume   488.05742936
_cell_formula_units_Z   2
loop_
 _symmetry_equiv_pos_site_id
 _symmetry_equiv_pos_as_xyz
  1  'x, y, z'
loop_
 _atom_site_type_symbol
 _atom_site_label
 _atom_site_symmetry_multiplicity
 _atom_site_fract_x
 _atom_site_fract_y
 _atom_site_fract_z
 _atom_site_occupancy
  Rb  Rb0  1  0.268384  0.012405  0.066148  1
  Rb  Rb1  1  0.731570  0.512419  0.933855  1
  La  La2  1  0.773102  0.487932  0.447874  1
  La  La3  1  0.226885  0.987912  0.552152  1
  Sn  Sn4  1  0.227547  0.520725  0.328705  1
  Sn  Sn5  1  0.772452  0.020739  0.671289  1
  Se  Se6  1  0.439496  0.525681  0.163017  1
  Se  Se7  1  0.965134  0.768577  0.282520  1
  Se  Se8  1  0.007933  0.240614  0.298137  1
  Se  Se9  1  0.552282  0.104909  0.419204  1
  Se  Se10  1  0.447723  0.604895  0.580786  1
  Se  Se11  1  0.992089  0.740617  0.701860  1
  Se  Se12  1  0.034890  0.268581  0.717477  1
  Se  Se13  1  0.560513  0.025673  0.836979  1
