# generated using pymatgen
data_SrPd(IO3)4
_symmetry_space_group_name_H-M   'P 1'
_cell_length_a   5.82249042
_cell_length_b   7.31770677
_cell_length_c   8.22519683
_cell_angle_alpha   105.54861938
_cell_angle_beta   96.31053694
_cell_angle_gamma   111.95621891
_symmetry_Int_Tables_number   1
_chemical_formula_structural   SrPd(IO3)4
_chemical_formula_sum   'Sr1 Pd1 I4 O12'
_cell_volume   304.35638356
_cell_formula_units_Z   1
loop_
 _symmetry_equiv_pos_site_id
 _symmetry_equiv_pos_as_xyz
  1  'x, y, z'
loop_
 _atom_site_type_symbol
 _atom_site_label
 _atom_site_symmetry_multiplicity
 _atom_site_fract_x
 _atom_site_fract_y
 _atom_site_fract_z
 _atom_site_occupancy
  Sr  Sr0  1  0.024681  0.741408  0.768607  1
  Pd  Pd1  1  0.246317  0.743483  0.219885  1
  I  I2  1  0.330635  0.376844  0.925355  1
  I  I3  1  0.339317  0.451651  0.452392  1
  I  I4  1  0.637095  0.089402  0.602803  1
  I  I5  1  0.716146  0.042924  0.088034  1
  O  O6  1  0.124172  0.520855  0.983387  1
  O  O7  1  0.452395  0.378950  0.139483  1
  O  O8  1  0.049619  0.122506  0.836738  1
  O  O9  1  0.113361  0.537044  0.346489  1
  O  O10  1  0.208014  0.468755  0.646477  1
  O  O11  1  0.629062  0.698508  0.535469  1
  O  O12  1  0.323286  0.975038  0.444534  1
  O  O13  1  0.665164  0.358366  0.651515  1
  O  O14  1  0.492169  0.036067  0.783628  1
  O  O15  1  0.365321  0.944603  0.085811  1
  O  O16  1  0.847772  0.085690  0.314051  1
  O  O17  1  0.729592  0.794579  0.979391  1
