# generated using pymatgen
data_Tb2NdGa4Ni9B2
_symmetry_space_group_name_H-M   'P 1'
_cell_length_a   5.22546100
_cell_length_b   5.22546041
_cell_length_c   10.63324600
_cell_angle_alpha   90.00000000
_cell_angle_beta   90.00000000
_cell_angle_gamma   120.00001008
_symmetry_Int_Tables_number   1
_chemical_formula_structural   Tb2NdGa4Ni9B2
_chemical_formula_sum   'Tb2 Nd1 Ga4 Ni9 B2'
_cell_volume   251.44651529
_cell_formula_units_Z   1
loop_
 _symmetry_equiv_pos_site_id
 _symmetry_equiv_pos_as_xyz
  1  'x, y, z'
loop_
 _atom_site_type_symbol
 _atom_site_label
 _atom_site_symmetry_multiplicity
 _atom_site_fract_x
 _atom_site_fract_y
 _atom_site_fract_z
 _atom_site_occupancy
  Tb  Tb0  1  0.000000  0.000000  0.666185  1
  Tb  Tb1  1  0.000000  0.000000  0.998775  1
  Nd  Nd2  1  0.000000  0.000000  0.334293  1
  Ga  Ga3  1  0.333333  0.666667  0.314835  1
  Ga  Ga4  1  0.666667  0.333333  0.314835  1
  Ga  Ga5  1  0.666667  0.333333  0.685610  1
  Ga  Ga6  1  0.333333  0.666667  0.685610  1
  Ni  Ni7  1  0.000000  0.500000  0.872492  1
  Ni  Ni8  1  0.500000  0.000000  0.501171  1
  Ni  Ni9  1  0.500000  0.500000  0.501171  1
  Ni  Ni10  1  0.000000  0.500000  0.501171  1
  Ni  Ni11  1  0.500000  0.000000  0.126566  1
  Ni  Ni12  1  0.500000  0.500000  0.126566  1
  Ni  Ni13  1  0.000000  0.500000  0.126566  1
  Ni  Ni14  1  0.500000  0.000000  0.872492  1
  Ni  Ni15  1  0.500000  0.500000  0.872492  1
  B  B16  1  0.666667  0.333333  0.999585  1
  B  B17  1  0.333333  0.666667  0.999585  1
