# generated using pymatgen
data_Tb3Er5Sc8(Ga3Co)2
_symmetry_space_group_name_H-M   'P 1'
_cell_length_a   9.57723707
_cell_length_b   9.57723611
_cell_length_c   6.89999500
_cell_angle_alpha   89.99238538
_cell_angle_beta   90.00761285
_cell_angle_gamma   120.02287364
_symmetry_Int_Tables_number   1
_chemical_formula_structural   Tb3Er5Sc8(Ga3Co)2
_chemical_formula_sum   'Tb3 Er5 Sc8 Ga6 Co2'
_cell_volume   547.97366655
_cell_formula_units_Z   1
loop_
 _symmetry_equiv_pos_site_id
 _symmetry_equiv_pos_as_xyz
  1  'x, y, z'
loop_
 _atom_site_type_symbol
 _atom_site_label
 _atom_site_symmetry_multiplicity
 _atom_site_fract_x
 _atom_site_fract_y
 _atom_site_fract_z
 _atom_site_occupancy
  Tb  Tb0  1  0.465669  0.534331  0.288676  1
  Tb  Tb1  1  0.000037  0.999963  0.771272  1
  Tb  Tb2  1  0.000083  0.999917  0.271084  1
  Er  Er3  1  0.534996  0.069920  0.789513  1
  Er  Er4  1  0.930080  0.465004  0.789513  1
  Er  Er5  1  0.535199  0.464801  0.789284  1
  Er  Er6  1  0.465154  0.930767  0.289558  1
  Er  Er7  1  0.069233  0.534846  0.289558  1
  Sc  Sc8  1  0.825558  0.649801  0.487139  1
  Sc  Sc9  1  0.350199  0.174442  0.487139  1
  Sc  Sc10  1  0.824674  0.175326  0.486431  1
  Sc  Sc11  1  0.174524  0.350094  0.985543  1
  Sc  Sc12  1  0.649906  0.825476  0.985543  1
  Sc  Sc13  1  0.175260  0.824740  0.986158  1
  Sc  Sc14  1  0.667030  0.332970  0.177439  1
  Sc  Sc15  1  0.332960  0.667040  0.677720  1
  Ga  Ga16  1  0.836035  0.671815  0.047824  1
  Ga  Ga17  1  0.328185  0.163965  0.047824  1
  Ga  Ga18  1  0.835815  0.164185  0.048508  1
  Ga  Ga19  1  0.163463  0.327750  0.548881  1
  Ga  Ga20  1  0.672250  0.836537  0.548881  1
  Ga  Ga21  1  0.164223  0.835777  0.548112  1
  Co  Co22  1  0.666736  0.333264  0.542581  1
  Co  Co23  1  0.332728  0.667272  0.041898  1
