# generated using pymatgen
data_Hf9ZrGa3Sb5
_symmetry_space_group_name_H-M   'P 1'
_cell_length_a   8.60208373
_cell_length_b   8.58986905
_cell_length_c   5.78446600
_cell_angle_alpha   90.00000000
_cell_angle_beta   90.00000000
_cell_angle_gamma   120.29632593
_symmetry_Int_Tables_number   1
_chemical_formula_structural   Hf9ZrGa3Sb5
_chemical_formula_sum   'Hf9 Zr1 Ga3 Sb5'
_cell_volume   369.04519917
_cell_formula_units_Z   1
loop_
 _symmetry_equiv_pos_site_id
 _symmetry_equiv_pos_as_xyz
  1  'x, y, z'
loop_
 _atom_site_type_symbol
 _atom_site_label
 _atom_site_symmetry_multiplicity
 _atom_site_fract_x
 _atom_site_fract_y
 _atom_site_fract_z
 _atom_site_occupancy
  Hf  Hf0  1  0.277059  0.277796  0.750000  1
  Hf  Hf1  1  0.734699  0.734488  0.250000  1
  Hf  Hf2  1  0.723537  0.987579  0.750000  1
  Hf  Hf3  1  0.001446  0.267075  0.250000  1
  Hf  Hf4  1  0.337397  0.665077  0.503061  1
  Hf  Hf5  1  0.665867  0.337637  0.503066  1
  Hf  Hf6  1  0.987063  0.723582  0.750000  1
  Hf  Hf7  1  0.337397  0.665077  0.996939  1
  Hf  Hf8  1  0.665867  0.337637  0.996934  1
  Zr  Zr9  1  0.267291  0.001035  0.250000  1
  Ga  Ga10  1  0.000543  0.001262  0.507558  1
  Ga  Ga11  1  0.611479  0.611279  0.750000  1
  Ga  Ga12  1  0.000543  0.001262  0.992442  1
  Sb  Sb13  1  0.385278  0.998496  0.750000  1
  Sb  Sb14  1  0.611215  0.001063  0.250000  1
  Sb  Sb15  1  0.394591  0.394985  0.250000  1
  Sb  Sb16  1  0.998422  0.385626  0.750000  1
  Sb  Sb17  1  0.000307  0.609043  0.250000  1
