# generated using pymatgen
data_La3TcI3
_symmetry_space_group_name_H-M   'P 1'
_cell_length_a   4.39905700
_cell_length_b   9.58608991
_cell_length_c   12.51402544
_cell_angle_alpha   87.77594898
_cell_angle_beta   90.00000000
_cell_angle_gamma   90.00000000
_symmetry_Int_Tables_number   1
_chemical_formula_structural   La3TcI3
_chemical_formula_sum   'La6 Tc2 I6'
_cell_volume   527.31587950
_cell_formula_units_Z   2
loop_
 _symmetry_equiv_pos_site_id
 _symmetry_equiv_pos_as_xyz
  1  'x, y, z'
loop_
 _atom_site_type_symbol
 _atom_site_label
 _atom_site_symmetry_multiplicity
 _atom_site_fract_x
 _atom_site_fract_y
 _atom_site_fract_z
 _atom_site_occupancy
  La  La0  1  0.250000  0.315589  0.875135  1
  La  La1  1  0.750000  0.684411  0.124865  1
  La  La2  1  0.750000  0.121432  0.668361  1
  La  La3  1  0.250000  0.878568  0.331639  1
  La  La4  1  0.750000  0.095028  0.114319  1
  La  La5  1  0.250000  0.904972  0.885681  1
  Tc  Tc6  1  0.750000  0.116501  0.861130  1
  Tc  Tc7  1  0.250000  0.883499  0.138870  1
  I  I8  1  0.750000  0.129033  0.382831  1
  I  I9  1  0.250000  0.870967  0.617169  1
  I  I10  1  0.250000  0.370410  0.618695  1
  I  I11  1  0.750000  0.629590  0.381305  1
  I  I12  1  0.750000  0.611079  0.866538  1
  I  I13  1  0.250000  0.388921  0.133462  1
