# generated using pymatgen
data_Zr16Ir5Pd3N4
_symmetry_space_group_name_H-M   'P 1'
_cell_length_a   8.84304116
_cell_length_b   8.84304054
_cell_length_c   8.84304110
_cell_angle_alpha   60.09013164
_cell_angle_beta   60.09013172
_cell_angle_gamma   60.09013699
_symmetry_Int_Tables_number   1
_chemical_formula_structural   Zr16Ir5Pd3N4
_chemical_formula_sum   'Zr16 Ir5 Pd3 N4'
_cell_volume   489.97734603
_cell_formula_units_Z   1
loop_
 _symmetry_equiv_pos_site_id
 _symmetry_equiv_pos_as_xyz
  1  'x, y, z'
loop_
 _atom_site_type_symbol
 _atom_site_label
 _atom_site_symmetry_multiplicity
 _atom_site_fract_x
 _atom_site_fract_y
 _atom_site_fract_z
 _atom_site_occupancy
  Zr  Zr0  1  0.123356  0.624671  0.624671  1
  Zr  Zr1  1  0.624671  0.123356  0.624671  1
  Zr  Zr2  1  0.624671  0.624671  0.123356  1
  Zr  Zr3  1  0.628469  0.628469  0.628469  1
  Zr  Zr4  1  0.818847  0.818847  0.181243  1
  Zr  Zr5  1  0.182490  0.182490  0.817054  1
  Zr  Zr6  1  0.818847  0.181243  0.818847  1
  Zr  Zr7  1  0.182490  0.817054  0.182490  1
  Zr  Zr8  1  0.181243  0.818847  0.818847  1
  Zr  Zr9  1  0.817054  0.182490  0.182490  1
  Zr  Zr10  1  0.433573  0.433573  0.068727  1
  Zr  Zr11  1  0.066250  0.066250  0.433504  1
  Zr  Zr12  1  0.433573  0.068727  0.433573  1
  Zr  Zr13  1  0.066250  0.433504  0.066250  1
  Zr  Zr14  1  0.068727  0.433573  0.433573  1
  Zr  Zr15  1  0.433504  0.066250  0.066250  1
  Ir  Ir16  1  0.404925  0.404925  0.404925  1
  Ir  Ir17  1  0.475460  0.842870  0.842870  1
  Ir  Ir18  1  0.842870  0.475460  0.842870  1
  Ir  Ir19  1  0.842870  0.842870  0.475460  1
  Ir  Ir20  1  0.840350  0.840350  0.840350  1
  Pd  Pd21  1  0.768033  0.411601  0.411601  1
  Pd  Pd22  1  0.411601  0.768033  0.411601  1
  Pd  Pd23  1  0.411601  0.411601  0.768033  1
  N  N24  1  0.624467  0.124431  0.124431  1
  N  N25  1  0.124431  0.624467  0.124431  1
  N  N26  1  0.124431  0.124431  0.624467  1
  N  N27  1  0.124947  0.124947  0.124947  1
