# generated using pymatgen
data_Ac2NCl3
_symmetry_space_group_name_H-M   'P 1'
_cell_length_a   8.65718604
_cell_length_b   8.65718627
_cell_length_c   8.65718576
_cell_angle_alpha   136.79001717
_cell_angle_beta   131.14508667
_cell_angle_gamma   67.24339073
_symmetry_Int_Tables_number   1
_chemical_formula_structural   Ac2NCl3
_chemical_formula_sum   'Ac4 N2 Cl6'
_cell_volume   329.07399047
_cell_formula_units_Z   2
loop_
 _symmetry_equiv_pos_site_id
 _symmetry_equiv_pos_as_xyz
  1  'x, y, z'
loop_
 _atom_site_type_symbol
 _atom_site_label
 _atom_site_symmetry_multiplicity
 _atom_site_fract_x
 _atom_site_fract_y
 _atom_site_fract_z
 _atom_site_occupancy
  Ac  Ac0  1  0.917044  0.594543  0.322501  1
  Ac  Ac1  1  0.082956  0.405457  0.677499  1
  Ac  Ac2  1  0.727958  0.905457  0.822501  1
  Ac  Ac3  1  0.272042  0.094543  0.177499  1
  N  N4  1  0.000000  0.250000  0.250000  1
  N  N5  1  0.000000  0.750000  0.750000  1
  Cl  Cl6  1  0.500000  0.250000  0.750000  1
  Cl  Cl7  1  0.500000  0.750000  0.250000  1
  Cl  Cl8  1  0.987592  0.802730  0.184861  1
  Cl  Cl9  1  0.012408  0.197270  0.815139  1
  Cl  Cl10  1  0.382131  0.697270  0.684861  1
  Cl  Cl11  1  0.617869  0.302730  0.315139  1
