# generated using pymatgen
data_Li6GeSeO8
_symmetry_space_group_name_H-M   'P 1'
_cell_length_a   6.36881600
_cell_length_b   5.47761143
_cell_length_c   5.04818144
_cell_angle_alpha   90.09804339
_cell_angle_beta   90.00034707
_cell_angle_gamma   89.99956972
_symmetry_Int_Tables_number   1
_chemical_formula_structural   Li6GeSeO8
_chemical_formula_sum   'Li6 Ge1 Se1 O8'
_cell_volume   176.11009155
_cell_formula_units_Z   1
loop_
 _symmetry_equiv_pos_site_id
 _symmetry_equiv_pos_as_xyz
  1  'x, y, z'
loop_
 _atom_site_type_symbol
 _atom_site_label
 _atom_site_symmetry_multiplicity
 _atom_site_fract_x
 _atom_site_fract_y
 _atom_site_fract_z
 _atom_site_occupancy
  Li  Li0  1  0.999999  0.140852  0.506172  1
  Li  Li1  1  0.231154  0.340701  0.978196  1
  Li  Li2  1  0.235961  0.676633  0.507361  1
  Li  Li3  1  0.500007  0.811881  0.979306  1
  Li  Li4  1  0.764040  0.676640  0.507356  1
  Li  Li5  1  0.768841  0.340702  0.978197  1
  Ge  Ge6  1  0.000006  0.830414  0.999831  1
  Se  Se7  1  0.499994  0.171649  0.499742  1
  O  O8  1  0.999999  0.138987  0.887489  1
  O  O9  1  0.000003  0.823675  0.352924  1
  O  O10  1  0.231503  0.677055  0.886771  1
  O  O11  1  0.285548  0.317289  0.387829  1
  O  O12  1  0.499997  0.176934  0.832104  1
  O  O13  1  0.500000  0.882239  0.391593  1
  O  O14  1  0.714436  0.317294  0.387826  1
  O  O15  1  0.768514  0.677055  0.886772  1
