# generated using pymatgen
data_Dy2MgIn(GaPt)4
_symmetry_space_group_name_H-M   'P 1'
_cell_length_a   4.25106500
_cell_length_b   6.72393053
_cell_length_c   7.92956798
_cell_angle_alpha   96.43859265
_cell_angle_beta   90.00000000
_cell_angle_gamma   90.00000000
_symmetry_Int_Tables_number   1
_chemical_formula_structural   Dy2MgIn(GaPt)4
_chemical_formula_sum   'Dy2 Mg1 In1 Ga4 Pt4'
_cell_volume   225.22808857
_cell_formula_units_Z   1
loop_
 _symmetry_equiv_pos_site_id
 _symmetry_equiv_pos_as_xyz
  1  'x, y, z'
loop_
 _atom_site_type_symbol
 _atom_site_label
 _atom_site_symmetry_multiplicity
 _atom_site_fract_x
 _atom_site_fract_y
 _atom_site_fract_z
 _atom_site_occupancy
  Dy  Dy0  1  0.250000  0.470049  0.189176  1
  Dy  Dy1  1  0.750000  0.528795  0.812529  1
  Mg  Mg2  1  0.250000  0.971445  0.329674  1
  In  In3  1  0.750000  0.030282  0.663506  1
  Ga  Ga4  1  0.250000  0.347960  0.562920  1
  Ga  Ga5  1  0.250000  0.850659  0.949342  1
  Ga  Ga6  1  0.750000  0.655840  0.433384  1
  Ga  Ga7  1  0.750000  0.146617  0.056330  1
  Pt  Pt8  1  0.250000  0.217090  0.868323  1
  Pt  Pt9  1  0.250000  0.742151  0.618924  1
  Pt  Pt10  1  0.750000  0.782083  0.135306  1
  Pt  Pt11  1  0.750000  0.257029  0.380586  1
