# generated using pymatgen
data_Tm3Sc(Si5Pt3)2
_symmetry_space_group_name_H-M   'P 1'
_cell_length_a   8.09318523
_cell_length_b   8.10317430
_cell_length_c   8.10317407
_cell_angle_alpha   136.33287863
_cell_angle_beta   103.75282815
_cell_angle_gamma   92.24908964
_symmetry_Int_Tables_number   1
_chemical_formula_structural   Tm3Sc(Si5Pt3)2
_chemical_formula_sum   'Tm3 Sc1 Si10 Pt6'
_cell_volume   338.26682450
_cell_formula_units_Z   1
loop_
 _symmetry_equiv_pos_site_id
 _symmetry_equiv_pos_as_xyz
  1  'x, y, z'
loop_
 _atom_site_type_symbol
 _atom_site_label
 _atom_site_symmetry_multiplicity
 _atom_site_fract_x
 _atom_site_fract_y
 _atom_site_fract_z
 _atom_site_occupancy
  Tm  Tm0  1  0.099100  0.870667  0.228432  1
  Tm  Tm1  1  0.901532  0.129703  0.771830  1
  Tm  Tm2  1  0.642409  0.369806  0.272604  1
  Sc  Sc3  1  0.353453  0.630613  0.722841  1
  Si  Si4  1  0.000938  0.749465  0.749989  1
  Si  Si5  1  0.000938  0.250949  0.251472  1
  Si  Si6  1  0.271060  0.022605  0.751356  1
  Si  Si7  1  0.728228  0.478599  0.750260  1
  Si  Si8  1  0.728228  0.977968  0.249628  1
  Si  Si9  1  0.271060  0.519705  0.248456  1
  Si  Si10  1  0.762890  0.611589  0.151301  1
  Si  Si11  1  0.240093  0.391937  0.848156  1
  Si  Si12  1  0.461190  0.112759  0.348431  1
  Si  Si13  1  0.537201  0.884840  0.652361  1
  Pt  Pt14  1  0.500620  0.752843  0.253951  1
  Pt  Pt15  1  0.500620  0.246668  0.747777  1
  Pt  Pt16  1  0.023055  0.637873  0.385182  1
  Pt  Pt17  1  0.978112  0.362690  0.615423  1
  Pt  Pt18  1  0.252576  0.137235  0.115340  1
  Pt  Pt19  1  0.746696  0.861487  0.885208  1
