# generated using pymatgen
data_Tb7Pr3(SiAs)4
_symmetry_space_group_name_H-M   'P 1'
_cell_length_a   8.56564214
_cell_length_b   8.08345616
_cell_length_c   7.77592346
_cell_angle_alpha   89.61787605
_cell_angle_beta   90.08029015
_cell_angle_gamma   124.81648711
_symmetry_Int_Tables_number   1
_chemical_formula_structural   Tb7Pr3(SiAs)4
_chemical_formula_sum   'Tb7 Pr3 Si4 As4'
_cell_volume   442.01057700
_cell_formula_units_Z   1
loop_
 _symmetry_equiv_pos_site_id
 _symmetry_equiv_pos_as_xyz
  1  'x, y, z'
loop_
 _atom_site_type_symbol
 _atom_site_label
 _atom_site_symmetry_multiplicity
 _atom_site_fract_x
 _atom_site_fract_y
 _atom_site_fract_z
 _atom_site_occupancy
  Tb  Tb0  1  0.784378  0.519186  0.165124  1
  Tb  Tb1  1  0.554668  0.831807  0.171640  1
  Tb  Tb2  1  0.212400  0.478780  0.833352  1
  Tb  Tb3  1  0.713876  0.981039  0.663139  1
  Tb  Tb4  1  0.288390  0.022841  0.335407  1
  Tb  Tb5  1  0.000178  0.998997  0.000471  1
  Tb  Tb6  1  0.499840  0.501793  0.500029  1
  Pr  Pr7  1  0.055016  0.344738  0.320826  1
  Pr  Pr8  1  0.946998  0.661577  0.677072  1
  Pr  Pr9  1  0.444484  0.157900  0.824905  1
  Si  Si10  1  0.381840  0.383083  0.119194  1
  Si  Si11  1  0.617987  0.620511  0.881504  1
  Si  Si12  1  0.118055  0.120355  0.618868  1
  Si  Si13  1  0.879177  0.882388  0.377572  1
  As  As14  1  0.811157  0.214238  0.977307  1
  As  As15  1  0.186761  0.772378  0.034040  1
  As  As16  1  0.683127  0.281414  0.476781  1
  As  As17  1  0.321667  0.726973  0.522768  1
