# generated using pymatgen
data_Tb4DySe5
_symmetry_space_group_name_H-M   'P 1'
_cell_length_a   10.73677951
_cell_length_b   10.73677864
_cell_length_c   10.73677908
_cell_angle_alpha   157.89713729
_cell_angle_beta   148.64424802
_cell_angle_gamma   38.69704116
_symmetry_Int_Tables_number   1
_chemical_formula_structural   Tb4DySe5
_chemical_formula_sum   'Tb4 Dy1 Se5'
_cell_volume   241.97169640
_cell_formula_units_Z   1
loop_
 _symmetry_equiv_pos_site_id
 _symmetry_equiv_pos_as_xyz
  1  'x, y, z'
loop_
 _atom_site_type_symbol
 _atom_site_label
 _atom_site_symmetry_multiplicity
 _atom_site_fract_x
 _atom_site_fract_y
 _atom_site_fract_z
 _atom_site_occupancy
  Tb  Tb0  1  0.599750  0.599750  0.000000  1
  Tb  Tb1  1  0.200406  0.200406  0.000000  1
  Tb  Tb2  1  0.799594  0.799594  0.000000  1
  Tb  Tb3  1  0.400250  0.400250  0.000000  1
  Dy  Dy4  1  0.000000  0.000000  0.000000  1
  Se  Se5  1  0.900210  0.400210  0.500000  1
  Se  Se6  1  0.699524  0.199524  0.500000  1
  Se  Se7  1  0.300476  0.800476  0.500000  1
  Se  Se8  1  0.500000  0.000000  0.500000  1
  Se  Se9  1  0.099790  0.599790  0.500000  1
