# generated using pymatgen
data_Cs2VP6H2RuO20
_symmetry_space_group_name_H-M   'P 1'
_cell_length_a   8.84975305
_cell_length_b   9.19477312
_cell_length_c   12.28562700
_cell_angle_alpha   69.04856361
_cell_angle_beta   89.99397892
_cell_angle_gamma   90.00321219
_symmetry_Int_Tables_number   1
_chemical_formula_structural   Cs2VP6H2RuO20
_chemical_formula_sum   'Cs4 V2 P12 H4 Ru2 O40'
_cell_volume   933.60324319
_cell_formula_units_Z   2
loop_
 _symmetry_equiv_pos_site_id
 _symmetry_equiv_pos_as_xyz
  1  'x, y, z'
loop_
 _atom_site_type_symbol
 _atom_site_label
 _atom_site_symmetry_multiplicity
 _atom_site_fract_x
 _atom_site_fract_y
 _atom_site_fract_z
 _atom_site_occupancy
  Cs  Cs0  1  0.562318  0.250001  0.500004  1
  Cs  Cs1  1  0.061098  0.249992  0.999919  1
  Cs  Cs2  1  0.438943  0.750016  0.500078  1
  Cs  Cs3  1  0.937672  0.749973  0.999970  1
  V  V4  1  0.249875  0.500078  0.249983  1
  V  V5  1  0.249991  0.999999  0.750038  1
  P  P6  1  0.123322  0.249940  0.500126  1
  P  P7  1  0.627397  0.250074  0.000015  1
  P  P8  1  0.872585  0.749961  0.500005  1
  P  P9  1  0.376705  0.750032  0.999888  1
  P  P10  1  0.938835  0.200069  0.707884  1
  P  P11  1  0.440073  0.198919  0.208369  1
  P  P12  1  0.938967  0.299803  0.292191  1
  P  P13  1  0.440081  0.301352  0.791612  1
  P  P14  1  0.059878  0.801074  0.291587  1
  P  P15  1  0.561185  0.799941  0.792130  1
  P  P16  1  0.059906  0.698692  0.708396  1
  P  P17  1  0.561065  0.700176  0.207798  1
  H  H18  1  0.249893  0.999857  0.250059  1
  H  H19  1  0.750063  0.000054  0.749956  1
  H  H20  1  0.750035  0.499981  0.250009  1
  H  H21  1  0.249975  0.500060  0.749972  1
  Ru  Ru22  1  0.749992  0.500012  0.749989  1
  Ru  Ru23  1  0.749989  0.000016  0.249973  1
  O  O24  1  0.013189  0.195823  0.417515  1
  O  O25  1  0.518018  0.199567  0.915481  1
  O  O26  1  0.013120  0.304054  0.582661  1
  O  O27  1  0.517982  0.300666  0.084467  1
  O  O28  1  0.982011  0.800469  0.584510  1
  O  O29  1  0.486855  0.804125  0.082495  1
  O  O30  1  0.982038  0.699351  0.415550  1
  O  O31  1  0.486890  0.695930  0.917341  1
  O  O32  1  0.815484  0.104403  0.677019  1
  O  O33  1  0.319194  0.101155  0.177100  1
  O  O34  1  0.815492  0.395517  0.322901  1
  O  O35  1  0.319397  0.399254  0.823047  1
  O  O36  1  0.180821  0.898826  0.322915  1
  O  O37  1  0.684554  0.895580  0.822961  1
  O  O38  1  0.180609  0.600795  0.676937  1
  O  O39  1  0.684556  0.604464  0.177123  1
  O  O40  1  0.880745  0.312318  0.764044  1
  O  O41  1  0.377348  0.315354  0.258233  1
  O  O42  1  0.881107  0.187451  0.236008  1
  O  O43  1  0.376978  0.184974  0.741922  1
  O  O44  1  0.122631  0.684627  0.241762  1
  O  O45  1  0.619222  0.687703  0.735933  1
  O  O46  1  0.123008  0.815047  0.758104  1
  O  O47  1  0.618907  0.812508  0.264000  1
  O  O48  1  0.212379  0.391788  0.428649  1
  O  O49  1  0.716325  0.394471  0.931546  1
  O  O50  1  0.212108  0.107901  0.571664  1
  O  O51  1  0.716188  0.105597  0.068461  1
  O  O52  1  0.783692  0.605522  0.568451  1
  O  O53  1  0.287648  0.608174  0.071362  1
  O  O54  1  0.783832  0.894421  0.431519  1
  O  O55  1  0.287886  0.892066  0.928386  1
  O  O56  1  0.064218  0.399259  0.213884  1
  O  O57  1  0.563568  0.398617  0.708156  1
  O  O58  1  0.063948  0.100707  0.786289  1
  O  O59  1  0.563591  0.101605  0.291707  1
  O  O60  1  0.936409  0.601392  0.791835  1
  O  O61  1  0.435820  0.600736  0.286109  1
  O  O62  1  0.936337  0.898413  0.208255  1
  O  O63  1  0.436048  0.899303  0.713753  1
