# generated using pymatgen
data_Yb2Al20PdRu3
_symmetry_space_group_name_H-M   'P 1'
_cell_length_a   6.90150003
_cell_length_b   6.90159266
_cell_length_c   9.18464000
_cell_angle_alpha   90.08320917
_cell_angle_beta   90.24873495
_cell_angle_gamma   96.86225530
_symmetry_Int_Tables_number   1
_chemical_formula_structural   Yb2Al20PdRu3
_chemical_formula_sum   'Yb2 Al20 Pd1 Ru3'
_cell_volume   434.33781414
_cell_formula_units_Z   1
loop_
 _symmetry_equiv_pos_site_id
 _symmetry_equiv_pos_as_xyz
  1  'x, y, z'
loop_
 _atom_site_type_symbol
 _atom_site_label
 _atom_site_symmetry_multiplicity
 _atom_site_fract_x
 _atom_site_fract_y
 _atom_site_fract_z
 _atom_site_occupancy
  Yb  Yb0  1  0.876831  0.126391  0.749512  1
  Yb  Yb1  1  0.123169  0.873609  0.250488  1
  Al  Al2  1  0.588711  0.858076  0.252902  1
  Al  Al3  1  0.779736  0.521100  0.250079  1
  Al  Al4  1  0.155628  0.838642  0.897582  1
  Al  Al5  1  0.411289  0.141924  0.747098  1
  Al  Al6  1  0.624519  0.383197  0.947820  1
  Al  Al7  1  0.841339  0.157402  0.401857  1
  Al  Al8  1  0.778331  0.772678  0.002754  1
  Al  Al9  1  0.861098  0.588657  0.748827  1
  Al  Al10  1  0.844372  0.161358  0.102418  1
  Al  Al11  1  0.220264  0.478900  0.749921  1
  Al  Al12  1  0.158661  0.842598  0.598143  1
  Al  Al13  1  0.777810  0.776368  0.499541  1
  Al  Al14  1  0.478413  0.225179  0.256860  1
  Al  Al15  1  0.623771  0.377897  0.548552  1
  Al  Al16  1  0.222190  0.223632  0.500459  1
  Al  Al17  1  0.376229  0.622103  0.451448  1
  Al  Al18  1  0.138902  0.411343  0.251173  1
  Al  Al19  1  0.521587  0.774821  0.743140  1
  Al  Al20  1  0.375481  0.616803  0.052180  1
  Al  Al21  1  0.221669  0.227322  0.997246  1
  Pd  Pd22  1  0.500000  0.000000  0.000000  1
  Ru  Ru23  1  0.500000  0.000000  0.500000  1
  Ru  Ru24  1  0.000000  0.500000  0.000000  1
  Ru  Ru25  1  0.000000  0.500000  0.500000  1
