# generated using pymatgen
data_LiMgTa3NbN6
_symmetry_space_group_name_H-M   'P 1'
_cell_length_a   5.24829839
_cell_length_b   5.24829760
_cell_length_c   10.40096300
_cell_angle_alpha   90.00000000
_cell_angle_beta   90.00000000
_cell_angle_gamma   120.13026431
_symmetry_Int_Tables_number   1
_chemical_formula_structural   LiMgTa3NbN6
_chemical_formula_sum   'Li2 Mg2 Ta6 Nb2 N12'
_cell_volume   247.78190605
_cell_formula_units_Z   2
loop_
 _symmetry_equiv_pos_site_id
 _symmetry_equiv_pos_as_xyz
  1  'x, y, z'
loop_
 _atom_site_type_symbol
 _atom_site_label
 _atom_site_symmetry_multiplicity
 _atom_site_fract_x
 _atom_site_fract_y
 _atom_site_fract_z
 _atom_site_occupancy
  Li  Li0  1  0.333355  0.666645  0.000000  1
  Li  Li1  1  0.333355  0.666645  0.500000  1
  Mg  Mg2  1  0.667473  0.332527  0.500000  1
  Mg  Mg3  1  0.667473  0.332527  0.000000  1
  Ta  Ta4  1  0.342237  0.345753  0.750000  1
  Ta  Ta5  1  0.998794  0.001206  0.500000  1
  Ta  Ta6  1  0.998794  0.001206  0.000000  1
  Ta  Ta7  1  0.654247  0.657763  0.250000  1
  Ta  Ta8  1  0.341590  0.995611  0.250000  1
  Ta  Ta9  1  0.004389  0.658410  0.750000  1
  Nb  Nb10  1  0.004170  0.345039  0.250000  1
  Nb  Nb11  1  0.654961  0.995830  0.750000  1
  N  N12  1  0.675934  0.669188  0.622149  1
  N  N13  1  0.675934  0.669188  0.877851  1
  N  N14  1  0.330812  0.324066  0.122149  1
  N  N15  1  0.330812  0.324066  0.377851  1
  N  N16  1  0.323365  0.002897  0.877564  1
  N  N17  1  0.323365  0.002897  0.622436  1
  N  N18  1  0.997103  0.676635  0.377564  1
  N  N19  1  0.997103  0.676635  0.122436  1
  N  N20  1  0.670579  0.998209  0.121747  1
  N  N21  1  0.670579  0.998209  0.378253  1
  N  N22  1  0.001791  0.329421  0.878253  1
  N  N23  1  0.001791  0.329421  0.621747  1
