# generated using pymatgen
data_TbDyBi4(SbO7)2
_symmetry_space_group_name_H-M   'P 1'
_cell_length_a   6.51609145
_cell_length_b   6.81675379
_cell_length_c   7.67056349
_cell_angle_alpha   106.35492817
_cell_angle_beta   89.62097500
_cell_angle_gamma   99.04732080
_symmetry_Int_Tables_number   1
_chemical_formula_structural   TbDyBi4(SbO7)2
_chemical_formula_sum   'Tb1 Dy1 Bi4 Sb2 O14'
_cell_volume   322.60631092
_cell_formula_units_Z   1
loop_
 _symmetry_equiv_pos_site_id
 _symmetry_equiv_pos_as_xyz
  1  'x, y, z'
loop_
 _atom_site_type_symbol
 _atom_site_label
 _atom_site_symmetry_multiplicity
 _atom_site_fract_x
 _atom_site_fract_y
 _atom_site_fract_z
 _atom_site_occupancy
  Tb  Tb0  1  0.543283  0.997491  0.752299  1
  Dy  Dy1  1  0.456873  0.002612  0.247753  1
  Bi  Bi2  1  0.255624  0.510940  0.877695  1
  Bi  Bi3  1  0.744081  0.489524  0.122442  1
  Bi  Bi4  1  0.730191  0.465194  0.609291  1
  Bi  Bi5  1  0.269766  0.534366  0.390059  1
  Sb  Sb6  1  0.000090  0.000033  0.499807  1
  Sb  Sb7  1  0.000040  0.000005  0.000349  1
  O  O8  1  0.459351  0.656723  0.179929  1
  O  O9  1  0.540838  0.344889  0.820568  1
  O  O10  1  0.291785  0.951415  0.955304  1
  O  O11  1  0.708172  0.048367  0.046333  1
  O  O12  1  0.286495  0.927459  0.513040  1
  O  O13  1  0.713572  0.072441  0.485586  1
  O  O14  1  0.529200  0.348625  0.349385  1
  O  O15  1  0.470067  0.649906  0.649946  1
  O  O16  1  0.914483  0.689458  0.956173  1
  O  O17  1  0.085338  0.310510  0.043842  1
  O  O18  1  0.098241  0.306745  0.612293  1
  O  O19  1  0.901480  0.693245  0.387826  1
  O  O20  1  0.901905  0.953134  0.737994  1
  O  O21  1  0.099126  0.046918  0.262083  1
