# generated using pymatgen
data_YbPa7(Si4Mo3)4
_symmetry_space_group_name_H-M   'P 1'
_cell_length_a   6.78835996
_cell_length_b   6.96779277
_cell_length_c   12.95879900
_cell_angle_alpha   90.03993885
_cell_angle_beta   89.96946300
_cell_angle_gamma   90.03183586
_symmetry_Int_Tables_number   1
_chemical_formula_structural   YbPa7(Si4Mo3)4
_chemical_formula_sum   'Yb1 Pa7 Si16 Mo12'
_cell_volume   612.94937791
_cell_formula_units_Z   1
loop_
 _symmetry_equiv_pos_site_id
 _symmetry_equiv_pos_as_xyz
  1  'x, y, z'
loop_
 _atom_site_type_symbol
 _atom_site_label
 _atom_site_symmetry_multiplicity
 _atom_site_fract_x
 _atom_site_fract_y
 _atom_site_fract_z
 _atom_site_occupancy
  Yb  Yb0  1  0.995145  0.164091  0.090781  1
  Pa  Pa1  1  0.493674  0.336172  0.094126  1
  Pa  Pa2  1  0.990960  0.163868  0.406495  1
  Pa  Pa3  1  0.508586  0.663804  0.594113  1
  Pa  Pa4  1  0.008349  0.833056  0.905556  1
  Pa  Pa5  1  0.509691  0.662366  0.906293  1
  Pa  Pa6  1  0.010018  0.837560  0.593824  1
  Pa  Pa7  1  0.490183  0.335571  0.405100  1
  Si  Si8  1  0.658937  0.045205  0.545540  1
  Si  Si9  1  0.157021  0.454003  0.953996  1
  Si  Si10  1  0.341858  0.957358  0.046196  1
  Si  Si11  1  0.839455  0.545355  0.455331  1
  Si  Si12  1  0.343086  0.953983  0.454291  1
  Si  Si13  1  0.844175  0.540677  0.046878  1
  Si  Si14  1  0.658912  0.044622  0.955203  1
  Si  Si15  1  0.158285  0.455134  0.545695  1
  Si  Si16  1  0.537001  0.362948  0.749812  1
  Si  Si17  1  0.037224  0.136138  0.751443  1
  Si  Si18  1  0.461524  0.635890  0.251547  1
  Si  Si19  1  0.964255  0.865430  0.248519  1
  Si  Si20  1  0.805127  0.625517  0.749085  1
  Si  Si21  1  0.304608  0.876124  0.750482  1
  Si  Si22  1  0.191071  0.373424  0.248486  1
  Si  Si23  1  0.698092  0.126266  0.246772  1
  Mo  Mo24  1  0.828695  0.333996  0.623325  1
  Mo  Mo25  1  0.330846  0.165902  0.877430  1
  Mo  Mo26  1  0.169080  0.668527  0.123950  1
  Mo  Mo27  1  0.674690  0.838671  0.375685  1
  Mo  Mo28  1  0.169190  0.663097  0.377226  1
  Mo  Mo29  1  0.664149  0.828236  0.122754  1
  Mo  Mo30  1  0.824630  0.338152  0.875474  1
  Mo  Mo31  1  0.328376  0.165136  0.622511  1
  Mo  Mo32  1  0.671346  0.985862  0.750929  1
  Mo  Mo33  1  0.171724  0.513319  0.750335  1
  Mo  Mo34  1  0.331542  0.010517  0.252126  1
  Mo  Mo35  1  0.828504  0.494018  0.252690  1
