# generated using pymatgen
data_Fe8Ge3Mo12AsC4
_symmetry_space_group_name_H-M   'P 1'
_cell_length_a   7.96215618
_cell_length_b   7.94764422
_cell_length_c   7.96215700
_cell_angle_alpha   59.93957226
_cell_angle_beta   59.99999246
_cell_angle_gamma   59.93956998
_symmetry_Int_Tables_number   1
_chemical_formula_structural   Fe8Ge3Mo12AsC4
_chemical_formula_sum   'Fe8 Ge3 Mo12 As1 C4'
_cell_volume   355.94880815
_cell_formula_units_Z   1
loop_
 _symmetry_equiv_pos_site_id
 _symmetry_equiv_pos_as_xyz
  1  'x, y, z'
loop_
 _atom_site_type_symbol
 _atom_site_label
 _atom_site_symmetry_multiplicity
 _atom_site_fract_x
 _atom_site_fract_y
 _atom_site_fract_z
 _atom_site_occupancy
  Fe  Fe0  1  0.501464  0.834179  0.832180  1
  Fe  Fe1  1  0.417820  0.415821  0.417820  1
  Fe  Fe2  1  0.748536  0.415821  0.417820  1
  Fe  Fe3  1  0.832180  0.834179  0.501464  1
  Fe  Fe4  1  0.418038  0.745883  0.418038  1
  Fe  Fe5  1  0.831962  0.504117  0.831962  1
  Fe  Fe6  1  0.417820  0.415821  0.748536  1
  Fe  Fe7  1  0.832180  0.834179  0.832180  1
  Ge  Ge8  1  0.625000  0.625000  0.125000  1
  Ge  Ge9  1  0.625000  0.625000  0.625000  1
  Ge  Ge10  1  0.125000  0.625000  0.625000  1
  Mo  Mo11  1  0.808215  0.807614  0.192086  1
  Mo  Mo12  1  0.809069  0.191607  0.809069  1
  Mo  Mo13  1  0.059745  0.058393  0.440931  1
  Mo  Mo14  1  0.809069  0.191607  0.190255  1
  Mo  Mo15  1  0.441785  0.442386  0.057914  1
  Mo  Mo16  1  0.057914  0.442386  0.057914  1
  Mo  Mo17  1  0.192086  0.807614  0.808215  1
  Mo  Mo18  1  0.440931  0.058393  0.440931  1
  Mo  Mo19  1  0.192086  0.807614  0.192086  1
  Mo  Mo20  1  0.190255  0.191607  0.809069  1
  Mo  Mo21  1  0.440931  0.058393  0.059745  1
  Mo  Mo22  1  0.057914  0.442386  0.441785  1
  As  As23  1  0.625000  0.125000  0.625000  1
  C  C24  1  0.625000  0.125000  0.125000  1
  C  C25  1  0.125000  0.125000  0.125000  1
  C  C26  1  0.125000  0.125000  0.625000  1
  C  C27  1  0.125000  0.625000  0.125000  1
