# generated using pymatgen
data_Yb2ErLu3(Si3Ru)8
_symmetry_space_group_name_H-M   'P 1'
_cell_length_a   10.11180720
_cell_length_b   10.11180701
_cell_length_c   8.11503304
_cell_angle_alpha   90.00024641
_cell_angle_beta   90.00024380
_cell_angle_gamma   132.69648431
_symmetry_Int_Tables_number   1
_chemical_formula_structural   Yb2ErLu3(Si3Ru)8
_chemical_formula_sum   'Yb2 Er1 Lu3 Si24 Ru8'
_cell_volume   609.83073177
_cell_formula_units_Z   1
loop_
 _symmetry_equiv_pos_site_id
 _symmetry_equiv_pos_as_xyz
  1  'x, y, z'
loop_
 _atom_site_type_symbol
 _atom_site_label
 _atom_site_symmetry_multiplicity
 _atom_site_fract_x
 _atom_site_fract_y
 _atom_site_fract_z
 _atom_site_occupancy
  Yb  Yb0  1  0.499467  0.999463  0.250020  1
  Yb  Yb1  1  0.000537  0.500533  0.749980  1
  Er  Er2  1  0.999879  0.000121  0.000000  1
  Lu  Lu3  1  0.503352  0.003367  0.749982  1
  Lu  Lu4  1  0.996633  0.496648  0.250018  1
  Lu  Lu5  1  0.500148  0.499852  0.500000  1
  Si  Si6  1  0.389445  0.155608  0.001652  1
  Si  Si7  1  0.655439  0.888978  0.498152  1
  Si  Si8  1  0.111022  0.344561  0.501848  1
  Si  Si9  1  0.844392  0.610555  0.998348  1
  Si  Si10  1  0.611486  0.845532  0.992498  1
  Si  Si11  1  0.345677  0.112029  0.507578  1
  Si  Si12  1  0.887971  0.654323  0.492422  1
  Si  Si13  1  0.154468  0.388514  0.007502  1
  Si  Si14  1  0.613478  0.379325  0.227777  1
  Si  Si15  1  0.879341  0.113902  0.272576  1
  Si  Si16  1  0.886098  0.120659  0.727424  1
  Si  Si17  1  0.620675  0.386522  0.772223  1
  Si  Si18  1  0.391973  0.625852  0.771110  1
  Si  Si19  1  0.125892  0.891513  0.728428  1
  Si  Si20  1  0.705714  0.294286  0.000000  1
  Si  Si21  1  0.794117  0.205883  0.500000  1
  Si  Si22  1  0.294570  0.705430  0.000000  1
  Si  Si23  1  0.205596  0.794404  0.500000  1
  Si  Si24  1  0.164786  0.170367  0.333064  1
  Si  Si25  1  0.669886  0.664300  0.167433  1
  Si  Si26  1  0.335700  0.330114  0.832567  1
  Si  Si27  1  0.829633  0.835214  0.666936  1
  Si  Si28  1  0.374148  0.608027  0.228890  1
  Si  Si29  1  0.108487  0.874108  0.271572  1
  Ru  Ru30  1  0.625855  0.626719  0.872798  1
  Ru  Ru31  1  0.127398  0.126550  0.626403  1
  Ru  Ru32  1  0.873450  0.872602  0.373597  1
  Ru  Ru33  1  0.373281  0.374145  0.127202  1
  Ru  Ru34  1  0.330214  0.669786  0.500000  1
  Ru  Ru35  1  0.170167  0.829833  0.000000  1
  Ru  Ru36  1  0.668860  0.331140  0.500000  1
  Ru  Ru37  1  0.830766  0.169234  0.000000  1
