# generated using pymatgen
data_KHgF4
_symmetry_space_group_name_H-M   'P 1'
_cell_length_a   7.41021065
_cell_length_b   7.41021077
_cell_length_c   7.41021124
_cell_angle_alpha   132.21492007
_cell_angle_beta   132.21492522
_cell_angle_gamma   69.88979068
_symmetry_Int_Tables_number   1
_chemical_formula_structural   KHgF4
_chemical_formula_sum   'K2 Hg2 F8'
_cell_volume   218.86017156
_cell_formula_units_Z   2
loop_
 _symmetry_equiv_pos_site_id
 _symmetry_equiv_pos_as_xyz
  1  'x, y, z'
loop_
 _atom_site_type_symbol
 _atom_site_label
 _atom_site_symmetry_multiplicity
 _atom_site_fract_x
 _atom_site_fract_y
 _atom_site_fract_z
 _atom_site_occupancy
  K  K0  1  0.250000  0.250000  0.000000  1
  K  K1  1  0.750000  0.750000  0.000000  1
  Hg  Hg2  1  0.500000  0.000000  0.500000  1
  Hg  Hg3  1  0.000000  0.500000  0.500000  1
  F  F4  1  0.431815  0.931815  0.133571  1
  F  F5  1  0.201757  0.701757  0.133571  1
  F  F6  1  0.568185  0.068185  0.866429  1
  F  F7  1  0.068185  0.201757  0.500000  1
  F  F8  1  0.798243  0.298243  0.866429  1
  F  F9  1  0.298243  0.431815  0.500000  1
  F  F10  1  0.931815  0.798243  0.500000  1
  F  F11  1  0.701757  0.568185  0.500000  1
