# generated using pymatgen
data_MgPt4Pb3O14
_symmetry_space_group_name_H-M   'P 1'
_cell_length_a   7.25848700
_cell_length_b   7.36174354
_cell_length_c   7.36174300
_cell_angle_alpha   59.99999793
_cell_angle_beta   59.52829152
_cell_angle_gamma   59.52829196
_symmetry_Int_Tables_number   1
_chemical_formula_structural   MgPt4Pb3O14
_chemical_formula_sum   'Mg1 Pt4 Pb3 O14'
_cell_volume   276.15880437
_cell_formula_units_Z   1
loop_
 _symmetry_equiv_pos_site_id
 _symmetry_equiv_pos_as_xyz
  1  'x, y, z'
loop_
 _atom_site_type_symbol
 _atom_site_label
 _atom_site_symmetry_multiplicity
 _atom_site_fract_x
 _atom_site_fract_y
 _atom_site_fract_z
 _atom_site_occupancy
  Mg  Mg0  1  0.125000  0.625000  0.625000  1
  Pt  Pt1  1  0.125000  0.125000  0.625000  1
  Pt  Pt2  1  0.125000  0.625000  0.125000  1
  Pt  Pt3  1  0.625000  0.125000  0.125000  1
  Pt  Pt4  1  0.125000  0.125000  0.125000  1
  Pb  Pb5  1  0.625000  0.625000  0.125000  1
  Pb  Pb6  1  0.625000  0.125000  0.625000  1
  Pb  Pb7  1  0.625000  0.625000  0.625000  1
  O  O8  1  0.478211  0.507263  0.507263  1
  O  O9  1  0.771789  0.742737  0.742737  1
  O  O10  1  0.459915  0.040832  0.458423  1
  O  O11  1  0.201042  0.790840  0.217278  1
  O  O12  1  0.459915  0.458423  0.040832  1
  O  O13  1  0.048958  0.459160  0.459160  1
  O  O14  1  0.459915  0.040832  0.040832  1
  O  O15  1  0.048958  0.032722  0.459160  1
  O  O16  1  0.048958  0.459160  0.032722  1
  O  O17  1  0.790085  0.209168  0.209168  1
  O  O18  1  0.201042  0.790840  0.790840  1
  O  O19  1  0.790085  0.209168  0.791577  1
  O  O20  1  0.201042  0.217278  0.790840  1
  O  O21  1  0.790085  0.791577  0.209168  1
