# generated using pymatgen
data_Tm2PaTc3
_symmetry_space_group_name_H-M   'P 1'
_cell_length_a   5.76601700
_cell_length_b   5.76601571
_cell_length_c   8.28138600
_cell_angle_alpha   90.00000000
_cell_angle_beta   90.00000000
_cell_angle_gamma   120.00000166
_symmetry_Int_Tables_number   1
_chemical_formula_structural   Tm2PaTc3
_chemical_formula_sum   'Tm4 Pa2 Tc6'
_cell_volume   238.44344733
_cell_formula_units_Z   2
loop_
 _symmetry_equiv_pos_site_id
 _symmetry_equiv_pos_as_xyz
  1  'x, y, z'
loop_
 _atom_site_type_symbol
 _atom_site_label
 _atom_site_symmetry_multiplicity
 _atom_site_fract_x
 _atom_site_fract_y
 _atom_site_fract_z
 _atom_site_occupancy
  Tm  Tm0  1  0.333333  0.666667  0.438633  1
  Tm  Tm1  1  0.666667  0.333333  0.561367  1
  Tm  Tm2  1  0.666667  0.333333  0.938633  1
  Tm  Tm3  1  0.333333  0.666667  0.061367  1
  Pa  Pa4  1  0.000000  0.000000  0.500000  1
  Pa  Pa5  1  0.000000  0.000000  0.000000  1
  Tc  Tc6  1  0.830108  0.169892  0.250000  1
  Tc  Tc7  1  0.830108  0.660217  0.250000  1
  Tc  Tc8  1  0.339783  0.169892  0.250000  1
  Tc  Tc9  1  0.169892  0.830108  0.750000  1
  Tc  Tc10  1  0.169892  0.339783  0.750000  1
  Tc  Tc11  1  0.660217  0.830108  0.750000  1
