# generated using pymatgen
data_Dy3Mn(P3Ir4)2
_symmetry_space_group_name_H-M   'P 1'
_cell_length_a   3.95457200
_cell_length_b   11.26307100
_cell_length_c   12.57878100
_cell_angle_alpha   90.00000000
_cell_angle_beta   90.00000000
_cell_angle_gamma   90.00000000
_symmetry_Int_Tables_number   1
_chemical_formula_structural   Dy3Mn(P3Ir4)2
_chemical_formula_sum   'Dy6 Mn2 P12 Ir16'
_cell_volume   560.26677013
_cell_formula_units_Z   2
loop_
 _symmetry_equiv_pos_site_id
 _symmetry_equiv_pos_as_xyz
  1  'x, y, z'
loop_
 _atom_site_type_symbol
 _atom_site_label
 _atom_site_symmetry_multiplicity
 _atom_site_fract_x
 _atom_site_fract_y
 _atom_site_fract_z
 _atom_site_occupancy
  Dy  Dy0  1  0.000000  0.500000  0.522423  1
  Dy  Dy1  1  0.500000  0.000000  0.477577  1
  Dy  Dy2  1  0.500000  0.822367  0.200604  1
  Dy  Dy3  1  0.500000  0.177633  0.200604  1
  Dy  Dy4  1  0.000000  0.677633  0.799396  1
  Dy  Dy5  1  0.000000  0.322367  0.799396  1
  Mn  Mn6  1  0.000000  0.500000  0.999348  1
  Mn  Mn7  1  0.500000  0.000000  0.000652  1
  P  P8  1  0.500000  0.500000  0.884477  1
  P  P9  1  0.000000  0.000000  0.115523  1
  P  P10  1  0.500000  0.500000  0.354119  1
  P  P11  1  0.000000  0.000000  0.645881  1
  P  P12  1  0.500000  0.315276  0.620186  1
  P  P13  1  0.500000  0.684724  0.620186  1
  P  P14  1  0.000000  0.184724  0.379814  1
  P  P15  1  0.000000  0.815276  0.379814  1
  P  P16  1  0.500000  0.844497  0.896801  1
  P  P17  1  0.500000  0.155503  0.896801  1
  P  P18  1  0.000000  0.655503  0.103199  1
  P  P19  1  0.000000  0.344497  0.103199  1
  Ir  Ir20  1  0.500000  0.500000  0.167906  1
  Ir  Ir21  1  0.000000  0.000000  0.832094  1
  Ir  Ir22  1  0.500000  0.500000  0.700841  1
  Ir  Ir23  1  0.000000  0.000000  0.299159  1
  Ir  Ir24  1  0.500000  0.336088  0.992987  1
  Ir  Ir25  1  0.500000  0.663912  0.992987  1
  Ir  Ir26  1  0.000000  0.163912  0.007013  1
  Ir  Ir27  1  0.000000  0.836088  0.007013  1
  Ir  Ir28  1  0.500000  0.295072  0.428941  1
  Ir  Ir29  1  0.500000  0.704928  0.428941  1
  Ir  Ir30  1  0.000000  0.204928  0.571059  1
  Ir  Ir31  1  0.000000  0.795072  0.571059  1
  Ir  Ir32  1  0.500000  0.870174  0.715693  1
  Ir  Ir33  1  0.500000  0.129826  0.715693  1
  Ir  Ir34  1  0.000000  0.629826  0.284307  1
  Ir  Ir35  1  0.000000  0.370174  0.284307  1
