# generated using pymatgen
data_Ca5Si9As3Ir19
_symmetry_space_group_name_H-M   'P 1'
_cell_length_a   12.94779100
_cell_length_b   12.94779181
_cell_length_c   3.99615300
_cell_angle_alpha   90.00000000
_cell_angle_beta   90.00000000
_cell_angle_gamma   120.00000559
_symmetry_Int_Tables_number   1
_chemical_formula_structural   Ca5Si9As3Ir19
_chemical_formula_sum   'Ca5 Si9 As3 Ir19'
_cell_volume   580.18180269
_cell_formula_units_Z   1
loop_
 _symmetry_equiv_pos_site_id
 _symmetry_equiv_pos_as_xyz
  1  'x, y, z'
loop_
 _atom_site_type_symbol
 _atom_site_label
 _atom_site_symmetry_multiplicity
 _atom_site_fract_x
 _atom_site_fract_y
 _atom_site_fract_z
 _atom_site_occupancy
  Ca  Ca0  1  0.000000  0.186140  0.500000  1
  Ca  Ca1  1  0.813860  0.813860  0.500000  1
  Ca  Ca2  1  0.186140  0.000000  0.500000  1
  Ca  Ca3  1  0.666667  0.333333  0.000000  1
  Ca  Ca4  1  0.333333  0.666667  0.000000  1
  Si  Si5  1  0.483166  0.313559  0.500000  1
  Si  Si6  1  0.369683  0.000000  0.000000  1
  Si  Si7  1  0.686441  0.169607  0.500000  1
  Si  Si8  1  0.830393  0.516834  0.500000  1
  Si  Si9  1  0.516834  0.830393  0.500000  1
  Si  Si10  1  0.169607  0.686441  0.500000  1
  Si  Si11  1  0.313559  0.483166  0.500000  1
  Si  Si12  1  0.000000  0.369683  0.000000  1
  Si  Si13  1  0.630317  0.630317  0.000000  1
  As  As14  1  0.818203  0.000000  0.000000  1
  As  As15  1  0.181797  0.181797  0.000000  1
  As  As16  1  0.000000  0.818203  0.000000  1
  Ir  Ir17  1  0.803517  0.185080  0.000000  1
  Ir  Ir18  1  0.381562  0.196483  0.000000  1
  Ir  Ir19  1  0.638992  0.513132  0.500000  1
  Ir  Ir20  1  0.874141  0.361008  0.500000  1
  Ir  Ir21  1  0.361008  0.874141  0.500000  1
  Ir  Ir22  1  0.513132  0.638992  0.500000  1
  Ir  Ir23  1  0.125859  0.486868  0.500000  1
  Ir  Ir24  1  0.814920  0.618438  0.000000  1
  Ir  Ir25  1  0.618438  0.814920  0.000000  1
  Ir  Ir26  1  0.185080  0.803517  0.000000  1
  Ir  Ir27  1  0.196483  0.381562  0.000000  1
  Ir  Ir28  1  0.000000  0.709951  0.500000  1
  Ir  Ir29  1  0.290049  0.290049  0.500000  1
  Ir  Ir30  1  0.709951  0.000000  0.500000  1
  Ir  Ir31  1  0.000000  0.551821  0.000000  1
  Ir  Ir32  1  0.448179  0.448179  0.000000  1
  Ir  Ir33  1  0.551821  0.000000  0.000000  1
  Ir  Ir34  1  0.000000  0.000000  0.000000  1
  Ir  Ir35  1  0.486868  0.125859  0.500000  1
