# generated using pymatgen
data_Mn7NiMo4
_symmetry_space_group_name_H-M   'P 1'
_cell_length_a   4.67849500
_cell_length_b   4.67849566
_cell_length_c   7.83721200
_cell_angle_alpha   90.00000000
_cell_angle_beta   90.00000000
_cell_angle_gamma   120.00000237
_symmetry_Int_Tables_number   1
_chemical_formula_structural   Mn7NiMo4
_chemical_formula_sum   'Mn7 Ni1 Mo4'
_cell_volume   148.56093262
_cell_formula_units_Z   1
loop_
 _symmetry_equiv_pos_site_id
 _symmetry_equiv_pos_as_xyz
  1  'x, y, z'
loop_
 _atom_site_type_symbol
 _atom_site_label
 _atom_site_symmetry_multiplicity
 _atom_site_fract_x
 _atom_site_fract_y
 _atom_site_fract_z
 _atom_site_occupancy
  Mn  Mn0  1  0.172357  0.344713  0.251227  1
  Mn  Mn1  1  0.172356  0.827642  0.251227  1
  Mn  Mn2  1  0.655287  0.827642  0.251227  1
  Mn  Mn3  1  0.000000  0.000000  0.500001  1
  Mn  Mn4  1  0.344714  0.172357  0.748773  1
  Mn  Mn5  1  0.827642  0.172357  0.748773  1
  Mn  Mn6  1  0.827644  0.655286  0.748773  1
  Ni  Ni7  1  0.000000  0.000000  0.000000  1
  Mo  Mo8  1  0.666667  0.333333  0.068426  1
  Mo  Mo9  1  0.666667  0.333333  0.434741  1
  Mo  Mo10  1  0.333333  0.666666  0.565260  1
  Mo  Mo11  1  0.333333  0.666666  0.931574  1
