# generated using pymatgen
data_ErPu3H10
_symmetry_space_group_name_H-M   'P 1'
_cell_length_a   6.43142858
_cell_length_b   6.43142978
_cell_length_c   6.43143050
_cell_angle_alpha   133.04417612
_cell_angle_beta   131.27437200
_cell_angle_gamma   69.98735155
_symmetry_Int_Tables_number   1
_chemical_formula_structural   ErPu3H10
_chemical_formula_sum   'Er1 Pu3 H10'
_cell_volume   143.26266081
_cell_formula_units_Z   1
loop_
 _symmetry_equiv_pos_site_id
 _symmetry_equiv_pos_as_xyz
  1  'x, y, z'
loop_
 _atom_site_type_symbol
 _atom_site_label
 _atom_site_symmetry_multiplicity
 _atom_site_fract_x
 _atom_site_fract_y
 _atom_site_fract_z
 _atom_site_occupancy
  Er  Er0  1  0.508414  0.008414  0.500000  1
  Pu  Pu1  1  0.763547  0.763547  0.000000  1
  Pu  Pu2  1  0.989693  0.489693  0.500000  1
  Pu  Pu3  1  0.236942  0.236942  0.000000  1
  H  H4  1  0.380785  0.393145  0.530172  1
  H  H5  1  0.862973  0.850613  0.469828  1
  H  H6  1  0.596313  0.125588  0.967238  1
  H  H7  1  0.158350  0.629075  0.032762  1
  H  H8  1  0.380785  0.850613  0.987640  1
  H  H9  1  0.862973  0.393145  0.012360  1
  H  H10  1  0.596313  0.629075  0.470725  1
  H  H11  1  0.158350  0.125588  0.529275  1
  H  H12  1  0.754739  0.254739  0.500000  1
  H  H13  1  0.999821  0.999821  0.000000  1
