# generated using pymatgen
data_Ti16VSi16Mo3
_symmetry_space_group_name_H-M   'P 1'
_cell_length_a   6.65436927
_cell_length_b   6.65436858
_cell_length_c   12.15618975
_cell_angle_alpha   90.04827286
_cell_angle_beta   89.95172655
_cell_angle_gamma   89.99018702
_symmetry_Int_Tables_number   1
_chemical_formula_structural   Ti16VSi16Mo3
_chemical_formula_sum   'Ti16 V1 Si16 Mo3'
_cell_volume   538.28329967
_cell_formula_units_Z   1
loop_
 _symmetry_equiv_pos_site_id
 _symmetry_equiv_pos_as_xyz
  1  'x, y, z'
loop_
 _atom_site_type_symbol
 _atom_site_label
 _atom_site_symmetry_multiplicity
 _atom_site_fract_x
 _atom_site_fract_y
 _atom_site_fract_z
 _atom_site_occupancy
  Ti  Ti0  1  0.995378  0.148469  0.620953  1
  Ti  Ti1  1  0.351359  0.495242  0.871492  1
  Ti  Ti2  1  0.649319  0.504997  0.372770  1
  Ti  Ti3  1  0.495242  0.351359  0.128508  1
  Ti  Ti4  1  0.504997  0.649319  0.627230  1
  Ti  Ti5  1  0.004649  0.850564  0.122229  1
  Ti  Ti6  1  0.148469  0.995378  0.379047  1
  Ti  Ti7  1  0.850564  0.004649  0.877771  1
  Ti  Ti8  1  0.000688  0.342016  0.222753  1
  Ti  Ti9  1  0.157961  0.502039  0.471620  1
  Ti  Ti10  1  0.839990  0.499474  0.972314  1
  Ti  Ti11  1  0.502039  0.157961  0.528380  1
  Ti  Ti12  1  0.499474  0.839990  0.027686  1
  Ti  Ti13  1  0.999202  0.659661  0.721317  1
  Ti  Ti14  1  0.342016  0.000688  0.777247  1
  Ti  Ti15  1  0.659661  0.999202  0.278683  1
  V  V16  1  0.829249  0.829249  0.500000  1
  Si  Si17  1  0.043273  0.302794  0.813767  1
  Si  Si18  1  0.196944  0.543056  0.064273  1
  Si  Si19  1  0.804082  0.459802  0.563845  1
  Si  Si20  1  0.543056  0.196944  0.935727  1
  Si  Si21  1  0.459802  0.804082  0.436155  1
  Si  Si22  1  0.954375  0.699809  0.316896  1
  Si  Si23  1  0.302794  0.043273  0.186233  1
  Si  Si24  1  0.699809  0.954375  0.683104  1
  Si  Si25  1  0.293632  0.358841  0.672072  1
  Si  Si26  1  0.141185  0.793599  0.922290  1
  Si  Si27  1  0.856995  0.203801  0.424161  1
  Si  Si28  1  0.793599  0.141185  0.077710  1
  Si  Si29  1  0.203801  0.856995  0.575839  1
  Si  Si30  1  0.706442  0.641470  0.173514  1
  Si  Si31  1  0.358841  0.293632  0.327928  1
  Si  Si32  1  0.641470  0.706442  0.826486  1
  Mo  Mo33  1  0.170650  0.170650  0.000000  1
  Mo  Mo34  1  0.328017  0.670977  0.250382  1
  Mo  Mo35  1  0.670977  0.328017  0.749618  1
