# generated using pymatgen
data_Tb6C3Cl5
_symmetry_space_group_name_H-M   'P 1'
_cell_length_a   3.68167705
_cell_length_b   8.38778317
_cell_length_c   10.29459197
_cell_angle_alpha   85.59417646
_cell_angle_beta   79.62756165
_cell_angle_gamma   77.33513116
_symmetry_Int_Tables_number   1
_chemical_formula_structural   Tb6C3Cl5
_chemical_formula_sum   'Tb6 C3 Cl5'
_cell_volume   304.87355809
_cell_formula_units_Z   1
loop_
 _symmetry_equiv_pos_site_id
 _symmetry_equiv_pos_as_xyz
  1  'x, y, z'
loop_
 _atom_site_type_symbol
 _atom_site_label
 _atom_site_symmetry_multiplicity
 _atom_site_fract_x
 _atom_site_fract_y
 _atom_site_fract_z
 _atom_site_occupancy
  Tb  Tb0  1  0.572537  0.075318  0.780663  1
  Tb  Tb1  1  0.958063  0.429693  0.658198  1
  Tb  Tb2  1  0.684452  0.179784  0.454537  1
  Tb  Tb3  1  0.047794  0.568152  0.340827  1
  Tb  Tb4  1  0.320591  0.818789  0.543712  1
  Tb  Tb5  1  0.432193  0.922483  0.217542  1
  C  C6  1  0.126883  0.124295  0.625635  1
  C  C7  1  0.877557  0.874427  0.372524  1
  C  C8  1  0.502682  0.498826  0.499538  1
  Cl  Cl9  1  0.750042  0.747145  0.754799  1
  Cl  Cl10  1  0.380206  0.378659  0.868612  1
  Cl  Cl11  1  0.252827  0.250866  0.243134  1
  Cl  Cl12  1  0.628305  0.618162  0.130912  1
  Cl  Cl13  1  0.003088  0.996991  0.998682  1
