# generated using pymatgen
data_Sc3Ga3GePt2
_symmetry_space_group_name_H-M   'P 1'
_cell_length_a   6.97167000
_cell_length_b   6.97166972
_cell_length_c   3.82417700
_cell_angle_alpha   90.00000000
_cell_angle_beta   90.00000000
_cell_angle_gamma   120.00000134
_symmetry_Int_Tables_number   1
_chemical_formula_structural   Sc3Ga3GePt2
_chemical_formula_sum   'Sc3 Ga3 Ge1 Pt2'
_cell_volume   160.96899665
_cell_formula_units_Z   1
loop_
 _symmetry_equiv_pos_site_id
 _symmetry_equiv_pos_as_xyz
  1  'x, y, z'
loop_
 _atom_site_type_symbol
 _atom_site_label
 _atom_site_symmetry_multiplicity
 _atom_site_fract_x
 _atom_site_fract_y
 _atom_site_fract_z
 _atom_site_occupancy
  Sc  Sc0  1  0.404134  0.995020  0.499999  1
  Sc  Sc1  1  0.004980  0.409116  0.499999  1
  Sc  Sc2  1  0.590884  0.595865  0.499999  1
  Ga  Ga3  1  0.739228  0.989244  0.000000  1
  Ga  Ga4  1  0.250017  0.260771  0.000000  1
  Ga  Ga5  1  0.010756  0.749984  0.000000  1
  Ge  Ge6  1  0.666667  0.333334  0.000000  1
  Pt  Pt7  1  0.333333  0.666666  0.000000  1
  Pt  Pt8  1  0.000000  0.000000  0.499999  1
