# generated using pymatgen
data_Tl2Pd(S4O13)2
_symmetry_space_group_name_H-M   'P 1'
_cell_length_a   7.72490885
_cell_length_b   8.78304284
_cell_length_c   9.47608800
_cell_angle_alpha   108.06696162
_cell_angle_beta   88.93404643
_cell_angle_gamma   106.84158338
_symmetry_Int_Tables_number   1
_chemical_formula_structural   Tl2Pd(S4O13)2
_chemical_formula_sum   'Tl2 Pd1 S8 O26'
_cell_volume   583.22301373
_cell_formula_units_Z   1
loop_
 _symmetry_equiv_pos_site_id
 _symmetry_equiv_pos_as_xyz
  1  'x, y, z'
loop_
 _atom_site_type_symbol
 _atom_site_label
 _atom_site_symmetry_multiplicity
 _atom_site_fract_x
 _atom_site_fract_y
 _atom_site_fract_z
 _atom_site_occupancy
  Tl  Tl0  1  0.132300  0.266473  0.882001  1
  Tl  Tl1  1  0.867700  0.733527  0.117999  1
  Pd  Pd2  1  0.500000  0.500000  0.500000  1
  S  S3  1  0.668878  0.360612  0.708825  1
  S  S4  1  0.331122  0.639388  0.291175  1
  S  S5  1  0.875017  0.190026  0.482627  1
  S  S6  1  0.124983  0.809974  0.517373  1
  S  S7  1  0.388701  0.154356  0.228328  1
  S  S8  1  0.611299  0.845644  0.771672  1
  S  S9  1  0.786780  0.222521  0.195914  1
  S  S10  1  0.213220  0.777479  0.804086  1
  O  O11  1  0.698048  0.184293  0.570043  1
  O  O12  1  0.301952  0.815707  0.429957  1
  O  O13  1  0.701229  0.485959  0.626816  1
  O  O14  1  0.298771  0.514041  0.373184  1
  O  O15  1  0.812052  0.408783  0.823186  1
  O  O16  1  0.187948  0.591217  0.176814  1
  O  O17  1  0.851316  0.301468  0.375904  1
  O  O18  1  0.148684  0.698532  0.624096  1
  O  O19  1  0.034138  0.293157  0.577930  1
  O  O20  1  0.965862  0.706843  0.422070  1
  O  O21  1  0.484396  0.292769  0.736803  1
  O  O22  1  0.515604  0.707231  0.263197  1
  O  O23  1  0.855220  0.021644  0.392367  1
  O  O24  1  0.144780  0.978356  0.607633  1
  O  O25  1  0.420764  0.247117  0.391398  1
  O  O26  1  0.579236  0.752883  0.608602  1
  O  O27  1  0.594148  0.095927  0.190315  1
  O  O28  1  0.405852  0.904073  0.809685  1
  O  O29  1  0.780310  0.366363  0.159088  1
  O  O30  1  0.219690  0.633637  0.840912  1
  O  O31  1  0.901901  0.124457  0.124709  1
  O  O32  1  0.098099  0.875543  0.875291  1
  O  O33  1  0.383278  0.250959  0.132037  1
  O  O34  1  0.616722  0.749041  0.867963  1
  O  O35  1  0.265511  0.989246  0.199447  1
  O  O36  1  0.734489  0.010754  0.800553  1
