# generated using pymatgen
data_LaPr2Sn3Hg2
_symmetry_space_group_name_H-M   'P 1'
_cell_length_a   6.67491990
_cell_length_b   6.67491981
_cell_length_c   10.52500300
_cell_angle_alpha   90.00000000
_cell_angle_beta   90.00000000
_cell_angle_gamma   103.12107529
_symmetry_Int_Tables_number   1
_chemical_formula_structural   LaPr2Sn3Hg2
_chemical_formula_sum   'La2 Pr4 Sn6 Hg4'
_cell_volume   456.69407237
_cell_formula_units_Z   2
loop_
 _symmetry_equiv_pos_site_id
 _symmetry_equiv_pos_as_xyz
  1  'x, y, z'
loop_
 _atom_site_type_symbol
 _atom_site_label
 _atom_site_symmetry_multiplicity
 _atom_site_fract_x
 _atom_site_fract_y
 _atom_site_fract_z
 _atom_site_occupancy
  La  La0  1  0.795250  0.204750  0.500000  1
  La  La1  1  0.795250  0.204750  0.000000  1
  Pr  Pr2  1  0.628257  0.630383  0.250000  1
  Pr  Pr3  1  0.369617  0.371743  0.750000  1
  Pr  Pr4  1  0.204434  0.795566  0.500000  1
  Pr  Pr5  1  0.204434  0.795566  0.000000  1
  Sn  Sn6  1  0.019832  0.019042  0.250000  1
  Sn  Sn7  1  0.980958  0.980168  0.750000  1
  Sn  Sn8  1  0.489914  0.067291  0.250000  1
  Sn  Sn9  1  0.932709  0.510086  0.750000  1
  Sn  Sn10  1  0.509016  0.930764  0.750000  1
  Sn  Sn11  1  0.069236  0.490984  0.250000  1
  Hg  Hg12  1  0.313869  0.313322  0.044692  1
  Hg  Hg13  1  0.686678  0.686131  0.955308  1
  Hg  Hg14  1  0.313869  0.313322  0.455308  1
  Hg  Hg15  1  0.686678  0.686131  0.544692  1
