# generated using pymatgen
data_Ho8CrSi16W11
_symmetry_space_group_name_H-M   'P 1'
_cell_length_a   6.86766725
_cell_length_b   6.86766794
_cell_length_c   12.75587402
_cell_angle_alpha   89.95093441
_cell_angle_beta   90.04906140
_cell_angle_gamma   90.09961034
_symmetry_Int_Tables_number   1
_chemical_formula_structural   Ho8CrSi16W11
_chemical_formula_sum   'Ho8 Cr1 Si16 W11'
_cell_volume   601.62763965
_cell_formula_units_Z   1
loop_
 _symmetry_equiv_pos_site_id
 _symmetry_equiv_pos_as_xyz
  1  'x, y, z'
loop_
 _atom_site_type_symbol
 _atom_site_label
 _atom_site_symmetry_multiplicity
 _atom_site_fract_x
 _atom_site_fract_y
 _atom_site_fract_z
 _atom_site_occupancy
  Ho  Ho0  1  0.337608  0.998087  0.468593  1
  Ho  Ho1  1  0.501218  0.837279  0.718454  1
  Ho  Ho2  1  0.497704  0.162840  0.219654  1
  Ho  Ho3  1  0.837279  0.501218  0.281546  1
  Ho  Ho4  1  0.162840  0.497704  0.780346  1
  Ho  Ho5  1  0.662960  0.002016  0.968983  1
  Ho  Ho6  1  0.998087  0.337608  0.531407  1
  Ho  Ho7  1  0.002016  0.662960  0.031017  1
  Cr  Cr8  1  0.667426  0.667426  0.500000  1
  Si  Si9  1  0.201293  0.125923  0.682803  1
  Si  Si10  1  0.374417  0.701070  0.933363  1
  Si  Si11  1  0.626455  0.300947  0.434913  1
  Si  Si12  1  0.701070  0.374417  0.066637  1
  Si  Si13  1  0.300947  0.626455  0.565087  1
  Si  Si14  1  0.796879  0.873669  0.184295  1
  Si  Si15  1  0.125923  0.201293  0.317197  1
  Si  Si16  1  0.873669  0.796879  0.815705  1
  Si  Si17  1  0.287747  0.964943  0.063470  1
  Si  Si18  1  0.537676  0.788681  0.315705  1
  Si  Si19  1  0.463824  0.210044  0.813376  1
  Si  Si20  1  0.788681  0.537676  0.684295  1
  Si  Si21  1  0.210044  0.463824  0.186624  1
  Si  Si22  1  0.710832  0.035079  0.563776  1
  Si  Si23  1  0.964943  0.287747  0.936530  1
  Si  Si24  1  0.035079  0.710832  0.436224  1
  W  W25  1  0.332321  0.332321  0.000000  1
  W  W26  1  0.166980  0.834237  0.248983  1
  W  W27  1  0.834237  0.166980  0.751017  1
  W  W28  1  0.165324  0.997670  0.872400  1
  W  W29  1  0.499117  0.665453  0.124778  1
  W  W30  1  0.499727  0.337741  0.623460  1
  W  W31  1  0.665453  0.499117  0.875222  1
  W  W32  1  0.337741  0.499727  0.376540  1
  W  W33  1  0.833957  0.000852  0.375181  1
  W  W34  1  0.997670  0.165324  0.127600  1
  W  W35  1  0.000852  0.833957  0.624819  1
