# generated using pymatgen
data_Ce6Co17MoP12
_symmetry_space_group_name_H-M   'P 1'
_cell_length_a   3.76665400
_cell_length_b   10.55621000
_cell_length_c   12.37431400
_cell_angle_alpha   90.00000000
_cell_angle_beta   90.00000000
_cell_angle_gamma   90.00000000
_symmetry_Int_Tables_number   1
_chemical_formula_structural   Ce6Co17MoP12
_chemical_formula_sum   'Ce6 Co17 Mo1 P12'
_cell_volume   492.02240749
_cell_formula_units_Z   1
loop_
 _symmetry_equiv_pos_site_id
 _symmetry_equiv_pos_as_xyz
  1  'x, y, z'
loop_
 _atom_site_type_symbol
 _atom_site_label
 _atom_site_symmetry_multiplicity
 _atom_site_fract_x
 _atom_site_fract_y
 _atom_site_fract_z
 _atom_site_occupancy
  Ce  Ce0  1  0.000000  0.500000  0.525330  1
  Ce  Ce1  1  0.500000  0.000000  0.477843  1
  Ce  Ce2  1  0.500000  0.819612  0.209225  1
  Ce  Ce3  1  0.500000  0.180388  0.209225  1
  Ce  Ce4  1  0.000000  0.683210  0.793344  1
  Ce  Ce5  1  0.000000  0.316790  0.793344  1
  Co  Co6  1  0.000000  0.000000  0.839920  1
  Co  Co7  1  0.500000  0.500000  0.703234  1
  Co  Co8  1  0.000000  0.000000  0.296381  1
  Co  Co9  1  0.000000  0.500000  0.986124  1
  Co  Co10  1  0.500000  0.000000  0.016000  1
  Co  Co11  1  0.500000  0.331349  0.991197  1
  Co  Co12  1  0.500000  0.668651  0.991197  1
  Co  Co13  1  0.000000  0.165405  0.003965  1
  Co  Co14  1  0.000000  0.834595  0.003965  1
  Co  Co15  1  0.500000  0.299964  0.429636  1
  Co  Co16  1  0.500000  0.700036  0.429636  1
  Co  Co17  1  0.000000  0.198969  0.571753  1
  Co  Co18  1  0.000000  0.801031  0.571753  1
  Co  Co19  1  0.500000  0.880339  0.712723  1
  Co  Co20  1  0.500000  0.119661  0.712723  1
  Co  Co21  1  0.000000  0.620908  0.288144  1
  Co  Co22  1  0.000000  0.379092  0.288144  1
  Mo  Mo23  1  0.500000  0.500000  0.154050  1
  P  P24  1  0.500000  0.500000  0.884576  1
  P  P25  1  0.000000  0.000000  0.113908  1
  P  P26  1  0.500000  0.500000  0.345848  1
  P  P27  1  0.000000  0.000000  0.658756  1
  P  P28  1  0.500000  0.306204  0.613664  1
  P  P29  1  0.500000  0.693796  0.613664  1
  P  P30  1  0.000000  0.193357  0.388164  1
  P  P31  1  0.000000  0.806643  0.388164  1
  P  P32  1  0.500000  0.851102  0.894192  1
  P  P33  1  0.500000  0.148898  0.894192  1
  P  P34  1  0.000000  0.656946  0.103011  1
  P  P35  1  0.000000  0.343054  0.103011  1
