# generated using pymatgen
data_Sr4Tb2SbRuO12
_symmetry_space_group_name_H-M   'P 1'
_cell_length_a   5.84482036
_cell_length_b   5.91870104
_cell_length_c   8.30572533
_cell_angle_alpha   90.23848360
_cell_angle_beta   90.32073076
_cell_angle_gamma   90.03179602
_symmetry_Int_Tables_number   1
_chemical_formula_structural   Sr4Tb2SbRuO12
_chemical_formula_sum   'Sr4 Tb2 Sb1 Ru1 O12'
_cell_volume   287.31910002
_cell_formula_units_Z   1
loop_
 _symmetry_equiv_pos_site_id
 _symmetry_equiv_pos_as_xyz
  1  'x, y, z'
loop_
 _atom_site_type_symbol
 _atom_site_label
 _atom_site_symmetry_multiplicity
 _atom_site_fract_x
 _atom_site_fract_y
 _atom_site_fract_z
 _atom_site_occupancy
  Sr  Sr0  1  0.009052  0.535423  0.253315  1
  Sr  Sr1  1  0.491608  0.039706  0.254931  1
  Sr  Sr2  1  0.508393  0.960294  0.745069  1
  Sr  Sr3  1  0.990948  0.464578  0.746686  1
  Tb  Tb4  1  0.500000  0.499999  0.999999  1
  Tb  Tb5  1  0.000000  0.000000  0.500000  1
  Sb  Sb6  1  0.000000  0.000000  0.000000  1
  Ru  Ru7  1  0.500000  0.499999  0.500000  1
  O  O8  1  0.273871  0.802268  0.042027  1
  O  O9  1  0.194197  0.275586  0.043938  1
  O  O10  1  0.920162  0.978601  0.235522  1
  O  O11  1  0.576855  0.478717  0.267400  1
  O  O12  1  0.305719  0.772014  0.459163  1
  O  O13  1  0.229124  0.302245  0.460567  1
  O  O14  1  0.770877  0.697755  0.539432  1
  O  O15  1  0.694281  0.227986  0.540837  1
  O  O16  1  0.423145  0.521282  0.732600  1
  O  O17  1  0.079838  0.021399  0.764478  1
  O  O18  1  0.805804  0.724414  0.956061  1
  O  O19  1  0.726129  0.197730  0.957973  1
