# generated using pymatgen
data_Y4Sc3GaPt4
_symmetry_space_group_name_H-M   'P 1'
_cell_length_a   4.51404700
_cell_length_b   7.05759133
_cell_length_c   8.31825562
_cell_angle_alpha   93.15904828
_cell_angle_beta   90.00000000
_cell_angle_gamma   90.00000000
_symmetry_Int_Tables_number   1
_chemical_formula_structural   Y4Sc3GaPt4
_chemical_formula_sum   'Y4 Sc3 Ga1 Pt4'
_cell_volume   264.60277386
_cell_formula_units_Z   1
loop_
 _symmetry_equiv_pos_site_id
 _symmetry_equiv_pos_as_xyz
  1  'x, y, z'
loop_
 _atom_site_type_symbol
 _atom_site_label
 _atom_site_symmetry_multiplicity
 _atom_site_fract_x
 _atom_site_fract_y
 _atom_site_fract_z
 _atom_site_occupancy
  Y  Y0  1  0.250000  0.982293  0.312959  1
  Y  Y1  1  0.250000  0.457869  0.170442  1
  Y  Y2  1  0.750000  0.033053  0.685269  1
  Y  Y3  1  0.750000  0.506759  0.840770  1
  Sc  Sc4  1  0.250000  0.369615  0.570938  1
  Sc  Sc5  1  0.250000  0.858920  0.936618  1
  Sc  Sc6  1  0.750000  0.640001  0.428029  1
  Ga  Ga7  1  0.750000  0.138440  0.069938  1
  Pt  Pt8  1  0.250000  0.233585  0.876599  1
  Pt  Pt9  1  0.250000  0.754062  0.600360  1
  Pt  Pt10  1  0.750000  0.764844  0.115674  1
  Pt  Pt11  1  0.750000  0.260559  0.392404  1
