# generated using pymatgen
data_Nd5SmHg10
_symmetry_space_group_name_H-M   'P 1'
_cell_length_a   6.53852140
_cell_length_b   6.53852104
_cell_length_c   10.49936000
_cell_angle_alpha   90.00000000
_cell_angle_beta   90.00000000
_cell_angle_gamma   105.89273288
_symmetry_Int_Tables_number   1
_chemical_formula_structural   Nd5SmHg10
_chemical_formula_sum   'Nd5 Sm1 Hg10'
_cell_volume   431.71372930
_cell_formula_units_Z   1
loop_
 _symmetry_equiv_pos_site_id
 _symmetry_equiv_pos_as_xyz
  1  'x, y, z'
loop_
 _atom_site_type_symbol
 _atom_site_label
 _atom_site_symmetry_multiplicity
 _atom_site_fract_x
 _atom_site_fract_y
 _atom_site_fract_z
 _atom_site_occupancy
  Nd  Nd0  1  0.578811  0.578811  0.250000  1
  Nd  Nd1  1  0.208134  0.791990  0.500231  1
  Nd  Nd2  1  0.208134  0.791990  0.999769  1
  Nd  Nd3  1  0.791990  0.208134  0.500231  1
  Nd  Nd4  1  0.791990  0.208134  0.999769  1
  Sm  Sm5  1  0.420600  0.420600  0.750000  1
  Hg  Hg6  1  0.985996  0.985996  0.250000  1
  Hg  Hg7  1  0.015664  0.015664  0.750000  1
  Hg  Hg8  1  0.297493  0.297493  0.028995  1
  Hg  Hg9  1  0.701950  0.701950  0.968330  1
  Hg  Hg10  1  0.297493  0.297493  0.471005  1
  Hg  Hg11  1  0.701950  0.701950  0.531670  1
  Hg  Hg12  1  0.481677  0.043906  0.250000  1
  Hg  Hg13  1  0.956556  0.517657  0.750000  1
  Hg  Hg14  1  0.517657  0.956556  0.750000  1
  Hg  Hg15  1  0.043906  0.481677  0.250000  1
