# generated using pymatgen
data_Ba2InSb3Pt2
_symmetry_space_group_name_H-M   'P 1'
_cell_length_a   9.87064108
_cell_length_b   9.87064157
_cell_length_c   4.90534500
_cell_angle_alpha   90.00000000
_cell_angle_beta   90.00000000
_cell_angle_gamma   151.19939763
_symmetry_Int_Tables_number   1
_chemical_formula_structural   Ba2InSb3Pt2
_chemical_formula_sum   'Ba2 In1 Sb3 Pt2'
_cell_volume   230.24681968
_cell_formula_units_Z   1
loop_
 _symmetry_equiv_pos_site_id
 _symmetry_equiv_pos_as_xyz
  1  'x, y, z'
loop_
 _atom_site_type_symbol
 _atom_site_label
 _atom_site_symmetry_multiplicity
 _atom_site_fract_x
 _atom_site_fract_y
 _atom_site_fract_z
 _atom_site_occupancy
  Ba  Ba0  1  0.107027  0.892972  0.250001  1
  Ba  Ba1  1  0.893780  0.106219  0.750000  1
  In  In2  1  0.749736  0.250262  0.250001  1
  Sb  Sb3  1  0.455154  0.544845  0.250001  1
  Sb  Sb4  1  0.545099  0.454900  0.750000  1
  Sb  Sb5  1  0.249855  0.750143  0.750000  1
  Pt  Pt6  1  0.315985  0.684014  0.250001  1
  Pt  Pt7  1  0.683358  0.316641  0.750000  1
