# generated using pymatgen
data_Y9Ho6Lu5Pt16
_symmetry_space_group_name_H-M   'P 1'
_cell_length_a   7.45234951
_cell_length_b   7.54441307
_cell_length_c   14.64776117
_cell_angle_alpha   89.94070869
_cell_angle_beta   89.97426831
_cell_angle_gamma   89.99494287
_symmetry_Int_Tables_number   1
_chemical_formula_structural   Y9Ho6Lu5Pt16
_chemical_formula_sum   'Y9 Ho6 Lu5 Pt16'
_cell_volume   823.54938316
_cell_formula_units_Z   1
loop_
 _symmetry_equiv_pos_site_id
 _symmetry_equiv_pos_as_xyz
  1  'x, y, z'
loop_
 _atom_site_type_symbol
 _atom_site_label
 _atom_site_symmetry_multiplicity
 _atom_site_fract_x
 _atom_site_fract_y
 _atom_site_fract_z
 _atom_site_occupancy
  Y  Y0  1  0.656281  0.831857  0.877218  1
  Y  Y1  1  0.998025  0.820720  0.406276  1
  Y  Y2  1  0.498265  0.679553  0.093908  1
  Y  Y3  1  0.502106  0.320476  0.593751  1
  Y  Y4  1  0.002065  0.179811  0.905870  1
  Y  Y5  1  0.001082  0.177912  0.593979  1
  Y  Y6  1  0.501840  0.320590  0.905650  1
  Y  Y7  1  0.498477  0.679773  0.407296  1
  Y  Y8  1  0.998088  0.820586  0.093714  1
  Ho  Ho9  1  0.156241  0.668428  0.876801  1
  Ho  Ho10  1  0.843171  0.331196  0.378061  1
  Ho  Ho11  1  0.343851  0.168488  0.122739  1
  Ho  Ho12  1  0.343959  0.168120  0.377743  1
  Ho  Ho13  1  0.843786  0.331429  0.122819  1
  Ho  Ho14  1  0.156032  0.668286  0.622229  1
  Lu  Lu15  1  0.680951  0.988232  0.250150  1
  Lu  Lu16  1  0.181023  0.511534  0.250287  1
  Lu  Lu17  1  0.818813  0.488730  0.749131  1
  Lu  Lu18  1  0.319208  0.010983  0.749189  1
  Lu  Lu19  1  0.656065  0.832054  0.623403  1
  Pt  Pt20  1  0.817759  0.642830  0.250277  1
  Pt  Pt21  1  0.318321  0.856986  0.250398  1
  Pt  Pt22  1  0.682157  0.143337  0.748333  1
  Pt  Pt23  1  0.182929  0.357335  0.749451  1
  Pt  Pt24  1  0.545421  0.387510  0.250425  1
  Pt  Pt25  1  0.045254  0.112488  0.250458  1
  Pt  Pt26  1  0.954813  0.887036  0.748114  1
  Pt  Pt27  1  0.454302  0.613025  0.748188  1
  Pt  Pt28  1  0.816058  0.535067  0.543147  1
  Pt  Pt29  1  0.316613  0.968593  0.957245  1
  Pt  Pt30  1  0.682432  0.031001  0.458800  1
  Pt  Pt31  1  0.181767  0.468156  0.042918  1
  Pt  Pt32  1  0.180878  0.467766  0.457082  1
  Pt  Pt33  1  0.681577  0.032819  0.043929  1
  Pt  Pt34  1  0.320812  0.967383  0.543760  1
  Pt  Pt35  1  0.819577  0.529909  0.957266  1
