# generated using pymatgen
data_Ac9Tm11Pb16
_symmetry_space_group_name_H-M   'P 1'
_cell_length_a   8.49256050
_cell_length_b   8.55460561
_cell_length_c   16.25193665
_cell_angle_alpha   90.08035058
_cell_angle_beta   89.92569177
_cell_angle_gamma   90.29036557
_symmetry_Int_Tables_number   1
_chemical_formula_structural   Ac9Tm11Pb16
_chemical_formula_sum   'Ac9 Tm11 Pb16'
_cell_volume   1180.69411142
_cell_formula_units_Z   1
loop_
 _symmetry_equiv_pos_site_id
 _symmetry_equiv_pos_as_xyz
  1  'x, y, z'
loop_
 _atom_site_type_symbol
 _atom_site_label
 _atom_site_symmetry_multiplicity
 _atom_site_fract_x
 _atom_site_fract_y
 _atom_site_fract_z
 _atom_site_occupancy
  Ac  Ac0  1  0.862202  0.658629  0.882126  1
  Ac  Ac1  1  0.524523  0.321490  0.903185  1
  Ac  Ac2  1  0.023790  0.175847  0.591959  1
  Ac  Ac3  1  0.477668  0.676553  0.405069  1
  Ac  Ac4  1  0.975798  0.823660  0.099678  1
  Ac  Ac5  1  0.477875  0.676128  0.098562  1
  Ac  Ac6  1  0.977928  0.823971  0.404305  1
  Ac  Ac7  1  0.521990  0.321522  0.593910  1
  Ac  Ac8  1  0.023647  0.176074  0.903312  1
  Tm  Tm9  1  0.362482  0.842145  0.873903  1
  Tm  Tm10  1  0.861329  0.654882  0.622874  1
  Tm  Tm11  1  0.639493  0.154485  0.376324  1
  Tm  Tm12  1  0.137218  0.346687  0.123893  1
  Tm  Tm13  1  0.632483  0.156246  0.129796  1
  Tm  Tm14  1  0.136855  0.343613  0.375634  1
  Tm  Tm15  1  0.362480  0.847293  0.619599  1
  Tm  Tm16  1  0.200009  0.506321  0.747203  1
  Tm  Tm17  1  0.695577  0.994954  0.746410  1
  Tm  Tm18  1  0.802258  0.492788  0.252650  1
  Tm  Tm19  1  0.301396  0.007123  0.250876  1
  Pb  Pb20  1  0.301723  0.045905  0.046428  1
  Pb  Pb21  1  0.804455  0.452963  0.453670  1
  Pb  Pb22  1  0.697684  0.951665  0.544872  1
  Pb  Pb23  1  0.214775  0.542082  0.954986  1
  Pb  Pb24  1  0.684249  0.967171  0.959845  1
  Pb  Pb25  1  0.195158  0.546902  0.544849  1
  Pb  Pb26  1  0.304740  0.048914  0.451389  1
  Pb  Pb27  1  0.800559  0.443844  0.054638  1
  Pb  Pb28  1  0.551975  0.638544  0.743200  1
  Pb  Pb29  1  0.062558  0.869171  0.744301  1
  Pb  Pb30  1  0.441183  0.364594  0.252707  1
  Pb  Pb31  1  0.943610  0.136582  0.250435  1
  Pb  Pb32  1  0.335315  0.145152  0.748249  1
  Pb  Pb33  1  0.835190  0.347731  0.745801  1
  Pb  Pb34  1  0.664748  0.853998  0.252255  1
  Pb  Pb35  1  0.165085  0.644372  0.251106  1
