# generated using pymatgen
data_Nd4Al4NiRh3
_symmetry_space_group_name_H-M   'P 1'
_cell_length_a   4.30668000
_cell_length_b   7.04812133
_cell_length_c   8.04985103
_cell_angle_alpha   89.44298723
_cell_angle_beta   90.00000000
_cell_angle_gamma   90.00000000
_symmetry_Int_Tables_number   1
_chemical_formula_structural   Nd4Al4NiRh3
_chemical_formula_sum   'Nd4 Al4 Ni1 Rh3'
_cell_volume   244.33365696
_cell_formula_units_Z   1
loop_
 _symmetry_equiv_pos_site_id
 _symmetry_equiv_pos_as_xyz
  1  'x, y, z'
loop_
 _atom_site_type_symbol
 _atom_site_label
 _atom_site_symmetry_multiplicity
 _atom_site_fract_x
 _atom_site_fract_y
 _atom_site_fract_z
 _atom_site_occupancy
  Nd  Nd0  1  0.250000  0.538116  0.177898  1
  Nd  Nd1  1  0.750000  0.466367  0.820740  1
  Nd  Nd2  1  0.750000  0.962267  0.683748  1
  Nd  Nd3  1  0.250000  0.035789  0.320659  1
  Al  Al4  1  0.250000  0.634162  0.562429  1
  Al  Al5  1  0.750000  0.365407  0.438654  1
  Al  Al6  1  0.750000  0.863188  0.058343  1
  Al  Al7  1  0.250000  0.131367  0.937982  1
  Ni  Ni8  1  0.250000  0.777353  0.881200  1
  Rh  Rh9  1  0.750000  0.227038  0.116069  1
  Rh  Rh10  1  0.750000  0.728439  0.383866  1
  Rh  Rh11  1  0.250000  0.270508  0.618411  1
