# generated using pymatgen
data_TmV3P3Rh2
_symmetry_space_group_name_H-M   'P 1'
_cell_length_a   3.87274500
_cell_length_b   6.82518823
_cell_length_c   9.90868366
_cell_angle_alpha   80.01373527
_cell_angle_beta   90.00000000
_cell_angle_gamma   90.00000000
_symmetry_Int_Tables_number   1
_chemical_formula_structural   TmV3P3Rh2
_chemical_formula_sum   'Tm2 V6 P6 Rh4'
_cell_volume   257.94036049
_cell_formula_units_Z   2
loop_
 _symmetry_equiv_pos_site_id
 _symmetry_equiv_pos_as_xyz
  1  'x, y, z'
loop_
 _atom_site_type_symbol
 _atom_site_label
 _atom_site_symmetry_multiplicity
 _atom_site_fract_x
 _atom_site_fract_y
 _atom_site_fract_z
 _atom_site_occupancy
  Tm  Tm0  1  0.250000  0.804263  0.790884  1
  Tm  Tm1  1  0.750000  0.195737  0.209116  1
  V  V2  1  0.250000  0.612210  0.513526  1
  V  V3  1  0.750000  0.387790  0.486474  1
  V  V4  1  0.250000  0.128593  0.500535  1
  V  V5  1  0.750000  0.871407  0.499465  1
  V  V6  1  0.250000  0.321506  0.726221  1
  V  V7  1  0.750000  0.678494  0.273779  1
  P  P8  1  0.250000  0.255217  0.977238  1
  P  P9  1  0.750000  0.744783  0.022762  1
  P  P10  1  0.250000  0.426670  0.329543  1
  P  P11  1  0.750000  0.573330  0.670457  1
  P  P12  1  0.250000  0.903368  0.337506  1
  P  P13  1  0.750000  0.096632  0.662494  1
  Rh  Rh14  1  0.250000  0.526653  0.096123  1
  Rh  Rh15  1  0.750000  0.473347  0.903877  1
  Rh  Rh16  1  0.250000  0.928319  0.099624  1
  Rh  Rh17  1  0.750000  0.071681  0.900376  1
