# generated using pymatgen
data_Pr2Ni3Sb4Ir
_symmetry_space_group_name_H-M   'P 1'
_cell_length_a   4.50964600
_cell_length_b   4.50964600
_cell_length_c   10.29488100
_cell_angle_alpha   90.00000000
_cell_angle_beta   90.00000000
_cell_angle_gamma   90.00000000
_symmetry_Int_Tables_number   1
_chemical_formula_structural   Pr2Ni3Sb4Ir
_chemical_formula_sum   'Pr2 Ni3 Sb4 Ir1'
_cell_volume   209.36603794
_cell_formula_units_Z   1
loop_
 _symmetry_equiv_pos_site_id
 _symmetry_equiv_pos_as_xyz
  1  'x, y, z'
loop_
 _atom_site_type_symbol
 _atom_site_label
 _atom_site_symmetry_multiplicity
 _atom_site_fract_x
 _atom_site_fract_y
 _atom_site_fract_z
 _atom_site_occupancy
  Pr  Pr0  1  0.000000  0.500000  0.239891  1
  Pr  Pr1  1  0.500000  0.000000  0.759584  1
  Ni  Ni2  1  0.000000  0.000000  0.005053  1
  Ni  Ni3  1  0.500000  0.500000  0.005053  1
  Ni  Ni4  1  0.500000  0.000000  0.371894  1
  Sb  Sb5  1  0.000000  0.000000  0.492407  1
  Sb  Sb6  1  0.500000  0.500000  0.492407  1
  Sb  Sb7  1  0.000000  0.500000  0.880831  1
  Sb  Sb8  1  0.500000  0.000000  0.126921  1
  Ir  Ir9  1  0.000000  0.500000  0.625958  1
