# generated using pymatgen
data_Sr2LaPr2U5O18
_symmetry_space_group_name_H-M   'P 1'
_cell_length_a   6.93322379
_cell_length_b   7.79113339
_cell_length_c   8.74559551
_cell_angle_alpha   101.28538219
_cell_angle_beta   97.96358810
_cell_angle_gamma   107.14041367
_symmetry_Int_Tables_number   1
_chemical_formula_structural   Sr2LaPr2U5O18
_chemical_formula_sum   'Sr2 La1 Pr2 U5 O18'
_cell_volume   432.89233171
_cell_formula_units_Z   1
loop_
 _symmetry_equiv_pos_site_id
 _symmetry_equiv_pos_as_xyz
  1  'x, y, z'
loop_
 _atom_site_type_symbol
 _atom_site_label
 _atom_site_symmetry_multiplicity
 _atom_site_fract_x
 _atom_site_fract_y
 _atom_site_fract_z
 _atom_site_occupancy
  Sr  Sr0  1  0.402503  0.300322  0.802364  1
  Sr  Sr1  1  0.203326  0.897795  0.415500  1
  La  La2  1  0.999273  0.499698  0.000184  1
  Pr  Pr3  1  0.804992  0.109923  0.581396  1
  Pr  Pr4  1  0.596860  0.698303  0.194934  1
  U  U5  1  0.997617  0.998424  0.001310  1
  U  U6  1  0.791165  0.581120  0.587723  1
  U  U7  1  0.626232  0.200719  0.194627  1
  U  U8  1  0.376365  0.799894  0.803526  1
  U  U9  1  0.209308  0.423805  0.413002  1
  O  O10  1  0.814771  0.796676  0.466861  1
  O  O11  1  0.998977  0.247079  0.168568  1
  O  O12  1  0.670996  0.417574  0.069807  1
  O  O13  1  0.475406  0.999700  0.680215  1
  O  O14  1  0.857331  0.337513  0.427310  1
  O  O15  1  0.504357  0.403943  0.344647  1
  O  O16  1  0.254055  0.612714  0.267147  1
  O  O17  1  0.966208  0.812673  0.150406  1
  O  O18  1  0.660087  0.928267  0.002813  1
  O  O19  1  0.334083  0.062587  0.006007  1
  O  O20  1  0.011751  0.174185  0.844117  1
  O  O21  1  0.761812  0.386363  0.728005  1
  O  O22  1  0.498500  0.600210  0.655236  1
  O  O23  1  0.137919  0.657088  0.574542  1
  O  O24  1  0.553042  0.994032  0.321448  1
  O  O25  1  0.331698  0.594825  0.938980  1
  O  O26  1  0.995918  0.756891  0.829457  1
  O  O27  1  0.165446  0.207676  0.529869  1
