# generated using pymatgen
data_Dy5Er7(InSi2)2
_symmetry_space_group_name_H-M   'P 1'
_cell_length_a   8.47279267
_cell_length_b   8.47371650
_cell_length_c   8.47279186
_cell_angle_alpha   112.20255274
_cell_angle_beta   110.91157703
_cell_angle_gamma   105.37413973
_symmetry_Int_Tables_number   1
_chemical_formula_structural   Dy5Er7(InSi2)2
_chemical_formula_sum   'Dy5 Er7 In2 Si4'
_cell_volume   466.46231989
_cell_formula_units_Z   1
loop_
 _symmetry_equiv_pos_site_id
 _symmetry_equiv_pos_as_xyz
  1  'x, y, z'
loop_
 _atom_site_type_symbol
 _atom_site_label
 _atom_site_symmetry_multiplicity
 _atom_site_fract_x
 _atom_site_fract_y
 _atom_site_fract_z
 _atom_site_occupancy
  Dy  Dy0  1  0.186749  0.278839  0.466395  1
  Dy  Dy1  1  0.813487  0.720960  0.534262  1
  Dy  Dy2  1  0.186698  0.720960  0.907472  1
  Dy  Dy3  1  0.812444  0.278839  0.092091  1
  Dy  Dy4  1  0.319555  0.615584  0.296029  1
  Er  Er5  1  0.680527  0.383423  0.702896  1
  Er  Er6  1  0.319472  0.022425  0.702953  1
  Er  Er7  1  0.680623  0.977666  0.297043  1
  Er  Er8  1  0.442222  0.237139  0.204473  1
  Er  Er9  1  0.558305  0.762697  0.795976  1
  Er  Er10  1  0.032666  0.237139  0.794916  1
  Er  Er11  1  0.966721  0.762697  0.204393  1
  In  In12  1  0.500361  0.499862  0.999502  1
  In  In13  1  0.000204  0.000481  0.000277  1
  Si  Si14  1  0.116090  0.616509  0.500419  1
  Si  Si15  1  0.883211  0.383237  0.500026  1
  Si  Si16  1  0.370011  0.000771  0.370116  1
  Si  Si17  1  0.630655  0.000771  0.630760  1
