# generated using pymatgen
data_ThOs3C
_symmetry_space_group_name_H-M   'P 1'
_cell_length_a   4.04071411
_cell_length_b   5.79917596
_cell_length_c   7.73156400
_cell_angle_alpha   90.00000000
_cell_angle_beta   90.00000000
_cell_angle_gamma   69.58706288
_symmetry_Int_Tables_number   1
_chemical_formula_structural   ThOs3C
_chemical_formula_sum   'Th2 Os6 C2'
_cell_volume   169.79525753
_cell_formula_units_Z   2
loop_
 _symmetry_equiv_pos_site_id
 _symmetry_equiv_pos_as_xyz
  1  'x, y, z'
loop_
 _atom_site_type_symbol
 _atom_site_label
 _atom_site_symmetry_multiplicity
 _atom_site_fract_x
 _atom_site_fract_y
 _atom_site_fract_z
 _atom_site_occupancy
  Th  Th0  1  0.960744  0.078918  0.250001  1
  Th  Th1  1  0.039257  0.921083  0.750000  1
  Os  Os2  1  0.232193  0.534834  0.250001  1
  Os  Os3  1  0.767808  0.465165  0.750000  1
  Os  Os4  1  0.670266  0.658517  0.058223  1
  Os  Os5  1  0.670266  0.658517  0.441777  1
  Os  Os6  1  0.329735  0.341483  0.558223  1
  Os  Os7  1  0.329735  0.341483  0.941778  1
  C  C8  1  0.500001  0.000000  0.000000  1
  C  C9  1  0.500001  0.000000  0.500000  1
