# generated using pymatgen
data_Pr2Pa(InIr)3
_symmetry_space_group_name_H-M   'P 1'
_cell_length_a   7.67202334
_cell_length_b   7.90354559
_cell_length_c   3.95573400
_cell_angle_alpha   90.00000000
_cell_angle_beta   90.00000000
_cell_angle_gamma   121.00338936
_symmetry_Int_Tables_number   1
_chemical_formula_structural   Pr2Pa(InIr)3
_chemical_formula_sum   'Pr2 Pa1 In3 Ir3'
_cell_volume   205.59337479
_cell_formula_units_Z   1
loop_
 _symmetry_equiv_pos_site_id
 _symmetry_equiv_pos_as_xyz
  1  'x, y, z'
loop_
 _atom_site_type_symbol
 _atom_site_label
 _atom_site_symmetry_multiplicity
 _atom_site_fract_x
 _atom_site_fract_y
 _atom_site_fract_z
 _atom_site_occupancy
  Pr  Pr0  1  0.408233  0.408236  0.500000  1
  Pr  Pr1  1  0.591767  0.000004  0.500000  1
  Pa  Pa2  1  0.000000  0.584434  0.500000  1
  In  In3  1  0.741011  0.746350  0.000000  1
  In  In4  1  0.000000  0.241925  0.000000  1
  In  In5  1  0.258989  0.005339  0.000000  1
  Ir  Ir6  1  0.289121  0.659586  0.000000  1
  Ir  Ir7  1  0.000000  0.983660  0.500000  1
  Ir  Ir8  1  0.710879  0.370464  0.000000  1
