# generated using pymatgen
data_Tb3Y5(Er3Pb4)4
_symmetry_space_group_name_H-M   'P 1'
_cell_length_a   8.17623701
_cell_length_b   8.24815903
_cell_length_c   15.57276800
_cell_angle_alpha   90.00072244
_cell_angle_beta   89.99660832
_cell_angle_gamma   90.00497373
_symmetry_Int_Tables_number   1
_chemical_formula_structural   Tb3Y5(Er3Pb4)4
_chemical_formula_sum   'Tb3 Y5 Er12 Pb16'
_cell_volume   1050.21038744
_cell_formula_units_Z   1
loop_
 _symmetry_equiv_pos_site_id
 _symmetry_equiv_pos_as_xyz
  1  'x, y, z'
loop_
 _atom_site_type_symbol
 _atom_site_label
 _atom_site_symmetry_multiplicity
 _atom_site_fract_x
 _atom_site_fract_y
 _atom_site_fract_z
 _atom_site_occupancy
  Tb  Tb0  1  0.963625  0.823450  0.400074  1
  Tb  Tb1  1  0.536356  0.323477  0.599912  1
  Tb  Tb2  1  0.036366  0.176512  0.900093  1
  Y  Y3  1  0.536500  0.323288  0.900153  1
  Y  Y4  1  0.036250  0.176789  0.599775  1
  Y  Y5  1  0.463456  0.676603  0.399920  1
  Y  Y6  1  0.963681  0.823279  0.100017  1
  Y  Y7  1  0.463486  0.676674  0.100088  1
  Er  Er8  1  0.376381  0.841497  0.878790  1
  Er  Er9  1  0.876518  0.658618  0.621209  1
  Er  Er10  1  0.623534  0.158582  0.378833  1
  Er  Er11  1  0.123529  0.341444  0.121218  1
  Er  Er12  1  0.623649  0.158439  0.121252  1
  Er  Er13  1  0.123647  0.341557  0.378762  1
  Er  Er14  1  0.376232  0.841668  0.621239  1
  Er  Er15  1  0.876292  0.658448  0.878716  1
  Er  Er16  1  0.208239  0.504810  0.750055  1
  Er  Er17  1  0.708212  0.995165  0.749923  1
  Er  Er18  1  0.791908  0.495184  0.250049  1
  Er  Er19  1  0.291850  0.004846  0.249994  1
  Pb  Pb20  1  0.282632  0.034017  0.042906  1
  Pb  Pb21  1  0.782521  0.465998  0.457092  1
  Pb  Pb22  1  0.717607  0.966012  0.543053  1
  Pb  Pb23  1  0.217662  0.534107  0.956947  1
  Pb  Pb24  1  0.717612  0.965827  0.957009  1
  Pb  Pb25  1  0.217603  0.534101  0.542968  1
  Pb  Pb26  1  0.282440  0.034243  0.457281  1
  Pb  Pb27  1  0.782570  0.465806  0.042785  1
  Pb  Pb28  1  0.570882  0.626759  0.749852  1
  Pb  Pb29  1  0.071020  0.873402  0.750103  1
  Pb  Pb30  1  0.429090  0.373446  0.249966  1
  Pb  Pb31  1  0.928828  0.126224  0.250202  1
  Pb  Pb32  1  0.347649  0.153615  0.750210  1
  Pb  Pb33  1  0.847640  0.346492  0.749820  1
  Pb  Pb34  1  0.652181  0.846042  0.249986  1
  Pb  Pb35  1  0.152351  0.653581  0.249748  1
