# generated using pymatgen
data_GdDyNCl3
_symmetry_space_group_name_H-M   'P 1'
_cell_length_a   8.39293555
_cell_length_b   8.39293664
_cell_length_c   10.73086000
_cell_angle_alpha   60.16885751
_cell_angle_beta   60.16885325
_cell_angle_gamma   26.68055472
_symmetry_Int_Tables_number   1
_chemical_formula_structural   GdDyNCl3
_chemical_formula_sum   'Gd2 Dy2 N2 Cl6'
_cell_volume   291.70131152
_cell_formula_units_Z   2
loop_
 _symmetry_equiv_pos_site_id
 _symmetry_equiv_pos_as_xyz
  1  'x, y, z'
loop_
 _atom_site_type_symbol
 _atom_site_label
 _atom_site_symmetry_multiplicity
 _atom_site_fract_x
 _atom_site_fract_y
 _atom_site_fract_z
 _atom_site_occupancy
  Gd  Gd0  1  0.863204  0.863204  0.292351  1
  Gd  Gd1  1  0.136796  0.136796  0.707649  1
  Dy  Dy2  1  0.584397  0.584397  0.045353  1
  Dy  Dy3  1  0.415603  0.415603  0.954647  1
  N  N4  1  0.425012  0.425012  0.155758  1
  N  N5  1  0.574988  0.574988  0.844242  1
  Cl  Cl6  1  0.049136  0.049136  0.248228  1
  Cl  Cl7  1  0.950864  0.950864  0.751772  1
  Cl  Cl8  1  0.664779  0.664779  0.486777  1
  Cl  Cl9  1  0.335221  0.335221  0.513223  1
  Cl  Cl10  1  0.780547  0.780547  0.111451  1
  Cl  Cl11  1  0.219453  0.219453  0.888549  1
