# generated using pymatgen
data_Nb6Al3Ga(CuC)2
_symmetry_space_group_name_H-M   'P 1'
_cell_length_a   8.31601348
_cell_length_b   8.32071781
_cell_length_c   8.32085562
_cell_angle_alpha   60.03505068
_cell_angle_beta   60.01757368
_cell_angle_gamma   60.01935164
_symmetry_Int_Tables_number   1
_chemical_formula_structural   Nb6Al3Ga(CuC)2
_chemical_formula_sum   'Nb12 Al6 Ga2 Cu4 C4'
_cell_volume   407.34752369
_cell_formula_units_Z   2
loop_
 _symmetry_equiv_pos_site_id
 _symmetry_equiv_pos_as_xyz
  1  'x, y, z'
loop_
 _atom_site_type_symbol
 _atom_site_label
 _atom_site_symmetry_multiplicity
 _atom_site_fract_x
 _atom_site_fract_y
 _atom_site_fract_z
 _atom_site_occupancy
  Nb  Nb0  1  0.566336  0.933386  0.566657  1
  Nb  Nb1  1  0.316706  0.683376  0.683383  1
  Nb  Nb2  1  0.683702  0.316520  0.316522  1
  Nb  Nb3  1  0.316374  0.683339  0.316631  1
  Nb  Nb4  1  0.683614  0.682956  0.316957  1
  Nb  Nb5  1  0.316372  0.316626  0.683342  1
  Nb  Nb6  1  0.566339  0.566661  0.933388  1
  Nb  Nb7  1  0.933482  0.566615  0.566617  1
  Nb  Nb8  1  0.566719  0.933472  0.933486  1
  Nb  Nb9  1  0.933526  0.933037  0.567034  1
  Nb  Nb10  1  0.683603  0.316964  0.682957  1
  Nb  Nb11  1  0.933522  0.567036  0.933052  1
  Al  Al12  1  0.332882  0.999583  0.333537  1
  Al  Al13  1  0.332877  0.333528  0.999599  1
  Al  Al14  1  0.915994  0.250421  0.916489  1
  Al  Al15  1  0.915996  0.916474  0.250427  1
  Al  Al16  1  0.250715  0.916248  0.916242  1
  Al  Al17  1  0.333250  0.333746  0.333736  1
  Ga  Ga18  1  0.915827  0.916210  0.916205  1
  Ga  Ga19  1  0.998257  0.333803  0.333804  1
  Cu  Cu20  1  0.125651  0.123377  0.123368  1
  Cu  Cu21  1  0.622450  0.126609  0.126549  1
  Cu  Cu22  1  0.127469  0.625100  0.124936  1
  Cu  Cu23  1  0.127592  0.124936  0.625087  1
  C  C24  1  0.625163  0.624761  0.624763  1
  C  C25  1  0.124699  0.625224  0.625235  1
  C  C26  1  0.625442  0.124998  0.624997  1
  C  C27  1  0.625443  0.624993  0.125000  1
