# generated using pymatgen
data_Pr3Ge4BiF28
_symmetry_space_group_name_H-M   'P 1'
_cell_length_a   5.56656689
_cell_length_b   9.05242883
_cell_length_c   12.06036700
_cell_angle_alpha   61.78055119
_cell_angle_beta   90.10802341
_cell_angle_gamma   89.95901260
_symmetry_Int_Tables_number   1
_chemical_formula_structural   Pr3Ge4BiF28
_chemical_formula_sum   'Pr3 Ge4 Bi1 F28'
_cell_volume   535.49814994
_cell_formula_units_Z   1
loop_
 _symmetry_equiv_pos_site_id
 _symmetry_equiv_pos_as_xyz
  1  'x, y, z'
loop_
 _atom_site_type_symbol
 _atom_site_label
 _atom_site_symmetry_multiplicity
 _atom_site_fract_x
 _atom_site_fract_y
 _atom_site_fract_z
 _atom_site_occupancy
  Pr  Pr0  1  0.260618  0.194061  0.736782  1
  Pr  Pr1  1  0.240691  0.191695  0.235803  1
  Pr  Pr2  1  0.740840  0.808182  0.263940  1
  Ge  Ge3  1  0.757430  0.275183  0.957725  1
  Ge  Ge4  1  0.258248  0.726598  0.542931  1
  Ge  Ge5  1  0.242408  0.726110  0.040344  1
  Ge  Ge6  1  0.744130  0.273825  0.459011  1
  Bi  Bi7  1  0.767483  0.815149  0.761582  1
  F  F8  1  0.425118  0.708547  0.922825  1
  F  F9  1  0.929419  0.289604  0.578098  1
  F  F10  1  0.571074  0.290192  0.076547  1
  F  F11  1  0.071960  0.709603  0.424179  1
  F  F12  1  0.468522  0.281183  0.540299  1
  F  F13  1  0.961062  0.719740  0.959800  1
  F  F14  1  0.532791  0.716153  0.462188  1
  F  F15  1  0.035059  0.282331  0.037869  1
  F  F16  1  0.766821  0.501196  0.865788  1
  F  F17  1  0.267631  0.496869  0.634239  1
  F  F18  1  0.229292  0.497603  0.133023  1
  F  F19  1  0.732912  0.501894  0.367969  1
  F  F20  1  0.761971  0.046460  0.046493  1
  F  F21  1  0.262983  0.955198  0.452944  1
  F  F22  1  0.238863  0.955134  0.951469  1
  F  F23  1  0.739963  0.043616  0.547986  1
  F  F24  1  0.986048  0.730085  0.626736  1
  F  F25  1  0.487571  0.268997  0.872285  1
  F  F26  1  0.013193  0.270053  0.374252  1
  F  F27  1  0.510467  0.728892  0.127378  1
  F  F28  1  0.057899  0.739783  0.161777  1
  F  F29  1  0.559836  0.260866  0.337574  1
  F  F30  1  0.939708  0.259600  0.835693  1
  F  F31  1  0.439687  0.739511  0.664825  1
  F  F32  1  0.394341  0.964719  0.225266  1
  F  F33  1  0.894389  0.035686  0.274295  1
  F  F34  1  0.609972  0.030059  0.775023  1
  F  F35  1  0.099603  0.965620  0.725063  1
