# generated using pymatgen
data_Dy4Ir5Ru3
_symmetry_space_group_name_H-M   'P 1'
_cell_length_a   5.34848346
_cell_length_b   5.38336606
_cell_length_c   8.71863900
_cell_angle_alpha   90.00000000
_cell_angle_beta   90.00000000
_cell_angle_gamma   120.22279636
_symmetry_Int_Tables_number   1
_chemical_formula_structural   Dy4Ir5Ru3
_chemical_formula_sum   'Dy4 Ir5 Ru3'
_cell_volume   216.91246138
_cell_formula_units_Z   1
loop_
 _symmetry_equiv_pos_site_id
 _symmetry_equiv_pos_as_xyz
  1  'x, y, z'
loop_
 _atom_site_type_symbol
 _atom_site_label
 _atom_site_symmetry_multiplicity
 _atom_site_fract_x
 _atom_site_fract_y
 _atom_site_fract_z
 _atom_site_occupancy
  Dy  Dy0  1  0.666853  0.333363  0.566400  1
  Dy  Dy1  1  0.333443  0.666934  0.434804  1
  Dy  Dy2  1  0.333443  0.666934  0.065196  1
  Dy  Dy3  1  0.666853  0.333363  0.933600  1
  Ir  Ir4  1  0.168852  0.337082  0.750000  1
  Ir  Ir5  1  0.168511  0.830948  0.750000  1
  Ir  Ir6  1  0.660228  0.830002  0.750000  1
  Ir  Ir7  1  0.826574  0.658934  0.250000  1
  Ir  Ir8  1  0.827489  0.168300  0.250000  1
  Ru  Ru9  1  0.004539  0.002497  0.499017  1
  Ru  Ru10  1  0.004539  0.002497  0.000983  1
  Ru  Ru11  1  0.338673  0.169145  0.250000  1
