# generated using pymatgen
data_Tb5Nd(CBr5)2
_symmetry_space_group_name_H-M   'P 1'
_cell_length_a   7.42369689
_cell_length_b   8.95294110
_cell_length_c   9.08480731
_cell_angle_alpha   107.13222762
_cell_angle_beta   96.28689610
_cell_angle_gamma   104.70609671
_symmetry_Int_Tables_number   1
_chemical_formula_structural   Tb5Nd(CBr5)2
_chemical_formula_sum   'Tb5 Nd1 C2 Br10'
_cell_volume   546.91111677
_cell_formula_units_Z   1
loop_
 _symmetry_equiv_pos_site_id
 _symmetry_equiv_pos_as_xyz
  1  'x, y, z'
loop_
 _atom_site_type_symbol
 _atom_site_label
 _atom_site_symmetry_multiplicity
 _atom_site_fract_x
 _atom_site_fract_y
 _atom_site_fract_z
 _atom_site_occupancy
  Tb  Tb0  1  0.112201  0.044111  0.771491  1
  Tb  Tb1  1  0.028579  0.727737  0.919891  1
  Tb  Tb2  1  0.971005  0.272362  0.080625  1
  Tb  Tb3  1  0.616704  0.857788  0.809413  1
  Tb  Tb4  1  0.383576  0.142738  0.190924  1
  Nd  Nd5  1  0.884978  0.954730  0.232081  1
  C  C6  1  0.907624  0.968767  0.952098  1
  C  C7  1  0.095884  0.032442  0.041495  1
  Br  Br8  1  0.752963  0.917146  0.544994  1
  Br  Br9  1  0.255345  0.085881  0.462745  1
  Br  Br10  1  0.452031  0.813939  0.084858  1
  Br  Br11  1  0.540191  0.183176  0.911676  1
  Br  Br12  1  0.805128  0.270560  0.350650  1
  Br  Br13  1  0.192116  0.739588  0.651006  1
  Br  Br14  1  0.912755  0.620221  0.169572  1
  Br  Br15  1  0.089077  0.368657  0.825915  1
  Br  Br16  1  0.661703  0.546258  0.726949  1
  Br  Br17  1  0.338140  0.453900  0.273618  1
