# generated using pymatgen
data_YbYIO6
_symmetry_space_group_name_H-M   'P 1'
_cell_length_a   5.03756100
_cell_length_b   5.03412900
_cell_length_c   9.94372600
_cell_angle_alpha   90.00000000
_cell_angle_beta   90.00000000
_cell_angle_gamma   90.00000000
_symmetry_Int_Tables_number   1
_chemical_formula_structural   YbYIO6
_chemical_formula_sum   'Yb2 Y2 I2 O12'
_cell_volume   252.17022564
_cell_formula_units_Z   2
loop_
 _symmetry_equiv_pos_site_id
 _symmetry_equiv_pos_as_xyz
  1  'x, y, z'
loop_
 _atom_site_type_symbol
 _atom_site_label
 _atom_site_symmetry_multiplicity
 _atom_site_fract_x
 _atom_site_fract_y
 _atom_site_fract_z
 _atom_site_occupancy
  Yb  Yb0  1  0.000000  0.000000  0.670135  1
  Yb  Yb1  1  0.500000  0.500000  0.829865  1
  Y  Y2  1  0.000000  0.000000  0.341307  1
  Y  Y3  1  0.500000  0.500000  0.158693  1
  I  I4  1  0.500000  0.500000  0.500404  1
  I  I5  1  0.000000  0.000000  0.999596  1
  O  O6  1  0.682554  0.682809  0.635572  1
  O  O7  1  0.317446  0.317191  0.635572  1
  O  O8  1  0.817446  0.182809  0.864428  1
  O  O9  1  0.182554  0.817191  0.864428  1
  O  O10  1  0.320721  0.320565  0.352545  1
  O  O11  1  0.679279  0.679435  0.352545  1
  O  O12  1  0.179279  0.820565  0.147455  1
  O  O13  1  0.820721  0.179435  0.147455  1
  O  O14  1  0.732082  0.732176  0.005698  1
  O  O15  1  0.267918  0.267824  0.005698  1
  O  O16  1  0.767918  0.232176  0.494302  1
  O  O17  1  0.232082  0.767824  0.494302  1
