# generated using pymatgen
data_Nb6AlGa(PtN)2
_symmetry_space_group_name_H-M   'P 1'
_cell_length_a   7.06643963
_cell_length_b   7.06633400
_cell_length_c   7.06612563
_cell_angle_alpha   90.00000000
_cell_angle_beta   89.86881524
_cell_angle_gamma   90.00000000
_symmetry_Int_Tables_number   1
_chemical_formula_structural   Nb6AlGa(PtN)2
_chemical_formula_sum   'Nb12 Al2 Ga2 Pt4 N4'
_cell_volume   352.83773900
_cell_formula_units_Z   2
loop_
 _symmetry_equiv_pos_site_id
 _symmetry_equiv_pos_as_xyz
  1  'x, y, z'
loop_
 _atom_site_type_symbol
 _atom_site_label
 _atom_site_symmetry_multiplicity
 _atom_site_fract_x
 _atom_site_fract_y
 _atom_site_fract_z
 _atom_site_occupancy
  Nb  Nb0  1  0.789099  0.955367  0.376347  1
  Nb  Nb1  1  0.709304  0.044599  0.877115  1
  Nb  Nb2  1  0.210901  0.455367  0.123653  1
  Nb  Nb3  1  0.290696  0.544599  0.622885  1
  Nb  Nb4  1  0.955057  0.377113  0.789825  1
  Nb  Nb5  1  0.044943  0.877113  0.710175  1
  Nb  Nb6  1  0.455658  0.123735  0.209978  1
  Nb  Nb7  1  0.544342  0.623735  0.290022  1
  Nb  Nb8  1  0.376497  0.789906  0.955112  1
  Nb  Nb9  1  0.876847  0.710075  0.044321  1
  Nb  Nb10  1  0.123153  0.210075  0.455679  1
  Nb  Nb11  1  0.623503  0.289906  0.544888  1
  Al  Al12  1  0.928469  0.571538  0.428035  1
  Al  Al13  1  0.071531  0.071538  0.071965  1
  Ga  Ga14  1  0.570782  0.429216  0.929572  1
  Ga  Ga15  1  0.429218  0.929216  0.570428  1
  Pt  Pt16  1  0.175912  0.821233  0.320056  1
  Pt  Pt17  1  0.318986  0.177992  0.823221  1
  Pt  Pt18  1  0.824088  0.321233  0.179944  1
  Pt  Pt19  1  0.681014  0.677992  0.676779  1
  N  N20  1  0.874765  0.124102  0.624643  1
  N  N21  1  0.623719  0.875124  0.124367  1
  N  N22  1  0.125235  0.624102  0.875357  1
  N  N23  1  0.376281  0.375124  0.375633  1
