# generated using pymatgen
data_K6ScTe4Br
_symmetry_space_group_name_H-M   'P 1'
_cell_length_a   11.46135900
_cell_length_b   11.46135784
_cell_length_c   8.41236600
_cell_angle_alpha   90.00000000
_cell_angle_beta   90.00000000
_cell_angle_gamma   120.00000047
_symmetry_Int_Tables_number   1
_chemical_formula_structural   K6ScTe4Br
_chemical_formula_sum   'K12 Sc2 Te8 Br2'
_cell_volume   957.01991863
_cell_formula_units_Z   2
loop_
 _symmetry_equiv_pos_site_id
 _symmetry_equiv_pos_as_xyz
  1  'x, y, z'
loop_
 _atom_site_type_symbol
 _atom_site_label
 _atom_site_symmetry_multiplicity
 _atom_site_fract_x
 _atom_site_fract_y
 _atom_site_fract_z
 _atom_site_occupancy
  K  K0  1  0.128201  0.871799  0.515403  1
  K  K1  1  0.743597  0.871799  0.515403  1
  K  K2  1  0.950794  0.475397  0.319950  1
  K  K3  1  0.524603  0.475397  0.319950  1
  K  K4  1  0.871799  0.743597  0.015403  1
  K  K5  1  0.256403  0.128201  0.015403  1
  K  K6  1  0.524603  0.049206  0.319950  1
  K  K7  1  0.128201  0.256403  0.515403  1
  K  K8  1  0.871799  0.128201  0.015403  1
  K  K9  1  0.049206  0.524603  0.819950  1
  K  K10  1  0.475397  0.950794  0.819950  1
  K  K11  1  0.475397  0.524603  0.819950  1
  Sc  Sc12  1  0.666667  0.333333  0.710618  1
  Sc  Sc13  1  0.333333  0.666667  0.210618  1
  Te  Te14  1  0.402058  0.201029  0.601380  1
  Te  Te15  1  0.597942  0.798971  0.101380  1
  Te  Te16  1  0.666667  0.333333  0.044273  1
  Te  Te17  1  0.798971  0.597942  0.601380  1
  Te  Te18  1  0.201029  0.402058  0.101380  1
  Te  Te19  1  0.333333  0.666667  0.544273  1
  Te  Te20  1  0.201029  0.798971  0.101380  1
  Te  Te21  1  0.798971  0.201029  0.601380  1
  Br  Br22  1  0.000000  0.000000  0.275511  1
  Br  Br23  1  0.000000  0.000000  0.775511  1
