# generated using pymatgen
data_Li28ErMgSi7Ge
_symmetry_space_group_name_H-M   'P 1'
_cell_length_a   9.27159074
_cell_length_b   9.27009911
_cell_length_c   9.27089588
_cell_angle_alpha   109.61849304
_cell_angle_beta   109.61451226
_cell_angle_gamma   109.16157539
_symmetry_Int_Tables_number   1
_chemical_formula_structural   Li28ErMgSi7Ge
_chemical_formula_sum   'Li28 Er1 Mg1 Si7 Ge1'
_cell_volume   613.52721918
_cell_formula_units_Z   1
loop_
 _symmetry_equiv_pos_site_id
 _symmetry_equiv_pos_as_xyz
  1  'x, y, z'
loop_
 _atom_site_type_symbol
 _atom_site_label
 _atom_site_symmetry_multiplicity
 _atom_site_fract_x
 _atom_site_fract_y
 _atom_site_fract_z
 _atom_site_occupancy
  Li  Li0  1  0.067869  0.540413  0.280293  1
  Li  Li1  1  0.260536  0.789095  0.719840  1
  Li  Li2  1  0.180997  0.960142  0.973904  1
  Li  Li3  1  0.984829  0.205793  0.025304  1
  Li  Li4  1  0.039844  0.014078  0.220991  1
  Li  Li5  1  0.793143  0.818847  0.778913  1
  Li  Li6  1  0.460393  0.740292  0.529866  1
  Li  Li7  1  0.211014  0.931109  0.471321  1
  Li  Li8  1  0.727743  0.338424  0.061641  1
  Li  Li9  1  0.962475  0.402242  0.868878  1
  Li  Li10  1  0.277121  0.666620  0.937199  1
  Li  Li11  1  0.533045  0.093513  0.130190  1
  Li  Li12  1  0.696482  0.870858  0.091342  1
  Li  Li13  1  0.484798  0.892825  0.331365  1
  Li  Li14  1  0.560951  0.153489  0.669546  1
  Li  Li15  1  0.779808  0.605467  0.908578  1
  Li  Li16  1  0.845897  0.515712  0.407362  1
  Li  Li17  1  0.395524  0.302573  0.174550  1
  Li  Li18  1  0.128535  0.219189  0.824068  1
  Li  Li19  1  0.108223  0.438782  0.592491  1
  Li  Li20  1  0.905953  0.036413  0.438830  1
  Li  Li21  1  0.334087  0.272121  0.611068  1
  Li  Li22  1  0.597300  0.467197  0.560937  1
  Li  Li23  1  0.662985  0.724006  0.390041  1
  Li  Li24  1  0.001201  0.873926  0.626776  1
  Li  Li25  1  0.246990  0.373511  0.373798  1
  Li  Li26  1  0.125533  0.753551  0.126686  1
  Li  Li27  1  0.625804  0.999095  0.873381  1
  Er  Er28  1  0.500859  0.499965  0.999898  1
  Mg  Mg29  1  0.749905  0.250121  0.499805  1
  Si  Si30  1  0.373093  0.127962  0.833595  1
  Si  Si31  1  0.956349  0.623262  0.743993  1
  Si  Si32  1  0.879003  0.212203  0.256054  1
  Si  Si33  1  0.376612  0.120886  0.333171  1
  Si  Si34  1  0.787698  0.043645  0.666962  1
  Si  Si35  1  0.460731  0.627052  0.755383  1
  Si  Si36  1  0.872163  0.705708  0.244961  1
  Ge  Ge37  1  0.294503  0.539916  0.167020  1
