# generated using pymatgen
data_Er3CoSn6
_symmetry_space_group_name_H-M   'P 1'
_cell_length_a   8.45464165
_cell_length_b   8.45464191
_cell_length_c   13.06949800
_cell_angle_alpha   90.00000000
_cell_angle_beta   90.00000000
_cell_angle_gamma   148.87622777
_symmetry_Int_Tables_number   1
_chemical_formula_structural   Er3CoSn6
_chemical_formula_sum   'Er6 Co2 Sn12'
_cell_volume   482.88781155
_cell_formula_units_Z   2
loop_
 _symmetry_equiv_pos_site_id
 _symmetry_equiv_pos_as_xyz
  1  'x, y, z'
loop_
 _atom_site_type_symbol
 _atom_site_label
 _atom_site_symmetry_multiplicity
 _atom_site_fract_x
 _atom_site_fract_y
 _atom_site_fract_z
 _atom_site_occupancy
  Er  Er0  1  0.898783  0.101217  0.094030  1
  Er  Er1  1  0.101217  0.898783  0.594030  1
  Er  Er2  1  0.900227  0.099773  0.750000  1
  Er  Er3  1  0.101217  0.898783  0.905970  1
  Er  Er4  1  0.099773  0.900227  0.250000  1
  Er  Er5  1  0.898783  0.101217  0.405970  1
  Co  Co6  1  0.300687  0.699313  0.250000  1
  Co  Co7  1  0.699313  0.300687  0.750000  1
  Sn  Sn8  1  0.756094  0.243906  0.571291  1
  Sn  Sn9  1  0.427465  0.572535  0.575809  1
  Sn  Sn10  1  0.572535  0.427465  0.424191  1
  Sn  Sn11  1  0.733355  0.266645  0.250000  1
  Sn  Sn12  1  0.266645  0.733355  0.750000  1
  Sn  Sn13  1  0.243906  0.756094  0.071291  1
  Sn  Sn14  1  0.243906  0.756094  0.428709  1
  Sn  Sn15  1  0.572535  0.427465  0.075809  1
  Sn  Sn16  1  0.454870  0.545130  0.250000  1
  Sn  Sn17  1  0.545130  0.454870  0.750000  1
  Sn  Sn18  1  0.756094  0.243906  0.928709  1
  Sn  Sn19  1  0.427465  0.572535  0.924191  1
