# generated using pymatgen
data_ThFeSi3
_symmetry_space_group_name_H-M   'P 1'
_cell_length_a   4.15013082
_cell_length_b   4.15013084
_cell_length_c   5.64985847
_cell_angle_alpha   111.54779260
_cell_angle_beta   111.54780013
_cell_angle_gamma   90.00000702
_symmetry_Int_Tables_number   1
_chemical_formula_structural   ThFeSi3
_chemical_formula_sum   'Th1 Fe1 Si3'
_cell_volume   83.15463466
_cell_formula_units_Z   1
loop_
 _symmetry_equiv_pos_site_id
 _symmetry_equiv_pos_as_xyz
  1  'x, y, z'
loop_
 _atom_site_type_symbol
 _atom_site_label
 _atom_site_symmetry_multiplicity
 _atom_site_fract_x
 _atom_site_fract_y
 _atom_site_fract_z
 _atom_site_occupancy
  Th  Th0  1  0.998646  0.998646  0.997294  1
  Fe  Fe1  1  0.338012  0.338012  0.676026  1
  Si  Si2  1  0.570444  0.570444  0.140887  1
  Si  Si3  1  0.738948  0.238948  0.477897  1
  Si  Si4  1  0.238948  0.738948  0.477897  1
