# generated using pymatgen
data_Th3Al3FePd2
_symmetry_space_group_name_H-M   'P 1'
_cell_length_a   7.24606200
_cell_length_b   7.24606220
_cell_length_c   4.10762600
_cell_angle_alpha   90.00000000
_cell_angle_beta   90.00000000
_cell_angle_gamma   119.99999909
_symmetry_Int_Tables_number   1
_chemical_formula_structural   Th3Al3FePd2
_chemical_formula_sum   'Th3 Al3 Fe1 Pd2'
_cell_volume   186.77796236
_cell_formula_units_Z   1
loop_
 _symmetry_equiv_pos_site_id
 _symmetry_equiv_pos_as_xyz
  1  'x, y, z'
loop_
 _atom_site_type_symbol
 _atom_site_label
 _atom_site_symmetry_multiplicity
 _atom_site_fract_x
 _atom_site_fract_y
 _atom_site_fract_z
 _atom_site_occupancy
  Th  Th0  1  0.432763  0.416333  0.500000  1
  Th  Th1  1  0.583667  0.016430  0.500000  1
  Th  Th2  1  0.983570  0.567237  0.500000  1
  Al  Al3  1  0.766523  0.760941  0.000000  1
  Al  Al4  1  0.239059  0.005583  0.000000  1
  Al  Al5  1  0.994417  0.233477  0.000000  1
  Fe  Fe6  1  0.666667  0.333333  0.000000  1
  Pd  Pd7  1  0.333333  0.666667  0.000000  1
  Pd  Pd8  1  0.000000  0.000000  0.500000  1
