# generated using pymatgen
data_Y6UO11F
_symmetry_space_group_name_H-M   'P 1'
_cell_length_a   6.61528419
_cell_length_b   6.60438659
_cell_length_c   6.62676014
_cell_angle_alpha   99.30703030
_cell_angle_beta   99.30957536
_cell_angle_gamma   99.18422664
_symmetry_Int_Tables_number   1
_chemical_formula_structural   Y6UO11F
_chemical_formula_sum   'Y6 U1 O11 F1'
_cell_volume   276.77033933
_cell_formula_units_Z   1
loop_
 _symmetry_equiv_pos_site_id
 _symmetry_equiv_pos_as_xyz
  1  'x, y, z'
loop_
 _atom_site_type_symbol
 _atom_site_label
 _atom_site_symmetry_multiplicity
 _atom_site_fract_x
 _atom_site_fract_y
 _atom_site_fract_z
 _atom_site_occupancy
  Y  Y0  1  0.316420  0.608176  0.147515  1
  Y  Y1  1  0.618362  0.136707  0.293184  1
  Y  Y2  1  0.392051  0.841798  0.689106  1
  Y  Y3  1  0.696493  0.400863  0.870071  1
  Y  Y4  1  0.856642  0.686624  0.394415  1
  Y  Y5  1  0.126031  0.317468  0.610319  1
  U  U6  1  0.003367  0.001288  0.997400  1
  O  O7  1  0.921169  0.689376  0.055422  1
  O  O8  1  0.174974  0.581982  0.430588  1
  O  O9  1  0.812768  0.408385  0.571097  1
  O  O10  1  0.572631  0.831244  0.422133  1
  O  O11  1  0.586338  0.432074  0.181473  1
  O  O12  1  0.413701  0.559911  0.818885  1
  O  O13  1  0.952495  0.081482  0.310563  1
  O  O14  1  0.062354  0.928722  0.685343  1
  O  O15  1  0.683653  0.058703  0.923787  1
  O  O16  1  0.073688  0.316651  0.947875  1
  O  O17  1  0.315904  0.943127  0.076399  1
  F  F18  1  0.420958  0.175419  0.574426  1
