# generated using pymatgen
data_Tb2Ho(MgHg)3
_symmetry_space_group_name_H-M   'P 1'
_cell_length_a   7.75327590
_cell_length_b   7.75327684
_cell_length_c   4.28574400
_cell_angle_alpha   90.00000000
_cell_angle_beta   90.00000000
_cell_angle_gamma   119.91985774
_symmetry_Int_Tables_number   1
_chemical_formula_structural   Tb2Ho(MgHg)3
_chemical_formula_sum   'Tb2 Ho1 Mg3 Hg3'
_cell_volume   223.29425158
_cell_formula_units_Z   1
loop_
 _symmetry_equiv_pos_site_id
 _symmetry_equiv_pos_as_xyz
  1  'x, y, z'
loop_
 _atom_site_type_symbol
 _atom_site_label
 _atom_site_symmetry_multiplicity
 _atom_site_fract_x
 _atom_site_fract_y
 _atom_site_fract_z
 _atom_site_occupancy
  Tb  Tb0  1  0.412317  0.000032  0.000000  1
  Tb  Tb1  1  0.000032  0.412316  0.000000  1
  Ho  Ho2  1  0.588023  0.588024  0.000000  1
  Mg  Mg3  1  0.749662  0.999781  0.500000  1
  Mg  Mg4  1  0.250403  0.250403  0.500000  1
  Mg  Mg5  1  0.999781  0.749663  0.500000  1
  Hg  Hg6  1  0.999587  0.999587  0.000000  1
  Hg  Hg7  1  0.666441  0.333755  0.500000  1
  Hg  Hg8  1  0.333755  0.666441  0.500000  1
