# generated using pymatgen
data_NpU(BeB4)2
_symmetry_space_group_name_H-M   'P 1'
_cell_length_a   6.66096842
_cell_length_b   6.66097258
_cell_length_c   6.66097173
_cell_angle_alpha   113.62304988
_cell_angle_beta   113.62300325
_cell_angle_gamma   101.45304126
_symmetry_Int_Tables_number   1
_chemical_formula_structural   NpU(BeB4)2
_chemical_formula_sum   'Np2 U2 Be4 B16'
_cell_volume   224.22993434
_cell_formula_units_Z   2
loop_
 _symmetry_equiv_pos_site_id
 _symmetry_equiv_pos_as_xyz
  1  'x, y, z'
loop_
 _atom_site_type_symbol
 _atom_site_label
 _atom_site_symmetry_multiplicity
 _atom_site_fract_x
 _atom_site_fract_y
 _atom_site_fract_z
 _atom_site_occupancy
  Np  Np0  1  0.196570  0.196570  0.000001  1
  Np  Np1  1  0.803416  0.803416  0.000000  1
  U  U2  1  0.750000  0.250000  0.499999  1
  U  U3  1  0.250002  0.750001  0.499999  1
  Be  Be4  1  0.500022  0.280054  0.780032  1
  Be  Be5  1  0.500022  0.719990  0.219968  1
  Be  Be6  1  0.719946  0.499978  0.219968  1
  Be  Be7  1  0.280009  0.499978  0.780032  1
  B  B8  1  0.113648  0.283867  0.397567  1
  B  B9  1  0.886300  0.716081  0.602433  1
  B  B10  1  0.886299  0.283867  0.170219  1
  B  B11  1  0.113648  0.716081  0.829781  1
  B  B12  1  0.716131  0.886350  0.602433  1
  B  B13  1  0.283918  0.113699  0.397568  1
  B  B14  1  0.716131  0.113699  0.829782  1
  B  B15  1  0.283917  0.886350  0.170219  1
  B  B16  1  0.425610  0.425555  0.541729  1
  B  B17  1  0.883827  0.883881  0.458270  1
  B  B18  1  0.574450  0.116179  0.000055  1
  B  B19  1  0.116123  0.574395  0.999945  1
  B  B20  1  0.574450  0.574395  0.458272  1
  B  B21  1  0.116124  0.116179  0.541729  1
  B  B22  1  0.883826  0.425555  0.999945  1
  B  B23  1  0.425611  0.883881  0.000054  1
