# generated using pymatgen
data_Dy15YMgHg3Rh4
_symmetry_space_group_name_H-M   'P 1'
_cell_length_a   9.64210664
_cell_length_b   9.62129984
_cell_length_c   9.62130064
_cell_angle_alpha   59.74887366
_cell_angle_beta   59.86220315
_cell_angle_gamma   59.86220531
_symmetry_Int_Tables_number   1
_chemical_formula_structural   Dy15YMgHg3Rh4
_chemical_formula_sum   'Dy15 Y1 Mg1 Hg3 Rh4'
_cell_volume   628.62143906
_cell_formula_units_Z   1
loop_
 _symmetry_equiv_pos_site_id
 _symmetry_equiv_pos_as_xyz
  1  'x, y, z'
loop_
 _atom_site_type_symbol
 _atom_site_label
 _atom_site_symmetry_multiplicity
 _atom_site_fract_x
 _atom_site_fract_y
 _atom_site_fract_z
 _atom_site_occupancy
  Dy  Dy0  1  0.647955  0.048174  0.650609  1
  Dy  Dy1  1  0.813000  0.811508  0.188832  1
  Dy  Dy2  1  0.437995  0.063360  0.063360  1
  Dy  Dy3  1  0.437922  0.435489  0.062114  1
  Dy  Dy4  1  0.191389  0.190364  0.810499  1
  Dy  Dy5  1  0.814641  0.187740  0.187740  1
  Dy  Dy6  1  0.064128  0.437163  0.061874  1
  Dy  Dy7  1  0.437922  0.062114  0.435489  1
  Dy  Dy8  1  0.059577  0.646201  0.646201  1
  Dy  Dy9  1  0.191759  0.809547  0.809547  1
  Dy  Dy10  1  0.647955  0.650609  0.048174  1
  Dy  Dy11  1  0.191389  0.810499  0.190364  1
  Dy  Dy12  1  0.064128  0.061874  0.437163  1
  Dy  Dy13  1  0.813000  0.188832  0.811508  1
  Dy  Dy14  1  0.650224  0.652186  0.652186  1
  Y  Y15  1  0.063256  0.436407  0.436407  1
  Mg  Mg16  1  0.716012  0.428427  0.428427  1
  Hg  Hg17  1  0.417686  0.412732  0.757398  1
  Hg  Hg18  1  0.417916  0.413344  0.413344  1
  Hg  Hg19  1  0.417686  0.757398  0.412732  1
  Rh  Rh20  1  0.858773  0.427464  0.855538  1
  Rh  Rh21  1  0.426416  0.856939  0.856939  1
  Rh  Rh22  1  0.858773  0.855538  0.427464  1
  Rh  Rh23  1  0.860496  0.856093  0.856093  1
