# generated using pymatgen
data_Dy4Tc3Os2Ru3
_symmetry_space_group_name_H-M   'P 1'
_cell_length_a   5.20396619
_cell_length_b   5.20801769
_cell_length_c   9.13429200
_cell_angle_alpha   90.00000000
_cell_angle_beta   90.00000000
_cell_angle_gamma   117.58939331
_symmetry_Int_Tables_number   1
_chemical_formula_structural   Dy4Tc3Os2Ru3
_chemical_formula_sum   'Dy4 Tc3 Os2 Ru3'
_cell_volume   219.41046035
_cell_formula_units_Z   1
loop_
 _symmetry_equiv_pos_site_id
 _symmetry_equiv_pos_as_xyz
  1  'x, y, z'
loop_
 _atom_site_type_symbol
 _atom_site_label
 _atom_site_symmetry_multiplicity
 _atom_site_fract_x
 _atom_site_fract_y
 _atom_site_fract_z
 _atom_site_occupancy
  Dy  Dy0  1  0.666569  0.330502  0.564542  1
  Dy  Dy1  1  0.330214  0.668197  0.433377  1
  Dy  Dy2  1  0.330214  0.668197  0.066623  1
  Dy  Dy3  1  0.666569  0.330502  0.935458  1
  Tc  Tc4  1  0.172616  0.830931  0.750000  1
  Tc  Tc5  1  0.661418  0.830489  0.750000  1
  Tc  Tc6  1  0.837420  0.171312  0.250000  1
  Os  Os7  1  0.172293  0.342751  0.750000  1
  Os  Os8  1  0.833784  0.661691  0.250000  1
  Ru  Ru9  1  0.988595  0.994867  0.498490  1
  Ru  Ru10  1  0.988595  0.994867  0.001510  1
  Ru  Ru11  1  0.351715  0.175692  0.250000  1
