# generated using pymatgen
data_Zr10NiBi6P
_symmetry_space_group_name_H-M   'P 1'
_cell_length_a   8.82309100
_cell_length_b   8.82309216
_cell_length_c   5.93962300
_cell_angle_alpha   90.00000000
_cell_angle_beta   90.00000000
_cell_angle_gamma   119.99999939
_symmetry_Int_Tables_number   1
_chemical_formula_structural   Zr10NiBi6P
_chemical_formula_sum   'Zr10 Ni1 Bi6 P1'
_cell_volume   400.43413232
_cell_formula_units_Z   1
loop_
 _symmetry_equiv_pos_site_id
 _symmetry_equiv_pos_as_xyz
  1  'x, y, z'
loop_
 _atom_site_type_symbol
 _atom_site_label
 _atom_site_symmetry_multiplicity
 _atom_site_fract_x
 _atom_site_fract_y
 _atom_site_fract_z
 _atom_site_occupancy
  Zr  Zr0  1  0.750793  0.000000  0.252732  1
  Zr  Zr1  1  0.000000  0.750793  0.252732  1
  Zr  Zr2  1  0.249207  0.249207  0.252732  1
  Zr  Zr3  1  0.249207  0.000000  0.747268  1
  Zr  Zr4  1  0.000000  0.249207  0.747268  1
  Zr  Zr5  1  0.750793  0.750793  0.747268  1
  Zr  Zr6  1  0.333333  0.666667  0.500000  1
  Zr  Zr7  1  0.666667  0.333333  0.500000  1
  Zr  Zr8  1  0.666667  0.333333  0.000000  1
  Zr  Zr9  1  0.333333  0.666667  0.000000  1
  Ni  Ni10  1  0.000000  0.000000  0.000000  1
  Bi  Bi11  1  0.393320  0.000000  0.247000  1
  Bi  Bi12  1  0.000000  0.393320  0.247000  1
  Bi  Bi13  1  0.606680  0.606680  0.247000  1
  Bi  Bi14  1  0.606680  0.000000  0.753000  1
  Bi  Bi15  1  0.000000  0.606680  0.753000  1
  Bi  Bi16  1  0.393320  0.393320  0.753000  1
  P  P17  1  0.000000  0.000000  0.500000  1
