# generated using pymatgen
data_Zn(InIr)2
_symmetry_space_group_name_H-M   'P 1'
_cell_length_a   5.26473243
_cell_length_b   5.26473161
_cell_length_c   5.26473180
_cell_angle_alpha   135.23412394
_cell_angle_beta   113.59839493
_cell_angle_gamma   83.66660415
_symmetry_Int_Tables_number   1
_chemical_formula_structural   Zn(InIr)2
_chemical_formula_sum   'Zn1 In2 Ir2'
_cell_volume   90.68416833
_cell_formula_units_Z   1
loop_
 _symmetry_equiv_pos_site_id
 _symmetry_equiv_pos_as_xyz
  1  'x, y, z'
loop_
 _atom_site_type_symbol
 _atom_site_label
 _atom_site_symmetry_multiplicity
 _atom_site_fract_x
 _atom_site_fract_y
 _atom_site_fract_z
 _atom_site_occupancy
  Zn  Zn0  1  0.000000  0.000000  0.000000  1
  In  In1  1  0.702931  0.202931  0.500000  1
  In  In2  1  0.297069  0.797069  0.500000  1
  Ir  Ir3  1  0.730172  0.500000  0.230172  1
  Ir  Ir4  1  0.269828  0.500000  0.769828  1
