# generated using pymatgen
data_Nd4Sc4Tc3B24Ir
_symmetry_space_group_name_H-M   'P 1'
_cell_length_a   3.64195200
_cell_length_b   9.09143131
_cell_length_c   11.53910147
_cell_angle_alpha   90.02690699
_cell_angle_beta   90.00000000
_cell_angle_gamma   90.00000000
_symmetry_Int_Tables_number   1
_chemical_formula_structural   Nd4Sc4Tc3B24Ir
_chemical_formula_sum   'Nd4 Sc4 Tc3 B24 Ir1'
_cell_volume   382.06602816
_cell_formula_units_Z   1
loop_
 _symmetry_equiv_pos_site_id
 _symmetry_equiv_pos_as_xyz
  1  'x, y, z'
loop_
 _atom_site_type_symbol
 _atom_site_label
 _atom_site_symmetry_multiplicity
 _atom_site_fract_x
 _atom_site_fract_y
 _atom_site_fract_z
 _atom_site_occupancy
  Nd  Nd0  1  0.500000  0.318508  0.416526  1
  Nd  Nd1  1  0.500000  0.679019  0.588996  1
  Nd  Nd2  1  0.500000  0.178601  0.913456  1
  Nd  Nd3  1  0.500000  0.824109  0.082240  1
  Sc  Sc4  1  0.500000  0.439783  0.126968  1
  Sc  Sc5  1  0.500000  0.556076  0.870789  1
  Sc  Sc6  1  0.500000  0.055368  0.629780  1
  Sc  Sc7  1  0.500000  0.947474  0.370823  1
  Tc  Tc8  1  0.500000  0.141732  0.183759  1
  Tc  Tc9  1  0.500000  0.858649  0.817298  1
  Tc  Tc10  1  0.500000  0.359513  0.682001  1
  B  B11  1  0.000000  0.094390  0.474416  1
  B  B12  1  0.000000  0.903616  0.525232  1
  B  B13  1  0.000000  0.404810  0.974673  1
  B  B14  1  0.000000  0.595418  0.026134  1
  B  B15  1  0.000000  0.128002  0.316616  1
  B  B16  1  0.000000  0.871773  0.683595  1
  B  B17  1  0.000000  0.372380  0.816066  1
  B  B18  1  0.000000  0.628045  0.182547  1
  B  B19  1  0.000000  0.056163  0.069846  1
  B  B20  1  0.000000  0.944153  0.929636  1
  B  B21  1  0.000000  0.443799  0.569835  1
  B  B22  1  0.000000  0.556655  0.430918  1
  B  B23  1  0.000000  0.483265  0.284913  1
  B  B24  1  0.000000  0.517622  0.715313  1
  B  B25  1  0.000000  0.017190  0.784054  1
  B  B26  1  0.000000  0.983294  0.215275  1
  B  B27  1  0.000000  0.254113  0.084237  1
  B  B28  1  0.000000  0.746089  0.915946  1
  B  B29  1  0.000000  0.245205  0.584146  1
  B  B30  1  0.000000  0.754453  0.416612  1
  B  B31  1  0.000000  0.293944  0.234779  1
  B  B32  1  0.000000  0.705961  0.766174  1
  B  B33  1  0.000000  0.206189  0.734110  1
  B  B34  1  0.000000  0.793649  0.265232  1
  Ir  Ir35  1  0.500000  0.640992  0.317062  1
