# generated using pymatgen
data_Nd2Sc4Bi2Mo
_symmetry_space_group_name_H-M   'P 1'
_cell_length_a   8.05227400
_cell_length_b   8.08945652
_cell_length_c   4.29163000
_cell_angle_alpha   90.00000000
_cell_angle_beta   90.00000000
_cell_angle_gamma   120.15287348
_symmetry_Int_Tables_number   1
_chemical_formula_structural   Nd2Sc4Bi2Mo
_chemical_formula_sum   'Nd2 Sc4 Bi2 Mo1'
_cell_volume   241.72397061
_cell_formula_units_Z   1
loop_
 _symmetry_equiv_pos_site_id
 _symmetry_equiv_pos_as_xyz
  1  'x, y, z'
loop_
 _atom_site_type_symbol
 _atom_site_label
 _atom_site_symmetry_multiplicity
 _atom_site_fract_x
 _atom_site_fract_y
 _atom_site_fract_z
 _atom_site_occupancy
  Nd  Nd0  1  0.602489  0.001222  0.500000  1
  Nd  Nd1  1  0.397511  0.398733  0.500000  1
  Sc  Sc2  1  0.000000  0.617593  0.500000  1
  Sc  Sc3  1  0.000000  0.221859  0.000000  1
  Sc  Sc4  1  0.775298  0.769450  0.000000  1
  Sc  Sc5  1  0.224702  0.994153  0.000000  1
  Bi  Bi6  1  0.685351  0.346410  0.000000  1
  Bi  Bi7  1  0.314649  0.661059  0.000000  1
  Mo  Mo8  1  0.000000  0.989523  0.500000  1
