# generated using pymatgen
data_SmThPt2Pb
_symmetry_space_group_name_H-M   'P 1'
_cell_length_a   8.13512100
_cell_length_b   8.11778000
_cell_length_c   3.70363900
_cell_angle_alpha   90.00000000
_cell_angle_beta   90.00000000
_cell_angle_gamma   90.00000000
_symmetry_Int_Tables_number   1
_chemical_formula_structural   SmThPt2Pb
_chemical_formula_sum   'Sm2 Th2 Pt4 Pb2'
_cell_volume   244.58506981
_cell_formula_units_Z   2
loop_
 _symmetry_equiv_pos_site_id
 _symmetry_equiv_pos_as_xyz
  1  'x, y, z'
loop_
 _atom_site_type_symbol
 _atom_site_label
 _atom_site_symmetry_multiplicity
 _atom_site_fract_x
 _atom_site_fract_y
 _atom_site_fract_z
 _atom_site_occupancy
  Sm  Sm0  1  0.170933  0.672197  0.500000  1
  Sm  Sm1  1  0.670933  0.827804  0.500000  1
  Th  Th2  1  0.330800  0.166461  0.500000  1
  Th  Th3  1  0.830801  0.333539  0.500000  1
  Pt  Pt4  1  0.628709  0.134431  0.000000  1
  Pt  Pt5  1  0.128709  0.365569  0.000000  1
  Pt  Pt6  1  0.873002  0.618640  0.000000  1
  Pt  Pt7  1  0.373001  0.881361  0.000000  1
  Pb  Pb8  1  0.996556  0.990879  0.000000  1
  Pb  Pb9  1  0.496556  0.509121  0.000000  1
