# generated using pymatgen
data_Na4RhO5
_symmetry_space_group_name_H-M   'P 1'
_cell_length_a   5.71280044
_cell_length_b   5.74764118
_cell_length_c   8.55419347
_cell_angle_alpha   109.46688321
_cell_angle_beta   101.39271140
_cell_angle_gamma   102.17028932
_symmetry_Int_Tables_number   1
_chemical_formula_structural   Na4RhO5
_chemical_formula_sum   'Na8 Rh2 O10'
_cell_volume   247.70142574
_cell_formula_units_Z   2
loop_
 _symmetry_equiv_pos_site_id
 _symmetry_equiv_pos_as_xyz
  1  'x, y, z'
loop_
 _atom_site_type_symbol
 _atom_site_label
 _atom_site_symmetry_multiplicity
 _atom_site_fract_x
 _atom_site_fract_y
 _atom_site_fract_z
 _atom_site_occupancy
  Na  Na0  1  0.204527  0.414906  0.903381  1
  Na  Na1  1  0.409732  0.799368  0.294033  1
  Na  Na2  1  0.701004  0.398862  0.400864  1
  Na  Na3  1  0.298996  0.601138  0.599136  1
  Na  Na4  1  0.795473  0.585094  0.096619  1
  Na  Na5  1  0.000000  0.000000  0.500000  1
  Na  Na6  1  0.500000  0.000000  0.000000  1
  Na  Na7  1  0.590268  0.200632  0.705967  1
  Rh  Rh8  1  0.898178  0.803477  0.799376  1
  Rh  Rh9  1  0.101822  0.196523  0.200624  1
  O  O10  1  0.600122  0.627445  0.844452  1
  O  O11  1  0.399878  0.372555  0.155548  1
  O  O12  1  0.689498  0.819718  0.596586  1
  O  O13  1  0.310502  0.180282  0.403414  1
  O  O14  1  0.801815  0.017813  0.242156  1
  O  O15  1  0.198185  0.982187  0.757844  1
  O  O16  1  0.884089  0.157957  0.962503  1
  O  O17  1  0.115911  0.842043  0.037497  1
  O  O18  1  0.056529  0.527057  0.316445  1
  O  O19  1  0.943471  0.472943  0.683555  1
