# generated using pymatgen
data_Ba4SbPbO8
_symmetry_space_group_name_H-M   'P 1'
_cell_length_a   7.43999442
_cell_length_b   7.43999352
_cell_length_c   6.15413600
_cell_angle_alpha   90.00000000
_cell_angle_beta   90.00000000
_cell_angle_gamma   131.40976443
_symmetry_Int_Tables_number   1
_chemical_formula_structural   Ba4SbPbO8
_chemical_formula_sum   'Ba4 Sb1 Pb1 O8'
_cell_volume   255.48921320
_cell_formula_units_Z   1
loop_
 _symmetry_equiv_pos_site_id
 _symmetry_equiv_pos_as_xyz
  1  'x, y, z'
loop_
 _atom_site_type_symbol
 _atom_site_label
 _atom_site_symmetry_multiplicity
 _atom_site_fract_x
 _atom_site_fract_y
 _atom_site_fract_z
 _atom_site_occupancy
  Ba  Ba0  1  0.356193  0.643807  0.000000  1
  Ba  Ba1  1  0.853418  0.146582  0.500000  1
  Ba  Ba2  1  0.146582  0.853418  0.500000  1
  Ba  Ba3  1  0.643807  0.356193  0.000000  1
  Sb  Sb4  1  0.500000  0.500000  0.500000  1
  Pb  Pb5  1  0.000000  0.000000  0.000000  1
  O  O6  1  0.264817  0.264817  0.730002  1
  O  O7  1  0.735183  0.735183  0.269998  1
  O  O8  1  0.735183  0.735183  0.730002  1
  O  O9  1  0.264817  0.264817  0.269998  1
  O  O10  1  0.168998  0.831002  0.000000  1
  O  O11  1  0.653274  0.346726  0.500000  1
  O  O12  1  0.346726  0.653274  0.500000  1
  O  O13  1  0.831002  0.168998  0.000000  1
