# generated using pymatgen
data_LaPr6Th(MgIr)2
_symmetry_space_group_name_H-M   'P 1'
_cell_length_a   10.12184908
_cell_length_b   10.12184911
_cell_length_c   10.14179900
_cell_angle_alpha   59.93478256
_cell_angle_beta   59.93478248
_cell_angle_gamma   59.98249434
_symmetry_Int_Tables_number   1
_chemical_formula_structural   LaPr6Th(MgIr)2
_chemical_formula_sum   'La2 Pr12 Th2 Mg4 Ir4'
_cell_volume   733.89431980
_cell_formula_units_Z   2
loop_
 _symmetry_equiv_pos_site_id
 _symmetry_equiv_pos_as_xyz
  1  'x, y, z'
loop_
 _atom_site_type_symbol
 _atom_site_label
 _atom_site_symmetry_multiplicity
 _atom_site_fract_x
 _atom_site_fract_y
 _atom_site_fract_z
 _atom_site_occupancy
  La  La0  1  0.346480  0.959944  0.346789  1
  La  La1  1  0.959944  0.346480  0.346789  1
  Pr  Pr2  1  0.810936  0.188592  0.189113  1
  Pr  Pr3  1  0.188592  0.810936  0.811358  1
  Pr  Pr4  1  0.188592  0.810936  0.189113  1
  Pr  Pr5  1  0.810936  0.188592  0.811358  1
  Pr  Pr6  1  0.189019  0.189019  0.810981  1
  Pr  Pr7  1  0.810470  0.810470  0.189530  1
  Pr  Pr8  1  0.940670  0.561237  0.563113  1
  Pr  Pr9  1  0.561237  0.940670  0.934979  1
  Pr  Pr10  1  0.561237  0.940670  0.563113  1
  Pr  Pr11  1  0.940670  0.561237  0.934979  1
  Pr  Pr12  1  0.561921  0.561921  0.938079  1
  Pr  Pr13  1  0.937276  0.937276  0.562724  1
  Th  Th14  1  0.344044  0.344044  0.344437  1
  Th  Th15  1  0.344044  0.344044  0.967476  1
  Mg  Mg16  1  0.577378  0.577378  0.581685  1
  Mg  Mg17  1  0.577378  0.577378  0.263558  1
  Mg  Mg18  1  0.576263  0.262757  0.580490  1
  Mg  Mg19  1  0.262757  0.576263  0.580490  1
  Ir  Ir20  1  0.146865  0.146865  0.137602  1
  Ir  Ir21  1  0.146865  0.146865  0.568669  1
  Ir  Ir22  1  0.151225  0.565197  0.141788  1
  Ir  Ir23  1  0.565197  0.151225  0.141788  1
