# generated using pymatgen
data_Ce8Cu3Si12Ir
_symmetry_space_group_name_H-M   'P 1'
_cell_length_a   8.11523900
_cell_length_b   8.11523950
_cell_length_c   8.38118100
_cell_angle_alpha   90.00000000
_cell_angle_beta   90.00000000
_cell_angle_gamma   119.99999388
_symmetry_Int_Tables_number   1
_chemical_formula_structural   Ce8Cu3Si12Ir
_chemical_formula_sum   'Ce8 Cu3 Si12 Ir1'
_cell_volume   478.01170852
_cell_formula_units_Z   1
loop_
 _symmetry_equiv_pos_site_id
 _symmetry_equiv_pos_as_xyz
  1  'x, y, z'
loop_
 _atom_site_type_symbol
 _atom_site_label
 _atom_site_symmetry_multiplicity
 _atom_site_fract_x
 _atom_site_fract_y
 _atom_site_fract_z
 _atom_site_occupancy
  Ce  Ce0  1  0.000000  0.000000  0.250647  1
  Ce  Ce1  1  0.000000  0.000000  0.749332  1
  Ce  Ce2  1  0.498202  0.501798  0.247421  1
  Ce  Ce3  1  0.498202  0.996403  0.247421  1
  Ce  Ce4  1  0.003597  0.501798  0.247421  1
  Ce  Ce5  1  0.497573  0.502427  0.752572  1
  Ce  Ce6  1  0.497573  0.995146  0.752572  1
  Ce  Ce7  1  0.004854  0.502427  0.752572  1
  Cu  Cu8  1  0.333333  0.666667  0.499193  1
  Cu  Cu9  1  0.666667  0.333333  0.503017  1
  Cu  Cu10  1  0.666667  0.333333  0.997728  1
  Si  Si11  1  0.168326  0.831674  0.499697  1
  Si  Si12  1  0.168326  0.336653  0.499697  1
  Si  Si13  1  0.663347  0.831674  0.499697  1
  Si  Si14  1  0.831239  0.168761  0.500413  1
  Si  Si15  1  0.831239  0.662478  0.500413  1
  Si  Si16  1  0.337522  0.168761  0.500413  1
  Si  Si17  1  0.831763  0.168237  0.999390  1
  Si  Si18  1  0.831763  0.663525  0.999390  1
  Si  Si19  1  0.336475  0.168237  0.999390  1
  Si  Si20  1  0.164802  0.835198  0.000494  1
  Si  Si21  1  0.164802  0.329606  0.000494  1
  Si  Si22  1  0.670394  0.835198  0.000494  1
  Ir  Ir23  1  0.333333  0.666667  0.000125  1
