# generated using pymatgen
data_K3Zr7BBr20
_symmetry_space_group_name_H-M   'P 1'
_cell_length_a   14.38736516
_cell_length_b   14.38736642
_cell_length_c   14.38736700
_cell_angle_alpha   55.84815288
_cell_angle_beta   55.84814948
_cell_angle_gamma   55.84815471
_symmetry_Int_Tables_number   1
_chemical_formula_structural   K3Zr7BBr20
_chemical_formula_sum   'K6 Zr14 B2 Br40'
_cell_volume   1903.16489620
_cell_formula_units_Z   2
loop_
 _symmetry_equiv_pos_site_id
 _symmetry_equiv_pos_as_xyz
  1  'x, y, z'
loop_
 _atom_site_type_symbol
 _atom_site_label
 _atom_site_symmetry_multiplicity
 _atom_site_fract_x
 _atom_site_fract_y
 _atom_site_fract_z
 _atom_site_occupancy
  K  K0  1  0.500000  0.000000  0.500000  1
  K  K1  1  0.000000  0.500000  0.500000  1
  K  K2  1  0.500000  0.000000  0.000000  1
  K  K3  1  0.500000  0.500000  0.000000  1
  K  K4  1  0.000000  0.000000  0.500000  1
  K  K5  1  0.000000  0.500000  0.000000  1
  Zr  Zr6  1  0.327046  0.449679  0.610722  1
  Zr  Zr7  1  0.389278  0.672954  0.550321  1
  Zr  Zr8  1  0.550321  0.389278  0.672954  1
  Zr  Zr9  1  0.949679  0.827046  0.110722  1
  Zr  Zr10  1  0.250000  0.250000  0.250000  1
  Zr  Zr11  1  0.610722  0.327046  0.449679  1
  Zr  Zr12  1  0.172954  0.889278  0.050321  1
  Zr  Zr13  1  0.050321  0.172954  0.889278  1
  Zr  Zr14  1  0.889278  0.050321  0.172954  1
  Zr  Zr15  1  0.672954  0.550321  0.389278  1
  Zr  Zr16  1  0.827046  0.110722  0.949679  1
  Zr  Zr17  1  0.449679  0.610722  0.327046  1
  Zr  Zr18  1  0.110722  0.949679  0.827046  1
  Zr  Zr19  1  0.750000  0.750000  0.750000  1
  B  B20  1  0.000000  0.000000  0.000000  1
  B  B21  1  0.500000  0.500000  0.500000  1
  Br  Br22  1  0.857647  0.326076  0.817666  1
  Br  Br23  1  0.673924  0.182334  0.142353  1
  Br  Br24  1  0.431441  0.571514  0.753798  1
  Br  Br25  1  0.822418  0.822418  0.822418  1
  Br  Br26  1  0.428486  0.246202  0.568559  1
  Br  Br27  1  0.571514  0.753798  0.431441  1
  Br  Br28  1  0.568559  0.428486  0.246202  1
  Br  Br29  1  0.317666  0.826076  0.357647  1
  Br  Br30  1  0.253798  0.071514  0.931441  1
  Br  Br31  1  0.894533  0.605467  0.250000  1
  Br  Br32  1  0.753798  0.431441  0.571514  1
  Br  Br33  1  0.250000  0.438134  0.061866  1
  Br  Br34  1  0.438134  0.061866  0.250000  1
  Br  Br35  1  0.177582  0.177582  0.177582  1
  Br  Br36  1  0.142353  0.673924  0.182334  1
  Br  Br37  1  0.605467  0.250000  0.894533  1
  Br  Br38  1  0.938134  0.750000  0.561866  1
  Br  Br39  1  0.182334  0.142353  0.673924  1
  Br  Br40  1  0.642353  0.682334  0.173924  1
  Br  Br41  1  0.682334  0.173924  0.642353  1
  Br  Br42  1  0.068559  0.746202  0.928486  1
  Br  Br43  1  0.750000  0.561866  0.938134  1
  Br  Br44  1  0.061866  0.250000  0.438134  1
  Br  Br45  1  0.173924  0.642353  0.682334  1
  Br  Br46  1  0.561866  0.938134  0.750000  1
  Br  Br47  1  0.746202  0.928486  0.068559  1
  Br  Br48  1  0.931441  0.253798  0.071514  1
  Br  Br49  1  0.826076  0.357647  0.317666  1
  Br  Br50  1  0.322418  0.322418  0.322418  1
  Br  Br51  1  0.250000  0.894533  0.605467  1
  Br  Br52  1  0.677582  0.677582  0.677582  1
  Br  Br53  1  0.246202  0.568559  0.428486  1
  Br  Br54  1  0.105467  0.394533  0.750000  1
  Br  Br55  1  0.071514  0.931441  0.253798  1
  Br  Br56  1  0.928486  0.068559  0.746202  1
  Br  Br57  1  0.394533  0.750000  0.105467  1
  Br  Br58  1  0.750000  0.105467  0.394533  1
  Br  Br59  1  0.326076  0.817666  0.857647  1
  Br  Br60  1  0.357647  0.317666  0.826076  1
  Br  Br61  1  0.817666  0.857647  0.326076  1
