# generated using pymatgen
data_Ba3Ho2Cl2O5
_symmetry_space_group_name_H-M   'P 1'
_cell_length_a   4.43817184
_cell_length_b   4.43807663
_cell_length_c   12.95150804
_cell_angle_alpha   99.85354264
_cell_angle_beta   99.85437498
_cell_angle_gamma   89.99802506
_symmetry_Int_Tables_number   1
_chemical_formula_structural   Ba3Ho2Cl2O5
_chemical_formula_sum   'Ba3 Ho2 Cl2 O5'
_cell_volume   247.52116355
_cell_formula_units_Z   1
loop_
 _symmetry_equiv_pos_site_id
 _symmetry_equiv_pos_as_xyz
  1  'x, y, z'
loop_
 _atom_site_type_symbol
 _atom_site_label
 _atom_site_symmetry_multiplicity
 _atom_site_fract_x
 _atom_site_fract_y
 _atom_site_fract_z
 _atom_site_occupancy
  Ba  Ba0  1  0.000005  0.000001  0.000000  1
  Ba  Ba1  1  0.161765  0.161767  0.323785  1
  Ba  Ba2  1  0.838244  0.838243  0.676196  1
  Ho  Ho3  1  0.584872  0.584885  0.169948  1
  Ho  Ho4  1  0.415124  0.415107  0.830077  1
  Cl  Cl5  1  0.705453  0.705456  0.410421  1
  Cl  Cl6  1  0.294531  0.294546  0.589566  1
  O  O7  1  0.500000  0.500004  0.000013  1
  O  O8  1  0.596488  0.096447  0.192987  1
  O  O9  1  0.096424  0.596473  0.192968  1
  O  O10  1  0.903564  0.403527  0.807024  1
  O  O11  1  0.403527  0.903544  0.807017  1
