# generated using pymatgen
data_Al(FeI4)2
_symmetry_space_group_name_H-M   'P 1'
_cell_length_a   9.06877839
_cell_length_b   9.06877721
_cell_length_c   6.81288899
_cell_angle_alpha   91.57382000
_cell_angle_beta   91.57381211
_cell_angle_gamma   63.86215229
_symmetry_Int_Tables_number   1
_chemical_formula_structural   Al(FeI4)2
_chemical_formula_sum   'Al1 Fe2 I8'
_cell_volume   502.74796022
_cell_formula_units_Z   1
loop_
 _symmetry_equiv_pos_site_id
 _symmetry_equiv_pos_as_xyz
  1  'x, y, z'
loop_
 _atom_site_type_symbol
 _atom_site_label
 _atom_site_symmetry_multiplicity
 _atom_site_fract_x
 _atom_site_fract_y
 _atom_site_fract_z
 _atom_site_occupancy
  Al  Al0  1  0.164121  0.164121  0.395246  1
  Fe  Fe1  1  0.987047  0.987047  0.985018  1
  Fe  Fe2  1  0.841981  0.841981  0.616560  1
  I  I3  1  0.841156  0.841156  0.230659  1
  I  I4  1  0.872377  0.280418  0.236570  1
  I  I5  1  0.280418  0.872377  0.236570  1
  I  I6  1  0.321792  0.321792  0.308779  1
  I  I7  1  0.684208  0.684208  0.695219  1
  I  I8  1  0.710194  0.139375  0.761465  1
  I  I9  1  0.139375  0.710194  0.761465  1
  I  I10  1  0.157332  0.157332  0.772451  1
