# generated using pymatgen
data_Ho4Lu16(HgBi3)3
_symmetry_space_group_name_H-M   'P 1'
_cell_length_a   8.11051655
_cell_length_b   9.34290700
_cell_length_c   11.86534500
_cell_angle_alpha   90.00000000
_cell_angle_beta   90.14933412
_cell_angle_gamma   90.00000000
_symmetry_Int_Tables_number   1
_chemical_formula_structural   Ho4Lu16(HgBi3)3
_chemical_formula_sum   'Ho4 Lu16 Hg3 Bi9'
_cell_volume   899.10297748
_cell_formula_units_Z   1
loop_
 _symmetry_equiv_pos_site_id
 _symmetry_equiv_pos_as_xyz
  1  'x, y, z'
loop_
 _atom_site_type_symbol
 _atom_site_label
 _atom_site_symmetry_multiplicity
 _atom_site_fract_x
 _atom_site_fract_y
 _atom_site_fract_z
 _atom_site_occupancy
  Ho  Ho0  1  0.317148  0.250000  0.212823  1
  Ho  Ho1  1  0.805690  0.250000  0.280140  1
  Ho  Ho2  1  0.684054  0.750000  0.785438  1
  Ho  Ho3  1  0.185726  0.750000  0.713975  1
  Lu  Lu4  1  0.342829  0.750000  0.207178  1
  Lu  Lu5  1  0.851615  0.750000  0.291593  1
  Lu  Lu6  1  0.653542  0.250000  0.789960  1
  Lu  Lu7  1  0.155841  0.250000  0.717077  1
  Lu  Lu8  1  0.686236  0.560968  0.057926  1
  Lu  Lu9  1  0.188062  0.928930  0.441695  1
  Lu  Lu10  1  0.314720  0.061749  0.944174  1
  Lu  Lu11  1  0.808010  0.445131  0.561631  1
  Lu  Lu12  1  0.314720  0.438251  0.944174  1
  Lu  Lu13  1  0.808010  0.054869  0.561631  1
  Lu  Lu14  1  0.686236  0.939032  0.057926  1
  Lu  Lu15  1  0.188062  0.571070  0.441695  1
  Lu  Lu16  1  0.479984  0.250000  0.491733  1
  Lu  Lu17  1  0.967473  0.250000  0.007666  1
  Lu  Lu18  1  0.534254  0.750000  0.507327  1
  Lu  Lu19  1  0.033013  0.750000  0.991312  1
  Hg  Hg20  1  0.405824  0.750000  0.962500  1
  Hg  Hg21  1  0.904968  0.750000  0.538372  1
  Hg  Hg22  1  0.596075  0.250000  0.036597  1
  Bi  Bi23  1  0.095401  0.250000  0.458297  1
  Bi  Bi24  1  0.554729  0.996370  0.323355  1
  Bi  Bi25  1  0.055596  0.501822  0.176373  1
  Bi  Bi26  1  0.441862  0.496866  0.676020  1
  Bi  Bi27  1  0.944063  0.002429  0.822832  1
  Bi  Bi28  1  0.441862  0.003134  0.676020  1
  Bi  Bi29  1  0.944063  0.497571  0.822832  1
  Bi  Bi30  1  0.554729  0.503630  0.323355  1
  Bi  Bi31  1  0.055596  0.998178  0.176373  1
