# generated using pymatgen
data_Zr3Pa(TaTc3)2
_symmetry_space_group_name_H-M   'P 1'
_cell_length_a   4.61328400
_cell_length_b   6.56045500
_cell_length_c   14.01629000
_cell_angle_alpha   90.00000000
_cell_angle_beta   90.00007405
_cell_angle_gamma   90.00000000
_symmetry_Int_Tables_number   1
_chemical_formula_structural   Zr3Pa(TaTc3)2
_chemical_formula_sum   'Zr6 Pa2 Ta4 Tc12'
_cell_volume   424.20640997
_cell_formula_units_Z   2
loop_
 _symmetry_equiv_pos_site_id
 _symmetry_equiv_pos_as_xyz
  1  'x, y, z'
loop_
 _atom_site_type_symbol
 _atom_site_label
 _atom_site_symmetry_multiplicity
 _atom_site_fract_x
 _atom_site_fract_y
 _atom_site_fract_z
 _atom_site_occupancy
  Zr  Zr0  1  0.000003  0.500000  0.989260  1
  Zr  Zr1  1  0.499993  0.000000  0.177383  1
  Zr  Zr2  1  0.999999  0.500000  0.343350  1
  Zr  Zr3  1  0.500000  0.000000  0.501518  1
  Zr  Zr4  1  0.000001  0.500000  0.665175  1
  Zr  Zr5  1  0.500002  0.000000  0.823309  1
  Pa  Pa6  1  0.999997  0.000000  0.997235  1
  Pa  Pa7  1  0.499997  0.500000  0.169414  1
  Ta  Ta8  1  0.999997  0.000000  0.341688  1
  Ta  Ta9  1  0.499998  0.500000  0.504121  1
  Ta  Ta10  1  0.000004  0.000000  0.662558  1
  Ta  Ta11  1  0.500004  0.500000  0.824979  1
  Tc  Tc12  1  0.500001  0.246368  0.997285  1
  Tc  Tc13  1  0.500001  0.753633  0.997285  1
  Tc  Tc14  1  0.999996  0.253654  0.169385  1
  Tc  Tc15  1  0.999996  0.746345  0.169385  1
  Tc  Tc16  1  0.499998  0.249134  0.337907  1
  Tc  Tc17  1  0.499998  0.750866  0.337907  1
  Tc  Tc18  1  0.000001  0.248275  0.501763  1
  Tc  Tc19  1  0.000001  0.751726  0.501763  1
  Tc  Tc20  1  0.500004  0.251725  0.664912  1
  Tc  Tc21  1  0.500004  0.748275  0.664912  1
  Tc  Tc22  1  0.000001  0.250877  0.828751  1
  Tc  Tc23  1  0.000001  0.749122  0.828751  1
