# generated using pymatgen
data_Sr6HoTl(RhO6)2
_symmetry_space_group_name_H-M   'P 1'
_cell_length_a   6.86221545
_cell_length_b   6.86221565
_cell_length_c   6.86221505
_cell_angle_alpha   90.88455783
_cell_angle_beta   90.88456487
_cell_angle_gamma   90.88452895
_symmetry_Int_Tables_number   1
_chemical_formula_structural   Sr6HoTl(RhO6)2
_chemical_formula_sum   'Sr6 Ho1 Tl1 Rh2 O12'
_cell_volume   323.02499449
_cell_formula_units_Z   1
loop_
 _symmetry_equiv_pos_site_id
 _symmetry_equiv_pos_as_xyz
  1  'x, y, z'
loop_
 _atom_site_type_symbol
 _atom_site_label
 _atom_site_symmetry_multiplicity
 _atom_site_fract_x
 _atom_site_fract_y
 _atom_site_fract_z
 _atom_site_occupancy
  Sr  Sr0  1  0.617549  0.882452  0.249999  1
  Sr  Sr1  1  0.250000  0.617549  0.882451  1
  Sr  Sr2  1  0.882452  0.249999  0.617549  1
  Sr  Sr3  1  0.379722  0.120278  0.750000  1
  Sr  Sr4  1  0.750000  0.379722  0.120278  1
  Sr  Sr5  1  0.120277  0.750001  0.379722  1
  Ho  Ho6  1  0.749999  0.749999  0.750000  1
  Tl  Tl7  1  0.250000  0.250000  0.250000  1
  Rh  Rh8  1  0.993948  0.993948  0.993948  1
  Rh  Rh9  1  0.506051  0.506051  0.506052  1
  O  O10  1  0.281933  0.948864  0.082959  1
  O  O11  1  0.082959  0.281933  0.948864  1
  O  O12  1  0.948863  0.082959  0.281934  1
  O  O13  1  0.551135  0.218066  0.417040  1
  O  O14  1  0.218065  0.417040  0.551136  1
  O  O15  1  0.417040  0.551135  0.218065  1
  O  O16  1  0.703359  0.040445  0.906017  1
  O  O17  1  0.906016  0.703360  0.040446  1
  O  O18  1  0.040446  0.906016  0.703360  1
  O  O19  1  0.459555  0.796640  0.593984  1
  O  O20  1  0.796640  0.593984  0.459555  1
  O  O21  1  0.593983  0.459555  0.796641  1
