# generated using pymatgen
data_DyCrFe4P3
_symmetry_space_group_name_H-M   'P 1'
_cell_length_a   3.65866100
_cell_length_b   10.36191200
_cell_length_c   11.85358000
_cell_angle_alpha   90.00000000
_cell_angle_beta   90.00000000
_cell_angle_gamma   90.00000000
_symmetry_Int_Tables_number   1
_chemical_formula_structural   DyCrFe4P3
_chemical_formula_sum   'Dy4 Cr4 Fe16 P12'
_cell_volume   449.37779173
_cell_formula_units_Z   4
loop_
 _symmetry_equiv_pos_site_id
 _symmetry_equiv_pos_as_xyz
  1  'x, y, z'
loop_
 _atom_site_type_symbol
 _atom_site_label
 _atom_site_symmetry_multiplicity
 _atom_site_fract_x
 _atom_site_fract_y
 _atom_site_fract_z
 _atom_site_occupancy
  Dy  Dy0  1  0.250000  0.581560  0.704828  1
  Dy  Dy1  1  0.250000  0.918440  0.204828  1
  Dy  Dy2  1  0.750000  0.418440  0.295172  1
  Dy  Dy3  1  0.750000  0.081560  0.795172  1
  Cr  Cr4  1  0.250000  0.702788  0.989143  1
  Cr  Cr5  1  0.250000  0.797212  0.489143  1
  Cr  Cr6  1  0.750000  0.297212  0.010857  1
  Cr  Cr7  1  0.750000  0.202788  0.510857  1
  Fe  Fe8  1  0.250000  0.405344  0.491101  1
  Fe  Fe9  1  0.250000  0.094656  0.991101  1
  Fe  Fe10  1  0.750000  0.594656  0.508899  1
  Fe  Fe11  1  0.750000  0.905344  0.008899  1
  Fe  Fe12  1  0.250000  0.218009  0.176146  1
  Fe  Fe13  1  0.250000  0.281991  0.676146  1
  Fe  Fe14  1  0.750000  0.781991  0.823854  1
  Fe  Fe15  1  0.750000  0.718009  0.323854  1
  Fe  Fe16  1  0.250000  0.874969  0.701603  1
  Fe  Fe17  1  0.250000  0.625031  0.201603  1
  Fe  Fe18  1  0.750000  0.125031  0.298397  1
  Fe  Fe19  1  0.750000  0.374969  0.798397  1
  Fe  Fe20  1  0.250000  0.463768  0.932676  1
  Fe  Fe21  1  0.250000  0.036232  0.432676  1
  Fe  Fe22  1  0.750000  0.536232  0.067324  1
  Fe  Fe23  1  0.750000  0.963768  0.567324  1
  P  P24  1  0.250000  0.422813  0.112767  1
  P  P25  1  0.250000  0.077187  0.612767  1
  P  P26  1  0.750000  0.577187  0.887233  1
  P  P27  1  0.750000  0.922813  0.387233  1
  P  P28  1  0.250000  0.265500  0.870936  1
  P  P29  1  0.250000  0.234500  0.370936  1
  P  P30  1  0.750000  0.734500  0.129064  1
  P  P31  1  0.750000  0.765500  0.629064  1
  P  P32  1  0.250000  0.597426  0.394269  1
  P  P33  1  0.250000  0.902574  0.894269  1
  P  P34  1  0.750000  0.402574  0.605731  1
  P  P35  1  0.750000  0.097426  0.105731  1
