# generated using pymatgen
data_Cs8MgHg3H16
_symmetry_space_group_name_H-M   'P 1'
_cell_length_a   6.58558100
_cell_length_b   8.77340120
_cell_length_c   11.66430948
_cell_angle_alpha   90.20779637
_cell_angle_beta   90.00000000
_cell_angle_gamma   90.00000000
_symmetry_Int_Tables_number   1
_chemical_formula_structural   Cs8MgHg3H16
_chemical_formula_sum   'Cs8 Mg1 Hg3 H16'
_cell_volume   673.93539055
_cell_formula_units_Z   1
loop_
 _symmetry_equiv_pos_site_id
 _symmetry_equiv_pos_as_xyz
  1  'x, y, z'
loop_
 _atom_site_type_symbol
 _atom_site_label
 _atom_site_symmetry_multiplicity
 _atom_site_fract_x
 _atom_site_fract_y
 _atom_site_fract_z
 _atom_site_occupancy
  Cs  Cs0  1  0.250000  0.161766  0.916191  1
  Cs  Cs1  1  0.250000  0.658956  0.583438  1
  Cs  Cs2  1  0.750000  0.838185  0.084088  1
  Cs  Cs3  1  0.750000  0.339147  0.415554  1
  Cs  Cs4  1  0.250000  0.492378  0.189877  1
  Cs  Cs5  1  0.250000  0.990666  0.310519  1
  Cs  Cs6  1  0.750000  0.509565  0.810506  1
  Cs  Cs7  1  0.750000  0.009123  0.688363  1
  Mg  Mg8  1  0.750000  0.764319  0.412738  1
  Hg  Hg9  1  0.250000  0.734163  0.911915  1
  Hg  Hg10  1  0.250000  0.233851  0.587923  1
  Hg  Hg11  1  0.750000  0.265678  0.088054  1
  H  H12  1  0.250000  0.529345  0.912128  1
  H  H13  1  0.250000  0.028411  0.587166  1
  H  H14  1  0.750000  0.470748  0.087773  1
  H  H15  1  0.750000  0.975528  0.412637  1
  H  H16  1  0.250000  0.815985  0.058130  1
  H  H17  1  0.250000  0.314909  0.442026  1
  H  H18  1  0.750000  0.184222  0.941639  1
  H  H19  1  0.750000  0.683985  0.561419  1
  H  H20  1  0.024176  0.810648  0.842278  1
  H  H21  1  0.475824  0.309920  0.657934  1
  H  H22  1  0.524290  0.189132  0.157744  1
  H  H23  1  0.981060  0.689837  0.341002  1
  H  H24  1  0.975710  0.189132  0.157744  1
  H  H25  1  0.518940  0.689837  0.341002  1
  H  H26  1  0.475824  0.810648  0.842278  1
  H  H27  1  0.024176  0.309920  0.657934  1
