# generated using pymatgen
data_Dy5(CSe2)2
_symmetry_space_group_name_H-M   'P 1'
_cell_length_a   3.89259738
_cell_length_b   8.87877381
_cell_length_c   9.33129500
_cell_angle_alpha   92.65179736
_cell_angle_beta   77.75185640
_cell_angle_gamma   49.08414154
_symmetry_Int_Tables_number   1
_chemical_formula_structural   Dy5(CSe2)2
_chemical_formula_sum   'Dy5 C2 Se4'
_cell_volume   230.54761331
_cell_formula_units_Z   1
loop_
 _symmetry_equiv_pos_site_id
 _symmetry_equiv_pos_as_xyz
  1  'x, y, z'
loop_
 _atom_site_type_symbol
 _atom_site_label
 _atom_site_symmetry_multiplicity
 _atom_site_fract_x
 _atom_site_fract_y
 _atom_site_fract_z
 _atom_site_occupancy
  Dy  Dy0  1  0.428230  0.933704  0.816018  1
  Dy  Dy1  1  0.302070  0.806489  0.451476  1
  Dy  Dy2  1  0.512913  0.280386  0.605296  1
  Dy  Dy3  1  0.386310  0.153447  0.240743  1
  Dy  Dy4  1  0.407968  0.543484  0.027320  1
  C  C5  1  0.392844  0.075533  0.461828  1
  C  C6  1  0.421815  0.011521  0.595000  1
  Se  Se7  1  0.458427  0.611336  0.723005  1
  Se  Se8  1  0.401631  0.847774  0.127017  1
  Se  Se9  1  0.356617  0.475862  0.332322  1
  Se  Se10  1  0.413522  0.238990  0.929658  1
