# generated using pymatgen
data_V12Zn7GaN4
_symmetry_space_group_name_H-M   'P 1'
_cell_length_a   6.58338177
_cell_length_b   6.58338177
_cell_length_c   6.58338177
_cell_angle_alpha   90.03927902
_cell_angle_beta   89.96072098
_cell_angle_gamma   89.96072098
_symmetry_Int_Tables_number   1
_chemical_formula_structural   V12Zn7GaN4
_chemical_formula_sum   'V12 Zn7 Ga1 N4'
_cell_volume   285.32959244
_cell_formula_units_Z   1
loop_
 _symmetry_equiv_pos_site_id
 _symmetry_equiv_pos_as_xyz
  1  'x, y, z'
loop_
 _atom_site_type_symbol
 _atom_site_label
 _atom_site_symmetry_multiplicity
 _atom_site_fract_x
 _atom_site_fract_y
 _atom_site_fract_z
 _atom_site_occupancy
  V  V0  1  0.788465  0.962168  0.374847  1
  V  V1  1  0.712197  0.037959  0.874879  1
  V  V2  1  0.211878  0.462946  0.125498  1
  V  V3  1  0.287645  0.537966  0.624105  1
  V  V4  1  0.962041  0.374879  0.787803  1
  V  V5  1  0.037832  0.874847  0.711535  1
  V  V6  1  0.462034  0.124105  0.212355  1
  V  V7  1  0.537054  0.625498  0.288122  1
  V  V8  1  0.374502  0.788122  0.962946  1
  V  V9  1  0.875895  0.712355  0.037966  1
  V  V10  1  0.125153  0.211535  0.462168  1
  V  V11  1  0.625121  0.287803  0.537959  1
  Zn  Zn12  1  0.322943  0.177831  0.822801  1
  Zn  Zn13  1  0.822169  0.322801  0.177057  1
  Zn  Zn14  1  0.677199  0.677057  0.677831  1
  Zn  Zn15  1  0.572628  0.427372  0.927372  1
  Zn  Zn16  1  0.430401  0.928349  0.575408  1
  Zn  Zn17  1  0.924592  0.569599  0.428349  1
  Zn  Zn18  1  0.071651  0.075408  0.069599  1
  Ga  Ga19  1  0.176834  0.823166  0.323166  1
  N  N20  1  0.874516  0.125484  0.625484  1
  N  N21  1  0.626165  0.874739  0.124176  1
  N  N22  1  0.125261  0.624176  0.873835  1
  N  N23  1  0.375824  0.373835  0.374739  1
