# generated using pymatgen
data_NaCaSbBr6
_symmetry_space_group_name_H-M   'P 1'
_cell_length_a   7.90012577
_cell_length_b   7.90016809
_cell_length_c   7.90015500
_cell_angle_alpha   55.31551475
_cell_angle_beta   55.31556696
_cell_angle_gamma   55.31532267
_symmetry_Int_Tables_number   1
_chemical_formula_structural   NaCaSbBr6
_chemical_formula_sum   'Na1 Ca1 Sb1 Br6'
_cell_volume   310.69965204
_cell_formula_units_Z   1
loop_
 _symmetry_equiv_pos_site_id
 _symmetry_equiv_pos_as_xyz
  1  'x, y, z'
loop_
 _atom_site_type_symbol
 _atom_site_label
 _atom_site_symmetry_multiplicity
 _atom_site_fract_x
 _atom_site_fract_y
 _atom_site_fract_z
 _atom_site_occupancy
  Na  Na0  1  0.669739  0.669739  0.669732  1
  Ca  Ca1  1  0.330928  0.330926  0.330925  1
  Sb  Sb2  1  0.999930  0.999933  0.999934  1
  Br  Br3  1  0.238684  0.597364  0.923935  1
  Br  Br4  1  0.597335  0.923936  0.238684  1
  Br  Br5  1  0.923945  0.238693  0.597349  1
  Br  Br6  1  0.751995  0.392685  0.094764  1
  Br  Br7  1  0.392689  0.094739  0.751988  1
  Br  Br8  1  0.094756  0.751984  0.392688  1
