# generated using pymatgen
data_Dy5Y3(ReB6)4
_symmetry_space_group_name_H-M   'P 1'
_cell_length_a   3.68799900
_cell_length_b   9.18656501
_cell_length_c   11.57318901
_cell_angle_alpha   89.99593697
_cell_angle_beta   90.00000000
_cell_angle_gamma   90.00000000
_symmetry_Int_Tables_number   1
_chemical_formula_structural   Dy5Y3(ReB6)4
_chemical_formula_sum   'Dy5 Y3 Re4 B24'
_cell_volume   392.10013507
_cell_formula_units_Z   1
loop_
 _symmetry_equiv_pos_site_id
 _symmetry_equiv_pos_as_xyz
  1  'x, y, z'
loop_
 _atom_site_type_symbol
 _atom_site_label
 _atom_site_symmetry_multiplicity
 _atom_site_fract_x
 _atom_site_fract_y
 _atom_site_fract_z
 _atom_site_occupancy
  Dy  Dy0  1  0.000000  0.176606  0.913911  1
  Dy  Dy1  1  0.000000  0.942609  0.369962  1
  Dy  Dy2  1  0.000000  0.057421  0.630007  1
  Dy  Dy3  1  0.000000  0.442597  0.129967  1
  Dy  Dy4  1  0.000000  0.557363  0.870014  1
  Y  Y5  1  0.000000  0.323147  0.413959  1
  Y  Y6  1  0.000000  0.676833  0.586093  1
  Y  Y7  1  0.000000  0.823208  0.086059  1
  Re  Re8  1  0.000000  0.638280  0.320807  1
  Re  Re9  1  0.000000  0.361666  0.679481  1
  Re  Re10  1  0.000000  0.138120  0.179064  1
  Re  Re11  1  0.000000  0.862176  0.820736  1
  B  B12  1  0.500000  0.553004  0.432789  1
  B  B13  1  0.500000  0.446946  0.567300  1
  B  B14  1  0.500000  0.053149  0.067056  1
  B  B15  1  0.500000  0.947166  0.932738  1
  B  B16  1  0.500000  0.748503  0.418247  1
  B  B17  1  0.500000  0.251514  0.581832  1
  B  B18  1  0.500000  0.248464  0.081540  1
  B  B19  1  0.500000  0.751569  0.918275  1
  B  B20  1  0.500000  0.791326  0.265537  1
  B  B21  1  0.500000  0.208622  0.734591  1
  B  B22  1  0.500000  0.291289  0.234347  1
  B  B23  1  0.500000  0.708696  0.765606  1
  B  B24  1  0.500000  0.630278  0.185840  1
  B  B25  1  0.500000  0.369525  0.814308  1
  B  B26  1  0.500000  0.130286  0.314090  1
  B  B27  1  0.500000  0.869758  0.685856  1
  B  B28  1  0.500000  0.982057  0.211830  1
  B  B29  1  0.500000  0.018124  0.788179  1
  B  B30  1  0.500000  0.481999  0.288074  1
  B  B31  1  0.500000  0.517897  0.711977  1
  B  B32  1  0.500000  0.599908  0.028049  1
  B  B33  1  0.500000  0.399869  0.971901  1
  B  B34  1  0.500000  0.099906  0.471932  1
  B  B35  1  0.500000  0.900121  0.528046  1
