# generated using pymatgen
data_ErTiP7Ru12
_symmetry_space_group_name_H-M   'P 1'
_cell_length_a   9.37770500
_cell_length_b   9.37770409
_cell_length_c   3.90232200
_cell_angle_alpha   90.00000000
_cell_angle_beta   90.00000000
_cell_angle_gamma   119.99999967
_symmetry_Int_Tables_number   1
_chemical_formula_structural   ErTiP7Ru12
_chemical_formula_sum   'Er1 Ti1 P7 Ru12'
_cell_volume   297.19864631
_cell_formula_units_Z   1
loop_
 _symmetry_equiv_pos_site_id
 _symmetry_equiv_pos_as_xyz
  1  'x, y, z'
loop_
 _atom_site_type_symbol
 _atom_site_label
 _atom_site_symmetry_multiplicity
 _atom_site_fract_x
 _atom_site_fract_y
 _atom_site_fract_z
 _atom_site_occupancy
  Er  Er0  1  0.333333  0.666667  0.000000  1
  Ti  Ti1  1  0.666667  0.333333  0.500000  1
  P  P2  1  0.598881  0.719198  0.500000  1
  P  P3  1  0.000000  0.000000  0.000000  1
  P  P4  1  0.280802  0.879683  0.500000  1
  P  P5  1  0.120317  0.401119  0.500000  1
  P  P6  1  0.883869  0.571915  0.000000  1
  P  P7  1  0.428085  0.311954  0.000000  1
  P  P8  1  0.688046  0.116131  0.000000  1
  Ru  Ru9  1  0.556990  0.954272  0.500000  1
  Ru  Ru10  1  0.397283  0.443010  0.500000  1
  Ru  Ru11  1  0.913422  0.122387  0.500000  1
  Ru  Ru12  1  0.208965  0.086578  0.500000  1
  Ru  Ru13  1  0.877613  0.791035  0.500000  1
  Ru  Ru14  1  0.725783  0.889445  0.000000  1
  Ru  Ru15  1  0.110555  0.836337  0.000000  1
  Ru  Ru16  1  0.163663  0.274217  0.000000  1
  Ru  Ru17  1  0.429487  0.075315  0.000000  1
  Ru  Ru18  1  0.924685  0.354173  0.000000  1
  Ru  Ru19  1  0.645827  0.570513  0.000000  1
  Ru  Ru20  1  0.045728  0.602717  0.500000  1
