# generated using pymatgen
data_Tb3YGa4(PdRh)2
_symmetry_space_group_name_H-M   'P 1'
_cell_length_a   4.44852200
_cell_length_b   6.92281403
_cell_length_c   7.69607203
_cell_angle_alpha   90.01084995
_cell_angle_beta   90.00000000
_cell_angle_gamma   90.00000000
_symmetry_Int_Tables_number   1
_chemical_formula_structural   Tb3YGa4(PdRh)2
_chemical_formula_sum   'Tb3 Y1 Ga4 Pd2 Rh2'
_cell_volume   237.01046598
_cell_formula_units_Z   1
loop_
 _symmetry_equiv_pos_site_id
 _symmetry_equiv_pos_as_xyz
  1  'x, y, z'
loop_
 _atom_site_type_symbol
 _atom_site_label
 _atom_site_symmetry_multiplicity
 _atom_site_fract_x
 _atom_site_fract_y
 _atom_site_fract_z
 _atom_site_occupancy
  Tb  Tb0  1  0.250000  0.982239  0.303786  1
  Tb  Tb1  1  0.750000  0.027573  0.687383  1
  Tb  Tb2  1  0.750000  0.527267  0.812808  1
  Y  Y3  1  0.250000  0.482001  0.197095  1
  Ga  Ga4  1  0.250000  0.332750  0.570778  1
  Ga  Ga5  1  0.250000  0.831856  0.928933  1
  Ga  Ga6  1  0.750000  0.661977  0.424471  1
  Ga  Ga7  1  0.750000  0.163233  0.075521  1
  Pd  Pd8  1  0.250000  0.219541  0.897187  1
  Pd  Pd9  1  0.250000  0.719664  0.601845  1
  Rh  Rh10  1  0.750000  0.777380  0.101270  1
  Rh  Rh11  1  0.750000  0.274515  0.398923  1
