# generated using pymatgen
data_Ho3TmRh2Pb5
_symmetry_space_group_name_H-M   'P 1'
_cell_length_a   8.16547798
_cell_length_b   3.54739000
_cell_length_c   9.84777586
_cell_angle_alpha   90.00000000
_cell_angle_beta   93.68677364
_cell_angle_gamma   90.00000000
_symmetry_Int_Tables_number   1
_chemical_formula_structural   Ho3TmRh2Pb5
_chemical_formula_sum   'Ho3 Tm1 Rh2 Pb5'
_cell_volume   284.66167225
_cell_formula_units_Z   1
loop_
 _symmetry_equiv_pos_site_id
 _symmetry_equiv_pos_as_xyz
  1  'x, y, z'
loop_
 _atom_site_type_symbol
 _atom_site_label
 _atom_site_symmetry_multiplicity
 _atom_site_fract_x
 _atom_site_fract_y
 _atom_site_fract_z
 _atom_site_occupancy
  Ho  Ho0  1  0.304726  0.500000  0.159258  1
  Ho  Ho1  1  0.699811  0.500000  0.432664  1
  Ho  Ho2  1  0.300289  0.500000  0.567629  1
  Tm  Tm3  1  0.694972  0.500000  0.839242  1
  Rh  Rh4  1  0.417917  0.000000  0.364184  1
  Rh  Rh5  1  0.582874  0.000000  0.637951  1
  Pb  Pb6  1  0.998693  0.000000  0.999602  1
  Pb  Pb7  1  0.645269  0.000000  0.135758  1
  Pb  Pb8  1  0.040966  0.000000  0.336402  1
  Pb  Pb9  1  0.958500  0.000000  0.663650  1
  Pb  Pb10  1  0.355983  0.000000  0.863660  1
