# generated using pymatgen
data_Tb6Ti3Al21(Ir3Ru)2
_symmetry_space_group_name_H-M   'P 1'
_cell_length_a   8.87112500
_cell_length_b   8.87112422
_cell_length_c   9.54663000
_cell_angle_alpha   90.00000000
_cell_angle_beta   90.00000000
_cell_angle_gamma   119.99999917
_symmetry_Int_Tables_number   1
_chemical_formula_structural   Tb6Ti3Al21(Ir3Ru)2
_chemical_formula_sum   'Tb6 Ti3 Al21 Ir6 Ru2'
_cell_volume   650.63599449
_cell_formula_units_Z   1
loop_
 _symmetry_equiv_pos_site_id
 _symmetry_equiv_pos_as_xyz
  1  'x, y, z'
loop_
 _atom_site_type_symbol
 _atom_site_label
 _atom_site_symmetry_multiplicity
 _atom_site_fract_x
 _atom_site_fract_y
 _atom_site_fract_z
 _atom_site_occupancy
  Tb  Tb0  1  0.389490  0.194745  0.249857  1
  Tb  Tb1  1  0.805255  0.194745  0.249857  1
  Tb  Tb2  1  0.805255  0.610510  0.249857  1
  Tb  Tb3  1  0.614533  0.807267  0.755965  1
  Tb  Tb4  1  0.192733  0.807267  0.755965  1
  Tb  Tb5  1  0.192733  0.385467  0.755965  1
  Ti  Ti6  1  0.164199  0.835801  0.420837  1
  Ti  Ti7  1  0.164199  0.328400  0.420837  1
  Ti  Ti8  1  0.671600  0.835801  0.420837  1
  Al  Al9  1  0.437031  0.874061  0.244496  1
  Al  Al10  1  0.125939  0.562969  0.244496  1
  Al  Al11  1  0.437031  0.562969  0.244496  1
  Al  Al12  1  0.563578  0.127158  0.748374  1
  Al  Al13  1  0.872842  0.436422  0.748374  1
  Al  Al14  1  0.563578  0.436422  0.748374  1
  Al  Al15  1  0.837065  0.162935  0.574580  1
  Al  Al16  1  0.837065  0.674130  0.574580  1
  Al  Al17  1  0.325870  0.162935  0.574580  1
  Al  Al18  1  0.837129  0.162871  0.925486  1
  Al  Al19  1  0.837129  0.674258  0.925486  1
  Al  Al20  1  0.325742  0.162871  0.925486  1
  Al  Al21  1  0.162181  0.837819  0.083394  1
  Al  Al22  1  0.162181  0.324362  0.083394  1
  Al  Al23  1  0.675638  0.837819  0.083394  1
  Al  Al24  1  0.333333  0.666667  0.530506  1
  Al  Al25  1  0.666667  0.333333  0.477169  1
  Al  Al26  1  0.666667  0.333333  0.024831  1
  Al  Al27  1  0.333333  0.666667  0.975270  1
  Al  Al28  1  0.000000  0.000000  0.247460  1
  Al  Al29  1  0.000000  0.000000  0.749318  1
  Ir  Ir30  1  0.497475  0.994949  0.500158  1
  Ir  Ir31  1  0.005051  0.502525  0.500158  1
  Ir  Ir32  1  0.497475  0.502525  0.500158  1
  Ir  Ir33  1  0.500907  0.001815  0.996718  1
  Ir  Ir34  1  0.998185  0.499093  0.996718  1
  Ir  Ir35  1  0.500907  0.499093  0.996718  1
  Ru  Ru36  1  0.000000  0.000000  0.499932  1
  Ru  Ru37  1  0.000000  0.000000  0.995923  1
