# generated using pymatgen
data_BiRuF7
_symmetry_space_group_name_H-M   'P 1'
_cell_length_a   5.63871700
_cell_length_b   9.24481241
_cell_length_c   12.22368166
_cell_angle_alpha   62.63994740
_cell_angle_beta   90.00000000
_cell_angle_gamma   90.00000000
_symmetry_Int_Tables_number   1
_chemical_formula_structural   BiRuF7
_chemical_formula_sum   'Bi4 Ru4 F28'
_cell_volume   565.92635567
_cell_formula_units_Z   4
loop_
 _symmetry_equiv_pos_site_id
 _symmetry_equiv_pos_as_xyz
  1  'x, y, z'
loop_
 _atom_site_type_symbol
 _atom_site_label
 _atom_site_symmetry_multiplicity
 _atom_site_fract_x
 _atom_site_fract_y
 _atom_site_fract_z
 _atom_site_occupancy
  Bi  Bi0  1  0.759645  0.811493  0.267930  1
  Bi  Bi1  1  0.259645  0.188507  0.232070  1
  Bi  Bi2  1  0.240355  0.188507  0.732070  1
  Bi  Bi3  1  0.740355  0.811493  0.767930  1
  Ru  Ru4  1  0.245604  0.729003  0.543104  1
  Ru  Ru5  1  0.745604  0.270997  0.956896  1
  Ru  Ru6  1  0.754396  0.270997  0.456896  1
  Ru  Ru7  1  0.254396  0.729003  0.043104  1
  F  F8  1  0.951587  0.717674  0.457250  1
  F  F9  1  0.451587  0.282326  0.042750  1
  F  F10  1  0.048413  0.282326  0.542750  1
  F  F11  1  0.548413  0.717674  0.957250  1
  F  F12  1  0.057850  0.708089  0.917574  1
  F  F13  1  0.557850  0.291911  0.582426  1
  F  F14  1  0.942150  0.291911  0.082426  1
  F  F15  1  0.442150  0.708089  0.417574  1
  F  F16  1  0.737861  0.501707  0.862111  1
  F  F17  1  0.237861  0.498293  0.637889  1
  F  F18  1  0.262139  0.498293  0.137889  1
  F  F19  1  0.762139  0.501707  0.362111  1
  F  F20  1  0.741645  0.038582  0.049117  1
  F  F21  1  0.241645  0.961418  0.450883  1
  F  F22  1  0.258355  0.961418  0.950883  1
  F  F23  1  0.758355  0.038582  0.549117  1
  F  F24  1  0.054279  0.749348  0.671223  1
  F  F25  1  0.554279  0.250652  0.828777  1
  F  F26  1  0.945721  0.250652  0.328777  1
  F  F27  1  0.445721  0.749348  0.171223  1
  F  F28  1  0.032176  0.264593  0.867322  1
  F  F29  1  0.532176  0.735407  0.632678  1
  F  F30  1  0.967824  0.735407  0.132678  1
  F  F31  1  0.467824  0.264593  0.367322  1
  F  F32  1  0.087920  0.972457  0.229846  1
  F  F33  1  0.587920  0.027543  0.270154  1
  F  F34  1  0.912080  0.027543  0.770154  1
  F  F35  1  0.412080  0.972457  0.729846  1
