# generated using pymatgen
data_Nd5TiRuO12
_symmetry_space_group_name_H-M   'P 1'
_cell_length_a   7.06711039
_cell_length_b   7.06710936
_cell_length_c   7.59951101
_cell_angle_alpha   74.45280480
_cell_angle_beta   74.45281424
_cell_angle_gamma   50.51764097
_symmetry_Int_Tables_number   1
_chemical_formula_structural   Nd5TiRuO12
_chemical_formula_sum   'Nd5 Ti1 Ru1 O12'
_cell_volume   279.78378887
_cell_formula_units_Z   1
loop_
 _symmetry_equiv_pos_site_id
 _symmetry_equiv_pos_as_xyz
  1  'x, y, z'
loop_
 _atom_site_type_symbol
 _atom_site_label
 _atom_site_symmetry_multiplicity
 _atom_site_fract_x
 _atom_site_fract_y
 _atom_site_fract_z
 _atom_site_occupancy
  Nd  Nd0  1  0.306654  0.303153  0.357847  1
  Nd  Nd1  1  0.696847  0.693346  0.642153  1
  Nd  Nd2  1  0.690173  0.696939  0.165412  1
  Nd  Nd3  1  0.303061  0.309827  0.834588  1
  Nd  Nd4  1  0.002141  0.997859  0.500000  1
  Ti  Ti5  1  0.772672  0.227328  0.000000  1
  Ru  Ru6  1  0.250363  0.749637  0.000000  1
  O  O7  1  0.095955  0.596118  0.576386  1
  O  O8  1  0.000054  0.998742  0.177284  1
  O  O9  1  0.403882  0.904045  0.423614  1
  O  O10  1  0.494356  0.506805  0.175936  1
  O  O11  1  0.097693  0.582184  0.079964  1
  O  O12  1  0.904606  0.403195  0.422228  1
  O  O13  1  0.001258  0.999946  0.822716  1
  O  O14  1  0.596805  0.095393  0.577772  1
  O  O15  1  0.493195  0.505644  0.824064  1
  O  O16  1  0.578746  0.106278  0.078013  1
  O  O17  1  0.417816  0.902307  0.920036  1
  O  O18  1  0.893722  0.421254  0.921987  1
