# generated using pymatgen
data_Y2CrCo11As7
_symmetry_space_group_name_H-M   'P 1'
_cell_length_a   3.75538700
_cell_length_b   9.38522524
_cell_length_c   9.40602635
_cell_angle_alpha   119.87294795
_cell_angle_beta   90.00000000
_cell_angle_gamma   90.00000000
_symmetry_Int_Tables_number   1
_chemical_formula_structural   Y2CrCo11As7
_chemical_formula_sum   'Y2 Cr1 Co11 As7'
_cell_volume   287.46886145
_cell_formula_units_Z   1
loop_
 _symmetry_equiv_pos_site_id
 _symmetry_equiv_pos_as_xyz
  1  'x, y, z'
loop_
 _atom_site_type_symbol
 _atom_site_label
 _atom_site_symmetry_multiplicity
 _atom_site_fract_x
 _atom_site_fract_y
 _atom_site_fract_z
 _atom_site_occupancy
  Y  Y0  1  0.000000  0.667869  0.337006  1
  Y  Y1  1  0.500000  0.331830  0.665949  1
  Cr  Cr2  1  0.500000  0.780940  0.897865  1
  Co  Co3  1  0.000000  0.568274  0.941578  1
  Co  Co4  1  0.000000  0.373112  0.430156  1
  Co  Co5  1  0.000000  0.058212  0.625512  1
  Co  Co6  1  0.500000  0.122939  0.222790  1
  Co  Co7  1  0.500000  0.098374  0.875213  1
  Co  Co8  1  0.000000  0.879050  0.157298  1
  Co  Co9  1  0.000000  0.278589  0.121873  1
  Co  Co10  1  0.000000  0.845060  0.724502  1
  Co  Co11  1  0.500000  0.949027  0.381860  1
  Co  Co12  1  0.500000  0.431175  0.049955  1
  Co  Co13  1  0.500000  0.618162  0.566792  1
  As  As14  1  0.000000  0.003610  0.002626  1
  As  As15  1  0.500000  0.706379  0.117219  1
  As  As16  1  0.500000  0.404143  0.290749  1
  As  As17  1  0.500000  0.887367  0.595549  1
  As  As18  1  0.000000  0.587519  0.702466  1
  As  As19  1  0.000000  0.114712  0.408586  1
  As  As20  1  0.000000  0.293655  0.884457  1
