# generated using pymatgen
data_Pr2SmDy(Sn5Rh3)2
_symmetry_space_group_name_H-M   'P 1'
_cell_length_a   13.58989430
_cell_length_b   13.58989471
_cell_length_c   7.24301883
_cell_angle_alpha   89.91305463
_cell_angle_beta   90.08694498
_cell_angle_gamma   160.83470817
_symmetry_Int_Tables_number   1
_chemical_formula_structural   Pr2SmDy(Sn5Rh3)2
_chemical_formula_sum   'Pr2 Sm1 Dy1 Sn10 Rh6'
_cell_volume   439.15202588
_cell_formula_units_Z   1
loop_
 _symmetry_equiv_pos_site_id
 _symmetry_equiv_pos_as_xyz
  1  'x, y, z'
loop_
 _atom_site_type_symbol
 _atom_site_label
 _atom_site_symmetry_multiplicity
 _atom_site_fract_x
 _atom_site_fract_y
 _atom_site_fract_z
 _atom_site_occupancy
  Pr  Pr0  1  0.172006  0.827994  0.753937  1
  Pr  Pr1  1  0.827948  0.172052  0.254066  1
  Sm  Sm2  1  0.476357  0.523643  0.739015  1
  Dy  Dy3  1  0.524257  0.475743  0.238967  1
  Sn  Sn4  1  0.879338  0.120662  0.732390  1
  Sn  Sn5  1  0.120370  0.879630  0.232812  1
  Sn  Sn6  1  0.704186  0.295814  0.048498  1
  Sn  Sn7  1  0.295456  0.704544  0.548663  1
  Sn  Sn8  1  0.595567  0.404433  0.610358  1
  Sn  Sn9  1  0.404837  0.595163  0.111373  1
  Sn  Sn10  1  0.953038  0.046962  0.399559  1
  Sn  Sn11  1  0.047456  0.952544  0.901480  1
  Sn  Sn12  1  0.290387  0.709613  0.975372  1
  Sn  Sn13  1  0.709460  0.290540  0.475195  1
  Rh  Rh14  1  0.050659  0.949341  0.515175  1
  Rh  Rh15  1  0.949522  0.050478  0.018341  1
  Rh  Rh16  1  0.777434  0.222566  0.764066  1
  Rh  Rh17  1  0.222362  0.777638  0.263929  1
  Rh  Rh18  1  0.395350  0.604650  0.485533  1
  Rh  Rh19  1  0.604010  0.395990  0.987269  1
