# generated using pymatgen
data_TmPa(TlBr3)4
_symmetry_space_group_name_H-M   'P 1'
_cell_length_a   7.60874300
_cell_length_b   7.60874300
_cell_length_c   11.79054900
_cell_angle_alpha   90.00000000
_cell_angle_beta   90.00000000
_cell_angle_gamma   90.00000000
_symmetry_Int_Tables_number   1
_chemical_formula_structural   TmPa(TlBr3)4
_chemical_formula_sum   'Tm1 Pa1 Tl4 Br12'
_cell_volume   682.58990001
_cell_formula_units_Z   1
loop_
 _symmetry_equiv_pos_site_id
 _symmetry_equiv_pos_as_xyz
  1  'x, y, z'
loop_
 _atom_site_type_symbol
 _atom_site_label
 _atom_site_symmetry_multiplicity
 _atom_site_fract_x
 _atom_site_fract_y
 _atom_site_fract_z
 _atom_site_occupancy
  Tm  Tm0  1  0.000000  0.000000  0.000000  1
  Pa  Pa1  1  0.500000  0.500000  0.500000  1
  Tl  Tl2  1  0.500000  0.000000  0.806873  1
  Tl  Tl3  1  0.500000  0.000000  0.193127  1
  Tl  Tl4  1  0.000000  0.500000  0.193127  1
  Tl  Tl5  1  0.000000  0.500000  0.806873  1
  Br  Br6  1  0.739641  0.252681  0.000000  1
  Br  Br7  1  0.260359  0.747319  0.000000  1
  Br  Br8  1  0.500000  0.500000  0.265796  1
  Br  Br9  1  0.309205  0.200676  0.500000  1
  Br  Br10  1  0.252681  0.260359  0.000000  1
  Br  Br11  1  0.799324  0.309205  0.500000  1
  Br  Br12  1  0.000000  0.000000  0.233171  1
  Br  Br13  1  0.690795  0.799324  0.500000  1
  Br  Br14  1  0.200676  0.690795  0.500000  1
  Br  Br15  1  0.500000  0.500000  0.734204  1
  Br  Br16  1  0.747319  0.739641  0.000000  1
  Br  Br17  1  0.000000  0.000000  0.766829  1
