# generated using pymatgen
data_TmPdI18
_symmetry_space_group_name_H-M   'P 1'
_cell_length_a   10.44062068
_cell_length_b   10.24211845
_cell_length_c   10.11264941
_cell_angle_alpha   88.82557127
_cell_angle_beta   86.86001930
_cell_angle_gamma   88.46815364
_symmetry_Int_Tables_number   1
_chemical_formula_structural   TmPdI18
_chemical_formula_sum   'Tm1 Pd1 I18'
_cell_volume   1079.18118703
_cell_formula_units_Z   1
loop_
 _symmetry_equiv_pos_site_id
 _symmetry_equiv_pos_as_xyz
  1  'x, y, z'
loop_
 _atom_site_type_symbol
 _atom_site_label
 _atom_site_symmetry_multiplicity
 _atom_site_fract_x
 _atom_site_fract_y
 _atom_site_fract_z
 _atom_site_occupancy
  Tm  Tm0  1  0.000000  0.000000  0.000000  1
  Pd  Pd1  1  0.500000  0.500000  0.500000  1
  I  I2  1  0.779723  0.467083  0.503372  1
  I  I3  1  0.499686  0.762915  0.473443  1
  I  I4  1  0.467063  0.501305  0.768037  1
  I  I5  1  0.220277  0.532917  0.496628  1
  I  I6  1  0.500314  0.237085  0.526557  1
  I  I7  1  0.532937  0.498695  0.231963  1
  I  I8  1  0.892117  0.376747  0.742411  1
  I  I9  1  0.742766  0.878623  0.383924  1
  I  I10  1  0.375611  0.747355  0.881379  1
  I  I11  1  0.107883  0.623253  0.257589  1
  I  I12  1  0.257234  0.121377  0.616076  1
  I  I13  1  0.624389  0.252645  0.118621  1
  I  I14  1  0.029132  0.968371  0.702812  1
  I  I15  1  0.713237  0.020800  0.968024  1
  I  I16  1  0.965355  0.710843  0.017818  1
  I  I17  1  0.970868  0.031629  0.297188  1
  I  I18  1  0.286763  0.979200  0.031976  1
  I  I19  1  0.034645  0.289157  0.982182  1
