# generated using pymatgen
data_TbU4Re2TcC8
_symmetry_space_group_name_H-M   'P 1'
_cell_length_a   11.36148600
_cell_length_b   11.36148600
_cell_length_c   3.26929800
_cell_angle_alpha   90.00000000
_cell_angle_beta   90.00000000
_cell_angle_gamma   90.00000000
_symmetry_Int_Tables_number   1
_chemical_formula_structural   TbU4Re2TcC8
_chemical_formula_sum   'Tb2 U8 Re4 Tc2 C16'
_cell_volume   422.01198418
_cell_formula_units_Z   2
loop_
 _symmetry_equiv_pos_site_id
 _symmetry_equiv_pos_as_xyz
  1  'x, y, z'
loop_
 _atom_site_type_symbol
 _atom_site_label
 _atom_site_symmetry_multiplicity
 _atom_site_fract_x
 _atom_site_fract_y
 _atom_site_fract_z
 _atom_site_occupancy
  Tb  Tb0  1  0.000000  0.500000  0.000000  1
  Tb  Tb1  1  0.500000  0.000000  0.000000  1
  U  U2  1  0.272209  0.541974  0.500000  1
  U  U3  1  0.727791  0.458026  0.500000  1
  U  U4  1  0.541974  0.727791  0.500000  1
  U  U5  1  0.772209  0.958026  0.500000  1
  U  U6  1  0.227791  0.041974  0.500000  1
  U  U7  1  0.958026  0.227791  0.500000  1
  U  U8  1  0.458026  0.272209  0.500000  1
  U  U9  1  0.041974  0.772209  0.500000  1
  Re  Re10  1  0.203710  0.296290  0.000000  1
  Re  Re11  1  0.703710  0.203710  0.000000  1
  Re  Re12  1  0.296290  0.796290  0.000000  1
  Re  Re13  1  0.796290  0.703710  0.000000  1
  Tc  Tc14  1  0.500000  0.500000  0.000000  1
  Tc  Tc15  1  0.000000  0.000000  0.000000  1
  C  C16  1  0.347193  0.402603  0.000000  1
  C  C17  1  0.619992  0.119992  0.500000  1
  C  C18  1  0.902603  0.847193  0.000000  1
  C  C19  1  0.656113  0.843887  0.000000  1
  C  C20  1  0.343887  0.156113  0.000000  1
  C  C21  1  0.119992  0.380008  0.500000  1
  C  C22  1  0.152807  0.902603  0.000000  1
  C  C23  1  0.843887  0.343887  0.000000  1
  C  C24  1  0.652807  0.597397  0.000000  1
  C  C25  1  0.597397  0.347193  0.000000  1
  C  C26  1  0.880008  0.619992  0.500000  1
  C  C27  1  0.847193  0.097397  0.000000  1
  C  C28  1  0.380008  0.880008  0.500000  1
  C  C29  1  0.156113  0.656113  0.000000  1
  C  C30  1  0.097397  0.152807  0.000000  1
  C  C31  1  0.402603  0.652807  0.000000  1
