# generated using pymatgen
data_La10FeSiSb4
_symmetry_space_group_name_H-M   'P 1'
_cell_length_a   8.41704500
_cell_length_b   9.18356100
_cell_length_c   12.83139200
_cell_angle_alpha   90.00000000
_cell_angle_beta   90.00000000
_cell_angle_gamma   90.00000000
_symmetry_Int_Tables_number   1
_chemical_formula_structural   La10FeSiSb4
_chemical_formula_sum   'La20 Fe2 Si2 Sb8'
_cell_volume   991.84666415
_cell_formula_units_Z   2
loop_
 _symmetry_equiv_pos_site_id
 _symmetry_equiv_pos_as_xyz
  1  'x, y, z'
loop_
 _atom_site_type_symbol
 _atom_site_label
 _atom_site_symmetry_multiplicity
 _atom_site_fract_x
 _atom_site_fract_y
 _atom_site_fract_z
 _atom_site_occupancy
  La  La0  1  0.314648  0.516324  0.438776  1
  La  La1  1  0.874865  0.250000  0.802651  1
  La  La2  1  0.185352  0.516324  0.938776  1
  La  La3  1  0.314648  0.983676  0.438776  1
  La  La4  1  0.137838  0.750000  0.210181  1
  La  La5  1  0.844097  0.750000  0.788536  1
  La  La6  1  0.362162  0.750000  0.710181  1
  La  La7  1  0.969494  0.750000  0.501062  1
  La  La8  1  0.456725  0.250000  0.999045  1
  La  La9  1  0.682240  0.454583  0.559925  1
  La  La10  1  0.817760  0.045417  0.059925  1
  La  La11  1  0.655903  0.750000  0.288536  1
  La  La12  1  0.530506  0.750000  0.001062  1
  La  La13  1  0.043275  0.250000  0.499045  1
  La  La14  1  0.682240  0.045417  0.559925  1
  La  La15  1  0.185352  0.983676  0.938776  1
  La  La16  1  0.625135  0.250000  0.302651  1
  La  La17  1  0.350091  0.250000  0.701060  1
  La  La18  1  0.817760  0.454583  0.059925  1
  La  La19  1  0.149909  0.250000  0.201060  1
  Fe  Fe20  1  0.085383  0.250000  0.984921  1
  Fe  Fe21  1  0.414617  0.250000  0.484921  1
  Si  Si22  1  0.940246  0.750000  0.014455  1
  Si  Si23  1  0.559754  0.750000  0.514455  1
  Sb  Sb24  1  0.921020  0.493716  0.326065  1
  Sb  Sb25  1  0.426599  0.506820  0.174279  1
  Sb  Sb26  1  0.426599  0.993180  0.174279  1
  Sb  Sb27  1  0.578980  0.493716  0.826065  1
  Sb  Sb28  1  0.073401  0.506820  0.674279  1
  Sb  Sb29  1  0.578980  0.006284  0.826065  1
  Sb  Sb30  1  0.921020  0.006284  0.326065  1
  Sb  Sb31  1  0.073401  0.993180  0.674279  1
