# generated using pymatgen
data_SrPr5YFeI12
_symmetry_space_group_name_H-M   'P 1'
_cell_length_a   10.02129306
_cell_length_b   10.02566251
_cell_length_c   10.11337507
_cell_angle_alpha   106.04614425
_cell_angle_beta   106.61080366
_cell_angle_gamma   106.32281316
_symmetry_Int_Tables_number   1
_chemical_formula_structural   SrPr5YFeI12
_chemical_formula_sum   'Sr1 Pr5 Y1 Fe1 I12'
_cell_volume   861.26690744
_cell_formula_units_Z   1
loop_
 _symmetry_equiv_pos_site_id
 _symmetry_equiv_pos_as_xyz
  1  'x, y, z'
loop_
 _atom_site_type_symbol
 _atom_site_label
 _atom_site_symmetry_multiplicity
 _atom_site_fract_x
 _atom_site_fract_y
 _atom_site_fract_z
 _atom_site_occupancy
  Sr  Sr0  1  0.499235  0.499704  0.500338  1
  Pr  Pr1  1  0.710540  0.980090  0.909273  1
  Pr  Pr2  1  0.979139  0.902879  0.694814  1
  Pr  Pr3  1  0.092335  0.289102  0.020121  1
  Pr  Pr4  1  0.290046  0.020966  0.094330  1
  Pr  Pr5  1  0.907841  0.711438  0.980466  1
  Y  Y6  1  0.021269  0.094901  0.295645  1
  Fe  Fe7  1  0.000772  0.000447  0.000442  1
  I  I8  1  0.073649  0.225714  0.675859  1
  I  I9  1  0.362367  0.140516  0.449531  1
  I  I10  1  0.627597  0.858332  0.550090  1
  I  I11  1  0.226610  0.679802  0.075247  1
  I  I12  1  0.773574  0.320216  0.925419  1
  I  I13  1  0.689650  0.075790  0.230064  1
  I  I14  1  0.547648  0.627817  0.856176  1
  I  I15  1  0.857720  0.548025  0.630303  1
  I  I16  1  0.928303  0.783763  0.320656  1
  I  I17  1  0.322047  0.926854  0.777235  1
  I  I18  1  0.452677  0.372094  0.144615  1
  I  I19  1  0.136980  0.441549  0.369377  1
