# generated using pymatgen
data_Ta12Tc5B12Ru7
_symmetry_space_group_name_H-M   'P 1'
_cell_length_a   3.15670800
_cell_length_b   9.05339802
_cell_length_c   15.62239253
_cell_angle_alpha   90.07677357
_cell_angle_beta   90.00000000
_cell_angle_gamma   90.00000000
_symmetry_Int_Tables_number   1
_chemical_formula_structural   Ta12Tc5B12Ru7
_chemical_formula_sum   'Ta12 Tc5 B12 Ru7'
_cell_volume   446.47092346
_cell_formula_units_Z   1
loop_
 _symmetry_equiv_pos_site_id
 _symmetry_equiv_pos_as_xyz
  1  'x, y, z'
loop_
 _atom_site_type_symbol
 _atom_site_label
 _atom_site_symmetry_multiplicity
 _atom_site_fract_x
 _atom_site_fract_y
 _atom_site_fract_z
 _atom_site_occupancy
  Ta  Ta0  1  0.000000  0.800855  0.494260  1
  Ta  Ta1  1  0.000000  0.199324  0.505636  1
  Ta  Ta2  1  0.000000  0.302935  0.006895  1
  Ta  Ta3  1  0.000000  0.698462  0.994484  1
  Ta  Ta4  1  0.000000  0.514424  0.594675  1
  Ta  Ta5  1  0.000000  0.485719  0.405213  1
  Ta  Ta6  1  0.000000  0.014985  0.905449  1
  Ta  Ta7  1  0.000000  0.985375  0.094804  1
  Ta  Ta8  1  0.000000  0.681618  0.204409  1
  Ta  Ta9  1  0.000000  0.315978  0.794140  1
  Ta  Ta10  1  0.000000  0.184299  0.293581  1
  Ta  Ta11  1  0.000000  0.815674  0.706010  1
  Tc  Tc12  1  0.500000  0.719335  0.358021  1
  Tc  Tc13  1  0.500000  0.280554  0.642534  1
  Tc  Tc14  1  0.500000  0.217634  0.143372  1
  Tc  Tc15  1  0.500000  0.780980  0.856824  1
  Tc  Tc16  1  0.500000  0.520227  0.095435  1
  B  B17  1  0.500000  0.605167  0.496247  1
  B  B18  1  0.500000  0.394838  0.504022  1
  B  B19  1  0.500000  0.105409  0.004122  1
  B  B20  1  0.500000  0.895614  0.995794  1
  B  B21  1  0.000000  0.612308  0.832731  1
  B  B22  1  0.000000  0.389329  0.166090  1
  B  B23  1  0.000000  0.112277  0.667384  1
  B  B24  1  0.000000  0.887464  0.332486  1
  B  B25  1  0.500000  0.714050  0.600152  1
  B  B26  1  0.500000  0.285863  0.399886  1
  B  B27  1  0.500000  0.214463  0.899961  1
  B  B28  1  0.500000  0.786322  0.100212  1
  Ru  Ru29  1  0.500000  0.480116  0.903506  1
  Ru  Ru30  1  0.500000  0.019612  0.404800  1
  Ru  Ru31  1  0.500000  0.980556  0.595653  1
  Ru  Ru32  1  0.500000  0.566069  0.732906  1
  Ru  Ru33  1  0.500000  0.432787  0.268009  1
  Ru  Ru34  1  0.500000  0.066380  0.766553  1
  Ru  Ru35  1  0.500000  0.932999  0.233744  1
