# generated using pymatgen
data_CeDy(AlIr)2
_symmetry_space_group_name_H-M   'P 1'
_cell_length_a   6.85023200
_cell_length_b   4.31276700
_cell_length_c   7.93790400
_cell_angle_alpha   90.00000000
_cell_angle_beta   90.00000000
_cell_angle_gamma   90.00000000
_symmetry_Int_Tables_number   1
_chemical_formula_structural   CeDy(AlIr)2
_chemical_formula_sum   'Ce2 Dy2 Al4 Ir4'
_cell_volume   234.51310574
_cell_formula_units_Z   2
loop_
 _symmetry_equiv_pos_site_id
 _symmetry_equiv_pos_as_xyz
  1  'x, y, z'
loop_
 _atom_site_type_symbol
 _atom_site_label
 _atom_site_symmetry_multiplicity
 _atom_site_fract_x
 _atom_site_fract_y
 _atom_site_fract_z
 _atom_site_occupancy
  Ce  Ce0  1  0.033927  0.750000  0.821069  1
  Ce  Ce1  1  0.533927  0.750000  0.678931  1
  Dy  Dy2  1  0.964459  0.250000  0.184309  1
  Dy  Dy3  1  0.464459  0.250000  0.315691  1
  Al  Al4  1  0.863597  0.250000  0.557460  1
  Al  Al5  1  0.363597  0.250000  0.942540  1
  Al  Al6  1  0.138029  0.750000  0.433840  1
  Al  Al7  1  0.638029  0.750000  0.066160  1
  Ir  Ir8  1  0.737776  0.250000  0.876665  1
  Ir  Ir9  1  0.237776  0.250000  0.623335  1
  Ir  Ir10  1  0.262213  0.750000  0.114448  1
  Ir  Ir11  1  0.762213  0.750000  0.385552  1
