# generated using pymatgen
data_TbY3CoNi(B8Ir)2
_symmetry_space_group_name_H-M   'P 1'
_cell_length_a   6.91981638
_cell_length_b   6.91955382
_cell_length_c   6.91981817
_cell_angle_alpha   111.13054118
_cell_angle_beta   113.14251175
_cell_angle_gamma   104.27115637
_symmetry_Int_Tables_number   1
_chemical_formula_structural   TbY3CoNi(B8Ir)2
_chemical_formula_sum   'Tb1 Y3 Co1 Ni1 B16 Ir2'
_cell_volume   253.41389127
_cell_formula_units_Z   1
loop_
 _symmetry_equiv_pos_site_id
 _symmetry_equiv_pos_as_xyz
  1  'x, y, z'
loop_
 _atom_site_type_symbol
 _atom_site_label
 _atom_site_symmetry_multiplicity
 _atom_site_fract_x
 _atom_site_fract_y
 _atom_site_fract_z
 _atom_site_occupancy
  Tb  Tb0  1  0.791204  0.793140  0.001936  1
  Y  Y1  1  0.209125  0.211206  0.002080  1
  Y  Y2  1  0.750427  0.248101  0.497673  1
  Y  Y3  1  0.249578  0.747224  0.497647  1
  Co  Co4  1  0.500060  0.742788  0.242729  1
  Ni  Ni5  1  0.500116  0.255719  0.755604  1
  B  B6  1  0.272448  0.108381  0.380866  1
  B  B7  1  0.726131  0.891694  0.617854  1
  B  B8  1  0.273840  0.891694  0.165562  1
  B  B9  1  0.727515  0.108381  0.835932  1
  B  B10  1  0.110840  0.731600  0.842419  1
  B  B11  1  0.889796  0.267828  0.157588  1
  B  B12  1  0.110240  0.267828  0.378031  1
  B  B13  1  0.889180  0.731600  0.620760  1
  B  B14  1  0.115732  0.111201  0.530235  1
  B  B15  1  0.578311  0.586598  0.467686  1
  B  B16  1  0.118911  0.586598  0.008288  1
  B  B17  1  0.580966  0.111201  0.995469  1
  B  B18  1  0.880855  0.889137  0.467342  1
  B  B19  1  0.419117  0.414619  0.530555  1
  B  B20  1  0.884065  0.414619  0.995502  1
  B  B21  1  0.421795  0.889137  0.008282  1
  Ir  Ir22  1  0.275476  0.499854  0.775580  1
  Ir  Ir23  1  0.724272  0.499854  0.224378  1
