# generated using pymatgen
data_TbYBe2(SiIr2)2
_symmetry_space_group_name_H-M   'P 1'
_cell_length_a   4.07696700
_cell_length_b   4.07696700
_cell_length_c   9.54100700
_cell_angle_alpha   90.00000000
_cell_angle_beta   90.00000000
_cell_angle_gamma   90.00000000
_symmetry_Int_Tables_number   1
_chemical_formula_structural   TbYBe2(SiIr2)2
_chemical_formula_sum   'Tb1 Y1 Be2 Si2 Ir4'
_cell_volume   158.58737364
_cell_formula_units_Z   1
loop_
 _symmetry_equiv_pos_site_id
 _symmetry_equiv_pos_as_xyz
  1  'x, y, z'
loop_
 _atom_site_type_symbol
 _atom_site_label
 _atom_site_symmetry_multiplicity
 _atom_site_fract_x
 _atom_site_fract_y
 _atom_site_fract_z
 _atom_site_occupancy
  Tb  Tb0  1  0.500000  0.000000  0.260593  1
  Y  Y1  1  0.000000  0.500000  0.739438  1
  Be  Be2  1  0.500000  0.500000  0.500336  1
  Be  Be3  1  0.000000  0.000000  0.500336  1
  Si  Si4  1  0.000000  0.500000  0.138218  1
  Si  Si5  1  0.500000  0.000000  0.861455  1
  Ir  Ir6  1  0.000000  0.500000  0.390843  1
  Ir  Ir7  1  0.500000  0.000000  0.609076  1
  Ir  Ir8  1  0.500000  0.500000  0.999852  1
  Ir  Ir9  1  0.000000  0.000000  0.999852  1
