# generated using pymatgen
data_PrSm2Co8TcP6
_symmetry_space_group_name_H-M   'P 1'
_cell_length_a   3.77210200
_cell_length_b   10.67993300
_cell_length_c   12.40065000
_cell_angle_alpha   90.00000000
_cell_angle_beta   90.00000000
_cell_angle_gamma   90.00000000
_symmetry_Int_Tables_number   1
_chemical_formula_structural   PrSm2Co8TcP6
_chemical_formula_sum   'Pr2 Sm4 Co16 Tc2 P12'
_cell_volume   499.57006397
_cell_formula_units_Z   2
loop_
 _symmetry_equiv_pos_site_id
 _symmetry_equiv_pos_as_xyz
  1  'x, y, z'
loop_
 _atom_site_type_symbol
 _atom_site_label
 _atom_site_symmetry_multiplicity
 _atom_site_fract_x
 _atom_site_fract_y
 _atom_site_fract_z
 _atom_site_occupancy
  Pr  Pr0  1  0.000000  0.500000  0.523604  1
  Pr  Pr1  1  0.500000  0.000000  0.476396  1
  Sm  Sm2  1  0.500000  0.817142  0.205158  1
  Sm  Sm3  1  0.500000  0.182858  0.205158  1
  Sm  Sm4  1  0.000000  0.682858  0.794842  1
  Sm  Sm5  1  0.000000  0.317142  0.794842  1
  Co  Co6  1  0.500000  0.500000  0.705921  1
  Co  Co7  1  0.000000  0.000000  0.294079  1
  Co  Co8  1  0.000000  0.500000  0.987814  1
  Co  Co9  1  0.500000  0.000000  0.012186  1
  Co  Co10  1  0.500000  0.332050  0.991257  1
  Co  Co11  1  0.500000  0.667950  0.991257  1
  Co  Co12  1  0.000000  0.167950  0.008743  1
  Co  Co13  1  0.000000  0.832050  0.008743  1
  Co  Co14  1  0.500000  0.296219  0.429930  1
  Co  Co15  1  0.500000  0.703781  0.429930  1
  Co  Co16  1  0.000000  0.203781  0.570070  1
  Co  Co17  1  0.000000  0.796219  0.570070  1
  Co  Co18  1  0.500000  0.880832  0.710365  1
  Co  Co19  1  0.500000  0.119168  0.710365  1
  Co  Co20  1  0.000000  0.619168  0.289635  1
  Co  Co21  1  0.000000  0.380832  0.289635  1
  Tc  Tc22  1  0.500000  0.500000  0.154325  1
  Tc  Tc23  1  0.000000  0.000000  0.845675  1
  P  P24  1  0.500000  0.500000  0.884726  1
  P  P25  1  0.000000  0.000000  0.115274  1
  P  P26  1  0.500000  0.500000  0.343226  1
  P  P27  1  0.000000  0.000000  0.656774  1
  P  P28  1  0.500000  0.306534  0.615780  1
  P  P29  1  0.500000  0.693466  0.615780  1
  P  P30  1  0.000000  0.193466  0.384220  1
  P  P31  1  0.000000  0.806534  0.384220  1
  P  P32  1  0.500000  0.847396  0.894866  1
  P  P33  1  0.500000  0.152604  0.894866  1
  P  P34  1  0.000000  0.652604  0.105134  1
  P  P35  1  0.000000  0.347396  0.105134  1
