# generated using pymatgen
data_Cs2NaFe6F21
_symmetry_space_group_name_H-M   'P 1'
_cell_length_a   7.58458503
_cell_length_b   7.58458527
_cell_length_c   10.92135175
_cell_angle_alpha   69.71870026
_cell_angle_beta   69.71870316
_cell_angle_gamma   60.08324803
_symmetry_Int_Tables_number   1
_chemical_formula_structural   Cs2NaFe6F21
_chemical_formula_sum   'Cs2 Na1 Fe6 F21'
_cell_volume   498.98425068
_cell_formula_units_Z   1
loop_
 _symmetry_equiv_pos_site_id
 _symmetry_equiv_pos_as_xyz
  1  'x, y, z'
loop_
 _atom_site_type_symbol
 _atom_site_label
 _atom_site_symmetry_multiplicity
 _atom_site_fract_x
 _atom_site_fract_y
 _atom_site_fract_z
 _atom_site_occupancy
  Cs  Cs0  1  0.131851  0.136628  0.599276  1
  Cs  Cs1  1  0.863372  0.868149  0.400724  1
  Na  Na2  1  0.517858  0.482142  0.500000  1
  Fe  Fe3  1  0.456711  0.912410  0.196451  1
  Fe  Fe4  1  0.087590  0.543289  0.803549  1
  Fe  Fe5  1  0.956610  0.414467  0.193422  1
  Fe  Fe6  1  0.458257  0.412951  0.194526  1
  Fe  Fe7  1  0.587049  0.541743  0.805474  1
  Fe  Fe8  1  0.585533  0.043390  0.806578  1
  F  F9  1  0.674568  0.564995  0.618384  1
  F  F10  1  0.435005  0.325432  0.381616  1
  F  F11  1  0.161695  0.485270  0.214838  1
  F  F12  1  0.514730  0.838305  0.785162  1
  F  F13  1  0.871264  0.459162  0.820747  1
  F  F14  1  0.514751  0.954434  0.001151  1
  F  F15  1  0.755576  0.341351  0.169978  1
  F  F16  1  0.151775  0.589237  0.614776  1
  F  F17  1  0.879032  0.834553  0.802543  1
  F  F18  1  0.751755  0.708248  0.189635  1
  F  F19  1  0.658649  0.244424  0.830022  1
  F  F20  1  0.487509  0.512491  0.000000  1
  F  F21  1  0.865551  0.351085  0.380077  1
  F  F22  1  0.301256  0.630728  0.789307  1
  F  F23  1  0.410763  0.848225  0.385224  1
  F  F24  1  0.291752  0.248245  0.810365  1
  F  F25  1  0.540838  0.128736  0.179253  1
  F  F26  1  0.369272  0.698744  0.210693  1
  F  F27  1  0.165447  0.120968  0.197457  1
  F  F28  1  0.045566  0.485249  0.998849  1
  F  F29  1  0.648915  0.134449  0.619923  1
