# generated using pymatgen
data_YEr15(LuIr3)4
_symmetry_space_group_name_H-M   'P 1'
_cell_length_a   10.78051905
_cell_length_b   10.78013764
_cell_length_c   6.32296712
_cell_angle_alpha   89.97382274
_cell_angle_beta   89.99414326
_cell_angle_gamma   90.00977666
_symmetry_Int_Tables_number   1
_chemical_formula_structural   YEr15(LuIr3)4
_chemical_formula_sum   'Y1 Er15 Lu4 Ir12'
_cell_volume   734.82656184
_cell_formula_units_Z   1
loop_
 _symmetry_equiv_pos_site_id
 _symmetry_equiv_pos_as_xyz
  1  'x, y, z'
loop_
 _atom_site_type_symbol
 _atom_site_label
 _atom_site_symmetry_multiplicity
 _atom_site_fract_x
 _atom_site_fract_y
 _atom_site_fract_z
 _atom_site_occupancy
  Y  Y0  1  0.087941  0.289985  0.123400  1
  Er  Er1  1  0.291495  0.087092  0.377780  1
  Er  Er2  1  0.290965  0.912409  0.877769  1
  Er  Er3  1  0.709065  0.087582  0.877395  1
  Er  Er4  1  0.709043  0.912362  0.377657  1
  Er  Er5  1  0.587606  0.790966  0.877659  1
  Er  Er6  1  0.587610  0.209036  0.377727  1
  Er  Er7  1  0.412431  0.790914  0.377567  1
  Er  Er8  1  0.412484  0.209032  0.877463  1
  Er  Er9  1  0.209150  0.412724  0.622308  1
  Er  Er10  1  0.209035  0.588071  0.122425  1
  Er  Er11  1  0.790651  0.412587  0.122483  1
  Er  Er12  1  0.790673  0.587743  0.622540  1
  Er  Er13  1  0.912289  0.709083  0.122489  1
  Er  Er14  1  0.912036  0.291123  0.622238  1
  Er  Er15  1  0.087778  0.709287  0.622555  1
  Lu  Lu16  1  0.999872  0.999926  0.499800  1
  Lu  Lu17  1  0.999739  0.999462  0.999706  1
  Lu  Lu18  1  0.500028  0.500077  0.999841  1
  Lu  Lu19  1  0.500118  0.500108  0.500067  1
  Ir  Ir20  1  0.846473  0.151811  0.250612  1
  Ir  Ir21  1  0.847406  0.847343  0.750106  1
  Ir  Ir22  1  0.152849  0.151760  0.747575  1
  Ir  Ir23  1  0.152442  0.847439  0.249874  1
  Ir  Ir24  1  0.652545  0.347488  0.750083  1
  Ir  Ir25  1  0.652546  0.652521  0.249910  1
  Ir  Ir26  1  0.348936  0.347592  0.250942  1
  Ir  Ir27  1  0.347535  0.652541  0.750004  1
  Ir  Ir28  1  0.500160  0.999917  0.123853  1
  Ir  Ir29  1  0.500066  0.999870  0.624072  1
  Ir  Ir30  1  0.999534  0.501072  0.874993  1
  Ir  Ir31  1  0.999499  0.501077  0.377109  1
