# generated using pymatgen
data_DyY2Ho(SiPt2)4
_symmetry_space_group_name_H-M   'P 1'
_cell_length_a   5.52934617
_cell_length_b   6.96867600
_cell_length_c   7.34441701
_cell_angle_alpha   90.00000000
_cell_angle_beta   89.98280111
_cell_angle_gamma   90.00000000
_symmetry_Int_Tables_number   1
_chemical_formula_structural   DyY2Ho(SiPt2)4
_chemical_formula_sum   'Dy1 Y2 Ho1 Si4 Pt8'
_cell_volume   282.99669375
_cell_formula_units_Z   1
loop_
 _symmetry_equiv_pos_site_id
 _symmetry_equiv_pos_as_xyz
  1  'x, y, z'
loop_
 _atom_site_type_symbol
 _atom_site_label
 _atom_site_symmetry_multiplicity
 _atom_site_fract_x
 _atom_site_fract_y
 _atom_site_fract_z
 _atom_site_occupancy
  Dy  Dy0  1  0.362980  0.750000  0.028021  1
  Y  Y1  1  0.636504  0.250000  0.972006  1
  Y  Y2  1  0.863871  0.250000  0.472088  1
  Ho  Ho3  1  0.137581  0.750000  0.527701  1
  Si  Si4  1  0.638229  0.750000  0.380657  1
  Si  Si5  1  0.862176  0.750000  0.879819  1
  Si  Si6  1  0.362569  0.250000  0.619730  1
  Si  Si7  1  0.137520  0.250000  0.119692  1
  Pt  Pt8  1  0.908468  0.551128  0.181433  1
  Pt  Pt9  1  0.591390  0.948877  0.680965  1
  Pt  Pt10  1  0.092753  0.050010  0.818501  1
  Pt  Pt11  1  0.406674  0.449961  0.319243  1
  Pt  Pt12  1  0.092753  0.449990  0.818501  1
  Pt  Pt13  1  0.406674  0.050039  0.319243  1
  Pt  Pt14  1  0.908468  0.948872  0.181433  1
  Pt  Pt15  1  0.591390  0.551123  0.680965  1
