# generated using pymatgen
data_Lu16In4Ir3Os
_symmetry_space_group_name_H-M   'P 1'
_cell_length_a   9.51160517
_cell_length_b   9.51160588
_cell_length_c   9.51160627
_cell_angle_alpha   59.58446372
_cell_angle_beta   59.58446489
_cell_angle_gamma   59.58445982
_symmetry_Int_Tables_number   1
_chemical_formula_structural   Lu16In4Ir3Os
_chemical_formula_sum   'Lu16 In4 Ir3 Os1'
_cell_volume   602.73286196
_cell_formula_units_Z   1
loop_
 _symmetry_equiv_pos_site_id
 _symmetry_equiv_pos_as_xyz
  1  'x, y, z'
loop_
 _atom_site_type_symbol
 _atom_site_label
 _atom_site_symmetry_multiplicity
 _atom_site_fract_x
 _atom_site_fract_y
 _atom_site_fract_z
 _atom_site_occupancy
  Lu  Lu0  1  0.599914  0.599914  0.599914  1
  Lu  Lu1  1  0.598025  0.598025  0.206767  1
  Lu  Lu2  1  0.598025  0.206767  0.598025  1
  Lu  Lu3  1  0.206767  0.598025  0.598025  1
  Lu  Lu4  1  0.057434  0.442129  0.442129  1
  Lu  Lu5  1  0.441090  0.056391  0.056391  1
  Lu  Lu6  1  0.442129  0.057434  0.442129  1
  Lu  Lu7  1  0.056391  0.441090  0.056391  1
  Lu  Lu8  1  0.442129  0.442129  0.057434  1
  Lu  Lu9  1  0.056391  0.056391  0.441090  1
  Lu  Lu10  1  0.191012  0.808550  0.808550  1
  Lu  Lu11  1  0.804254  0.192574  0.192574  1
  Lu  Lu12  1  0.808550  0.191012  0.808550  1
  Lu  Lu13  1  0.192574  0.804254  0.192574  1
  Lu  Lu14  1  0.808550  0.808550  0.191012  1
  Lu  Lu15  1  0.192574  0.192574  0.804254  1
  In  In16  1  0.833775  0.833775  0.833775  1
  In  In17  1  0.834123  0.834123  0.500189  1
  In  In18  1  0.834123  0.500189  0.834123  1
  In  In19  1  0.500189  0.834123  0.834123  1
  Ir  Ir20  1  0.391547  0.391547  0.829395  1
  Ir  Ir21  1  0.391547  0.829395  0.391547  1
  Ir  Ir22  1  0.829395  0.391547  0.391547  1
  Os  Os23  1  0.389490  0.389490  0.389490  1
