# generated using pymatgen
data_Hf3Zr3CoAsSe
_symmetry_space_group_name_H-M   'P 1'
_cell_length_a   7.51887400
_cell_length_b   7.51887596
_cell_length_c   3.54363600
_cell_angle_alpha   90.00000000
_cell_angle_beta   90.00000000
_cell_angle_gamma   120.00000898
_symmetry_Int_Tables_number   1
_chemical_formula_structural   Hf3Zr3CoAsSe
_chemical_formula_sum   'Hf3 Zr3 Co1 As1 Se1'
_cell_volume   173.49438540
_cell_formula_units_Z   1
loop_
 _symmetry_equiv_pos_site_id
 _symmetry_equiv_pos_as_xyz
  1  'x, y, z'
loop_
 _atom_site_type_symbol
 _atom_site_label
 _atom_site_symmetry_multiplicity
 _atom_site_fract_x
 _atom_site_fract_y
 _atom_site_fract_z
 _atom_site_occupancy
  Hf  Hf0  1  0.244808  0.002165  0.000000  1
  Hf  Hf1  1  0.757356  0.755192  0.000000  1
  Hf  Hf2  1  0.997835  0.242644  0.000000  1
  Zr  Zr3  1  0.996266  0.586101  0.500000  1
  Zr  Zr4  1  0.413899  0.410165  0.500000  1
  Zr  Zr5  1  0.589835  0.003734  0.500000  1
  Co  Co6  1  0.000000  0.000000  0.500000  1
  As  As7  1  0.666667  0.333333  0.000000  1
  Se  Se8  1  0.333333  0.666667  0.000000  1
