# generated using pymatgen
data_CuBi3Ir2(RhO7)2
_symmetry_space_group_name_H-M   'P 1'
_cell_length_a   7.16890028
_cell_length_b   7.34636857
_cell_length_c   7.35129775
_cell_angle_alpha   60.02217023
_cell_angle_beta   59.14529089
_cell_angle_gamma   59.17766373
_symmetry_Int_Tables_number   1
_chemical_formula_structural   CuBi3Ir2(RhO7)2
_chemical_formula_sum   'Cu1 Bi3 Ir2 Rh2 O14'
_cell_volume   270.28550741
_cell_formula_units_Z   1
loop_
 _symmetry_equiv_pos_site_id
 _symmetry_equiv_pos_as_xyz
  1  'x, y, z'
loop_
 _atom_site_type_symbol
 _atom_site_label
 _atom_site_symmetry_multiplicity
 _atom_site_fract_x
 _atom_site_fract_y
 _atom_site_fract_z
 _atom_site_occupancy
  Cu  Cu0  1  0.625000  0.125000  0.125000  1
  Bi  Bi1  1  0.125000  0.125000  0.125000  1
  Bi  Bi2  1  0.125000  0.625000  0.125000  1
  Bi  Bi3  1  0.125000  0.125000  0.625000  1
  Ir  Ir4  1  0.625000  0.625000  0.625000  1
  Ir  Ir5  1  0.625000  0.125000  0.625000  1
  Rh  Rh6  1  0.625000  0.625000  0.125000  1
  Rh  Rh7  1  0.125000  0.625000  0.625000  1
  O  O8  1  0.296389  0.234101  0.235409  1
  O  O9  1  0.285499  0.712235  0.290031  1
  O  O10  1  0.960619  0.959710  0.541653  1
  O  O11  1  0.546706  0.948811  0.555672  1
  O  O12  1  0.702877  0.700078  0.302023  1
  O  O13  1  0.960619  0.538019  0.541653  1
  O  O14  1  0.703294  0.301189  0.694328  1
  O  O15  1  0.289381  0.290290  0.708347  1
  O  O16  1  0.702877  0.295022  0.302023  1
  O  O17  1  0.289381  0.711981  0.708347  1
  O  O18  1  0.964501  0.537765  0.959969  1
  O  O19  1  0.547123  0.549922  0.947977  1
  O  O20  1  0.953611  0.015899  0.014591  1
  O  O21  1  0.547123  0.954978  0.947977  1
