# generated using pymatgen
data_Dy3HoGa3SiRu4
_symmetry_space_group_name_H-M   'P 1'
_cell_length_a   4.46391700
_cell_length_b   7.13300421
_cell_length_c   7.12182263
_cell_angle_alpha   90.12028996
_cell_angle_beta   90.00000000
_cell_angle_gamma   90.00000000
_symmetry_Int_Tables_number   1
_chemical_formula_structural   Dy3HoGa3SiRu4
_chemical_formula_sum   'Dy3 Ho1 Ga3 Si1 Ru4'
_cell_volume   226.76644268
_cell_formula_units_Z   1
loop_
 _symmetry_equiv_pos_site_id
 _symmetry_equiv_pos_as_xyz
  1  'x, y, z'
loop_
 _atom_site_type_symbol
 _atom_site_label
 _atom_site_symmetry_multiplicity
 _atom_site_fract_x
 _atom_site_fract_y
 _atom_site_fract_z
 _atom_site_occupancy
  Dy  Dy0  1  0.250000  0.984737  0.806682  1
  Dy  Dy1  1  0.750000  0.016852  0.196682  1
  Dy  Dy2  1  0.750000  0.515167  0.306047  1
  Ho  Ho3  1  0.250000  0.476929  0.694611  1
  Ga  Ga4  1  0.250000  0.303148  0.106651  1
  Ga  Ga5  1  0.750000  0.693776  0.891959  1
  Ga  Ga6  1  0.250000  0.800306  0.397584  1
  Si  Si7  1  0.750000  0.197753  0.601589  1
  Ru  Ru8  1  0.750000  0.858165  0.564848  1
  Ru  Ru9  1  0.250000  0.162184  0.447662  1
  Ru  Ru10  1  0.750000  0.331557  0.921078  1
  Ru  Ru11  1  0.250000  0.659424  0.064607  1
