# generated using pymatgen
data_Th10Sn5Hg2Bi
_symmetry_space_group_name_H-M   'P 1'
_cell_length_a   9.63106765
_cell_length_b   9.63106643
_cell_length_c   6.66707600
_cell_angle_alpha   90.00000000
_cell_angle_beta   90.00000000
_cell_angle_gamma   119.87593000
_symmetry_Int_Tables_number   1
_chemical_formula_structural   Th10Sn5Hg2Bi
_chemical_formula_sum   'Th10 Sn5 Hg2 Bi1'
_cell_volume   536.23659956
_cell_formula_units_Z   1
loop_
 _symmetry_equiv_pos_site_id
 _symmetry_equiv_pos_as_xyz
  1  'x, y, z'
loop_
 _atom_site_type_symbol
 _atom_site_label
 _atom_site_symmetry_multiplicity
 _atom_site_fract_x
 _atom_site_fract_y
 _atom_site_fract_z
 _atom_site_occupancy
  Th  Th0  1  0.002942  0.717608  0.750000  1
  Th  Th1  1  0.280915  0.280915  0.750000  1
  Th  Th2  1  0.331242  0.666669  0.498320  1
  Th  Th3  1  0.666669  0.331242  0.498320  1
  Th  Th4  1  0.717802  0.717802  0.250000  1
  Th  Th5  1  0.717608  0.002942  0.750000  1
  Th  Th6  1  0.000763  0.284091  0.250000  1
  Th  Th7  1  0.284091  0.000763  0.250000  1
  Th  Th8  1  0.331242  0.666669  0.001680  1
  Th  Th9  1  0.666669  0.331242  0.001680  1
  Sn  Sn10  1  0.000253  0.375417  0.750000  1
  Sn  Sn11  1  0.375417  0.000253  0.750000  1
  Sn  Sn12  1  0.624925  0.999964  0.250000  1
  Sn  Sn13  1  0.375865  0.375865  0.250000  1
  Sn  Sn14  1  0.999964  0.624925  0.250000  1
  Hg  Hg15  1  0.000075  0.000075  0.000533  1
  Hg  Hg16  1  0.000075  0.000075  0.499467  1
  Bi  Bi17  1  0.623481  0.623481  0.750000  1
