# generated using pymatgen
data_Y8Re3TcC8
_symmetry_space_group_name_H-M   'P 1'
_cell_length_a   5.12329600
_cell_length_b   6.59683528
_cell_length_c   9.90627342
_cell_angle_alpha   90.03322032
_cell_angle_beta   90.00000000
_cell_angle_gamma   90.00000000
_symmetry_Int_Tables_number   1
_chemical_formula_structural   Y8Re3TcC8
_chemical_formula_sum   'Y8 Re3 Tc1 C8'
_cell_volume   334.80761366
_cell_formula_units_Z   1
loop_
 _symmetry_equiv_pos_site_id
 _symmetry_equiv_pos_as_xyz
  1  'x, y, z'
loop_
 _atom_site_type_symbol
 _atom_site_label
 _atom_site_symmetry_multiplicity
 _atom_site_fract_x
 _atom_site_fract_y
 _atom_site_fract_z
 _atom_site_occupancy
  Y  Y0  1  0.750000  0.532054  0.783433  1
  Y  Y1  1  0.250000  0.967560  0.283292  1
  Y  Y2  1  0.750000  0.680271  0.443687  1
  Y  Y3  1  0.250000  0.820634  0.943907  1
  Y  Y4  1  0.750000  0.179943  0.056470  1
  Y  Y5  1  0.250000  0.319462  0.556857  1
  Y  Y6  1  0.250000  0.467367  0.216720  1
  Y  Y7  1  0.750000  0.032262  0.716716  1
  Re  Re8  1  0.250000  0.778292  0.635156  1
  Re  Re9  1  0.750000  0.222143  0.365188  1
  Re  Re10  1  0.750000  0.721959  0.134835  1
  Tc  Tc11  1  0.250000  0.278036  0.865403  1
  C  C12  1  0.250000  0.678581  0.452031  1
  C  C13  1  0.250000  0.545960  0.758376  1
  C  C14  1  0.750000  0.455124  0.240835  1
  C  C15  1  0.750000  0.821144  0.951905  1
  C  C16  1  0.250000  0.044575  0.740502  1
  C  C17  1  0.250000  0.178350  0.047332  1
  C  C18  1  0.750000  0.321381  0.548098  1
  C  C19  1  0.750000  0.954903  0.259258  1
