# generated using pymatgen
data_Tb5Lu5(Si3O)2
_symmetry_space_group_name_H-M   'P 1'
_cell_length_a   8.34628942
_cell_length_b   8.34628910
_cell_length_c   6.13181500
_cell_angle_alpha   90.00000000
_cell_angle_beta   90.00000000
_cell_angle_gamma   120.03651426
_symmetry_Int_Tables_number   1
_chemical_formula_structural   Tb5Lu5(Si3O)2
_chemical_formula_sum   'Tb5 Lu5 Si6 O2'
_cell_volume   369.78273206
_cell_formula_units_Z   1
loop_
 _symmetry_equiv_pos_site_id
 _symmetry_equiv_pos_as_xyz
  1  'x, y, z'
loop_
 _atom_site_type_symbol
 _atom_site_label
 _atom_site_symmetry_multiplicity
 _atom_site_fract_x
 _atom_site_fract_y
 _atom_site_fract_z
 _atom_site_occupancy
  Tb  Tb0  1  0.234225  0.000197  0.750000  1
  Tb  Tb1  1  0.000197  0.234225  0.750000  1
  Tb  Tb2  1  0.234068  0.234068  0.250000  1
  Tb  Tb3  1  0.765669  0.999151  0.250000  1
  Tb  Tb4  1  0.999151  0.765669  0.250000  1
  Lu  Lu5  1  0.666940  0.334279  0.999805  1
  Lu  Lu6  1  0.334279  0.666940  0.999805  1
  Lu  Lu7  1  0.334279  0.666940  0.500195  1
  Lu  Lu8  1  0.666940  0.334279  0.500195  1
  Lu  Lu9  1  0.769834  0.769834  0.750000  1
  Si  Si10  1  0.402782  0.402782  0.750000  1
  Si  Si11  1  0.600340  0.998085  0.750000  1
  Si  Si12  1  0.998085  0.600340  0.750000  1
  Si  Si13  1  0.598850  0.598850  0.250000  1
  Si  Si14  1  0.400890  0.999951  0.250000  1
  Si  Si15  1  0.999951  0.400890  0.250000  1
  O  O16  1  0.996761  0.996761  0.996286  1
  O  O17  1  0.996761  0.996761  0.503714  1
