# generated using pymatgen
data_Tb3HoGa18(Ir2Pt)2
_symmetry_space_group_name_H-M   'P 1'
_cell_length_a   7.62566245
_cell_length_b   7.62608484
_cell_length_c   9.47818500
_cell_angle_alpha   90.00000000
_cell_angle_beta   90.00000000
_cell_angle_gamma   119.77370036
_symmetry_Int_Tables_number   1
_chemical_formula_structural   Tb3HoGa18(Ir2Pt)2
_chemical_formula_sum   'Tb3 Ho1 Ga18 Ir4 Pt2'
_cell_volume   478.43269897
_cell_formula_units_Z   1
loop_
 _symmetry_equiv_pos_site_id
 _symmetry_equiv_pos_as_xyz
  1  'x, y, z'
loop_
 _atom_site_type_symbol
 _atom_site_label
 _atom_site_symmetry_multiplicity
 _atom_site_fract_x
 _atom_site_fract_y
 _atom_site_fract_z
 _atom_site_occupancy
  Tb  Tb0  1  0.996714  0.671283  0.250000  1
  Tb  Tb1  1  0.003427  0.328657  0.750000  1
  Tb  Tb2  1  0.671119  0.996657  0.250000  1
  Ho  Ho3  1  0.328701  0.003460  0.750000  1
  Ga  Ga4  1  0.133771  0.133614  0.250000  1
  Ga  Ga5  1  0.866550  0.866326  0.750000  1
  Ga  Ga6  1  0.998778  0.338198  0.080734  1
  Ga  Ga7  1  0.001835  0.662275  0.918185  1
  Ga  Ga8  1  0.001835  0.662275  0.581815  1
  Ga  Ga9  1  0.338067  0.998777  0.419712  1
  Ga  Ga10  1  0.998778  0.338198  0.419266  1
  Ga  Ga11  1  0.661176  0.001372  0.581886  1
  Ga  Ga12  1  0.661176  0.001372  0.918114  1
  Ga  Ga13  1  0.338067  0.998777  0.080288  1
  Ga  Ga14  1  0.335819  0.335395  0.568468  1
  Ga  Ga15  1  0.663936  0.663979  0.432630  1
  Ga  Ga16  1  0.663936  0.663979  0.067370  1
  Ga  Ga17  1  0.335819  0.335395  0.931532  1
  Ga  Ga18  1  0.336861  0.547148  0.250000  1
  Ga  Ga19  1  0.662656  0.452190  0.750000  1
  Ga  Ga20  1  0.547095  0.336791  0.250000  1
  Ga  Ga21  1  0.452575  0.663120  0.750000  1
  Ir  Ir22  1  0.671278  0.328858  0.999912  1
  Ir  Ir23  1  0.328867  0.671302  0.999901  1
  Ir  Ir24  1  0.328867  0.671302  0.500099  1
  Ir  Ir25  1  0.671278  0.328858  0.500088  1
  Pt  Pt26  1  0.000508  0.000220  0.999936  1
  Pt  Pt27  1  0.000508  0.000220  0.500064  1
