# generated using pymatgen
data_Th2CoNi(SnH2)2
_symmetry_space_group_name_H-M   'P 1'
_cell_length_a   4.38031400
_cell_length_b   4.38031296
_cell_length_c   8.42859400
_cell_angle_alpha   90.00000000
_cell_angle_beta   90.00000000
_cell_angle_gamma   120.00000785
_symmetry_Int_Tables_number   1
_chemical_formula_structural   Th2CoNi(SnH2)2
_chemical_formula_sum   'Th2 Co1 Ni1 Sn2 H4'
_cell_volume   140.05419330
_cell_formula_units_Z   1
loop_
 _symmetry_equiv_pos_site_id
 _symmetry_equiv_pos_as_xyz
  1  'x, y, z'
loop_
 _atom_site_type_symbol
 _atom_site_label
 _atom_site_symmetry_multiplicity
 _atom_site_fract_x
 _atom_site_fract_y
 _atom_site_fract_z
 _atom_site_occupancy
  Th  Th0  1  0.000000  0.000000  0.505438  1
  Th  Th1  1  0.000000  0.000000  0.994562  1
  Co  Co2  1  0.666667  0.333333  0.750000  1
  Ni  Ni3  1  0.333333  0.666667  0.250000  1
  Sn  Sn4  1  0.333333  0.666667  0.750000  1
  Sn  Sn5  1  0.666667  0.333333  0.250000  1
  H  H6  1  0.333333  0.666667  0.443651  1
  H  H7  1  0.666667  0.333333  0.558823  1
  H  H8  1  0.333333  0.666667  0.056349  1
  H  H9  1  0.666667  0.333333  0.941177  1
