# generated using pymatgen
data_HoTm11Co4BiRu
_symmetry_space_group_name_H-M   'P 1'
_cell_length_a   8.21423407
_cell_length_b   8.21423273
_cell_length_c   8.20898230
_cell_angle_alpha   110.72114225
_cell_angle_beta   111.23443740
_cell_angle_gamma   106.52614204
_symmetry_Int_Tables_number   1
_chemical_formula_structural   HoTm11Co4BiRu
_chemical_formula_sum   'Ho1 Tm11 Co4 Bi1 Ru1'
_cell_volume   425.38446642
_cell_formula_units_Z   1
loop_
 _symmetry_equiv_pos_site_id
 _symmetry_equiv_pos_as_xyz
  1  'x, y, z'
loop_
 _atom_site_type_symbol
 _atom_site_label
 _atom_site_symmetry_multiplicity
 _atom_site_fract_x
 _atom_site_fract_y
 _atom_site_fract_z
 _atom_site_occupancy
  Ho  Ho0  1  0.284304  0.183060  0.467366  1
  Tm  Tm1  1  0.716232  0.817500  0.533732  1
  Tm  Tm2  1  0.283902  0.816765  0.100667  1
  Tm  Tm3  1  0.716273  0.182813  0.899087  1
  Tm  Tm4  1  0.619906  0.311183  0.308364  1
  Tm  Tm5  1  0.380386  0.689310  0.691657  1
  Tm  Tm6  1  0.002346  0.311271  0.691657  1
  Tm  Tm7  1  0.997181  0.688458  0.308364  1
  Tm  Tm8  1  0.212480  0.409415  0.196210  1
  Tm  Tm9  1  0.787725  0.591094  0.803713  1
  Tm  Tm10  1  0.212620  0.015990  0.803713  1
  Tm  Tm11  1  0.786794  0.983729  0.196210  1
  Co  Co12  1  0.999905  0.375242  0.375146  1
  Co  Co13  1  0.999787  0.624909  0.624696  1
  Co  Co14  1  0.388904  0.888185  0.500074  1
  Co  Co15  1  0.611890  0.111170  0.500074  1
  Bi  Bi16  1  0.499995  0.500023  0.000018  1
  Ru  Ru17  1  0.999369  0.999882  0.999251  1
