# generated using pymatgen
data_TbYb5Si24Os5Ru3
_symmetry_space_group_name_H-M   'P 1'
_cell_length_a   10.15828073
_cell_length_b   10.15777884
_cell_length_c   8.15668919
_cell_angle_alpha   89.91701907
_cell_angle_beta   90.06515833
_cell_angle_gamma   132.64259224
_symmetry_Int_Tables_number   1
_chemical_formula_structural   TbYb5Si24Os5Ru3
_chemical_formula_sum   'Tb1 Yb5 Si24 Os5 Ru3'
_cell_volume   619.11370790
_cell_formula_units_Z   1
loop_
 _symmetry_equiv_pos_site_id
 _symmetry_equiv_pos_as_xyz
  1  'x, y, z'
loop_
 _atom_site_type_symbol
 _atom_site_label
 _atom_site_symmetry_multiplicity
 _atom_site_fract_x
 _atom_site_fract_y
 _atom_site_fract_z
 _atom_site_occupancy
  Tb  Tb0  1  0.999031  0.499161  0.750001  1
  Yb  Yb1  1  0.499341  0.499221  0.499706  1
  Yb  Yb2  1  0.999586  0.999708  0.999762  1
  Yb  Yb3  1  0.500689  0.000650  0.750026  1
  Yb  Yb4  1  0.999505  0.499920  0.250114  1
  Yb  Yb5  1  0.499561  0.999111  0.250127  1
  Si  Si6  1  0.793512  0.203384  0.498005  1
  Si  Si7  1  0.296346  0.706418  0.001127  1
  Si  Si8  1  0.206506  0.796382  0.498839  1
  Si  Si9  1  0.703335  0.293446  0.001931  1
  Si  Si10  1  0.332906  0.333381  0.832049  1
  Si  Si11  1  0.665516  0.667267  0.168243  1
  Si  Si12  1  0.166447  0.164675  0.329909  1
  Si  Si13  1  0.831411  0.830963  0.667463  1
  Si  Si14  1  0.124080  0.891049  0.729964  1
  Si  Si15  1  0.110045  0.876959  0.269725  1
  Si  Si16  1  0.608759  0.375474  0.230059  1
  Si  Si17  1  0.625119  0.392344  0.770914  1
  Si  Si18  1  0.876305  0.109536  0.269872  1
  Si  Si19  1  0.891315  0.124208  0.729582  1
  Si  Si20  1  0.392001  0.624893  0.770547  1
  Si  Si21  1  0.376146  0.609323  0.230159  1
  Si  Si22  1  0.347922  0.113500  0.506810  1
  Si  Si23  1  0.887068  0.654217  0.492929  1
  Si  Si24  1  0.387051  0.153136  0.008857  1
  Si  Si25  1  0.845874  0.613060  0.991471  1
  Si  Si26  1  0.653198  0.886489  0.492499  1
  Si  Si27  1  0.113216  0.346392  0.508229  1
  Si  Si28  1  0.613315  0.847386  0.993001  1
  Si  Si29  1  0.154130  0.387638  0.008416  1
  Os  Os30  1  0.671683  0.331221  0.501179  1
  Os  Os31  1  0.169483  0.829375  0.999118  1
  Os  Os32  1  0.329510  0.669403  0.500943  1
  Os  Os33  1  0.831104  0.171702  0.998840  1
  Os  Os34  1  0.126321  0.125704  0.624632  1
  Ru  Ru35  1  0.873424  0.873526  0.375122  1
  Ru  Ru36  1  0.373741  0.373660  0.124291  1
  Ru  Ru37  1  0.625498  0.626122  0.875542  1
