# generated using pymatgen
data_ZrSc7H16
_symmetry_space_group_name_H-M   'P 1'
_cell_length_a   6.77133327
_cell_length_b   6.77133323
_cell_length_c   6.77133300
_cell_angle_alpha   60.00000603
_cell_angle_beta   60.00000622
_cell_angle_gamma   60.00000960
_symmetry_Int_Tables_number   1
_chemical_formula_structural   ZrSc7H16
_chemical_formula_sum   'Zr1 Sc7 H16'
_cell_volume   219.53694806
_cell_formula_units_Z   1
loop_
 _symmetry_equiv_pos_site_id
 _symmetry_equiv_pos_as_xyz
  1  'x, y, z'
loop_
 _atom_site_type_symbol
 _atom_site_label
 _atom_site_symmetry_multiplicity
 _atom_site_fract_x
 _atom_site_fract_y
 _atom_site_fract_z
 _atom_site_occupancy
  Zr  Zr0  1  0.000000  0.000000  0.000000  1
  Sc  Sc1  1  0.000000  0.000000  0.500000  1
  Sc  Sc2  1  0.500000  0.000000  0.500000  1
  Sc  Sc3  1  0.000000  0.500000  0.500000  1
  Sc  Sc4  1  0.500000  0.500000  0.000000  1
  Sc  Sc5  1  0.000000  0.500000  0.000000  1
  Sc  Sc6  1  0.500000  0.000000  0.000000  1
  Sc  Sc7  1  0.500000  0.500000  0.500000  1
  H  H8  1  0.875668  0.875668  0.372999  1
  H  H9  1  0.875668  0.372999  0.875668  1
  H  H10  1  0.372999  0.875668  0.875668  1
  H  H11  1  0.875668  0.875668  0.875668  1
  H  H12  1  0.124332  0.124332  0.627001  1
  H  H13  1  0.124332  0.627001  0.124332  1
  H  H14  1  0.627001  0.124332  0.124332  1
  H  H15  1  0.124332  0.124332  0.124332  1
  H  H16  1  0.625294  0.625294  0.124115  1
  H  H17  1  0.625294  0.124115  0.625294  1
  H  H18  1  0.124115  0.625294  0.625294  1
  H  H19  1  0.625294  0.625294  0.625294  1
  H  H20  1  0.374706  0.374706  0.875885  1
  H  H21  1  0.374706  0.875885  0.374706  1
  H  H22  1  0.875885  0.374706  0.374706  1
  H  H23  1  0.374706  0.374706  0.374706  1
