# generated using pymatgen
data_Tb20RuPt11
_symmetry_space_group_name_H-M   'P 1'
_cell_length_a   11.11156800
_cell_length_b   11.11156800
_cell_length_c   6.45772000
_cell_angle_alpha   90.00000000
_cell_angle_beta   90.00000000
_cell_angle_gamma   90.00000000
_symmetry_Int_Tables_number   1
_chemical_formula_structural   Tb20RuPt11
_chemical_formula_sum   'Tb20 Ru1 Pt11'
_cell_volume   797.31494985
_cell_formula_units_Z   1
loop_
 _symmetry_equiv_pos_site_id
 _symmetry_equiv_pos_as_xyz
  1  'x, y, z'
loop_
 _atom_site_type_symbol
 _atom_site_label
 _atom_site_symmetry_multiplicity
 _atom_site_fract_x
 _atom_site_fract_y
 _atom_site_fract_z
 _atom_site_occupancy
  Tb  Tb0  1  0.293691  0.088454  0.372515  1
  Tb  Tb1  1  0.294580  0.911258  0.881368  1
  Tb  Tb2  1  0.705420  0.088742  0.881368  1
  Tb  Tb3  1  0.706309  0.911546  0.372515  1
  Tb  Tb4  1  0.588742  0.794580  0.881368  1
  Tb  Tb5  1  0.588454  0.206309  0.372515  1
  Tb  Tb6  1  0.411546  0.793691  0.372515  1
  Tb  Tb7  1  0.411258  0.205420  0.881368  1
  Tb  Tb8  1  0.207233  0.410966  0.622983  1
  Tb  Tb9  1  0.206935  0.588714  0.122418  1
  Tb  Tb10  1  0.793065  0.411286  0.122418  1
  Tb  Tb11  1  0.792767  0.589034  0.622983  1
  Tb  Tb12  1  0.911286  0.706935  0.122418  1
  Tb  Tb13  1  0.910966  0.292767  0.622983  1
  Tb  Tb14  1  0.089034  0.707233  0.622983  1
  Tb  Tb15  1  0.088714  0.293065  0.122418  1
  Tb  Tb16  1  0.000000  0.000000  0.499248  1
  Tb  Tb17  1  0.000000  0.000000  0.999101  1
  Tb  Tb18  1  0.500000  0.500000  0.999101  1
  Tb  Tb19  1  0.500000  0.500000  0.499248  1
  Ru  Ru20  1  0.500000  0.000000  0.122787  1
  Pt  Pt21  1  0.846995  0.154286  0.249971  1
  Pt  Pt22  1  0.846665  0.846230  0.749483  1
  Pt  Pt23  1  0.153335  0.153770  0.749483  1
  Pt  Pt24  1  0.153005  0.845714  0.249971  1
  Pt  Pt25  1  0.653770  0.346665  0.749483  1
  Pt  Pt26  1  0.654286  0.653005  0.249971  1
  Pt  Pt27  1  0.345714  0.346995  0.249971  1
  Pt  Pt28  1  0.346230  0.653335  0.749483  1
  Pt  Pt29  1  0.500000  0.000000  0.621979  1
  Pt  Pt30  1  0.000000  0.500000  0.881654  1
  Pt  Pt31  1  0.000000  0.500000  0.381922  1
