# generated using pymatgen
data_Ba3S2I
_symmetry_space_group_name_H-M   'P 1'
_cell_length_a   4.63945100
_cell_length_b   4.63945088
_cell_length_c   11.86332800
_cell_angle_alpha   90.00000000
_cell_angle_beta   90.00000000
_cell_angle_gamma   120.00000798
_symmetry_Int_Tables_number   1
_chemical_formula_structural   Ba3S2I
_chemical_formula_sum   'Ba3 S2 I1'
_cell_volume   221.14152909
_cell_formula_units_Z   1
loop_
 _symmetry_equiv_pos_site_id
 _symmetry_equiv_pos_as_xyz
  1  'x, y, z'
loop_
 _atom_site_type_symbol
 _atom_site_label
 _atom_site_symmetry_multiplicity
 _atom_site_fract_x
 _atom_site_fract_y
 _atom_site_fract_z
 _atom_site_occupancy
  Ba  Ba0  1  0.000000  0.000000  0.500000  1
  Ba  Ba1  1  0.333333  0.666667  0.206398  1
  Ba  Ba2  1  0.666667  0.333333  0.793602  1
  S  S3  1  0.333333  0.666667  0.656705  1
  S  S4  1  0.666667  0.333333  0.343295  1
  I  I5  1  0.000000  0.000000  0.000000  1
