# generated using pymatgen
data_Zr4GaRe24
_symmetry_space_group_name_H-M   'P 1'
_cell_length_a   8.47024446
_cell_length_b   8.47024422
_cell_length_c   8.47024400
_cell_angle_alpha   109.47122251
_cell_angle_beta   109.47122192
_cell_angle_gamma   109.47122332
_symmetry_Int_Tables_number   1
_chemical_formula_structural   Zr4GaRe24
_chemical_formula_sum   'Zr4 Ga1 Re24'
_cell_volume   467.80609529
_cell_formula_units_Z   1
loop_
 _symmetry_equiv_pos_site_id
 _symmetry_equiv_pos_as_xyz
  1  'x, y, z'
loop_
 _atom_site_type_symbol
 _atom_site_label
 _atom_site_symmetry_multiplicity
 _atom_site_fract_x
 _atom_site_fract_y
 _atom_site_fract_z
 _atom_site_occupancy
  Zr  Zr0  1  0.634323  0.000000  0.000000  1
  Zr  Zr1  1  0.000000  0.634323  0.000000  1
  Zr  Zr2  1  0.000000  0.000000  0.634323  1
  Zr  Zr3  1  0.365677  0.365677  0.365677  1
  Ga  Ga4  1  0.000000  0.000000  0.000000  1
  Re  Re5  1  0.394361  0.675571  0.000000  1
  Re  Re6  1  0.718790  0.324429  0.324429  1
  Re  Re7  1  0.394361  0.000000  0.675571  1
  Re  Re8  1  0.675571  0.394361  0.000000  1
  Re  Re9  1  0.000000  0.394361  0.675571  1
  Re  Re10  1  0.324429  0.718790  0.324429  1
  Re  Re11  1  0.324429  0.324429  0.718790  1
  Re  Re12  1  0.000000  0.675571  0.394361  1
  Re  Re13  1  0.675571  0.000000  0.394361  1
  Re  Re14  1  0.605639  0.605639  0.281210  1
  Re  Re15  1  0.281210  0.605639  0.605639  1
  Re  Re16  1  0.605639  0.281210  0.605639  1
  Re  Re17  1  0.376034  0.193255  0.000000  1
  Re  Re18  1  0.182779  0.806745  0.806745  1
  Re  Re19  1  0.376034  0.000000  0.193255  1
  Re  Re20  1  0.193255  0.376034  0.000000  1
  Re  Re21  1  0.000000  0.376034  0.193255  1
  Re  Re22  1  0.806745  0.182779  0.806745  1
  Re  Re23  1  0.806745  0.806745  0.182779  1
  Re  Re24  1  0.000000  0.193255  0.376034  1
  Re  Re25  1  0.193255  0.000000  0.376034  1
  Re  Re26  1  0.623966  0.623966  0.817221  1
  Re  Re27  1  0.817221  0.623966  0.623966  1
  Re  Re28  1  0.623966  0.817221  0.623966  1
