# generated using pymatgen
data_AgP6PtO18
_symmetry_space_group_name_H-M   'P 1'
_cell_length_a   5.16660995
_cell_length_b   7.01890169
_cell_length_c   10.93322919
_cell_angle_alpha   96.83549927
_cell_angle_beta   93.85050127
_cell_angle_gamma   95.77783676
_symmetry_Int_Tables_number   1
_chemical_formula_structural   AgP6PtO18
_chemical_formula_sum   'Ag1 P6 Pt1 O18'
_cell_volume   390.40494495
_cell_formula_units_Z   1
loop_
 _symmetry_equiv_pos_site_id
 _symmetry_equiv_pos_as_xyz
  1  'x, y, z'
loop_
 _atom_site_type_symbol
 _atom_site_label
 _atom_site_symmetry_multiplicity
 _atom_site_fract_x
 _atom_site_fract_y
 _atom_site_fract_z
 _atom_site_occupancy
  Ag  Ag0  1  0.000000  0.500000  0.500000  1
  P  P1  1  0.523123  0.964443  0.174125  1
  P  P2  1  0.245807  0.300879  0.221280  1
  P  P3  1  0.488383  0.330959  0.648548  1
  P  P4  1  0.476877  0.035557  0.825875  1
  P  P5  1  0.754193  0.699121  0.778720  1
  P  P6  1  0.511617  0.669041  0.351452  1
  Pt  Pt7  1  0.000000  0.000000  0.000000  1
  O  O8  1  0.510372  0.186266  0.213216  1
  O  O9  1  0.116355  0.270668  0.087186  1
  O  O10  1  0.313177  0.882433  0.069444  1
  O  O11  1  0.201618  0.350639  0.637462  1
  O  O12  1  0.640348  0.330849  0.536901  1
  O  O13  1  0.202064  0.076041  0.857472  1
  O  O14  1  0.625439  0.481017  0.766303  1
  O  O15  1  0.883645  0.729332  0.912814  1
  O  O16  1  0.528188  0.129813  0.704948  1
  O  O17  1  0.798382  0.649361  0.362538  1
  O  O18  1  0.902674  0.751523  0.675150  1
  O  O19  1  0.797936  0.923959  0.142528  1
  O  O20  1  0.489628  0.813734  0.786784  1
  O  O21  1  0.686823  0.117567  0.930556  1
  O  O22  1  0.471812  0.870187  0.295052  1
  O  O23  1  0.097326  0.248477  0.324850  1
  O  O24  1  0.374561  0.518983  0.233697  1
  O  O25  1  0.359652  0.669151  0.463099  1
