# generated using pymatgen
data_Sc3Si4Ni29B10
_symmetry_space_group_name_H-M   'P 1'
_cell_length_a   7.79893500
_cell_length_b   11.09377800
_cell_length_c   11.09377800
_cell_angle_alpha   90.00000000
_cell_angle_beta   90.00000000
_cell_angle_gamma   90.00000000
_symmetry_Int_Tables_number   1
_chemical_formula_structural   Sc3Si4Ni29B10
_chemical_formula_sum   'Sc6 Si8 Ni58 B20'
_cell_volume   959.82982886
_cell_formula_units_Z   2
loop_
 _symmetry_equiv_pos_site_id
 _symmetry_equiv_pos_as_xyz
  1  'x, y, z'
loop_
 _atom_site_type_symbol
 _atom_site_label
 _atom_site_symmetry_multiplicity
 _atom_site_fract_x
 _atom_site_fract_y
 _atom_site_fract_z
 _atom_site_occupancy
  Sc  Sc0  1  0.000000  0.500000  0.500000  1
  Sc  Sc1  1  0.000000  0.000000  0.500000  1
  Sc  Sc2  1  0.000000  0.500000  0.000000  1
  Sc  Sc3  1  0.000000  0.000000  0.000000  1
  Sc  Sc4  1  0.500000  0.750000  0.250000  1
  Sc  Sc5  1  0.500000  0.250000  0.750000  1
  Si  Si6  1  0.824019  0.433589  0.750000  1
  Si  Si7  1  0.175981  0.250000  0.566411  1
  Si  Si8  1  0.175981  0.933589  0.250000  1
  Si  Si9  1  0.175981  0.566411  0.250000  1
  Si  Si10  1  0.175981  0.250000  0.933589  1
  Si  Si11  1  0.824019  0.750000  0.433589  1
  Si  Si12  1  0.824019  0.750000  0.066411  1
  Si  Si13  1  0.824019  0.066411  0.750000  1
  Ni  Ni14  1  0.331474  0.422713  0.590718  1
  Ni  Ni15  1  0.526900  0.750000  0.517702  1
  Ni  Ni16  1  0.526900  0.517702  0.750000  1
  Ni  Ni17  1  0.526900  0.982298  0.750000  1
  Ni  Ni18  1  0.971251  0.250000  0.081072  1
  Ni  Ni19  1  0.971251  0.418928  0.250000  1
  Ni  Ni20  1  0.971251  0.081072  0.250000  1
  Ni  Ni21  1  0.971251  0.250000  0.418928  1
  Ni  Ni22  1  0.028749  0.750000  0.918928  1
  Ni  Ni23  1  0.028749  0.750000  0.581072  1
  Ni  Ni24  1  0.028749  0.581072  0.750000  1
  Ni  Ni25  1  0.028749  0.918928  0.750000  1
  Ni  Ni26  1  0.242456  0.129913  0.129913  1
  Ni  Ni27  1  0.242456  0.370087  0.129913  1
  Ni  Ni28  1  0.242456  0.129913  0.370087  1
  Ni  Ni29  1  0.242456  0.370087  0.370087  1
  Ni  Ni30  1  0.757544  0.629913  0.870087  1
  Ni  Ni31  1  0.757544  0.870087  0.629913  1
  Ni  Ni32  1  0.757544  0.629913  0.629913  1
  Ni  Ni33  1  0.757544  0.870087  0.870087  1
  Ni  Ni34  1  0.699846  0.139428  0.139428  1
  Ni  Ni35  1  0.699846  0.360572  0.139428  1
  Ni  Ni36  1  0.699846  0.139428  0.360572  1
  Ni  Ni37  1  0.699846  0.360572  0.360572  1
  Ni  Ni38  1  0.300154  0.639428  0.860572  1
  Ni  Ni39  1  0.300154  0.860572  0.639428  1
  Ni  Ni40  1  0.300154  0.639428  0.639428  1
  Ni  Ni41  1  0.300154  0.860572  0.860572  1
  Ni  Ni42  1  0.331474  0.077287  0.590718  1
  Ni  Ni43  1  0.331474  0.909282  0.077287  1
  Ni  Ni44  1  0.331474  0.590718  0.422713  1
  Ni  Ni45  1  0.331474  0.422713  0.909282  1
  Ni  Ni46  1  0.668526  0.577287  0.409282  1
  Ni  Ni47  1  0.668526  0.922713  0.090718  1
  Ni  Ni48  1  0.668526  0.090718  0.577287  1
  Ni  Ni49  1  0.887337  0.250000  0.860060  1
  Ni  Ni50  1  0.668526  0.922713  0.409282  1
  Ni  Ni51  1  0.668526  0.090718  0.922713  1
  Ni  Ni52  1  0.668526  0.409282  0.577287  1
  Ni  Ni53  1  0.668526  0.577287  0.090718  1
  Ni  Ni54  1  0.526900  0.750000  0.982298  1
  Ni  Ni55  1  0.887337  0.639940  0.250000  1
  Ni  Ni56  1  0.331474  0.909282  0.422713  1
  Ni  Ni57  1  0.331474  0.590718  0.077287  1
  Ni  Ni58  1  0.887337  0.860060  0.250000  1
  Ni  Ni59  1  0.887337  0.250000  0.639940  1
  Ni  Ni60  1  0.541722  0.750000  0.750000  1
  Ni  Ni61  1  0.458278  0.250000  0.250000  1
  Ni  Ni62  1  0.112663  0.750000  0.360060  1
  Ni  Ni63  1  0.473100  0.250000  0.482298  1
  Ni  Ni64  1  0.473100  0.017702  0.250000  1
  Ni  Ni65  1  0.473100  0.482298  0.250000  1
  Ni  Ni66  1  0.473100  0.250000  0.017702  1
  Ni  Ni67  1  0.112663  0.360060  0.750000  1
  Ni  Ni68  1  0.112663  0.139940  0.750000  1
  Ni  Ni69  1  0.112663  0.750000  0.139940  1
  Ni  Ni70  1  0.668526  0.409282  0.922713  1
  Ni  Ni71  1  0.331474  0.077287  0.909282  1
  B  B72  1  0.518734  0.938190  0.938190  1
  B  B73  1  0.518734  0.561810  0.561810  1
  B  B74  1  0.518734  0.938190  0.561810  1
  B  B75  1  0.518734  0.561810  0.938190  1
  B  B76  1  0.481266  0.438190  0.438190  1
  B  B77  1  0.481266  0.061810  0.438190  1
  B  B78  1  0.263589  0.004070  0.750000  1
  B  B79  1  0.263589  0.495930  0.750000  1
  B  B80  1  0.263589  0.750000  0.495930  1
  B  B81  1  0.263589  0.750000  0.004070  1
  B  B82  1  0.736411  0.250000  0.504070  1
  B  B83  1  0.736411  0.995930  0.250000  1
  B  B84  1  0.736411  0.504070  0.250000  1
  B  B85  1  0.736411  0.250000  0.995930  1
  B  B86  1  0.141037  0.750000  0.750000  1
  B  B87  1  0.858963  0.250000  0.250000  1
  B  B88  1  0.894191  0.750000  0.750000  1
  B  B89  1  0.105809  0.250000  0.250000  1
  B  B90  1  0.481266  0.438190  0.061810  1
  B  B91  1  0.481266  0.061810  0.061810  1
