# generated using pymatgen
data_Ho5Mn2O12
_symmetry_space_group_name_H-M   'P 1'
_cell_length_a   6.77958815
_cell_length_b   6.77958792
_cell_length_c   7.19791593
_cell_angle_alpha   74.56296577
_cell_angle_beta   74.56296673
_cell_angle_gamma   50.12035925
_symmetry_Int_Tables_number   1
_chemical_formula_structural   Ho5Mn2O12
_chemical_formula_sum   'Ho5 Mn2 O12'
_cell_volume   242.67387584
_cell_formula_units_Z   1
loop_
 _symmetry_equiv_pos_site_id
 _symmetry_equiv_pos_as_xyz
  1  'x, y, z'
loop_
 _atom_site_type_symbol
 _atom_site_label
 _atom_site_symmetry_multiplicity
 _atom_site_fract_x
 _atom_site_fract_y
 _atom_site_fract_z
 _atom_site_occupancy
  Ho  Ho0  1  0.304853  0.304853  0.356673  1
  Ho  Ho1  1  0.695147  0.695147  0.643327  1
  Ho  Ho2  1  0.307562  0.307562  0.835339  1
  Ho  Ho3  1  0.692438  0.692438  0.164661  1
  Ho  Ho4  1  0.000000  0.000000  0.500000  1
  Mn  Mn5  1  0.754164  0.245836  0.000000  1
  Mn  Mn6  1  0.245836  0.754164  0.000000  1
  O  O7  1  0.901839  0.422452  0.917806  1
  O  O8  1  0.422452  0.901839  0.917806  1
  O  O9  1  0.098161  0.577548  0.082194  1
  O  O10  1  0.577548  0.098161  0.082194  1
  O  O11  1  0.097038  0.598151  0.574324  1
  O  O12  1  0.598151  0.097038  0.574324  1
  O  O13  1  0.902962  0.401849  0.425676  1
  O  O14  1  0.401849  0.902962  0.425676  1
  O  O15  1  0.999293  0.999293  0.820961  1
  O  O16  1  0.000707  0.000707  0.179039  1
  O  O17  1  0.499876  0.499876  0.818744  1
  O  O18  1  0.500124  0.500124  0.181256  1
