# generated using pymatgen
data_Ac3NdB4I5
_symmetry_space_group_name_H-M   'P 1'
_cell_length_a   10.20403532
_cell_length_b   10.20403477
_cell_length_c   10.60465541
_cell_angle_alpha   73.73528197
_cell_angle_beta   73.73527782
_cell_angle_gamma   24.59170590
_symmetry_Int_Tables_number   1
_chemical_formula_structural   Ac3NdB4I5
_chemical_formula_sum   'Ac3 Nd1 B4 I5'
_cell_volume   440.22110876
_cell_formula_units_Z   1
loop_
 _symmetry_equiv_pos_site_id
 _symmetry_equiv_pos_as_xyz
  1  'x, y, z'
loop_
 _atom_site_type_symbol
 _atom_site_label
 _atom_site_symmetry_multiplicity
 _atom_site_fract_x
 _atom_site_fract_y
 _atom_site_fract_z
 _atom_site_occupancy
  Ac  Ac0  1  0.494717  0.494717  0.256241  1
  Ac  Ac1  1  0.139991  0.139991  0.925217  1
  Ac  Ac2  1  0.861880  0.861880  0.065054  1
  Nd  Nd3  1  0.505815  0.505815  0.759195  1
  B  B4  1  0.317772  0.683944  0.999244  1
  B  B5  1  0.683944  0.317772  0.999244  1
  B  B6  1  0.999487  0.999487  0.088632  1
  B  B7  1  0.002210  0.002210  0.908543  1
  I  I8  1  0.673652  0.673652  0.667956  1
  I  I9  1  0.320515  0.320515  0.324802  1
  I  I10  1  0.332997  0.332997  0.832283  1
  I  I11  1  0.674108  0.674108  0.152582  1
  I  I12  1  0.007210  0.007210  0.511206  1
