# generated using pymatgen
data_DyYEr2(B6Os)2
_symmetry_space_group_name_H-M   'P 1'
_cell_length_a   3.64175000
_cell_length_b   9.12918203
_cell_length_c   11.51772204
_cell_angle_alpha   89.99033211
_cell_angle_beta   90.00000000
_cell_angle_gamma   90.00000000
_symmetry_Int_Tables_number   1
_chemical_formula_structural   DyYEr2(B6Os)2
_chemical_formula_sum   'Dy2 Y2 Er4 B24 Os4'
_cell_volume   382.92046971
_cell_formula_units_Z   2
loop_
 _symmetry_equiv_pos_site_id
 _symmetry_equiv_pos_as_xyz
  1  'x, y, z'
loop_
 _atom_site_type_symbol
 _atom_site_label
 _atom_site_symmetry_multiplicity
 _atom_site_fract_x
 _atom_site_fract_y
 _atom_site_fract_z
 _atom_site_occupancy
  Dy  Dy0  1  0.000000  0.822058  0.086131  1
  Dy  Dy1  1  0.000000  0.177942  0.913869  1
  Y  Y2  1  0.000000  0.321870  0.413855  1
  Y  Y3  1  0.000000  0.678130  0.586145  1
  Er  Er4  1  0.000000  0.944085  0.372922  1
  Er  Er5  1  0.000000  0.055915  0.627078  1
  Er  Er6  1  0.000000  0.444077  0.126971  1
  Er  Er7  1  0.000000  0.555923  0.873029  1
  B  B8  1  0.500000  0.554165  0.432848  1
  B  B9  1  0.500000  0.445835  0.567152  1
  B  B10  1  0.500000  0.054078  0.066989  1
  B  B11  1  0.500000  0.945922  0.933011  1
  B  B12  1  0.500000  0.748532  0.419601  1
  B  B13  1  0.500000  0.251468  0.580399  1
  B  B14  1  0.500000  0.248429  0.080140  1
  B  B15  1  0.500000  0.751571  0.919860  1
  B  B16  1  0.500000  0.791477  0.266370  1
  B  B17  1  0.500000  0.208523  0.733630  1
  B  B18  1  0.500000  0.291361  0.233353  1
  B  B19  1  0.500000  0.708639  0.766647  1
  B  B20  1  0.500000  0.631646  0.185100  1
  B  B21  1  0.500000  0.368354  0.814900  1
  B  B22  1  0.500000  0.131444  0.314682  1
  B  B23  1  0.500000  0.868556  0.685318  1
  B  B24  1  0.500000  0.983062  0.213256  1
  B  B25  1  0.500000  0.016938  0.786744  1
  B  B26  1  0.500000  0.483195  0.286526  1
  B  B27  1  0.500000  0.516805  0.713474  1
  B  B28  1  0.500000  0.606755  0.029533  1
  B  B29  1  0.500000  0.393245  0.970467  1
  B  B30  1  0.500000  0.106525  0.470508  1
  B  B31  1  0.500000  0.893475  0.529492  1
  Os  Os32  1  0.000000  0.637832  0.320828  1
  Os  Os33  1  0.000000  0.362168  0.679172  1
  Os  Os34  1  0.000000  0.137597  0.178838  1
  Os  Os35  1  0.000000  0.862403  0.821162  1
