# generated using pymatgen
data_Ca11Ac8HoPb16
_symmetry_space_group_name_H-M   'P 1'
_cell_length_a   8.29511331
_cell_length_b   8.88837225
_cell_length_c   16.66973000
_cell_angle_alpha   90.05199465
_cell_angle_beta   90.08582165
_cell_angle_gamma   89.95619148
_symmetry_Int_Tables_number   1
_chemical_formula_structural   Ca11Ac8HoPb16
_chemical_formula_sum   'Ca11 Ac8 Ho1 Pb16'
_cell_volume   1229.05786532
_cell_formula_units_Z   1
loop_
 _symmetry_equiv_pos_site_id
 _symmetry_equiv_pos_as_xyz
  1  'x, y, z'
loop_
 _atom_site_type_symbol
 _atom_site_label
 _atom_site_symmetry_multiplicity
 _atom_site_fract_x
 _atom_site_fract_y
 _atom_site_fract_z
 _atom_site_occupancy
  Ca  Ca0  1  0.173238  0.335040  0.876405  1
  Ca  Ca1  1  0.327489  0.834611  0.123638  1
  Ca  Ca2  1  0.828492  0.665309  0.376891  1
  Ca  Ca3  1  0.327085  0.834701  0.376430  1
  Ca  Ca4  1  0.827764  0.665389  0.123461  1
  Ca  Ca5  1  0.672100  0.164949  0.876300  1
  Ca  Ca6  1  0.172469  0.334864  0.622778  1
  Ca  Ca7  1  0.840914  0.495619  0.750596  1
  Ca  Ca8  1  0.339039  0.004466  0.750725  1
  Ca  Ca9  1  0.159326  0.504981  0.249630  1
  Ca  Ca10  1  0.659391  0.995399  0.249939  1
  Ac  Ac11  1  0.502598  0.682712  0.594603  1
  Ac  Ac12  1  0.003953  0.814823  0.906075  1
  Ac  Ac13  1  0.496329  0.314431  0.094222  1
  Ac  Ac14  1  0.996952  0.186278  0.405481  1
  Ac  Ac15  1  0.496146  0.314826  0.405558  1
  Ac  Ac16  1  0.996383  0.186044  0.093923  1
  Ac  Ac17  1  0.503820  0.684618  0.905419  1
  Ac  Ac18  1  0.003749  0.813978  0.592903  1
  Ho  Ho19  1  0.670520  0.167760  0.625141  1
  Pb  Pb20  1  0.674873  0.963291  0.462173  1
  Pb  Pb21  1  0.172619  0.538800  0.041045  1
  Pb  Pb22  1  0.328567  0.038578  0.958779  1
  Pb  Pb23  1  0.822591  0.456561  0.542666  1
  Pb  Pb24  1  0.333719  0.040324  0.543326  1
  Pb  Pb25  1  0.828013  0.461004  0.958437  1
  Pb  Pb26  1  0.671678  0.961161  0.041159  1
  Pb  Pb27  1  0.173306  0.539001  0.458868  1
  Pb  Pb28  1  0.476849  0.384812  0.748599  1
  Pb  Pb29  1  0.970473  0.112422  0.745971  1
  Pb  Pb30  1  0.525678  0.610557  0.250262  1
  Pb  Pb31  1  0.025465  0.890744  0.249812  1
  Pb  Pb32  1  0.709432  0.860659  0.748253  1
  Pb  Pb33  1  0.210185  0.641183  0.749738  1
  Pb  Pb34  1  0.289168  0.141731  0.250399  1
  Pb  Pb35  1  0.789626  0.358375  0.250396  1
