# generated using pymatgen
data_NdHo3(Ir2O7)2
_symmetry_space_group_name_H-M   'P 1'
_cell_length_a   7.28678847
_cell_length_b   7.28678872
_cell_length_c   7.28678797
_cell_angle_alpha   59.62659665
_cell_angle_beta   59.62659720
_cell_angle_gamma   59.62660041
_symmetry_Int_Tables_number   1
_chemical_formula_structural   NdHo3(Ir2O7)2
_chemical_formula_sum   'Nd1 Ho3 Ir4 O14'
_cell_volume   271.26420928
_cell_formula_units_Z   1
loop_
 _symmetry_equiv_pos_site_id
 _symmetry_equiv_pos_as_xyz
  1  'x, y, z'
loop_
 _atom_site_type_symbol
 _atom_site_label
 _atom_site_symmetry_multiplicity
 _atom_site_fract_x
 _atom_site_fract_y
 _atom_site_fract_z
 _atom_site_occupancy
  Nd  Nd0  1  0.125000  0.125000  0.125000  1
  Ho  Ho1  1  0.625000  0.125000  0.125000  1
  Ho  Ho2  1  0.125000  0.625000  0.125000  1
  Ho  Ho3  1  0.125000  0.125000  0.625000  1
  Ir  Ir4  1  0.125000  0.625000  0.625000  1
  Ir  Ir5  1  0.625000  0.125000  0.625000  1
  Ir  Ir6  1  0.625000  0.625000  0.125000  1
  Ir  Ir7  1  0.625000  0.625000  0.625000  1
  O  O8  1  0.712034  0.712034  0.288742  1
  O  O9  1  0.288684  0.288684  0.703460  1
  O  O10  1  0.712034  0.288742  0.712034  1
  O  O11  1  0.288684  0.703460  0.288684  1
  O  O12  1  0.288742  0.712034  0.712034  1
  O  O13  1  0.703460  0.288684  0.288684  1
  O  O14  1  0.537966  0.537966  0.961258  1
  O  O15  1  0.961316  0.961316  0.546540  1
  O  O16  1  0.537966  0.961258  0.537966  1
  O  O17  1  0.961316  0.546540  0.961316  1
  O  O18  1  0.961258  0.537966  0.537966  1
  O  O19  1  0.546540  0.961316  0.961316  1
  O  O20  1  0.253944  0.253944  0.253944  1
  O  O21  1  0.996056  0.996056  0.996056  1
