# generated using pymatgen
data_Ho3Er13(AlRh)4
_symmetry_space_group_name_H-M   'P 1'
_cell_length_a   9.47359095
_cell_length_b   9.47359133
_cell_length_c   9.47889500
_cell_angle_alpha   59.98148249
_cell_angle_beta   59.98148117
_cell_angle_gamma   59.94606457
_symmetry_Int_Tables_number   1
_chemical_formula_structural   Ho3Er13(AlRh)4
_chemical_formula_sum   'Ho3 Er13 Al4 Rh4'
_cell_volume   601.13654894
_cell_formula_units_Z   1
loop_
 _symmetry_equiv_pos_site_id
 _symmetry_equiv_pos_as_xyz
  1  'x, y, z'
loop_
 _atom_site_type_symbol
 _atom_site_label
 _atom_site_symmetry_multiplicity
 _atom_site_fract_x
 _atom_site_fract_y
 _atom_site_fract_z
 _atom_site_occupancy
  Ho  Ho0  1  0.314244  0.314244  0.685756  1
  Ho  Ho1  1  0.685033  0.685033  0.314967  1
  Ho  Ho2  1  0.057458  0.057458  0.442542  1
  Er  Er3  1  0.308290  0.896797  0.897457  1
  Er  Er4  1  0.686589  0.313033  0.687823  1
  Er  Er5  1  0.313033  0.686589  0.312554  1
  Er  Er6  1  0.057918  0.442873  0.442180  1
  Er  Er7  1  0.686589  0.313033  0.312554  1
  Er  Er8  1  0.442873  0.057918  0.442180  1
  Er  Er9  1  0.442873  0.057918  0.057029  1
  Er  Er10  1  0.897212  0.897212  0.899740  1
  Er  Er11  1  0.057918  0.442873  0.057029  1
  Er  Er12  1  0.896797  0.308290  0.897457  1
  Er  Er13  1  0.313033  0.686589  0.687823  1
  Er  Er14  1  0.897212  0.897212  0.305836  1
  Er  Er15  1  0.442444  0.442444  0.057556  1
  Al  Al16  1  0.983349  0.672591  0.672031  1
  Al  Al17  1  0.672591  0.983349  0.672031  1
  Al  Al18  1  0.671989  0.671989  0.983669  1
  Al  Al19  1  0.671989  0.671989  0.672352  1
  Rh  Rh20  1  0.107317  0.107317  0.678632  1
  Rh  Rh21  1  0.108503  0.677429  0.107034  1
  Rh  Rh22  1  0.107317  0.107317  0.106734  1
  Rh  Rh23  1  0.677429  0.108503  0.107034  1
