# generated using pymatgen
data_La4PrSn3O
_symmetry_space_group_name_H-M   'P 1'
_cell_length_a   9.53391677
_cell_length_b   9.53391668
_cell_length_c   9.53391605
_cell_angle_alpha   126.12755868
_cell_angle_beta   126.12756243
_cell_angle_gamma   79.67858237
_symmetry_Int_Tables_number   1
_chemical_formula_structural   La4PrSn3O
_chemical_formula_sum   'La8 Pr2 Sn6 O2'
_cell_volume   546.18593915
_cell_formula_units_Z   2
loop_
 _symmetry_equiv_pos_site_id
 _symmetry_equiv_pos_as_xyz
  1  'x, y, z'
loop_
 _atom_site_type_symbol
 _atom_site_label
 _atom_site_symmetry_multiplicity
 _atom_site_fract_x
 _atom_site_fract_y
 _atom_site_fract_z
 _atom_site_occupancy
  La  La0  1  0.003216  0.194689  0.500000  1
  La  La1  1  0.805311  0.305311  0.808526  1
  La  La2  1  0.503216  0.003216  0.808526  1
  La  La3  1  0.496784  0.996784  0.191474  1
  La  La4  1  0.996784  0.805311  0.500000  1
  La  La5  1  0.194689  0.694689  0.191474  1
  La  La6  1  0.694689  0.503216  0.500000  1
  La  La7  1  0.305311  0.496784  0.500000  1
  Pr  Pr8  1  0.500000  0.500000  0.000000  1
  Pr  Pr9  1  0.000000  0.000000  0.000000  1
  Sn  Sn10  1  0.859601  0.359601  0.219201  1
  Sn  Sn11  1  0.140399  0.640399  0.780799  1
  Sn  Sn12  1  0.359601  0.140399  0.500000  1
  Sn  Sn13  1  0.750000  0.750000  0.000000  1
  Sn  Sn14  1  0.640399  0.859601  0.500000  1
  Sn  Sn15  1  0.250000  0.250000  0.000000  1
  O  O16  1  0.750000  0.250000  0.500000  1
  O  O17  1  0.250000  0.750000  0.500000  1
