# generated using pymatgen
data_HoTm3Fe8(PRh)12
_symmetry_space_group_name_H-M   'P 1'
_cell_length_a   3.79284200
_cell_length_b   10.52448110
_cell_length_c   12.25231803
_cell_angle_alpha   89.98853928
_cell_angle_beta   90.00000000
_cell_angle_gamma   90.00000000
_symmetry_Int_Tables_number   1
_chemical_formula_structural   HoTm3Fe8(PRh)12
_chemical_formula_sum   'Ho1 Tm3 Fe8 P12 Rh12'
_cell_volume   489.08427108
_cell_formula_units_Z   1
loop_
 _symmetry_equiv_pos_site_id
 _symmetry_equiv_pos_as_xyz
  1  'x, y, z'
loop_
 _atom_site_type_symbol
 _atom_site_label
 _atom_site_symmetry_multiplicity
 _atom_site_fract_x
 _atom_site_fract_y
 _atom_site_fract_z
 _atom_site_occupancy
  Ho  Ho0  1  0.250000  0.578456  0.710567  1
  Tm  Tm1  1  0.250000  0.921629  0.210684  1
  Tm  Tm2  1  0.750000  0.421738  0.289389  1
  Tm  Tm3  1  0.750000  0.078249  0.789221  1
  Fe  Fe4  1  0.250000  0.876283  0.698498  1
  Fe  Fe5  1  0.250000  0.624104  0.198843  1
  Fe  Fe6  1  0.750000  0.124124  0.301283  1
  Fe  Fe7  1  0.750000  0.375386  0.801674  1
  Fe  Fe8  1  0.250000  0.458579  0.934774  1
  Fe  Fe9  1  0.250000  0.041108  0.434064  1
  Fe  Fe10  1  0.750000  0.540953  0.066207  1
  Fe  Fe11  1  0.750000  0.959250  0.565593  1
  P  P12  1  0.250000  0.440903  0.112495  1
  P  P13  1  0.250000  0.059241  0.611993  1
  P  P14  1  0.750000  0.558936  0.888542  1
  P  P15  1  0.750000  0.941017  0.387701  1
  P  P16  1  0.250000  0.271375  0.863699  1
  P  P17  1  0.250000  0.228491  0.363499  1
  P  P18  1  0.750000  0.728492  0.136355  1
  P  P19  1  0.750000  0.772070  0.636122  1
  P  P20  1  0.250000  0.601060  0.380376  1
  P  P21  1  0.250000  0.898930  0.880175  1
  P  P22  1  0.750000  0.398412  0.619326  1
  P  P23  1  0.750000  0.100960  0.119805  1
  Rh  Rh24  1  0.250000  0.714162  0.991231  1
  Rh  Rh25  1  0.250000  0.786110  0.490859  1
  Rh  Rh26  1  0.750000  0.285605  0.009122  1
  Rh  Rh27  1  0.750000  0.213954  0.508841  1
  Rh  Rh28  1  0.250000  0.408022  0.477598  1
  Rh  Rh29  1  0.250000  0.091648  0.977616  1
  Rh  Rh30  1  0.750000  0.591783  0.521209  1
  Rh  Rh31  1  0.750000  0.908217  0.022501  1
  Rh  Rh32  1  0.250000  0.232785  0.174073  1
  Rh  Rh33  1  0.250000  0.266978  0.674140  1
  Rh  Rh34  1  0.750000  0.767787  0.826200  1
  Rh  Rh35  1  0.750000  0.733204  0.325725  1
