# generated using pymatgen
data_HoTm4Bi2Sb
_symmetry_space_group_name_H-M   'P 1'
_cell_length_a   8.10999900
_cell_length_b   9.37437300
_cell_length_c   11.86170500
_cell_angle_alpha   90.00000000
_cell_angle_beta   90.00000000
_cell_angle_gamma   90.00000000
_symmetry_Int_Tables_number   1
_chemical_formula_structural   HoTm4Bi2Sb
_chemical_formula_sum   'Ho4 Tm16 Bi8 Sb4'
_cell_volume   901.79983067
_cell_formula_units_Z   4
loop_
 _symmetry_equiv_pos_site_id
 _symmetry_equiv_pos_as_xyz
  1  'x, y, z'
loop_
 _atom_site_type_symbol
 _atom_site_label
 _atom_site_symmetry_multiplicity
 _atom_site_fract_x
 _atom_site_fract_y
 _atom_site_fract_z
 _atom_site_occupancy
  Ho  Ho0  1  0.315875  0.250000  0.217291  1
  Ho  Ho1  1  0.815875  0.250000  0.282709  1
  Ho  Ho2  1  0.684125  0.750000  0.782709  1
  Ho  Ho3  1  0.184125  0.750000  0.717291  1
  Tm  Tm4  1  0.353770  0.750000  0.214934  1
  Tm  Tm5  1  0.853770  0.750000  0.285066  1
  Tm  Tm6  1  0.646230  0.250000  0.785066  1
  Tm  Tm7  1  0.146230  0.250000  0.714934  1
  Tm  Tm8  1  0.688781  0.564654  0.058608  1
  Tm  Tm9  1  0.188781  0.935346  0.441392  1
  Tm  Tm10  1  0.311219  0.064654  0.941392  1
  Tm  Tm11  1  0.811219  0.435346  0.558608  1
  Tm  Tm12  1  0.311219  0.435346  0.941392  1
  Tm  Tm13  1  0.811219  0.064654  0.558608  1
  Tm  Tm14  1  0.688781  0.935346  0.058608  1
  Tm  Tm15  1  0.188781  0.564654  0.441392  1
  Tm  Tm16  1  0.473650  0.250000  0.488704  1
  Tm  Tm17  1  0.973650  0.250000  0.011296  1
  Tm  Tm18  1  0.526350  0.750000  0.511296  1
  Tm  Tm19  1  0.026350  0.750000  0.988704  1
  Bi  Bi20  1  0.566099  0.995458  0.325687  1
  Bi  Bi21  1  0.066099  0.504542  0.174313  1
  Bi  Bi22  1  0.433901  0.495458  0.674313  1
  Bi  Bi23  1  0.933901  0.004542  0.825687  1
  Bi  Bi24  1  0.433901  0.004542  0.674313  1
  Bi  Bi25  1  0.933901  0.495458  0.825687  1
  Bi  Bi26  1  0.566099  0.504542  0.325687  1
  Bi  Bi27  1  0.066099  0.995458  0.174313  1
  Sb  Sb28  1  0.404927  0.750000  0.959091  1
  Sb  Sb29  1  0.904927  0.750000  0.540909  1
  Sb  Sb30  1  0.595073  0.250000  0.040909  1
  Sb  Sb31  1  0.095073  0.250000  0.459091  1
