# generated using pymatgen
data_HoLu4GaSb2
_symmetry_space_group_name_H-M   'P 1'
_cell_length_a   8.70917300
_cell_length_b   8.70917272
_cell_length_c   6.29971400
_cell_angle_alpha   90.00000000
_cell_angle_beta   90.00000000
_cell_angle_gamma   120.28321365
_symmetry_Int_Tables_number   1
_chemical_formula_structural   HoLu4GaSb2
_chemical_formula_sum   'Ho2 Lu8 Ga2 Sb4'
_cell_volume   412.62808830
_cell_formula_units_Z   2
loop_
 _symmetry_equiv_pos_site_id
 _symmetry_equiv_pos_as_xyz
  1  'x, y, z'
loop_
 _atom_site_type_symbol
 _atom_site_label
 _atom_site_symmetry_multiplicity
 _atom_site_fract_x
 _atom_site_fract_y
 _atom_site_fract_z
 _atom_site_occupancy
  Ho  Ho0  1  0.761069  0.761069  0.750000  1
  Ho  Ho1  1  0.234460  0.234460  0.250000  1
  Lu  Lu2  1  0.667693  0.326624  0.003459  1
  Lu  Lu3  1  0.326624  0.667693  0.003459  1
  Lu  Lu4  1  0.326624  0.667693  0.496541  1
  Lu  Lu5  1  0.667693  0.326624  0.496541  1
  Lu  Lu6  1  0.239353  0.996896  0.750000  1
  Lu  Lu7  1  0.996896  0.239353  0.750000  1
  Lu  Lu8  1  0.762550  0.015291  0.250000  1
  Lu  Lu9  1  0.015291  0.762550  0.250000  1
  Ga  Ga10  1  0.396085  0.000654  0.250000  1
  Ga  Ga11  1  0.000654  0.396085  0.250000  1
  Sb  Sb12  1  0.391231  0.391231  0.750000  1
  Sb  Sb13  1  0.602026  0.997523  0.750000  1
  Sb  Sb14  1  0.997523  0.602026  0.750000  1
  Sb  Sb15  1  0.614231  0.614231  0.250000  1
