# generated using pymatgen
data_Yb4Sc2TaRuO12
_symmetry_space_group_name_H-M   'P 1'
_cell_length_a   5.65166897
_cell_length_b   5.43541696
_cell_length_c   9.51594089
_cell_angle_alpha   55.08377752
_cell_angle_beta   90.39582632
_cell_angle_gamma   89.96284226
_symmetry_Int_Tables_number   1
_chemical_formula_structural   Yb4Sc2TaRuO12
_chemical_formula_sum   'Yb4 Sc2 Ta1 Ru1 O12'
_cell_volume   239.69147429
_cell_formula_units_Z   1
loop_
 _symmetry_equiv_pos_site_id
 _symmetry_equiv_pos_as_xyz
  1  'x, y, z'
loop_
 _atom_site_type_symbol
 _atom_site_label
 _atom_site_symmetry_multiplicity
 _atom_site_fract_x
 _atom_site_fract_y
 _atom_site_fract_z
 _atom_site_occupancy
  Yb  Yb0  1  0.438402  0.238730  0.746449  1
  Yb  Yb1  1  0.561598  0.761270  0.253551  1
  Yb  Yb2  1  0.943264  0.774855  0.743820  1
  Yb  Yb3  1  0.056736  0.225145  0.256180  1
  Sc  Sc4  1  0.000000  0.000000  0.000000  1
  Sc  Sc5  1  0.500000  0.000000  0.500000  1
  Ta  Ta6  1  0.500000  0.500000  0.000000  1
  Ru  Ru7  1  0.000000  0.500000  0.500000  1
  O  O8  1  0.036548  0.363704  0.741091  1
  O  O9  1  0.963452  0.636296  0.258909  1
  O  O10  1  0.536549  0.639782  0.756121  1
  O  O11  1  0.463451  0.360218  0.243879  1
  O  O12  1  0.693662  0.849357  0.946607  1
  O  O13  1  0.306338  0.150643  0.053393  1
  O  O14  1  0.195582  0.155631  0.551941  1
  O  O15  1  0.804418  0.844369  0.448059  1
  O  O16  1  0.207075  0.750094  0.940978  1
  O  O17  1  0.792925  0.249906  0.059022  1
  O  O18  1  0.710702  0.253525  0.555606  1
  O  O19  1  0.289298  0.746475  0.444394  1
