# generated using pymatgen
data_Pr5Nd3Te8
_symmetry_space_group_name_H-M   'P 1'
_cell_length_a   9.04724319
_cell_length_b   9.04724260
_cell_length_c   9.05365496
_cell_angle_alpha   60.02341873
_cell_angle_beta   60.02341868
_cell_angle_gamma   59.99999837
_symmetry_Int_Tables_number   1
_chemical_formula_structural   Pr5Nd3Te8
_chemical_formula_sum   'Pr5 Nd3 Te8'
_cell_volume   524.19765605
_cell_formula_units_Z   1
loop_
 _symmetry_equiv_pos_site_id
 _symmetry_equiv_pos_as_xyz
  1  'x, y, z'
loop_
 _atom_site_type_symbol
 _atom_site_label
 _atom_site_symmetry_multiplicity
 _atom_site_fract_x
 _atom_site_fract_y
 _atom_site_fract_z
 _atom_site_occupancy
  Pr  Pr0  1  0.125000  0.125000  0.625000  1
  Pr  Pr1  1  0.625000  0.125000  0.625000  1
  Pr  Pr2  1  0.625000  0.625000  0.625000  1
  Pr  Pr3  1  0.125000  0.625000  0.625000  1
  Pr  Pr4  1  0.625000  0.625000  0.125000  1
  Nd  Nd5  1  0.125000  0.625000  0.125000  1
  Nd  Nd6  1  0.625000  0.125000  0.125000  1
  Nd  Nd7  1  0.125000  0.125000  0.125000  1
  Te  Te8  1  0.374802  0.876954  0.373440  1
  Te  Te9  1  0.875198  0.373046  0.876560  1
  Te  Te10  1  0.875874  0.875874  0.372378  1
  Te  Te11  1  0.875198  0.875198  0.876560  1
  Te  Te12  1  0.876954  0.374802  0.373440  1
  Te  Te13  1  0.374126  0.374126  0.877622  1
  Te  Te14  1  0.374802  0.374802  0.373440  1
  Te  Te15  1  0.373046  0.875198  0.876560  1
