# generated using pymatgen
data_LiSc2H12IrRu
_symmetry_space_group_name_H-M   'P 1'
_cell_length_a   4.70044800
_cell_length_b   4.70044954
_cell_length_c   8.14369500
_cell_angle_alpha   90.00000000
_cell_angle_beta   90.00000000
_cell_angle_gamma   120.00001732
_symmetry_Int_Tables_number   1
_chemical_formula_structural   LiSc2H12IrRu
_chemical_formula_sum   'Li1 Sc2 H12 Ir1 Ru1'
_cell_volume   155.82269209
_cell_formula_units_Z   1
loop_
 _symmetry_equiv_pos_site_id
 _symmetry_equiv_pos_as_xyz
  1  'x, y, z'
loop_
 _atom_site_type_symbol
 _atom_site_label
 _atom_site_symmetry_multiplicity
 _atom_site_fract_x
 _atom_site_fract_y
 _atom_site_fract_z
 _atom_site_occupancy
  Li  Li0  1  0.000000  0.000000  0.860232  1
  Sc  Sc1  1  0.666667  0.333333  0.373928  1
  Sc  Sc2  1  0.333333  0.666667  0.648028  1
  H  H3  1  0.154430  0.845570  0.398411  1
  H  H4  1  0.691142  0.845570  0.398411  1
  H  H5  1  0.154430  0.308858  0.398411  1
  H  H6  1  0.843579  0.156421  0.614883  1
  H  H7  1  0.312842  0.156421  0.614883  1
  H  H8  1  0.843579  0.687158  0.614883  1
  H  H9  1  0.501860  0.003720  0.853237  1
  H  H10  1  0.501860  0.498140  0.853237  1
  H  H11  1  0.996280  0.498140  0.853237  1
  H  H12  1  0.492112  0.984224  0.166202  1
  H  H13  1  0.492112  0.507888  0.166202  1
  H  H14  1  0.015776  0.507888  0.166202  1
  Ir  Ir15  1  0.333333  0.666667  0.295373  1
  Ru  Ru16  1  0.666667  0.333333  0.724245  1
