# generated using pymatgen
data_La8TaW3C8
_symmetry_space_group_name_H-M   'P 1'
_cell_length_a   5.88050653
_cell_length_b   5.88050620
_cell_length_c   10.71342800
_cell_angle_alpha   90.00000000
_cell_angle_beta   90.00000000
_cell_angle_gamma   90.41296603
_symmetry_Int_Tables_number   1
_chemical_formula_structural   La8TaW3C8
_chemical_formula_sum   'La8 Ta1 W3 C8'
_cell_volume   370.46452117
_cell_formula_units_Z   1
loop_
 _symmetry_equiv_pos_site_id
 _symmetry_equiv_pos_as_xyz
  1  'x, y, z'
loop_
 _atom_site_type_symbol
 _atom_site_label
 _atom_site_symmetry_multiplicity
 _atom_site_fract_x
 _atom_site_fract_y
 _atom_site_fract_z
 _atom_site_occupancy
  La  La0  1  0.192482  0.192482  0.344392  1
  La  La1  1  0.806133  0.806133  0.655435  1
  La  La2  1  0.306015  0.693255  0.842299  1
  La  La3  1  0.806133  0.806133  0.344565  1
  La  La4  1  0.192482  0.192482  0.655608  1
  La  La5  1  0.693255  0.306015  0.157701  1
  La  La6  1  0.693255  0.306015  0.842299  1
  La  La7  1  0.306015  0.693255  0.157701  1
  Ta  Ta8  1  0.182307  0.182307  0.000000  1
  W  W9  1  0.826134  0.826134  0.000000  1
  W  W10  1  0.323417  0.675613  0.500000  1
  W  W11  1  0.675613  0.323417  0.500000  1
  C  C12  1  0.998122  0.998122  0.137988  1
  C  C13  1  0.499648  0.499648  0.362216  1
  C  C14  1  0.499648  0.499648  0.637784  1
  C  C15  1  0.507851  0.993472  0.000000  1
  C  C16  1  0.993472  0.507851  0.000000  1
  C  C17  1  0.998122  0.998122  0.862012  1
  C  C18  1  0.500304  0.999593  0.500000  1
  C  C19  1  0.999593  0.500304  0.500000  1
