# generated using pymatgen
data_Ti3Nb5Co8Si13As
_symmetry_space_group_name_H-M   'P 1'
_cell_length_a   9.21938190
_cell_length_b   9.21933157
_cell_length_c   9.23427900
_cell_angle_alpha   94.22406791
_cell_angle_beta   94.18106403
_cell_angle_gamma   148.56075497
_symmetry_Int_Tables_number   1
_chemical_formula_structural   Ti3Nb5Co8Si13As
_chemical_formula_sum   'Ti3 Nb5 Co8 Si13 As1'
_cell_volume   394.12923051
_cell_formula_units_Z   1
loop_
 _symmetry_equiv_pos_site_id
 _symmetry_equiv_pos_as_xyz
  1  'x, y, z'
loop_
 _atom_site_type_symbol
 _atom_site_label
 _atom_site_symmetry_multiplicity
 _atom_site_fract_x
 _atom_site_fract_y
 _atom_site_fract_z
 _atom_site_occupancy
  Ti  Ti0  1  0.502714  0.308363  0.811087  1
  Ti  Ti1  1  0.307720  0.502265  0.809978  1
  Ti  Ti2  1  0.691752  0.498317  0.190050  1
  Nb  Nb3  1  0.133210  0.132708  0.265918  1
  Nb  Nb4  1  0.867790  0.867494  0.735289  1
  Nb  Nb5  1  0.865936  0.133558  0.999495  1
  Nb  Nb6  1  0.133279  0.866435  0.999713  1
  Nb  Nb7  1  0.498832  0.690622  0.189468  1
  Co  Co8  1  0.399275  0.899168  0.798182  1
  Co  Co9  1  0.100994  0.601268  0.201935  1
  Co  Co10  1  0.099543  0.897134  0.498591  1
  Co  Co11  1  0.399565  0.601754  0.498910  1
  Co  Co12  1  0.601448  0.399046  0.498589  1
  Co  Co13  1  0.897160  0.099338  0.498907  1
  Co  Co14  1  0.899016  0.398908  0.798183  1
  Co  Co15  1  0.600667  0.100937  0.201926  1
  Si  Si16  1  0.705331  0.704135  0.409466  1
  Si  Si17  1  0.707018  0.293225  0.000192  1
  Si  Si18  1  0.291654  0.707686  0.999388  1
  Si  Si19  1  0.999467  0.296899  0.296335  1
  Si  Si20  1  0.000348  0.703395  0.703728  1
  Si  Si21  1  0.703530  0.000228  0.703769  1
  Si  Si22  1  0.295771  0.999399  0.295198  1
  Si  Si23  1  0.499803  0.906415  0.406237  1
  Si  Si24  1  0.500519  0.094343  0.594902  1
  Si  Si25  1  0.093799  0.500435  0.594203  1
  Si  Si26  1  0.905603  0.499732  0.405306  1
  Si  Si27  1  0.748765  0.748176  0.999548  1
  Si  Si28  1  0.251370  0.250783  0.999545  1
  As  As29  1  0.298123  0.297833  0.595960  1
