# generated using pymatgen
data_Ti5AlSb2
_symmetry_space_group_name_H-M   'P 1'
_cell_length_a   7.87385413
_cell_length_b   7.87385705
_cell_length_c   7.87385530
_cell_angle_alpha   96.36439033
_cell_angle_beta   96.35290913
_cell_angle_gamma   141.12310051
_symmetry_Int_Tables_number   1
_chemical_formula_structural   Ti5AlSb2
_chemical_formula_sum   'Ti10 Al2 Sb4'
_cell_volume   288.92883220
_cell_formula_units_Z   2
loop_
 _symmetry_equiv_pos_site_id
 _symmetry_equiv_pos_as_xyz
  1  'x, y, z'
loop_
 _atom_site_type_symbol
 _atom_site_label
 _atom_site_symmetry_multiplicity
 _atom_site_fract_x
 _atom_site_fract_y
 _atom_site_fract_z
 _atom_site_occupancy
  Ti  Ti0  1  0.574950  0.718132  0.293082  1
  Ti  Ti1  1  0.425050  0.281868  0.706918  1
  Ti  Ti2  1  0.750000  0.250000  0.500000  1
  Ti  Ti3  1  0.250000  0.750000  0.500000  1
  Ti  Ti4  1  0.718137  0.425071  0.143208  1
  Ti  Ti5  1  0.281863  0.574929  0.856792  1
  Ti  Ti6  1  0.925050  0.218132  0.143182  1
  Ti  Ti7  1  0.218136  0.074929  0.293065  1
  Ti  Ti8  1  0.074950  0.781868  0.856818  1
  Ti  Ti9  1  0.781864  0.925071  0.706935  1
  Al  Al10  1  0.750000  0.750000  0.000000  1
  Al  Al11  1  0.250000  0.250000  0.000000  1
  Sb  Sb12  1  0.336167  0.836178  0.172345  1
  Sb  Sb13  1  0.163833  0.336178  0.500011  1
  Sb  Sb14  1  0.663833  0.163822  0.827655  1
  Sb  Sb15  1  0.836167  0.663822  0.499989  1
