# generated using pymatgen
data_Sm2Zn2Ga7Ru5
_symmetry_space_group_name_H-M   'P 1'
_cell_length_a   8.11346260
_cell_length_b   8.11346287
_cell_length_c   8.12653145
_cell_angle_alpha   135.14479558
_cell_angle_beta   135.14479621
_cell_angle_gamma   65.33361674
_symmetry_Int_Tables_number   1
_chemical_formula_structural   Sm2Zn2Ga7Ru5
_chemical_formula_sum   'Sm2 Zn2 Ga7 Ru5'
_cell_volume   262.19446247
_cell_formula_units_Z   1
loop_
 _symmetry_equiv_pos_site_id
 _symmetry_equiv_pos_as_xyz
  1  'x, y, z'
loop_
 _atom_site_type_symbol
 _atom_site_label
 _atom_site_symmetry_multiplicity
 _atom_site_fract_x
 _atom_site_fract_y
 _atom_site_fract_z
 _atom_site_occupancy
  Sm  Sm0  1  0.500867  0.000688  0.501459  1
  Sm  Sm1  1  0.000688  0.500867  0.501459  1
  Zn  Zn2  1  0.003164  0.003164  0.003902  1
  Zn  Zn3  1  0.438913  0.438913  0.578529  1
  Ga  Ga4  1  0.859962  0.859962  0.420981  1
  Ga  Ga5  1  0.561788  0.138627  0.000518  1
  Ga  Ga6  1  0.138627  0.561788  0.000518  1
  Ga  Ga7  1  0.558720  0.558720  0.424680  1
  Ga  Ga8  1  0.139383  0.139383  0.577263  1
  Ga  Ga9  1  0.858870  0.438328  0.996207  1
  Ga  Ga10  1  0.438328  0.858870  0.996207  1
  Ru  Ru11  1  0.753120  0.247289  0.498126  1
  Ru  Ru12  1  0.247289  0.753120  0.498126  1
  Ru  Ru13  1  0.502048  0.502048  0.008288  1
  Ru  Ru14  1  0.183499  0.183499  0.994100  1
  Ru  Ru15  1  0.814734  0.814734  0.999637  1
