# generated using pymatgen
data_ZrTaBe9W
_symmetry_space_group_name_H-M   'P 1'
_cell_length_a   7.55500025
_cell_length_b   7.55500045
_cell_length_c   7.55500054
_cell_angle_alpha   35.15013976
_cell_angle_beta   35.15013597
_cell_angle_gamma   35.15013800
_symmetry_Int_Tables_number   1
_chemical_formula_structural   ZrTaBe9W
_chemical_formula_sum   'Zr1 Ta1 Be9 W1'
_cell_volume   127.65347031
_cell_formula_units_Z   1
loop_
 _symmetry_equiv_pos_site_id
 _symmetry_equiv_pos_as_xyz
  1  'x, y, z'
loop_
 _atom_site_type_symbol
 _atom_site_label
 _atom_site_symmetry_multiplicity
 _atom_site_fract_x
 _atom_site_fract_y
 _atom_site_fract_z
 _atom_site_occupancy
  Zr  Zr0  1  0.998523  0.998523  0.998523  1
  Ta  Ta1  1  0.143158  0.143158  0.143158  1
  Be  Be2  1  0.414013  0.920466  0.414013  1
  Be  Be3  1  0.414013  0.414013  0.920466  1
  Be  Be4  1  0.920466  0.414013  0.414013  1
  Be  Be5  1  0.587425  0.076326  0.587425  1
  Be  Be6  1  0.587425  0.587425  0.076326  1
  Be  Be7  1  0.076326  0.587425  0.587425  1
  Be  Be8  1  0.665572  0.665572  0.665572  1
  Be  Be9  1  0.335742  0.335742  0.335742  1
  Be  Be10  1  0.500264  0.500264  0.500264  1
  W  W11  1  0.857072  0.857072  0.857072  1
