# generated using pymatgen
data_Dy19YFe3Bi8Ir
_symmetry_space_group_name_H-M   'P 1'
_cell_length_a   8.02166692
_cell_length_b   8.92497700
_cell_length_c   12.44563500
_cell_angle_alpha   90.00000000
_cell_angle_beta   90.19387271
_cell_angle_gamma   90.00000000
_symmetry_Int_Tables_number   1
_chemical_formula_structural   Dy19YFe3Bi8Ir
_chemical_formula_sum   'Dy19 Y1 Fe3 Bi8 Ir1'
_cell_volume   891.01764495
_cell_formula_units_Z   1
loop_
 _symmetry_equiv_pos_site_id
 _symmetry_equiv_pos_as_xyz
  1  'x, y, z'
loop_
 _atom_site_type_symbol
 _atom_site_label
 _atom_site_symmetry_multiplicity
 _atom_site_fract_x
 _atom_site_fract_y
 _atom_site_fract_z
 _atom_site_occupancy
  Dy  Dy0  1  0.849139  0.750000  0.801570  1
  Dy  Dy1  1  0.347294  0.250000  0.699300  1
  Dy  Dy2  1  0.657389  0.750000  0.292565  1
  Dy  Dy3  1  0.377024  0.750000  0.693741  1
  Dy  Dy4  1  0.616763  0.250000  0.311028  1
  Dy  Dy5  1  0.882747  0.250000  0.810584  1
  Dy  Dy6  1  0.116590  0.750000  0.187215  1
  Dy  Dy7  1  0.943118  0.750000  0.504537  1
  Dy  Dy8  1  0.052014  0.250000  0.495758  1
  Dy  Dy9  1  0.442884  0.250000  0.995326  1
  Dy  Dy10  1  0.551960  0.750000  0.003234  1
  Dy  Dy11  1  0.678522  0.047859  0.565878  1
  Dy  Dy12  1  0.328287  0.969267  0.437572  1
  Dy  Dy13  1  0.174145  0.964279  0.937783  1
  Dy  Dy14  1  0.328287  0.530733  0.437572  1
  Dy  Dy15  1  0.826624  0.034858  0.061515  1
  Dy  Dy16  1  0.678522  0.452141  0.565878  1
  Dy  Dy17  1  0.826624  0.465142  0.061515  1
  Dy  Dy18  1  0.174145  0.535721  0.937783  1
  Y  Y19  1  0.153624  0.250000  0.202295  1
  Fe  Fe20  1  0.427174  0.250000  0.488856  1
  Fe  Fe21  1  0.068976  0.250000  0.990208  1
  Fe  Fe22  1  0.926443  0.750000  0.011089  1
  Bi  Bi23  1  0.571083  0.492202  0.827272  1
  Bi  Bi24  1  0.428923  0.507397  0.171965  1
  Bi  Bi25  1  0.070699  0.507605  0.673460  1
  Bi  Bi26  1  0.428923  0.992603  0.171965  1
  Bi  Bi27  1  0.930075  0.492885  0.326456  1
  Bi  Bi28  1  0.571083  0.007798  0.827272  1
  Bi  Bi29  1  0.930075  0.007115  0.326456  1
  Bi  Bi30  1  0.070699  0.992395  0.673460  1
  Ir  Ir31  1  0.570142  0.750000  0.508893  1
