# generated using pymatgen
data_Y3Er5(NiAg)2
_symmetry_space_group_name_H-M   'P 1'
_cell_length_a   9.41675770
_cell_length_b   9.41669672
_cell_length_c   9.41667900
_cell_angle_alpha   59.99959880
_cell_angle_beta   59.99960589
_cell_angle_gamma   59.99942636
_symmetry_Int_Tables_number   1
_chemical_formula_structural   Y3Er5(NiAg)2
_chemical_formula_sum   'Y6 Er10 Ni4 Ag4'
_cell_volume   590.44337583
_cell_formula_units_Z   2
loop_
 _symmetry_equiv_pos_site_id
 _symmetry_equiv_pos_as_xyz
  1  'x, y, z'
loop_
 _atom_site_type_symbol
 _atom_site_label
 _atom_site_symmetry_multiplicity
 _atom_site_fract_x
 _atom_site_fract_y
 _atom_site_fract_z
 _atom_site_occupancy
  Y  Y0  1  0.186529  0.813476  0.813493  1
  Y  Y1  1  0.813469  0.186531  0.186535  1
  Y  Y2  1  0.813479  0.186532  0.813472  1
  Y  Y3  1  0.186527  0.813474  0.186515  1
  Y  Y4  1  0.813490  0.813473  0.186526  1
  Y  Y5  1  0.186537  0.186516  0.813475  1
  Er  Er6  1  0.600072  0.600162  0.600108  1
  Er  Er7  1  0.600075  0.600156  0.199658  1
  Er  Er8  1  0.600102  0.199628  0.600135  1
  Er  Er9  1  0.199692  0.600134  0.600081  1
  Er  Er10  1  0.061795  0.438213  0.438223  1
  Er  Er11  1  0.438231  0.061775  0.061780  1
  Er  Er12  1  0.438226  0.061774  0.438212  1
  Er  Er13  1  0.061796  0.438215  0.061774  1
  Er  Er14  1  0.438225  0.438209  0.061784  1
  Er  Er15  1  0.061802  0.061767  0.438222  1
  Ni  Ni16  1  0.393056  0.393024  0.393060  1
  Ni  Ni17  1  0.393003  0.393043  0.820866  1
  Ni  Ni18  1  0.393046  0.820880  0.393029  1
  Ni  Ni19  1  0.820790  0.393048  0.393058  1
  Ag  Ag20  1  0.831767  0.831744  0.831752  1
  Ag  Ag21  1  0.831778  0.831751  0.504722  1
  Ag  Ag22  1  0.831773  0.504721  0.831758  1
  Ag  Ag23  1  0.504737  0.831751  0.831763  1
