# generated using pymatgen
data_Y5Zr3Fe9Ni7P12
_symmetry_space_group_name_H-M   'P 1'
_cell_length_a   12.34129800
_cell_length_b   12.34129713
_cell_length_c   3.78825000
_cell_angle_alpha   90.00000000
_cell_angle_beta   90.00000000
_cell_angle_gamma   120.00000770
_symmetry_Int_Tables_number   1
_chemical_formula_structural   Y5Zr3Fe9Ni7P12
_chemical_formula_sum   'Y5 Zr3 Fe9 Ni7 P12'
_cell_volume   499.67874668
_cell_formula_units_Z   1
loop_
 _symmetry_equiv_pos_site_id
 _symmetry_equiv_pos_as_xyz
  1  'x, y, z'
loop_
 _atom_site_type_symbol
 _atom_site_label
 _atom_site_symmetry_multiplicity
 _atom_site_fract_x
 _atom_site_fract_y
 _atom_site_fract_z
 _atom_site_occupancy
  Y  Y0  1  0.183081  0.183081  0.500000  1
  Y  Y1  1  0.816919  0.000000  0.500000  1
  Y  Y2  1  0.000000  0.816919  0.500000  1
  Y  Y3  1  0.333333  0.666667  0.000000  1
  Y  Y4  1  0.666667  0.333333  0.000000  1
  Zr  Zr5  1  0.559644  0.559644  0.000000  1
  Zr  Zr6  1  0.440356  0.000000  0.000000  1
  Zr  Zr7  1  0.000000  0.440356  0.000000  1
  Fe  Fe8  1  0.722576  0.722576  0.500000  1
  Fe  Fe9  1  0.277424  0.000000  0.500000  1
  Fe  Fe10  1  0.000000  0.277424  0.500000  1
  Fe  Fe11  1  0.182587  0.377277  0.000000  1
  Fe  Fe12  1  0.622723  0.805309  0.000000  1
  Fe  Fe13  1  0.194691  0.817413  0.000000  1
  Fe  Fe14  1  0.805309  0.622723  0.000000  1
  Fe  Fe15  1  0.817413  0.194691  0.000000  1
  Fe  Fe16  1  0.377277  0.182587  0.000000  1
  Ni  Ni17  1  0.358462  0.481747  0.500000  1
  Ni  Ni18  1  0.518253  0.876717  0.500000  1
  Ni  Ni19  1  0.123283  0.641538  0.500000  1
  Ni  Ni20  1  0.876717  0.518253  0.500000  1
  Ni  Ni21  1  0.641538  0.123283  0.500000  1
  Ni  Ni22  1  0.481747  0.358462  0.500000  1
  Ni  Ni23  1  0.000000  0.000000  0.000000  1
  P  P24  1  0.815729  0.815729  0.000000  1
  P  P25  1  0.184271  0.000000  0.000000  1
  P  P26  1  0.000000  0.184271  0.000000  1
  P  P27  1  0.169959  0.469905  0.500000  1
  P  P28  1  0.530095  0.700054  0.500000  1
  P  P29  1  0.299946  0.830041  0.500000  1
  P  P30  1  0.700054  0.530095  0.500000  1
  P  P31  1  0.830041  0.299946  0.500000  1
  P  P32  1  0.469905  0.169959  0.500000  1
  P  P33  1  0.347947  0.347947  0.000000  1
  P  P34  1  0.652053  0.000000  0.000000  1
  P  P35  1  0.000000  0.652053  0.000000  1
