# generated using pymatgen
data_Tb6Dy10In4NiRh3
_symmetry_space_group_name_H-M   'P 1'
_cell_length_a   9.63753899
_cell_length_b   9.65411705
_cell_length_c   9.65321527
_cell_angle_alpha   60.06489648
_cell_angle_beta   60.06359937
_cell_angle_gamma   60.07486365
_symmetry_Int_Tables_number   1
_chemical_formula_structural   Tb6Dy10In4NiRh3
_chemical_formula_sum   'Tb6 Dy10 In4 Ni1 Rh3'
_cell_volume   636.06625587
_cell_formula_units_Z   1
loop_
 _symmetry_equiv_pos_site_id
 _symmetry_equiv_pos_as_xyz
  1  'x, y, z'
loop_
 _atom_site_type_symbol
 _atom_site_label
 _atom_site_symmetry_multiplicity
 _atom_site_fract_x
 _atom_site_fract_y
 _atom_site_fract_z
 _atom_site_occupancy
  Tb  Tb0  1  0.439074  0.061192  0.061165  1
  Tb  Tb1  1  0.438507  0.061060  0.438155  1
  Tb  Tb2  1  0.062987  0.438174  0.062325  1
  Tb  Tb3  1  0.652348  0.647755  0.047853  1
  Tb  Tb4  1  0.189038  0.811182  0.189932  1
  Tb  Tb5  1  0.062973  0.437908  0.435906  1
  Dy  Dy6  1  0.809619  0.811344  0.189874  1
  Dy  Dy7  1  0.810527  0.190875  0.810859  1
  Dy  Dy8  1  0.187636  0.191055  0.810664  1
  Dy  Dy9  1  0.650615  0.049808  0.648981  1
  Dy  Dy10  1  0.061600  0.060640  0.438777  1
  Dy  Dy11  1  0.437462  0.438462  0.061562  1
  Dy  Dy12  1  0.653380  0.649047  0.652033  1
  Dy  Dy13  1  0.810439  0.190413  0.188337  1
  Dy  Dy14  1  0.189617  0.811085  0.809419  1
  Dy  Dy15  1  0.045390  0.648900  0.652440  1
  In  In16  1  0.416771  0.418080  0.417509  1
  In  In17  1  0.417376  0.418513  0.747140  1
  In  In18  1  0.417417  0.746234  0.418682  1
  In  In19  1  0.747699  0.417754  0.417899  1
  Ni  Ni20  1  0.857807  0.425576  0.858575  1
  Rh  Rh21  1  0.857856  0.858383  0.857494  1
  Rh  Rh22  1  0.857224  0.858471  0.427049  1
  Rh  Rh23  1  0.426635  0.858086  0.857368  1
