# generated using pymatgen
data_Sc4Si4Tc3W
_symmetry_space_group_name_H-M   'P 1'
_cell_length_a   3.44027100
_cell_length_b   7.04266756
_cell_length_c   8.10665097
_cell_angle_alpha   89.51007736
_cell_angle_beta   90.00000000
_cell_angle_gamma   90.00000000
_symmetry_Int_Tables_number   1
_chemical_formula_structural   Sc4Si4Tc3W
_chemical_formula_sum   'Sc4 Si4 Tc3 W1'
_cell_volume   196.40631190
_cell_formula_units_Z   1
loop_
 _symmetry_equiv_pos_site_id
 _symmetry_equiv_pos_as_xyz
  1  'x, y, z'
loop_
 _atom_site_type_symbol
 _atom_site_label
 _atom_site_symmetry_multiplicity
 _atom_site_fract_x
 _atom_site_fract_y
 _atom_site_fract_z
 _atom_site_occupancy
  Sc  Sc0  1  0.250000  0.538576  0.168838  1
  Sc  Sc1  1  0.250000  0.038609  0.332809  1
  Sc  Sc2  1  0.750000  0.460651  0.832715  1
  Sc  Sc3  1  0.750000  0.960310  0.666339  1
  Si  Si4  1  0.250000  0.763630  0.864078  1
  Si  Si5  1  0.250000  0.269756  0.631121  1
  Si  Si6  1  0.750000  0.236345  0.133675  1
  Si  Si7  1  0.750000  0.729777  0.369452  1
  Tc  Tc8  1  0.250000  0.635767  0.569975  1
  Tc  Tc9  1  0.250000  0.133932  0.933810  1
  Tc  Tc10  1  0.750000  0.362982  0.431094  1
  W  W11  1  0.750000  0.869664  0.066094  1
