# generated using pymatgen
data_TbHo9(Zn2Bi)2
_symmetry_space_group_name_H-M   'P 1'
_cell_length_a   8.60311170
_cell_length_b   8.60311286
_cell_length_c   8.60723313
_cell_angle_alpha   123.42428043
_cell_angle_beta   123.42429092
_cell_angle_gamma   84.14869360
_symmetry_Int_Tables_number   1
_chemical_formula_structural   TbHo9(Zn2Bi)2
_chemical_formula_sum   'Tb1 Ho9 Zn4 Bi2'
_cell_volume   424.79209681
_cell_formula_units_Z   1
loop_
 _symmetry_equiv_pos_site_id
 _symmetry_equiv_pos_as_xyz
  1  'x, y, z'
loop_
 _atom_site_type_symbol
 _atom_site_label
 _atom_site_symmetry_multiplicity
 _atom_site_fract_x
 _atom_site_fract_y
 _atom_site_fract_z
 _atom_site_occupancy
  Tb  Tb0  1  0.009745  0.509745  0.805001  1
  Ho  Ho1  1  0.000007  0.000628  0.000246  1
  Ho  Ho2  1  0.500628  0.500007  0.000246  1
  Ho  Ho3  1  0.705330  0.205330  0.195136  1
  Ho  Ho4  1  0.509614  0.705617  0.499901  1
  Ho  Ho5  1  0.205617  0.009614  0.499901  1
  Ho  Ho6  1  0.990169  0.490169  0.196684  1
  Ho  Ho7  1  0.294133  0.794133  0.803966  1
  Ho  Ho8  1  0.489917  0.293800  0.499765  1
  Ho  Ho9  1  0.793800  0.989917  0.499765  1
  Zn  Zn10  1  0.639521  0.139521  0.779084  1
  Zn  Zn11  1  0.360993  0.860993  0.221681  1
  Zn  Zn12  1  0.140031  0.360327  0.499477  1
  Zn  Zn13  1  0.860327  0.640031  0.499477  1
  Bi  Bi14  1  0.749717  0.750449  0.999834  1
  Bi  Bi15  1  0.250449  0.249717  0.999834  1
