# generated using pymatgen
data_Gd6LuFeCl12
_symmetry_space_group_name_H-M   'P 1'
_cell_length_a   8.87399019
_cell_length_b   8.87399076
_cell_length_c   8.87399100
_cell_angle_alpha   106.97041133
_cell_angle_beta   106.97040571
_cell_angle_gamma   106.97040685
_symmetry_Int_Tables_number   1
_chemical_formula_structural   Gd6LuFeCl12
_chemical_formula_sum   'Gd6 Lu1 Fe1 Cl12'
_cell_volume   582.44184603
_cell_formula_units_Z   1
loop_
 _symmetry_equiv_pos_site_id
 _symmetry_equiv_pos_as_xyz
  1  'x, y, z'
loop_
 _atom_site_type_symbol
 _atom_site_label
 _atom_site_symmetry_multiplicity
 _atom_site_fract_x
 _atom_site_fract_y
 _atom_site_fract_z
 _atom_site_occupancy
  Gd  Gd0  1  0.815535  0.522933  0.602758  1
  Gd  Gd1  1  0.397242  0.184465  0.477067  1
  Gd  Gd2  1  0.477067  0.397242  0.184465  1
  Gd  Gd3  1  0.602758  0.815535  0.522933  1
  Gd  Gd4  1  0.522933  0.602758  0.815535  1
  Gd  Gd5  1  0.184465  0.477067  0.397242  1
  Lu  Lu6  1  0.000000  0.000000  0.000000  1
  Fe  Fe7  1  0.500000  0.500000  0.500000  1
  Cl  Cl8  1  0.680628  0.964452  0.890207  1
  Cl  Cl9  1  0.722151  0.181297  0.570407  1
  Cl  Cl10  1  0.890207  0.680628  0.964452  1
  Cl  Cl11  1  0.277849  0.818703  0.429593  1
  Cl  Cl12  1  0.181297  0.570407  0.722151  1
  Cl  Cl13  1  0.035548  0.109793  0.319372  1
  Cl  Cl14  1  0.570407  0.722151  0.181297  1
  Cl  Cl15  1  0.109793  0.319372  0.035548  1
  Cl  Cl16  1  0.818703  0.429593  0.277849  1
  Cl  Cl17  1  0.429593  0.277849  0.818703  1
  Cl  Cl18  1  0.964452  0.890207  0.680628  1
  Cl  Cl19  1  0.319372  0.035548  0.109793  1
