# generated using pymatgen
data_Nd11Tl9Pt4
_symmetry_space_group_name_H-M   'P 1'
_cell_length_a   13.70129352
_cell_length_b   13.70129472
_cell_length_c   3.80296800
_cell_angle_alpha   90.00000000
_cell_angle_beta   90.00000000
_cell_angle_gamma   111.09729109
_symmetry_Int_Tables_number   1
_chemical_formula_structural   Nd11Tl9Pt4
_chemical_formula_sum   'Nd11 Tl9 Pt4'
_cell_volume   666.06066522
_cell_formula_units_Z   1
loop_
 _symmetry_equiv_pos_site_id
 _symmetry_equiv_pos_as_xyz
  1  'x, y, z'
loop_
 _atom_site_type_symbol
 _atom_site_label
 _atom_site_symmetry_multiplicity
 _atom_site_fract_x
 _atom_site_fract_y
 _atom_site_fract_z
 _atom_site_occupancy
  Nd  Nd0  1  0.076463  0.417542  0.000000  1
  Nd  Nd1  1  0.923537  0.582458  0.000000  1
  Nd  Nd2  1  0.417542  0.076463  0.000000  1
  Nd  Nd3  1  0.582458  0.923537  0.000000  1
  Nd  Nd4  1  0.628565  0.371435  0.000000  1
  Nd  Nd5  1  0.371435  0.628565  0.000000  1
  Nd  Nd6  1  0.838398  0.161602  0.000000  1
  Nd  Nd7  1  0.161602  0.838398  0.000000  1
  Nd  Nd8  1  0.000000  0.000000  0.000000  1
  Nd  Nd9  1  0.311420  0.311420  0.000000  1
  Nd  Nd10  1  0.688580  0.688580  0.000000  1
  Tl  Tl11  1  0.843705  0.367041  0.500000  1
  Tl  Tl12  1  0.156295  0.632959  0.500000  1
  Tl  Tl13  1  0.367041  0.843705  0.500000  1
  Tl  Tl14  1  0.632959  0.156295  0.500000  1
  Tl  Tl15  1  0.068985  0.214846  0.500000  1
  Tl  Tl16  1  0.931015  0.785154  0.500000  1
  Tl  Tl17  1  0.214846  0.068985  0.500000  1
  Tl  Tl18  1  0.785154  0.931015  0.500000  1
  Tl  Tl19  1  0.500000  0.500000  0.500000  1
  Pt  Pt20  1  0.248861  0.451731  0.500000  1
  Pt  Pt21  1  0.751139  0.548269  0.500000  1
  Pt  Pt22  1  0.451731  0.248861  0.500000  1
  Pt  Pt23  1  0.548269  0.751139  0.500000  1
