# generated using pymatgen
data_Tb3Al12(TcPt)2
_symmetry_space_group_name_H-M   'P 1'
_cell_length_a   8.87643303
_cell_length_b   8.87643406
_cell_length_c   9.62389857
_cell_angle_alpha   90.46065849
_cell_angle_beta   89.53934609
_cell_angle_gamma   119.54141767
_symmetry_Int_Tables_number   1
_chemical_formula_structural   Tb3Al12(TcPt)2
_chemical_formula_sum   'Tb6 Al24 Tc4 Pt4'
_cell_volume   659.67230777
_cell_formula_units_Z   2
loop_
 _symmetry_equiv_pos_site_id
 _symmetry_equiv_pos_as_xyz
  1  'x, y, z'
loop_
 _atom_site_type_symbol
 _atom_site_label
 _atom_site_symmetry_multiplicity
 _atom_site_fract_x
 _atom_site_fract_y
 _atom_site_fract_z
 _atom_site_occupancy
  Tb  Tb0  1  0.187775  0.383057  0.252017  1
  Tb  Tb1  1  0.812225  0.616943  0.747983  1
  Tb  Tb2  1  0.616943  0.812225  0.252017  1
  Tb  Tb3  1  0.383057  0.187775  0.747983  1
  Tb  Tb4  1  0.192182  0.807818  0.253273  1
  Tb  Tb5  1  0.807818  0.192182  0.746727  1
  Al  Al6  1  0.333301  0.666699  0.029163  1
  Al  Al7  1  0.666699  0.333301  0.970837  1
  Al  Al8  1  0.669215  0.330785  0.521543  1
  Al  Al9  1  0.330785  0.669215  0.478457  1
  Al  Al10  1  0.161049  0.324996  0.577578  1
  Al  Al11  1  0.838951  0.675004  0.422422  1
  Al  Al12  1  0.675004  0.838951  0.577578  1
  Al  Al13  1  0.838098  0.677953  0.077418  1
  Al  Al14  1  0.324996  0.161049  0.422422  1
  Al  Al15  1  0.161902  0.322047  0.922582  1
  Al  Al16  1  0.163437  0.836563  0.578067  1
  Al  Al17  1  0.322047  0.161902  0.077418  1
  Al  Al18  1  0.836563  0.163437  0.421933  1
  Al  Al19  1  0.677953  0.838098  0.922582  1
  Al  Al20  1  0.837954  0.162046  0.076927  1
  Al  Al21  1  0.162046  0.837954  0.923073  1
  Al  Al22  1  0.562997  0.128299  0.251290  1
  Al  Al23  1  0.437003  0.871701  0.748710  1
  Al  Al24  1  0.871701  0.437003  0.251290  1
  Al  Al25  1  0.128299  0.562997  0.748710  1
  Al  Al26  1  0.563316  0.436684  0.247052  1
  Al  Al27  1  0.436684  0.563316  0.752948  1
  Al  Al28  1  0.998709  0.001291  0.249841  1
  Al  Al29  1  0.001291  0.998709  0.750159  1
  Tc  Tc30  1  0.500000  0.000000  0.500000  1
  Tc  Tc31  1  0.000000  0.500000  0.500000  1
  Tc  Tc32  1  0.000000  0.000000  0.000000  1
  Tc  Tc33  1  0.000000  0.000000  0.500000  1
  Pt  Pt34  1  0.500000  0.000000  0.000000  1
  Pt  Pt35  1  0.000000  0.500000  0.000000  1
  Pt  Pt36  1  0.500000  0.500000  0.000000  1
  Pt  Pt37  1  0.500000  0.500000  0.500000  1
