# generated using pymatgen
data_Ce2Th3Sn3Os
_symmetry_space_group_name_H-M   'P 1'
_cell_length_a   6.30334400
_cell_length_b   9.70526424
_cell_length_c   9.70504901
_cell_angle_alpha   120.00073636
_cell_angle_beta   90.00000000
_cell_angle_gamma   90.00000000
_symmetry_Int_Tables_number   1
_chemical_formula_structural   Ce2Th3Sn3Os
_chemical_formula_sum   'Ce4 Th6 Sn6 Os2'
_cell_volume   514.16618941
_cell_formula_units_Z   2
loop_
 _symmetry_equiv_pos_site_id
 _symmetry_equiv_pos_as_xyz
  1  'x, y, z'
loop_
 _atom_site_type_symbol
 _atom_site_label
 _atom_site_symmetry_multiplicity
 _atom_site_fract_x
 _atom_site_fract_y
 _atom_site_fract_z
 _atom_site_occupancy
  Ce  Ce0  1  0.500011  0.333320  0.666640  1
  Ce  Ce1  1  0.500011  0.666680  0.333360  1
  Ce  Ce2  1  0.000011  0.666680  0.333360  1
  Ce  Ce3  1  0.000011  0.333320  0.666640  1
  Th  Th4  1  0.749998  0.247162  0.000000  1
  Th  Th5  1  0.749994  0.752831  0.752848  1
  Th  Th6  1  0.749994  0.999982  0.247152  1
  Th  Th7  1  0.249998  0.752838  0.000000  1
  Th  Th8  1  0.249994  0.247169  0.247152  1
  Th  Th9  1  0.249994  0.000018  0.752848  1
  Sn  Sn10  1  0.750011  0.601359  0.000000  1
  Sn  Sn11  1  0.749998  0.398600  0.398598  1
  Sn  Sn12  1  0.749998  0.000004  0.601402  1
  Sn  Sn13  1  0.250011  0.398641  0.000000  1
  Sn  Sn14  1  0.249998  0.601400  0.601402  1
  Sn  Sn15  1  0.249998  0.999996  0.398598  1
  Os  Os16  1  0.499986  0.000000  0.000000  1
  Os  Os17  1  0.999986  0.000000  0.000000  1
