# generated using pymatgen
data_Hf3Ta(SiRh5)2
_symmetry_space_group_name_H-M   'P 1'
_cell_length_a   4.02936000
_cell_length_b   5.55649643
_cell_length_c   10.81160480
_cell_angle_alpha   89.91766262
_cell_angle_beta   90.00000000
_cell_angle_gamma   90.00000000
_symmetry_Int_Tables_number   1
_chemical_formula_structural   Hf3Ta(SiRh5)2
_chemical_formula_sum   'Hf3 Ta1 Si2 Rh10'
_cell_volume   242.06211547
_cell_formula_units_Z   1
loop_
 _symmetry_equiv_pos_site_id
 _symmetry_equiv_pos_as_xyz
  1  'x, y, z'
loop_
 _atom_site_type_symbol
 _atom_site_label
 _atom_site_symmetry_multiplicity
 _atom_site_fract_x
 _atom_site_fract_y
 _atom_site_fract_z
 _atom_site_occupancy
  Hf  Hf0  1  0.500000  0.822679  0.358486  1
  Hf  Hf1  1  0.500000  0.675950  0.860316  1
  Hf  Hf2  1  0.500000  0.323276  0.141386  1
  Ta  Ta3  1  0.500000  0.173736  0.642205  1
  Si  Si4  1  0.000000  0.499272  0.500312  1
  Si  Si5  1  0.000000  0.000430  0.999800  1
  Rh  Rh6  1  0.500000  0.181175  0.892954  1
  Rh  Rh7  1  0.500000  0.818954  0.102597  1
  Rh  Rh8  1  0.500000  0.685973  0.603536  1
  Rh  Rh9  1  0.500000  0.316562  0.401270  1
  Rh  Rh10  1  0.000000  0.423862  0.736113  1
  Rh  Rh11  1  0.000000  0.569959  0.260453  1
  Rh  Rh12  1  0.000000  0.006845  0.503552  1
  Rh  Rh13  1  0.000000  0.499070  0.999055  1
  Rh  Rh14  1  0.000000  0.070756  0.241440  1
  Rh  Rh15  1  0.000000  0.931502  0.756526  1
