# generated using pymatgen
data_Ba2TaNb5Te2O21
_symmetry_space_group_name_H-M   'P 1'
_cell_length_a   5.76491100
_cell_length_b   8.96716725
_cell_length_c   9.79739016
_cell_angle_alpha   96.47731082
_cell_angle_beta   90.00000000
_cell_angle_gamma   108.75036136
_symmetry_Int_Tables_number   1
_chemical_formula_structural   Ba2TaNb5Te2O21
_chemical_formula_sum   'Ba2 Ta1 Nb5 Te2 O21'
_cell_volume   476.18020962
_cell_formula_units_Z   1
loop_
 _symmetry_equiv_pos_site_id
 _symmetry_equiv_pos_as_xyz
  1  'x, y, z'
loop_
 _atom_site_type_symbol
 _atom_site_label
 _atom_site_symmetry_multiplicity
 _atom_site_fract_x
 _atom_site_fract_y
 _atom_site_fract_z
 _atom_site_occupancy
  Ba  Ba0  1  0.861042  0.722082  0.473209  1
  Ba  Ba1  1  0.138851  0.277702  0.526274  1
  Ta  Ta2  1  0.100526  0.201051  0.916059  1
  Nb  Nb3  1  0.903907  0.807811  0.083616  1
  Nb  Nb4  1  0.677587  0.355173  0.169291  1
  Nb  Nb5  1  0.481287  0.962575  0.337983  1
  Nb  Nb6  1  0.519713  0.039424  0.664649  1
  Nb  Nb7  1  0.323552  0.647105  0.829833  1
  Te  Te8  1  0.275057  0.550115  0.250154  1
  Te  Te9  1  0.725162  0.450320  0.749957  1
  O  O10  1  0.000158  0.000316  0.999590  1
  O  O11  1  0.391928  0.288724  0.053044  1
  O  O12  1  0.896795  0.288724  0.053044  1
  O  O13  1  0.789729  0.579456  0.149504  1
  O  O14  1  0.175495  0.867915  0.220360  1
  O  O15  1  0.692420  0.867915  0.220360  1
  O  O16  1  0.581799  0.163596  0.279728  1
  O  O17  1  0.458341  0.436241  0.331223  1
  O  O18  1  0.977902  0.436241  0.331223  1
  O  O19  1  0.357965  0.715931  0.398280  1
  O  O20  1  0.277270  0.000127  0.500365  1
  O  O21  1  0.722855  0.000127  0.500365  1
  O  O22  1  0.641818  0.283635  0.602283  1
  O  O23  1  0.022052  0.562479  0.668118  1
  O  O24  1  0.540427  0.562479  0.668118  1
  O  O25  1  0.418168  0.836337  0.720834  1
  O  O26  1  0.306548  0.131297  0.780662  1
  O  O27  1  0.824749  0.131297  0.780662  1
  O  O28  1  0.208328  0.416656  0.849625  1
  O  O29  1  0.103318  0.708570  0.945793  1
  O  O30  1  0.605253  0.708570  0.945793  1
