# generated using pymatgen
data_Li2Tc(AsPd)3
_symmetry_space_group_name_H-M   'P 1'
_cell_length_a   6.92805470
_cell_length_b   6.92805379
_cell_length_c   3.31065300
_cell_angle_alpha   90.00000000
_cell_angle_beta   90.00000000
_cell_angle_gamma   119.05056422
_symmetry_Int_Tables_number   1
_chemical_formula_structural   Li2Tc(AsPd)3
_chemical_formula_sum   'Li2 Tc1 As3 Pd3'
_cell_volume   138.91297435
_cell_formula_units_Z   1
loop_
 _symmetry_equiv_pos_site_id
 _symmetry_equiv_pos_as_xyz
  1  'x, y, z'
loop_
 _atom_site_type_symbol
 _atom_site_label
 _atom_site_symmetry_multiplicity
 _atom_site_fract_x
 _atom_site_fract_y
 _atom_site_fract_z
 _atom_site_occupancy
  Li  Li0  1  0.387055  0.001844  0.500000  1
  Li  Li1  1  0.001844  0.387055  0.500000  1
  Tc  Tc2  1  0.620021  0.620021  0.500000  1
  As  As3  1  0.365107  0.658181  0.000000  1
  As  As4  1  0.658181  0.365107  0.000000  1
  As  As5  1  0.974417  0.974417  0.500000  1
  Pd  Pd6  1  0.717892  0.034998  0.000000  1
  Pd  Pd7  1  0.034998  0.717892  0.000000  1
  Pd  Pd8  1  0.240486  0.240486  0.000000  1
