# generated using pymatgen
data_CeTh2As2P
_symmetry_space_group_name_H-M   'P 1'
_cell_length_a   4.18860100
_cell_length_b   4.18860086
_cell_length_c   10.32001000
_cell_angle_alpha   90.00000000
_cell_angle_beta   90.00000000
_cell_angle_gamma   119.99999320
_symmetry_Int_Tables_number   1
_chemical_formula_structural   CeTh2As2P
_chemical_formula_sum   'Ce1 Th2 As2 P1'
_cell_volume   156.80097154
_cell_formula_units_Z   1
loop_
 _symmetry_equiv_pos_site_id
 _symmetry_equiv_pos_as_xyz
  1  'x, y, z'
loop_
 _atom_site_type_symbol
 _atom_site_label
 _atom_site_symmetry_multiplicity
 _atom_site_fract_x
 _atom_site_fract_y
 _atom_site_fract_z
 _atom_site_occupancy
  Ce  Ce0  1  0.000000  0.000000  0.000000  1
  Th  Th1  1  0.333333  0.666667  0.658027  1
  Th  Th2  1  0.666667  0.333333  0.341973  1
  As  As3  1  0.333333  0.666667  0.167579  1
  As  As4  1  0.666667  0.333333  0.832421  1
  P  P5  1  0.000000  0.000000  0.500000  1
