# generated using pymatgen
data_Pr4As4Ru3RhO4
_symmetry_space_group_name_H-M   'P 1'
_cell_length_a   4.13245100
_cell_length_b   4.13245100
_cell_length_c   16.90376000
_cell_angle_alpha   90.00000000
_cell_angle_beta   90.00000000
_cell_angle_gamma   90.00000000
_symmetry_Int_Tables_number   1
_chemical_formula_structural   Pr4As4Ru3RhO4
_chemical_formula_sum   'Pr4 As4 Ru3 Rh1 O4'
_cell_volume   288.66806651
_cell_formula_units_Z   1
loop_
 _symmetry_equiv_pos_site_id
 _symmetry_equiv_pos_as_xyz
  1  'x, y, z'
loop_
 _atom_site_type_symbol
 _atom_site_label
 _atom_site_symmetry_multiplicity
 _atom_site_fract_x
 _atom_site_fract_y
 _atom_site_fract_z
 _atom_site_occupancy
  Pr  Pr0  1  0.500000  0.000000  0.183071  1
  Pr  Pr1  1  0.500000  0.000000  0.678206  1
  Pr  Pr2  1  0.000000  0.500000  0.816929  1
  Pr  Pr3  1  0.000000  0.500000  0.321794  1
  As  As4  1  0.500000  0.000000  0.921741  1
  As  As5  1  0.500000  0.000000  0.422857  1
  As  As6  1  0.000000  0.500000  0.078259  1
  As  As7  1  0.000000  0.500000  0.577143  1
  Ru  Ru8  1  0.500000  0.500000  0.500000  1
  Ru  Ru9  1  0.000000  0.000000  0.000000  1
  Ru  Ru10  1  0.000000  0.000000  0.500000  1
  Rh  Rh11  1  0.500000  0.500000  0.000000  1
  O  O12  1  0.500000  0.500000  0.749143  1
  O  O13  1  0.500000  0.500000  0.250857  1
  O  O14  1  0.000000  0.000000  0.749266  1
  O  O15  1  0.000000  0.000000  0.250734  1
