# generated using pymatgen
data_Pr16Ho4Si15B
_symmetry_space_group_name_H-M   'P 1'
_cell_length_a   7.79226644
_cell_length_b   7.80378194
_cell_length_c   15.33940900
_cell_angle_alpha   89.84569923
_cell_angle_beta   90.12463180
_cell_angle_gamma   90.55497636
_symmetry_Int_Tables_number   1
_chemical_formula_structural   Pr16Ho4Si15B
_chemical_formula_sum   'Pr16 Ho4 Si15 B1'
_cell_volume   932.72709948
_cell_formula_units_Z   1
loop_
 _symmetry_equiv_pos_site_id
 _symmetry_equiv_pos_as_xyz
  1  'x, y, z'
loop_
 _atom_site_type_symbol
 _atom_site_label
 _atom_site_symmetry_multiplicity
 _atom_site_fract_x
 _atom_site_fract_y
 _atom_site_fract_z
 _atom_site_occupancy
  Pr  Pr0  1  0.381936  0.011931  0.444546  1
  Pr  Pr1  1  0.483243  0.883843  0.695737  1
  Pr  Pr2  1  0.514914  0.120079  0.194657  1
  Pr  Pr3  1  0.880448  0.485766  0.305885  1
  Pr  Pr4  1  0.121729  0.509328  0.801339  1
  Pr  Pr5  1  0.616331  0.988996  0.941770  1
  Pr  Pr6  1  0.017451  0.377004  0.557613  1
  Pr  Pr7  1  0.986450  0.622155  0.054103  1
  Pr  Pr8  1  0.121515  0.975133  0.876588  1
  Pr  Pr9  1  0.524912  0.625272  0.127764  1
  Pr  Pr10  1  0.464722  0.364310  0.629550  1
  Pr  Pr11  1  0.621330  0.519861  0.868228  1
  Pr  Pr12  1  0.374140  0.475271  0.372895  1
  Pr  Pr13  1  0.877637  0.025424  0.379241  1
  Pr  Pr14  1  0.974604  0.123421  0.120445  1
  Pr  Pr15  1  0.036579  0.893249  0.625200  1
  Ho  Ho16  1  0.307289  0.308113  0.998820  1
  Ho  Ho17  1  0.192577  0.808491  0.250006  1
  Ho  Ho18  1  0.828361  0.190481  0.747716  1
  Ho  Ho19  1  0.694708  0.689821  0.502184  1
  Si  Si20  1  0.327652  0.686735  0.957338  1
  Si  Si21  1  0.674512  0.314948  0.460409  1
  Si  Si22  1  0.685226  0.327381  0.039147  1
  Si  Si23  1  0.313023  0.672359  0.543327  1
  Si  Si24  1  0.816267  0.825643  0.210420  1
  Si  Si25  1  0.174679  0.185543  0.289873  1
  Si  Si26  1  0.824135  0.812928  0.789148  1
  Si  Si27  1  0.286080  0.919624  0.062889  1
  Si  Si28  1  0.581152  0.783980  0.314292  1
  Si  Si29  1  0.397990  0.213800  0.808528  1
  Si  Si30  1  0.785376  0.579225  0.684522  1
  Si  Si31  1  0.214135  0.420451  0.185516  1
  Si  Si32  1  0.715345  0.078891  0.564295  1
  Si  Si33  1  0.917945  0.285971  0.935721  1
  Si  Si34  1  0.080040  0.716079  0.438244  1
  B  B35  1  0.185570  0.178493  0.722046  1
