# generated using pymatgen
data_Ta4CoCu(P2O7)6
_symmetry_space_group_name_H-M   'P 1'
_cell_length_a   8.06589180
_cell_length_b   6.63664674
_cell_length_c   16.95264400
_cell_angle_alpha   67.34328467
_cell_angle_beta   89.97451987
_cell_angle_gamma   90.02699697
_symmetry_Int_Tables_number   1
_chemical_formula_structural   Ta4CoCu(P2O7)6
_chemical_formula_sum   'Ta4 Co1 Cu1 P12 O42'
_cell_volume   837.45174460
_cell_formula_units_Z   1
loop_
 _symmetry_equiv_pos_site_id
 _symmetry_equiv_pos_as_xyz
  1  'x, y, z'
loop_
 _atom_site_type_symbol
 _atom_site_label
 _atom_site_symmetry_multiplicity
 _atom_site_fract_x
 _atom_site_fract_y
 _atom_site_fract_z
 _atom_site_occupancy
  Ta  Ta0  1  0.979377  0.697158  0.833532  1
  Ta  Ta1  1  0.020623  0.302842  0.166468  1
  Ta  Ta2  1  0.479877  0.296197  0.666632  1
  Ta  Ta3  1  0.520123  0.703803  0.333368  1
  Co  Co4  1  0.000000  0.000000  0.500000  1
  Cu  Cu5  1  0.500000  0.000000  0.000000  1
  P  P6  1  0.396775  0.815357  0.835982  1
  P  P7  1  0.603225  0.184643  0.164018  1
  P  P8  1  0.895966  0.174861  0.661249  1
  P  P9  1  0.104034  0.825139  0.338751  1
  P  P10  1  0.107597  0.545682  0.667013  1
  P  P11  1  0.892403  0.454318  0.332987  1
  P  P12  1  0.604293  0.442079  0.834493  1
  P  P13  1  0.395707  0.557921  0.165507  1
  P  P14  1  0.882348  0.798975  0.014463  1
  P  P15  1  0.117652  0.201025  0.985537  1
  P  P16  1  0.385460  0.205165  0.483405  1
  P  P17  1  0.614540  0.794835  0.516595  1
  O  O18  1  0.782317  0.828916  0.544818  1
  O  O19  1  0.217683  0.171084  0.455182  1
  O  O20  1  0.285655  0.163222  0.957734  1
  O  O21  1  0.714345  0.836778  0.042266  1
  O  O22  1  0.393241  0.235504  0.569794  1
  O  O23  1  0.606759  0.764496  0.430206  1
  O  O24  1  0.892232  0.768424  0.928277  1
  O  O25  1  0.107768  0.231576  0.071723  1
  O  O26  1  0.443575  0.592437  0.823838  1
  O  O27  1  0.556425  0.407563  0.176162  1
  O  O28  1  0.948436  0.395197  0.672679  1
  O  O29  1  0.051564  0.604803  0.327321  1
  O  O30  1  0.259391  0.389821  0.691845  1
  O  O31  1  0.740609  0.610179  0.308155  1
  O  O32  1  0.757118  0.596395  0.813017  1
  O  O33  1  0.242882  0.403605  0.186983  1
  O  O34  1  0.424777  0.996965  0.744923  1
  O  O35  1  0.575223  0.003035  0.255077  1
  O  O36  1  0.923741  0.992803  0.751956  1
  O  O37  1  0.076259  0.007197  0.248044  1
  O  O38  1  0.205522  0.793023  0.849820  1
  O  O39  1  0.794478  0.206977  0.150180  1
  O  O40  1  0.705895  0.203662  0.647265  1
  O  O41  1  0.294105  0.796338  0.352735  1
  O  O42  1  0.127580  0.727509  0.582712  1
  O  O43  1  0.872420  0.272491  0.417288  1
  O  O44  1  0.621066  0.263028  0.920587  1
  O  O45  1  0.378934  0.736972  0.079413  1
  O  O46  1  0.072708  0.619441  0.741814  1
  O  O47  1  0.927292  0.380559  0.258186  1
  O  O48  1  0.578595  0.363496  0.760374  1
  O  O49  1  0.421405  0.636504  0.239626  1
  O  O50  1  0.495070  0.844602  0.903973  1
  O  O51  1  0.504930  0.155398  0.096027  1
  O  O52  1  0.990719  0.141026  0.592650  1
  O  O53  1  0.009281  0.858974  0.407350  1
  O  O54  1  0.970810  0.602220  0.083052  1
  O  O55  1  0.029190  0.397780  0.916948  1
  O  O56  1  0.476809  0.399918  0.415123  1
  O  O57  1  0.523191  0.600082  0.584877  1
  O  O58  1  0.500000  0.000000  0.500000  1
  O  O59  1  0.000000  0.000000  0.000000  1
