# generated using pymatgen
data_Dy4Er5Tm3Co5Bi
_symmetry_space_group_name_H-M   'P 1'
_cell_length_a   8.25577363
_cell_length_b   8.25856759
_cell_length_c   8.25856733
_cell_angle_alpha   110.86253025
_cell_angle_beta   110.72984476
_cell_angle_gamma   106.86567743
_symmetry_Int_Tables_number   1
_chemical_formula_structural   Dy4Er5Tm3Co5Bi
_chemical_formula_sum   'Dy4 Er5 Tm3 Co5 Bi1'
_cell_volume   432.71410246
_cell_formula_units_Z   1
loop_
 _symmetry_equiv_pos_site_id
 _symmetry_equiv_pos_as_xyz
  1  'x, y, z'
loop_
 _atom_site_type_symbol
 _atom_site_label
 _atom_site_symmetry_multiplicity
 _atom_site_fract_x
 _atom_site_fract_y
 _atom_site_fract_z
 _atom_site_occupancy
  Dy  Dy0  1  0.288124  0.184999  0.472569  1
  Dy  Dy1  1  0.711953  0.815456  0.527800  1
  Dy  Dy2  1  0.288124  0.815555  0.103126  1
  Dy  Dy3  1  0.711953  0.184153  0.896496  1
  Er  Er4  1  0.998005  0.688196  0.309812  1
  Er  Er5  1  0.208474  0.402349  0.194308  1
  Er  Er6  1  0.791604  0.597299  0.805334  1
  Er  Er7  1  0.208474  0.014164  0.806125  1
  Er  Er8  1  0.791604  0.986271  0.194305  1
  Tm  Tm9  1  0.622833  0.312026  0.310807  1
  Tm  Tm10  1  0.377158  0.687694  0.689464  1
  Tm  Tm11  1  0.001452  0.312148  0.689302  1
  Co  Co12  1  0.000008  0.375248  0.375711  1
  Co  Co13  1  0.000008  0.624296  0.624759  1
  Co  Co14  1  0.388191  0.888027  0.500164  1
  Co  Co15  1  0.612235  0.112287  0.499947  1
  Co  Co16  1  0.000056  0.999958  0.000098  1
  Bi  Bi17  1  0.499747  0.499873  0.999873  1
