# generated using pymatgen
data_Nd2Th(ZnPt)4
_symmetry_space_group_name_H-M   'P 1'
_cell_length_a   8.41649312
_cell_length_b   8.41649442
_cell_length_c   8.41649258
_cell_angle_alpha   152.03348858
_cell_angle_beta   125.72473462
_cell_angle_gamma   62.15289754
_symmetry_Int_Tables_number   1
_chemical_formula_structural   Nd2Th(ZnPt)4
_chemical_formula_sum   'Nd2 Th1 Zn4 Pt4'
_cell_volume   225.12536127
_cell_formula_units_Z   1
loop_
 _symmetry_equiv_pos_site_id
 _symmetry_equiv_pos_as_xyz
  1  'x, y, z'
loop_
 _atom_site_type_symbol
 _atom_site_label
 _atom_site_symmetry_multiplicity
 _atom_site_fract_x
 _atom_site_fract_y
 _atom_site_fract_z
 _atom_site_occupancy
  Nd  Nd0  1  0.500815  0.000815  0.500000  1
  Nd  Nd1  1  0.871679  0.871679  0.000000  1
  Th  Th2  1  0.123302  0.123302  0.000000  1
  Zn  Zn3  1  0.480512  0.674838  0.805675  1
  Zn  Zn4  1  0.869163  0.674838  0.194325  1
  Zn  Zn5  1  0.130400  0.327303  0.803097  1
  Zn  Zn6  1  0.524208  0.327303  0.196903  1
  Pt  Pt7  1  0.276247  0.776247  0.500000  1
  Pt  Pt8  1  0.718312  0.218312  0.500000  1
  Pt  Pt9  1  0.807330  0.502680  0.304649  1
  Pt  Pt10  1  0.198030  0.502680  0.695351  1
