# generated using pymatgen
data_Y2Ni6Ir
_symmetry_space_group_name_H-M   'P 1'
_cell_length_a   4.95004122
_cell_length_b   5.00657601
_cell_length_c   12.61186922
_cell_angle_alpha   78.47435132
_cell_angle_beta   78.68251855
_cell_angle_gamma   60.37283866
_symmetry_Int_Tables_number   1
_chemical_formula_structural   Y2Ni6Ir
_chemical_formula_sum   'Y4 Ni12 Ir2'
_cell_volume   264.46590790
_cell_formula_units_Z   2
loop_
 _symmetry_equiv_pos_site_id
 _symmetry_equiv_pos_as_xyz
  1  'x, y, z'
loop_
 _atom_site_type_symbol
 _atom_site_label
 _atom_site_symmetry_multiplicity
 _atom_site_fract_x
 _atom_site_fract_y
 _atom_site_fract_z
 _atom_site_occupancy
  Y  Y0  1  0.950903  0.947375  0.150820  1
  Y  Y1  1  0.049097  0.052625  0.849180  1
  Y  Y2  1  0.853263  0.853479  0.439995  1
  Y  Y3  1  0.146737  0.146521  0.560005  1
  Ni  Ni4  1  0.724528  0.716909  0.834036  1
  Ni  Ni5  1  0.275472  0.283091  0.165964  1
  Ni  Ni6  1  0.616670  0.600983  0.165677  1
  Ni  Ni7  1  0.383330  0.399017  0.834323  1
  Ni  Ni8  1  0.000000  0.500000  0.000000  1
  Ni  Ni9  1  0.500000  0.500000  0.000000  1
  Ni  Ni10  1  0.389869  0.389685  0.326395  1
  Ni  Ni11  1  0.894050  0.389685  0.326395  1
  Ni  Ni12  1  0.390843  0.893632  0.324681  1
  Ni  Ni13  1  0.610131  0.610315  0.673605  1
  Ni  Ni14  1  0.105950  0.610315  0.673605  1
  Ni  Ni15  1  0.609157  0.106368  0.675319  1
  Ir  Ir16  1  0.500000  0.500000  0.500000  1
  Ir  Ir17  1  0.500000  0.000000  0.000000  1
