# generated using pymatgen
data_DyHo15Cd4TcNi3
_symmetry_space_group_name_H-M   'P 1'
_cell_length_a   9.54934745
_cell_length_b   9.54934822
_cell_length_c   9.54934800
_cell_angle_alpha   59.41637153
_cell_angle_beta   59.41636967
_cell_angle_gamma   59.41637093
_symmetry_Int_Tables_number   1
_chemical_formula_structural   DyHo15Cd4TcNi3
_chemical_formula_sum   'Dy1 Ho15 Cd4 Tc1 Ni3'
_cell_volume   607.57525001
_cell_formula_units_Z   1
loop_
 _symmetry_equiv_pos_site_id
 _symmetry_equiv_pos_as_xyz
  1  'x, y, z'
loop_
 _atom_site_type_symbol
 _atom_site_label
 _atom_site_symmetry_multiplicity
 _atom_site_fract_x
 _atom_site_fract_y
 _atom_site_fract_z
 _atom_site_occupancy
  Dy  Dy0  1  0.347126  0.347126  0.347126  1
  Ho  Ho1  1  0.352216  0.352216  0.953184  1
  Ho  Ho2  1  0.352216  0.953184  0.352216  1
  Ho  Ho3  1  0.953184  0.352216  0.352216  1
  Ho  Ho4  1  0.810737  0.187556  0.187556  1
  Ho  Ho5  1  0.187364  0.811043  0.811043  1
  Ho  Ho6  1  0.187556  0.810737  0.187556  1
  Ho  Ho7  1  0.811043  0.187364  0.811043  1
  Ho  Ho8  1  0.187556  0.187556  0.810737  1
  Ho  Ho9  1  0.811043  0.811043  0.187364  1
  Ho  Ho10  1  0.935897  0.565660  0.565660  1
  Ho  Ho11  1  0.555430  0.939260  0.939260  1
  Ho  Ho12  1  0.565660  0.935897  0.565660  1
  Ho  Ho13  1  0.939260  0.555430  0.939260  1
  Ho  Ho14  1  0.565660  0.565660  0.935897  1
  Ho  Ho15  1  0.939260  0.939260  0.555430  1
  Cd  Cd16  1  0.579831  0.579831  0.579831  1
  Cd  Cd17  1  0.579760  0.579760  0.255746  1
  Cd  Cd18  1  0.579760  0.255746  0.579760  1
  Cd  Cd19  1  0.255746  0.579760  0.579760  1
  Tc  Tc20  1  0.143945  0.143945  0.143945  1
  Ni  Ni21  1  0.142087  0.142087  0.575574  1
  Ni  Ni22  1  0.142087  0.575574  0.142087  1
  Ni  Ni23  1  0.575574  0.142087  0.142087  1
