# generated using pymatgen
data_Pr3Er7(SiSb)4
_symmetry_space_group_name_H-M   'P 1'
_cell_length_a   8.81669352
_cell_length_b   8.27094700
_cell_length_c   7.89999048
_cell_angle_alpha   89.52960748
_cell_angle_beta   89.88895103
_cell_angle_gamma   125.22593738
_symmetry_Int_Tables_number   1
_chemical_formula_structural   Pr3Er7(SiSb)4
_chemical_formula_sum   'Pr3 Er7 Si4 Sb4'
_cell_volume   470.56404325
_cell_formula_units_Z   1
loop_
 _symmetry_equiv_pos_site_id
 _symmetry_equiv_pos_as_xyz
  1  'x, y, z'
loop_
 _atom_site_type_symbol
 _atom_site_label
 _atom_site_symmetry_multiplicity
 _atom_site_fract_x
 _atom_site_fract_y
 _atom_site_fract_z
 _atom_site_occupancy
  Pr  Pr0  1  0.056584  0.335916  0.322484  1
  Pr  Pr1  1  0.945495  0.671443  0.677989  1
  Pr  Pr2  1  0.443143  0.166528  0.825566  1
  Er  Er3  1  0.770242  0.528865  0.162879  1
  Er  Er4  1  0.555453  0.817836  0.169683  1
  Er  Er5  1  0.227743  0.470983  0.835241  1
  Er  Er6  1  0.732541  0.972233  0.660308  1
  Er  Er7  1  0.269186  0.031766  0.338499  1
  Er  Er8  1  0.998559  0.998222  0.001003  1
  Er  Er9  1  0.500447  0.502271  0.499311  1
  Si  Si10  1  0.373376  0.375063  0.126812  1
  Si  Si11  1  0.626840  0.629617  0.874321  1
  Si  Si12  1  0.132175  0.133821  0.631133  1
  Si  Si13  1  0.864382  0.869872  0.363616  1
  Sb  Sb14  1  0.811836  0.223434  0.973376  1
  Sb  Sb15  1  0.185030  0.762335  0.039632  1
  Sb  Sb16  1  0.681683  0.270041  0.471559  1
  Sb  Sb17  1  0.325286  0.739754  0.526589  1
