# generated using pymatgen
data_Yb(FeBr4)2
_symmetry_space_group_name_H-M   'P 1'
_cell_length_a   7.59903600
_cell_length_b   7.80856229
_cell_length_c   14.24968570
_cell_angle_alpha   87.46328411
_cell_angle_beta   90.00000000
_cell_angle_gamma   90.00000000
_symmetry_Int_Tables_number   1
_chemical_formula_structural   Yb(FeBr4)2
_chemical_formula_sum   'Yb2 Fe4 Br16'
_cell_volume   844.71280410
_cell_formula_units_Z   2
loop_
 _symmetry_equiv_pos_site_id
 _symmetry_equiv_pos_as_xyz
  1  'x, y, z'
loop_
 _atom_site_type_symbol
 _atom_site_label
 _atom_site_symmetry_multiplicity
 _atom_site_fract_x
 _atom_site_fract_y
 _atom_site_fract_z
 _atom_site_occupancy
  Yb  Yb0  1  0.753913  0.074280  0.812582  1
  Yb  Yb1  1  0.246087  0.074280  0.312582  1
  Fe  Fe2  1  0.934346  0.217941  0.579920  1
  Fe  Fe3  1  0.065654  0.217941  0.079920  1
  Fe  Fe4  1  0.572566  0.641172  0.780326  1
  Fe  Fe5  1  0.427434  0.641172  0.280326  1
  Br  Br6  1  0.426928  0.616036  0.640742  1
  Br  Br7  1  0.573072  0.616036  0.140742  1
  Br  Br8  1  0.869191  0.734229  0.758018  1
  Br  Br9  1  0.130809  0.734229  0.258018  1
  Br  Br10  1  0.938169  0.476585  0.497713  1
  Br  Br11  1  0.061831  0.476585  0.997713  1
  Br  Br12  1  0.918749  0.000540  0.995748  1
  Br  Br13  1  0.081251  0.000540  0.495748  1
  Br  Br14  1  0.640613  0.129851  0.617151  1
  Br  Br15  1  0.359387  0.129851  0.117151  1
  Br  Br16  1  0.566114  0.376839  0.873206  1
  Br  Br17  1  0.433886  0.376839  0.373206  1
  Br  Br18  1  0.445019  0.868332  0.865067  1
  Br  Br19  1  0.554981  0.868332  0.365067  1
  Br  Br20  1  0.931942  0.231594  0.231729  1
  Br  Br21  1  0.068058  0.231594  0.731729  1
