# generated using pymatgen
data_Dy7Lu(Ga3Pt)4
_symmetry_space_group_name_H-M   'P 1'
_cell_length_a   8.86664418
_cell_length_b   8.88861231
_cell_length_c   7.04840300
_cell_angle_alpha   90.00000000
_cell_angle_beta   90.00000000
_cell_angle_gamma   120.08373159
_symmetry_Int_Tables_number   1
_chemical_formula_structural   Dy7Lu(Ga3Pt)4
_chemical_formula_sum   'Dy7 Lu1 Ga12 Pt4'
_cell_volume   480.67059582
_cell_formula_units_Z   1
loop_
 _symmetry_equiv_pos_site_id
 _symmetry_equiv_pos_as_xyz
  1  'x, y, z'
loop_
 _atom_site_type_symbol
 _atom_site_label
 _atom_site_symmetry_multiplicity
 _atom_site_fract_x
 _atom_site_fract_y
 _atom_site_fract_z
 _atom_site_occupancy
  Dy  Dy0  1  0.000259  0.999979  0.250000  1
  Dy  Dy1  1  0.999658  0.999978  0.750000  1
  Dy  Dy2  1  0.519874  0.039965  0.250000  1
  Dy  Dy3  1  0.519783  0.480080  0.250000  1
  Dy  Dy4  1  0.960584  0.480333  0.250000  1
  Dy  Dy5  1  0.479704  0.959679  0.750000  1
  Dy  Dy6  1  0.479793  0.519853  0.750000  1
  Lu  Lu7  1  0.040586  0.520239  0.750000  1
  Ga  Ga8  1  0.166607  0.334021  0.046318  1
  Ga  Ga9  1  0.166783  0.832527  0.453695  1
  Ga  Ga10  1  0.665475  0.832796  0.452915  1
  Ga  Ga11  1  0.665475  0.832796  0.047085  1
  Ga  Ga12  1  0.166783  0.832527  0.046305  1
  Ga  Ga13  1  0.833709  0.665622  0.952113  1
  Ga  Ga14  1  0.833533  0.168149  0.952127  1
  Ga  Ga15  1  0.334456  0.167169  0.953153  1
  Ga  Ga16  1  0.166607  0.334021  0.453682  1
  Ga  Ga17  1  0.334456  0.167169  0.546847  1
  Ga  Ga18  1  0.833709  0.665622  0.547887  1
  Ga  Ga19  1  0.833533  0.168149  0.547873  1
  Pt  Pt20  1  0.331536  0.665664  0.028691  1
  Pt  Pt21  1  0.331536  0.665664  0.471309  1
  Pt  Pt22  1  0.667781  0.333999  0.968545  1
  Pt  Pt23  1  0.667781  0.333999  0.531455  1
