# generated using pymatgen
data_TbBiPt2F14
_symmetry_space_group_name_H-M   'P 1'
_cell_length_a   5.58828735
_cell_length_b   9.08010492
_cell_length_c   12.16948216
_cell_angle_alpha   61.87392448
_cell_angle_beta   90.04325568
_cell_angle_gamma   89.86116653
_symmetry_Int_Tables_number   1
_chemical_formula_structural   TbBiPt2F14
_chemical_formula_sum   'Tb2 Bi2 Pt4 F28'
_cell_volume   544.58399196
_cell_formula_units_Z   2
loop_
 _symmetry_equiv_pos_site_id
 _symmetry_equiv_pos_as_xyz
  1  'x, y, z'
loop_
 _atom_site_type_symbol
 _atom_site_label
 _atom_site_symmetry_multiplicity
 _atom_site_fract_x
 _atom_site_fract_y
 _atom_site_fract_z
 _atom_site_occupancy
  Tb  Tb0  1  0.760093  0.190661  0.236565  1
  Tb  Tb1  1  0.239907  0.809339  0.763435  1
  Bi  Bi2  1  0.264144  0.819817  0.262530  1
  Bi  Bi3  1  0.735856  0.180183  0.737470  1
  Pt  Pt4  1  0.758449  0.725331  0.040290  1
  Pt  Pt5  1  0.241551  0.274669  0.959710  1
  Pt  Pt6  1  0.258692  0.269441  0.457265  1
  Pt  Pt7  1  0.741308  0.730559  0.542735  1
  F  F8  1  0.931903  0.708070  0.415797  1
  F  F9  1  0.068097  0.291930  0.584203  1
  F  F10  1  0.436508  0.293160  0.088472  1
  F  F11  1  0.563492  0.706840  0.911528  1
  F  F12  1  0.466202  0.725907  0.129678  1
  F  F13  1  0.533798  0.274093  0.870322  1
  F  F14  1  0.967304  0.269803  0.365240  1
  F  F15  1  0.032696  0.730197  0.634760  1
  F  F16  1  0.943973  0.738784  0.172815  1
  F  F17  1  0.056027  0.261216  0.827185  1
  F  F18  1  0.448789  0.254787  0.325507  1
  F  F19  1  0.551211  0.745213  0.674493  1
  F  F20  1  0.769284  0.479933  0.138046  1
  F  F21  1  0.230716  0.520067  0.861954  1
  F  F22  1  0.267434  0.513789  0.359520  1
  F  F23  1  0.732566  0.486211  0.640480  1
  F  F24  1  0.942784  0.280012  0.045533  1
  F  F25  1  0.057216  0.719988  0.954467  1
  F  F26  1  0.441847  0.720433  0.460469  1
  F  F27  1  0.558153  0.279567  0.539531  1
  F  F28  1  0.740324  0.977304  0.446799  1
  F  F29  1  0.259676  0.022696  0.553201  1
  F  F30  1  0.241663  0.028289  0.049741  1
  F  F31  1  0.758337  0.971711  0.950259  1
  F  F32  1  0.594384  0.973441  0.230024  1
  F  F33  1  0.405616  0.026559  0.769976  1
  F  F34  1  0.092452  0.035674  0.269315  1
  F  F35  1  0.907548  0.964326  0.730685  1
