# generated using pymatgen
data_Dy4MnOs7
_symmetry_space_group_name_H-M   'P 1'
_cell_length_a   5.33914500
_cell_length_b   5.33914644
_cell_length_c   8.76669600
_cell_angle_alpha   90.00000000
_cell_angle_beta   90.00000000
_cell_angle_gamma   120.00000967
_symmetry_Int_Tables_number   1
_chemical_formula_structural   Dy4MnOs7
_chemical_formula_sum   'Dy4 Mn1 Os7'
_cell_volume   216.42632470
_cell_formula_units_Z   1
loop_
 _symmetry_equiv_pos_site_id
 _symmetry_equiv_pos_as_xyz
  1  'x, y, z'
loop_
 _atom_site_type_symbol
 _atom_site_label
 _atom_site_symmetry_multiplicity
 _atom_site_fract_x
 _atom_site_fract_y
 _atom_site_fract_z
 _atom_site_occupancy
  Dy  Dy0  1  0.333333  0.666667  0.431497  1
  Dy  Dy1  1  0.666667  0.333333  0.568503  1
  Dy  Dy2  1  0.666667  0.333333  0.935069  1
  Dy  Dy3  1  0.333333  0.666667  0.064931  1
  Mn  Mn4  1  0.000000  0.000000  0.500000  1
  Os  Os5  1  0.000000  0.000000  0.000000  1
  Os  Os6  1  0.829306  0.170694  0.252437  1
  Os  Os7  1  0.829306  0.658612  0.252437  1
  Os  Os8  1  0.341388  0.170694  0.252437  1
  Os  Os9  1  0.170694  0.829306  0.747563  1
  Os  Os10  1  0.170694  0.341388  0.747563  1
  Os  Os11  1  0.658612  0.829306  0.747563  1
