# generated using pymatgen
data_Na3Yb2NpO6
_symmetry_space_group_name_H-M   'P 1'
_cell_length_a   5.88272466
_cell_length_b   5.98121609
_cell_length_c   5.88272300
_cell_angle_alpha   80.27886597
_cell_angle_beta   119.92810158
_cell_angle_gamma   80.27851933
_symmetry_Int_Tables_number   1
_chemical_formula_structural   Na3Yb2NpO6
_chemical_formula_sum   'Na3 Yb2 Np1 O6'
_cell_volume   168.87161211
_cell_formula_units_Z   1
loop_
 _symmetry_equiv_pos_site_id
 _symmetry_equiv_pos_as_xyz
  1  'x, y, z'
loop_
 _atom_site_type_symbol
 _atom_site_label
 _atom_site_symmetry_multiplicity
 _atom_site_fract_x
 _atom_site_fract_y
 _atom_site_fract_z
 _atom_site_occupancy
  Na  Na0  1  0.500055  0.500048  0.500057  1
  Na  Na1  1  0.832661  0.500034  0.167173  1
  Na  Na2  1  0.167348  0.499989  0.832828  1
  Yb  Yb3  1  0.332565  0.000007  0.667512  1
  Yb  Yb4  1  0.667387  0.000028  0.332451  1
  Np  Np5  1  0.000084  0.000031  0.000060  1
  O  O6  1  0.234423  0.203936  0.234460  1
  O  O7  1  0.765438  0.795892  0.765399  1
  O  O8  1  0.382110  0.787698  0.071788  1
  O  O9  1  0.071733  0.787803  0.381985  1
  O  O10  1  0.928297  0.212201  0.618063  1
  O  O11  1  0.617899  0.212333  0.928227  1
