# generated using pymatgen
data_La2BeSi3
_symmetry_space_group_name_H-M   'P 1'
_cell_length_a   7.99274200
_cell_length_b   7.99274146
_cell_length_c   4.47455800
_cell_angle_alpha   90.00000000
_cell_angle_beta   90.00000000
_cell_angle_gamma   120.00000221
_symmetry_Int_Tables_number   1
_chemical_formula_structural   La2BeSi3
_chemical_formula_sum   'La4 Be2 Si6'
_cell_volume   247.55535416
_cell_formula_units_Z   2
loop_
 _symmetry_equiv_pos_site_id
 _symmetry_equiv_pos_as_xyz
  1  'x, y, z'
loop_
 _atom_site_type_symbol
 _atom_site_label
 _atom_site_symmetry_multiplicity
 _atom_site_fract_x
 _atom_site_fract_y
 _atom_site_fract_z
 _atom_site_occupancy
  La  La0  1  0.000000  0.000000  0.500000  1
  La  La1  1  0.000000  0.500000  0.500000  1
  La  La2  1  0.500000  0.500000  0.500000  1
  La  La3  1  0.500000  0.000000  0.500000  1
  Be  Be4  1  0.333333  0.666667  0.000000  1
  Be  Be5  1  0.666667  0.333333  0.000000  1
  Si  Si6  1  0.172086  0.344173  0.000000  1
  Si  Si7  1  0.655827  0.827914  0.000000  1
  Si  Si8  1  0.344173  0.172086  0.000000  1
  Si  Si9  1  0.172086  0.827914  0.000000  1
  Si  Si10  1  0.827914  0.655827  0.000000  1
  Si  Si11  1  0.827914  0.172086  0.000000  1
