# generated using pymatgen
data_Tb3P6(Pd4Rh)4
_symmetry_space_group_name_H-M   'P 1'
_cell_length_a   8.68997876
_cell_length_b   8.71228830
_cell_length_c   8.71229000
_cell_angle_alpha   59.81311582
_cell_angle_beta   59.73536844
_cell_angle_gamma   59.73536268
_symmetry_Int_Tables_number   1
_chemical_formula_structural   Tb3P6(Pd4Rh)4
_chemical_formula_sum   'Tb3 P6 Pd16 Rh4'
_cell_volume   463.88175333
_cell_formula_units_Z   1
loop_
 _symmetry_equiv_pos_site_id
 _symmetry_equiv_pos_as_xyz
  1  'x, y, z'
loop_
 _atom_site_type_symbol
 _atom_site_label
 _atom_site_symmetry_multiplicity
 _atom_site_fract_x
 _atom_site_fract_y
 _atom_site_fract_z
 _atom_site_occupancy
  Tb  Tb0  1  0.260187  0.247712  0.247712  1
  Tb  Tb1  1  0.743616  0.747004  0.747004  1
  Tb  Tb2  1  0.999648  0.000115  0.000115  1
  P  P3  1  0.729160  0.266086  0.266086  1
  P  P4  1  0.277777  0.726668  0.726668  1
  P  P5  1  0.270630  0.729489  0.269347  1
  P  P6  1  0.726493  0.273273  0.734295  1
  P  P7  1  0.270630  0.269347  0.729489  1
  P  P8  1  0.726493  0.734295  0.273273  1
  Pd  Pd9  1  0.619607  0.615412  0.151265  1
  Pd  Pd10  1  0.619607  0.151265  0.615412  1
  Pd  Pd11  1  0.852282  0.381232  0.381232  1
  Pd  Pd12  1  0.147313  0.618127  0.618127  1
  Pd  Pd13  1  0.341269  0.002484  0.002484  1
  Pd  Pd14  1  0.655336  0.000134  0.000134  1
  Pd  Pd15  1  0.998869  0.345668  0.657236  1
  Pd  Pd16  1  0.998869  0.657236  0.345668  1
  Pd  Pd17  1  0.000263  0.344573  0.001268  1
  Pd  Pd18  1  0.654634  0.999120  0.347244  1
  Pd  Pd19  1  0.999302  0.657289  0.000410  1
  Pd  Pd20  1  0.342334  0.000743  0.656814  1
  Pd  Pd21  1  0.000263  0.001268  0.344573  1
  Pd  Pd22  1  0.999302  0.000410  0.657289  1
  Pd  Pd23  1  0.654634  0.347244  0.999120  1
  Pd  Pd24  1  0.342334  0.656814  0.000743  1
  Rh  Rh25  1  0.386186  0.387482  0.387482  1
  Rh  Rh26  1  0.616342  0.611533  0.611533  1
  Rh  Rh27  1  0.383307  0.384668  0.843310  1
  Rh  Rh28  1  0.383307  0.843310  0.384668  1
