# generated using pymatgen
data_ErTm7Re(B8Ru)3
_symmetry_space_group_name_H-M   'P 1'
_cell_length_a   3.62841300
_cell_length_b   9.07552968
_cell_length_c   11.45320901
_cell_angle_alpha   90.12415592
_cell_angle_beta   90.00000000
_cell_angle_gamma   90.00000000
_symmetry_Int_Tables_number   1
_chemical_formula_structural   ErTm7Re(B8Ru)3
_chemical_formula_sum   'Er1 Tm7 Re1 B24 Ru3'
_cell_volume   377.15065155
_cell_formula_units_Z   1
loop_
 _symmetry_equiv_pos_site_id
 _symmetry_equiv_pos_as_xyz
  1  'x, y, z'
loop_
 _atom_site_type_symbol
 _atom_site_label
 _atom_site_symmetry_multiplicity
 _atom_site_fract_x
 _atom_site_fract_y
 _atom_site_fract_z
 _atom_site_occupancy
  Er  Er0  1  0.000000  0.322765  0.415064  1
  Tm  Tm1  1  0.000000  0.680731  0.588022  1
  Tm  Tm2  1  0.000000  0.822040  0.083282  1
  Tm  Tm3  1  0.000000  0.176769  0.913484  1
  Tm  Tm4  1  0.000000  0.942991  0.371363  1
  Tm  Tm5  1  0.000000  0.056492  0.627626  1
  Tm  Tm6  1  0.000000  0.442531  0.128193  1
  Tm  Tm7  1  0.000000  0.556009  0.872690  1
  Re  Re8  1  0.000000  0.862723  0.821223  1
  B  B9  1  0.500000  0.554031  0.433752  1
  B  B10  1  0.500000  0.446690  0.566817  1
  B  B11  1  0.500000  0.053430  0.066986  1
  B  B12  1  0.500000  0.947416  0.933780  1
  B  B13  1  0.500000  0.748988  0.419903  1
  B  B14  1  0.500000  0.251365  0.580103  1
  B  B15  1  0.500000  0.248517  0.080296  1
  B  B16  1  0.500000  0.750651  0.919807  1
  B  B17  1  0.500000  0.791004  0.265385  1
  B  B18  1  0.500000  0.208732  0.733673  1
  B  B19  1  0.500000  0.291287  0.234410  1
  B  B20  1  0.500000  0.707640  0.765533  1
  B  B21  1  0.500000  0.630672  0.184651  1
  B  B22  1  0.500000  0.368646  0.815029  1
  B  B23  1  0.500000  0.131196  0.315378  1
  B  B24  1  0.500000  0.869098  0.684696  1
  B  B25  1  0.500000  0.982217  0.212517  1
  B  B26  1  0.500000  0.018996  0.787257  1
  B  B27  1  0.500000  0.482510  0.287820  1
  B  B28  1  0.500000  0.517616  0.712764  1
  B  B29  1  0.500000  0.604574  0.029749  1
  B  B30  1  0.500000  0.393199  0.971021  1
  B  B31  1  0.500000  0.106057  0.470238  1
  B  B32  1  0.500000  0.894559  0.528507  1
  Ru  Ru33  1  0.000000  0.637914  0.320927  1
  Ru  Ru34  1  0.000000  0.362410  0.678692  1
  Ru  Ru35  1  0.000000  0.137532  0.179363  1
