# generated using pymatgen
data_Hf6InCoPb
_symmetry_space_group_name_H-M   'P 1'
_cell_length_a   8.03385700
_cell_length_b   8.03385653
_cell_length_c   3.42372900
_cell_angle_alpha   90.00000000
_cell_angle_beta   90.00000000
_cell_angle_gamma   119.99999781
_symmetry_Int_Tables_number   1
_chemical_formula_structural   Hf6InCoPb
_chemical_formula_sum   'Hf6 In1 Co1 Pb1'
_cell_volume   191.37191015
_cell_formula_units_Z   1
loop_
 _symmetry_equiv_pos_site_id
 _symmetry_equiv_pos_as_xyz
  1  'x, y, z'
loop_
 _atom_site_type_symbol
 _atom_site_label
 _atom_site_symmetry_multiplicity
 _atom_site_fract_x
 _atom_site_fract_y
 _atom_site_fract_z
 _atom_site_occupancy
  Hf  Hf0  1  0.616632  0.002309  0.500000  1
  Hf  Hf1  1  0.385678  0.383368  0.500000  1
  Hf  Hf2  1  0.997691  0.614322  0.500000  1
  Hf  Hf3  1  0.238970  0.001809  0.000000  1
  Hf  Hf4  1  0.762841  0.761030  0.000000  1
  Hf  Hf5  1  0.998191  0.237159  0.000000  1
  In  In6  1  0.666667  0.333333  0.000000  1
  Co  Co7  1  0.000000  0.000000  0.500000  1
  Pb  Pb8  1  0.333333  0.666667  0.000000  1
