# generated using pymatgen
data_PrSc(NiSn)2
_symmetry_space_group_name_H-M   'P 1'
_cell_length_a   4.47267000
_cell_length_b   7.16035075
_cell_length_c   7.71251015
_cell_angle_alpha   89.71407832
_cell_angle_beta   90.00000000
_cell_angle_gamma   90.00000000
_symmetry_Int_Tables_number   1
_chemical_formula_structural   PrSc(NiSn)2
_chemical_formula_sum   'Pr2 Sc2 Ni4 Sn4'
_cell_volume   246.99689526
_cell_formula_units_Z   2
loop_
 _symmetry_equiv_pos_site_id
 _symmetry_equiv_pos_as_xyz
  1  'x, y, z'
loop_
 _atom_site_type_symbol
 _atom_site_label
 _atom_site_symmetry_multiplicity
 _atom_site_fract_x
 _atom_site_fract_y
 _atom_site_fract_z
 _atom_site_occupancy
  Pr  Pr0  1  0.750000  0.996208  0.743590  1
  Pr  Pr1  1  0.250000  0.003792  0.256410  1
  Sc  Sc2  1  0.750000  0.498951  0.759067  1
  Sc  Sc3  1  0.250000  0.501049  0.240933  1
  Ni  Ni4  1  0.750000  0.678038  0.418470  1
  Ni  Ni5  1  0.250000  0.321962  0.581530  1
  Ni  Ni6  1  0.750000  0.312944  0.080631  1
  Ni  Ni7  1  0.250000  0.687056  0.919369  1
  Sn  Sn8  1  0.750000  0.724722  0.085986  1
  Sn  Sn9  1  0.250000  0.275278  0.914014  1
  Sn  Sn10  1  0.750000  0.293475  0.416536  1
  Sn  Sn11  1  0.250000  0.706525  0.583464  1
