# generated using pymatgen
data_BaFeNi(Sb6Os)2
_symmetry_space_group_name_H-M   'P 1'
_cell_length_a   8.13755204
_cell_length_b   8.08639618
_cell_length_c   8.09521425
_cell_angle_alpha   109.16865467
_cell_angle_beta   109.58656511
_cell_angle_gamma   109.44069169
_symmetry_Int_Tables_number   1
_chemical_formula_structural   BaFeNi(Sb6Os)2
_chemical_formula_sum   'Ba1 Fe1 Ni1 Sb12 Os2'
_cell_volume   411.16147348
_cell_formula_units_Z   1
loop_
 _symmetry_equiv_pos_site_id
 _symmetry_equiv_pos_as_xyz
  1  'x, y, z'
loop_
 _atom_site_type_symbol
 _atom_site_label
 _atom_site_symmetry_multiplicity
 _atom_site_fract_x
 _atom_site_fract_y
 _atom_site_fract_z
 _atom_site_occupancy
  Ba  Ba0  1  0.000000  0.000000  0.000000  1
  Fe  Fe1  1  0.500000  0.500000  0.500000  1
  Ni  Ni2  1  0.500000  0.000000  0.000000  1
  Sb  Sb3  1  0.831985  0.655260  0.499423  1
  Sb  Sb4  1  0.168015  0.344740  0.500577  1
  Sb  Sb5  1  0.160016  0.658852  0.814984  1
  Sb  Sb6  1  0.839984  0.341148  0.185016  1
  Sb  Sb7  1  0.656729  0.499540  0.832908  1
  Sb  Sb8  1  0.343271  0.500460  0.167092  1
  Sb  Sb9  1  0.655447  0.815216  0.156465  1
  Sb  Sb10  1  0.344553  0.184784  0.843535  1
  Sb  Sb11  1  0.499612  0.834752  0.655676  1
  Sb  Sb12  1  0.500388  0.165248  0.344324  1
  Sb  Sb13  1  0.183400  0.841493  0.342552  1
  Sb  Sb14  1  0.816600  0.158507  0.657448  1
  Os  Os15  1  0.000000  0.500000  0.000000  1
  Os  Os16  1  0.000000  0.000000  0.500000  1
