# generated using pymatgen
data_CrI13
_symmetry_space_group_name_H-M   'P 1'
_cell_length_a   12.40642475
_cell_length_b   11.08551868
_cell_length_c   15.12588442
_cell_angle_alpha   120.19338560
_cell_angle_beta   88.61374294
_cell_angle_gamma   108.26411978
_symmetry_Int_Tables_number   1
_chemical_formula_structural   CrI13
_chemical_formula_sum   'Cr2 I26'
_cell_volume   1684.76857872
_cell_formula_units_Z   2
loop_
 _symmetry_equiv_pos_site_id
 _symmetry_equiv_pos_as_xyz
  1  'x, y, z'
loop_
 _atom_site_type_symbol
 _atom_site_label
 _atom_site_symmetry_multiplicity
 _atom_site_fract_x
 _atom_site_fract_y
 _atom_site_fract_z
 _atom_site_occupancy
  Cr  Cr0  1  0.335907  0.871340  0.934365  1
  Cr  Cr1  1  0.664093  0.128660  0.065635  1
  I  I2  1  0.366889  0.663609  0.966392  1
  I  I3  1  0.633111  0.336391  0.033608  1
  I  I4  1  0.563739  0.801224  0.396775  1
  I  I5  1  0.436261  0.198776  0.603225  1
  I  I6  1  0.725993  0.689172  0.001273  1
  I  I7  1  0.274007  0.310828  0.998727  1
  I  I8  1  0.696853  0.960335  0.144774  1
  I  I9  1  0.303147  0.039665  0.855226  1
  I  I10  1  0.447616  0.103331  0.123709  1
  I  I11  1  0.552384  0.896669  0.876291  1
  I  I12  1  0.233310  0.662173  0.731214  1
  I  I13  1  0.766690  0.337827  0.268786  1
  I  I14  1  0.130016  0.839988  0.996218  1
  I  I15  1  0.869984  0.160012  0.003782  1
  I  I16  1  0.108813  0.094626  0.210784  1
  I  I17  1  0.891187  0.905374  0.789216  1
  I  I18  1  0.274641  0.904111  0.453307  1
  I  I19  1  0.725359  0.095889  0.546693  1
  I  I20  1  0.332628  0.424955  0.660176  1
  I  I21  1  0.667372  0.575045  0.339824  1
  I  I22  1  0.864782  0.402942  0.704456  1
  I  I23  1  0.135218  0.597058  0.295544  1
  I  I24  1  0.940511  0.697206  0.603133  1
  I  I25  1  0.059489  0.302794  0.396867  1
  I  I26  1  0.242218  0.626065  0.125320  1
  I  I27  1  0.757782  0.373935  0.874680  1
