# generated using pymatgen
data_Th2Sc2ReB12Mo
_symmetry_space_group_name_H-M   'P 1'
_cell_length_a   3.69813900
_cell_length_b   9.13310730
_cell_length_c   11.59106538
_cell_angle_alpha   89.97067057
_cell_angle_beta   90.00000000
_cell_angle_gamma   90.00000000
_symmetry_Int_Tables_number   1
_chemical_formula_structural   Th2Sc2ReB12Mo
_chemical_formula_sum   'Th4 Sc4 Re2 B24 Mo2'
_cell_volume   391.49398085
_cell_formula_units_Z   2
loop_
 _symmetry_equiv_pos_site_id
 _symmetry_equiv_pos_as_xyz
  1  'x, y, z'
loop_
 _atom_site_type_symbol
 _atom_site_label
 _atom_site_symmetry_multiplicity
 _atom_site_fract_x
 _atom_site_fract_y
 _atom_site_fract_z
 _atom_site_occupancy
  Th  Th0  1  0.000000  0.320474  0.414385  1
  Th  Th1  1  0.000000  0.679526  0.585615  1
  Th  Th2  1  0.000000  0.821332  0.085063  1
  Th  Th3  1  0.000000  0.178668  0.914937  1
  Sc  Sc4  1  0.000000  0.945469  0.372431  1
  Sc  Sc5  1  0.000000  0.054531  0.627569  1
  Sc  Sc6  1  0.000000  0.444917  0.127830  1
  Sc  Sc7  1  0.000000  0.555083  0.872170  1
  Re  Re8  1  0.000000  0.141169  0.182320  1
  Re  Re9  1  0.000000  0.858831  0.817680  1
  B  B10  1  0.500000  0.555568  0.430327  1
  B  B11  1  0.500000  0.444432  0.569673  1
  B  B12  1  0.500000  0.057393  0.070998  1
  B  B13  1  0.500000  0.942607  0.929002  1
  B  B14  1  0.500000  0.755810  0.416819  1
  B  B15  1  0.500000  0.244190  0.583181  1
  B  B16  1  0.500000  0.254097  0.084445  1
  B  B17  1  0.500000  0.745903  0.915555  1
  B  B18  1  0.500000  0.796029  0.265354  1
  B  B19  1  0.500000  0.203971  0.734646  1
  B  B20  1  0.500000  0.293285  0.234103  1
  B  B21  1  0.500000  0.706715  0.765897  1
  B  B22  1  0.500000  0.628112  0.182332  1
  B  B23  1  0.500000  0.371888  0.817668  1
  B  B24  1  0.500000  0.128054  0.315464  1
  B  B25  1  0.500000  0.871946  0.684536  1
  B  B26  1  0.500000  0.983906  0.215309  1
  B  B27  1  0.500000  0.016094  0.784691  1
  B  B28  1  0.500000  0.481514  0.283470  1
  B  B29  1  0.500000  0.518486  0.716530  1
  B  B30  1  0.500000  0.595775  0.025362  1
  B  B31  1  0.500000  0.404225  0.974638  1
  B  B32  1  0.500000  0.095512  0.473903  1
  B  B33  1  0.500000  0.904488  0.526097  1
  Mo  Mo34  1  0.000000  0.641520  0.317160  1
  Mo  Mo35  1  0.000000  0.358480  0.682840  1
