# generated using pymatgen
data_Tb2HoHf(Al3Ir)6
_symmetry_space_group_name_H-M   'P 1'
_cell_length_a   7.53922501
_cell_length_b   7.53089956
_cell_length_c   9.41111800
_cell_angle_alpha   90.00000000
_cell_angle_beta   90.00000000
_cell_angle_gamma   119.54762641
_symmetry_Int_Tables_number   1
_chemical_formula_structural   Tb2HoHf(Al3Ir)6
_chemical_formula_sum   'Tb2 Ho1 Hf1 Al18 Ir6'
_cell_volume   464.84387420
_cell_formula_units_Z   1
loop_
 _symmetry_equiv_pos_site_id
 _symmetry_equiv_pos_as_xyz
  1  'x, y, z'
loop_
 _atom_site_type_symbol
 _atom_site_label
 _atom_site_symmetry_multiplicity
 _atom_site_fract_x
 _atom_site_fract_y
 _atom_site_fract_z
 _atom_site_occupancy
  Tb  Tb0  1  0.005412  0.327268  0.750000  1
  Tb  Tb1  1  0.328926  0.006337  0.750000  1
  Ho  Ho2  1  0.671317  0.995822  0.250000  1
  Hf  Hf3  1  0.997812  0.673721  0.250000  1
  Al  Al4  1  0.125929  0.123572  0.250000  1
  Al  Al5  1  0.870259  0.868970  0.750000  1
  Al  Al6  1  0.000077  0.338012  0.079724  1
  Al  Al7  1  0.998877  0.664795  0.929585  1
  Al  Al8  1  0.998877  0.664795  0.570415  1
  Al  Al9  1  0.332744  0.998241  0.420169  1
  Al  Al10  1  0.000077  0.338012  0.420276  1
  Al  Al11  1  0.664416  0.997809  0.573968  1
  Al  Al12  1  0.664416  0.997809  0.926032  1
  Al  Al13  1  0.332744  0.998241  0.079831  1
  Al  Al14  1  0.333924  0.334078  0.549556  1
  Al  Al15  1  0.669108  0.667056  0.442639  1
  Al  Al16  1  0.669108  0.667056  0.057361  1
  Al  Al17  1  0.333924  0.334078  0.950444  1
  Al  Al18  1  0.336250  0.549631  0.250000  1
  Al  Al19  1  0.660655  0.452403  0.750000  1
  Al  Al20  1  0.555417  0.344439  0.250000  1
  Al  Al21  1  0.451002  0.659363  0.750000  1
  Ir  Ir22  1  0.672803  0.328637  0.001553  1
  Ir  Ir23  1  0.327661  0.672387  0.002344  1
  Ir  Ir24  1  0.327661  0.672387  0.497656  1
  Ir  Ir25  1  0.672803  0.328637  0.498447  1
  Ir  Ir26  1  0.998901  0.998221  0.001955  1
  Ir  Ir27  1  0.998901  0.998221  0.498045  1
