# generated using pymatgen
data_CeScTcB6
_symmetry_space_group_name_H-M   'P 1'
_cell_length_a   3.64394500
_cell_length_b   9.03254100
_cell_length_c   11.43008000
_cell_angle_alpha   90.00000000
_cell_angle_beta   90.00000000
_cell_angle_gamma   90.00000000
_symmetry_Int_Tables_number   1
_chemical_formula_structural   CeScTcB6
_chemical_formula_sum   'Ce4 Sc4 Tc4 B24'
_cell_volume   376.21059741
_cell_formula_units_Z   4
loop_
 _symmetry_equiv_pos_site_id
 _symmetry_equiv_pos_as_xyz
  1  'x, y, z'
loop_
 _atom_site_type_symbol
 _atom_site_label
 _atom_site_symmetry_multiplicity
 _atom_site_fract_x
 _atom_site_fract_y
 _atom_site_fract_z
 _atom_site_occupancy
  Ce  Ce0  1  0.000000  0.321092  0.414462  1
  Ce  Ce1  1  0.000000  0.678908  0.585538  1
  Ce  Ce2  1  0.000000  0.821092  0.085538  1
  Ce  Ce3  1  0.000000  0.178908  0.914462  1
  Sc  Sc4  1  0.000000  0.945282  0.372986  1
  Sc  Sc5  1  0.000000  0.054718  0.627014  1
  Sc  Sc6  1  0.000000  0.445282  0.127014  1
  Sc  Sc7  1  0.000000  0.554718  0.872986  1
  Tc  Tc8  1  0.000000  0.640951  0.318426  1
  Tc  Tc9  1  0.000000  0.359049  0.681574  1
  Tc  Tc10  1  0.000000  0.140951  0.181574  1
  Tc  Tc11  1  0.000000  0.859049  0.818426  1
  B  B12  1  0.500000  0.555604  0.431323  1
  B  B13  1  0.500000  0.444396  0.568677  1
  B  B14  1  0.500000  0.055604  0.068677  1
  B  B15  1  0.500000  0.944396  0.931323  1
  B  B16  1  0.500000  0.753595  0.417942  1
  B  B17  1  0.500000  0.246405  0.582058  1
  B  B18  1  0.500000  0.253595  0.082058  1
  B  B19  1  0.500000  0.746405  0.917942  1
  B  B20  1  0.500000  0.794161  0.265336  1
  B  B21  1  0.500000  0.205839  0.734664  1
  B  B22  1  0.500000  0.294161  0.234664  1
  B  B23  1  0.500000  0.705839  0.765336  1
  B  B24  1  0.500000  0.629165  0.183500  1
  B  B25  1  0.500000  0.370835  0.816500  1
  B  B26  1  0.500000  0.129165  0.316500  1
  B  B27  1  0.500000  0.870835  0.683500  1
  B  B28  1  0.500000  0.982502  0.214462  1
  B  B29  1  0.500000  0.017498  0.785538  1
  B  B30  1  0.500000  0.482502  0.285538  1
  B  B31  1  0.500000  0.517498  0.714462  1
  B  B32  1  0.500000  0.598353  0.026730  1
  B  B33  1  0.500000  0.401647  0.973270  1
  B  B34  1  0.500000  0.098353  0.473270  1
  B  B35  1  0.500000  0.901647  0.526730  1
