# generated using pymatgen
data_NaNbSeO5
_symmetry_space_group_name_H-M   'P 1'
_cell_length_a   4.05215500
_cell_length_b   5.57526200
_cell_length_c   21.69701600
_cell_angle_alpha   90.00000000
_cell_angle_beta   90.00000000
_cell_angle_gamma   90.00000000
_symmetry_Int_Tables_number   1
_chemical_formula_structural   NaNbSeO5
_chemical_formula_sum   'Na4 Nb4 Se4 O20'
_cell_volume   490.17520563
_cell_formula_units_Z   4
loop_
 _symmetry_equiv_pos_site_id
 _symmetry_equiv_pos_as_xyz
  1  'x, y, z'
loop_
 _atom_site_type_symbol
 _atom_site_label
 _atom_site_symmetry_multiplicity
 _atom_site_fract_x
 _atom_site_fract_y
 _atom_site_fract_z
 _atom_site_occupancy
  Na  Na0  1  0.677035  0.250000  0.473710  1
  Na  Na1  1  0.322965  0.250000  0.973710  1
  Na  Na2  1  0.322965  0.750000  0.526290  1
  Na  Na3  1  0.677035  0.750000  0.026290  1
  Nb  Nb4  1  0.536644  0.750000  0.688940  1
  Nb  Nb5  1  0.463356  0.250000  0.311060  1
  Nb  Nb6  1  0.463356  0.750000  0.188940  1
  Nb  Nb7  1  0.536644  0.250000  0.811060  1
  Se  Se8  1  0.211260  0.250000  0.609057  1
  Se  Se9  1  0.788740  0.250000  0.109057  1
  Se  Se10  1  0.211260  0.750000  0.890943  1
  Se  Se11  1  0.788740  0.750000  0.390943  1
  O  O12  1  0.514734  0.005638  0.114977  1
  O  O13  1  0.485266  0.994362  0.885023  1
  O  O14  1  0.832508  0.750000  0.468880  1
  O  O15  1  0.015310  0.250000  0.320602  1
  O  O16  1  0.167492  0.250000  0.531120  1
  O  O17  1  0.515050  0.500000  0.250000  1
  O  O18  1  0.484950  0.000000  0.750000  1
  O  O19  1  0.485266  0.494362  0.614977  1
  O  O20  1  0.485266  0.505638  0.885023  1
  O  O21  1  0.015310  0.750000  0.179398  1
  O  O22  1  0.514734  0.494362  0.114977  1
  O  O23  1  0.484950  0.500000  0.750000  1
  O  O24  1  0.514734  0.994362  0.385023  1
  O  O25  1  0.167492  0.750000  0.968880  1
  O  O26  1  0.515050  0.000000  0.250000  1
  O  O27  1  0.984690  0.750000  0.679398  1
  O  O28  1  0.514734  0.505638  0.385023  1
  O  O29  1  0.832508  0.250000  0.031120  1
  O  O30  1  0.485266  0.005638  0.614977  1
  O  O31  1  0.984690  0.250000  0.820602  1
