# generated using pymatgen
data_NdTm3(Ni7P4)2
_symmetry_space_group_name_H-M   'P 1'
_cell_length_a   3.70012600
_cell_length_b   9.15719321
_cell_length_c   10.27938202
_cell_angle_alpha   89.82809087
_cell_angle_beta   90.00000000
_cell_angle_gamma   90.00000000
_symmetry_Int_Tables_number   1
_chemical_formula_structural   NdTm3(Ni7P4)2
_chemical_formula_sum   'Nd1 Tm3 Ni14 P8'
_cell_volume   348.29235552
_cell_formula_units_Z   1
loop_
 _symmetry_equiv_pos_site_id
 _symmetry_equiv_pos_as_xyz
  1  'x, y, z'
loop_
 _atom_site_type_symbol
 _atom_site_label
 _atom_site_symmetry_multiplicity
 _atom_site_fract_x
 _atom_site_fract_y
 _atom_site_fract_z
 _atom_site_occupancy
  Nd  Nd0  1  0.500000  0.938817  0.236460  1
  Tm  Tm1  1  0.000000  0.442061  0.520090  1
  Tm  Tm2  1  0.500000  0.558589  0.018195  1
  Tm  Tm3  1  0.000000  0.064967  0.735499  1
  Ni  Ni4  1  0.000000  0.769082  0.406290  1
  Ni  Ni5  1  0.500000  0.225425  0.903216  1
  Ni  Ni6  1  0.000000  0.753979  0.642070  1
  Ni  Ni7  1  0.500000  0.251889  0.139981  1
  Ni  Ni8  1  0.000000  0.811693  0.000058  1
  Ni  Ni9  1  0.500000  0.186510  0.506688  1
  Ni  Ni10  1  0.000000  0.443529  0.213094  1
  Ni  Ni11  1  0.500000  0.555413  0.713525  1
  Ni  Ni12  1  0.000000  0.403268  0.820701  1
  Ni  Ni13  1  0.500000  0.592958  0.322013  1
  Ni  Ni14  1  0.000000  0.198847  0.319031  1
  Ni  Ni15  1  0.500000  0.805737  0.809404  1
  Ni  Ni16  1  0.000000  0.084697  0.034314  1
  Ni  Ni17  1  0.500000  0.917631  0.551224  1
  P  P18  1  0.000000  0.687418  0.198897  1
  P  P19  1  0.500000  0.309415  0.699442  1
  P  P20  1  0.000000  0.019370  0.458580  1
  P  P21  1  0.500000  0.980128  0.947861  1
  P  P22  1  0.000000  0.321952  0.024206  1
  P  P23  1  0.500000  0.679661  0.524623  1
  P  P24  1  0.000000  0.652466  0.831062  1
  P  P25  1  0.500000  0.344499  0.333075  1
