# generated using pymatgen
data_Rb6TaVSe8
_symmetry_space_group_name_H-M   'P 1'
_cell_length_a   10.10521200
_cell_length_b   10.14593000
_cell_length_c   11.87195700
_cell_angle_alpha   90.00000000
_cell_angle_beta   90.00000000
_cell_angle_gamma   90.00000000
_symmetry_Int_Tables_number   1
_chemical_formula_structural   Rb6TaVSe8
_chemical_formula_sum   'Rb12 Ta2 V2 Se16'
_cell_volume   1217.19344738
_cell_formula_units_Z   2
loop_
 _symmetry_equiv_pos_site_id
 _symmetry_equiv_pos_as_xyz
  1  'x, y, z'
loop_
 _atom_site_type_symbol
 _atom_site_label
 _atom_site_symmetry_multiplicity
 _atom_site_fract_x
 _atom_site_fract_y
 _atom_site_fract_z
 _atom_site_occupancy
  Rb  Rb0  1  0.550000  0.207955  0.051436  1
  Rb  Rb1  1  0.050000  0.292045  0.448564  1
  Rb  Rb2  1  0.448821  0.792713  0.544539  1
  Rb  Rb3  1  0.948821  0.707287  0.955461  1
  Rb  Rb4  1  0.448821  0.792713  0.955461  1
  Rb  Rb5  1  0.948821  0.707287  0.544539  1
  Rb  Rb6  1  0.550000  0.207955  0.448564  1
  Rb  Rb7  1  0.050000  0.292045  0.051436  1
  Rb  Rb8  1  0.637856  0.410739  0.750000  1
  Rb  Rb9  1  0.137856  0.089261  0.750000  1
  Rb  Rb10  1  0.361536  0.583023  0.250000  1
  Rb  Rb11  1  0.861536  0.916977  0.250000  1
  Ta  Ta12  1  0.719797  0.984195  0.750000  1
  Ta  Ta13  1  0.219797  0.515805  0.750000  1
  V  V14  1  0.281401  0.013840  0.250000  1
  V  V15  1  0.781401  0.486160  0.250000  1
  Se  Se16  1  0.836470  0.050294  0.581402  1
  Se  Se17  1  0.336470  0.449706  0.918598  1
  Se  Se18  1  0.170065  0.949125  0.090830  1
  Se  Se19  1  0.670065  0.550875  0.409170  1
  Se  Se20  1  0.170065  0.949125  0.409170  1
  Se  Se21  1  0.670065  0.550875  0.090830  1
  Se  Se22  1  0.836470  0.050294  0.918598  1
  Se  Se23  1  0.336470  0.449706  0.581402  1
  Se  Se24  1  0.499505  0.078501  0.750000  1
  Se  Se25  1  0.999505  0.421499  0.750000  1
  Se  Se26  1  0.491547  0.924550  0.250000  1
  Se  Se27  1  0.991547  0.575450  0.250000  1
  Se  Se28  1  0.700781  0.746675  0.750000  1
  Se  Se29  1  0.200781  0.753325  0.750000  1
  Se  Se30  1  0.296867  0.240969  0.250000  1
  Se  Se31  1  0.796867  0.259031  0.250000  1
