# generated using pymatgen
data_NdEr2Lu3ReBi2
_symmetry_space_group_name_H-M   'P 1'
_cell_length_a   8.20360300
_cell_length_b   8.20644432
_cell_length_c   4.34251500
_cell_angle_alpha   90.00000000
_cell_angle_beta   90.00000000
_cell_angle_gamma   119.98855147
_symmetry_Int_Tables_number   1
_chemical_formula_structural   NdEr2Lu3ReBi2
_chemical_formula_sum   'Nd1 Er2 Lu3 Re1 Bi2'
_cell_volume   253.21050040
_cell_formula_units_Z   1
loop_
 _symmetry_equiv_pos_site_id
 _symmetry_equiv_pos_as_xyz
  1  'x, y, z'
loop_
 _atom_site_type_symbol
 _atom_site_label
 _atom_site_symmetry_multiplicity
 _atom_site_fract_x
 _atom_site_fract_y
 _atom_site_fract_z
 _atom_site_occupancy
  Nd  Nd0  1  0.606250  0.000000  0.000000  1
  Er  Er1  1  0.998428  0.615188  0.000000  1
  Er  Er2  1  0.383241  0.384812  0.000000  1
  Lu  Lu3  1  0.232427  0.000000  0.500000  1
  Lu  Lu4  1  0.000860  0.226848  0.500000  1
  Lu  Lu5  1  0.774013  0.773152  0.500000  1
  Re  Re6  1  0.008352  0.000000  0.000000  1
  Bi  Bi7  1  0.327676  0.658922  0.500000  1
  Bi  Bi8  1  0.668755  0.341078  0.500000  1
