# generated using pymatgen
data_SmTi2(GaPt)2
_symmetry_space_group_name_H-M   'P 1'
_cell_length_a   5.55968488
_cell_length_b   5.55968463
_cell_length_c   5.55968549
_cell_angle_alpha   100.11119988
_cell_angle_beta   103.33482445
_cell_angle_gamma   126.42710901
_symmetry_Int_Tables_number   1
_chemical_formula_structural   SmTi2(GaPt)2
_chemical_formula_sum   'Sm1 Ti2 Ga2 Pt2'
_cell_volume   123.36157760
_cell_formula_units_Z   1
loop_
 _symmetry_equiv_pos_site_id
 _symmetry_equiv_pos_as_xyz
  1  'x, y, z'
loop_
 _atom_site_type_symbol
 _atom_site_label
 _atom_site_symmetry_multiplicity
 _atom_site_fract_x
 _atom_site_fract_y
 _atom_site_fract_z
 _atom_site_occupancy
  Sm  Sm0  1  0.000644  0.000000  0.000644  1
  Ti  Ti1  1  0.248037  0.749486  0.498551  1
  Ti  Ti2  1  0.749065  0.250514  0.498551  1
  Ga  Ga3  1  0.306778  0.300305  0.607080  1
  Ga  Ga4  1  0.306778  0.699695  0.006473  1
  Pt  Pt5  1  0.694350  0.298602  0.992952  1
  Pt  Pt6  1  0.694350  0.701398  0.395748  1
