# generated using pymatgen
data_Rb4Tl2InFeBr16
_symmetry_space_group_name_H-M   'P 1'
_cell_length_a   8.21360166
_cell_length_b   11.00382900
_cell_length_c   11.19990878
_cell_angle_alpha   90.00000000
_cell_angle_beta   89.77047620
_cell_angle_gamma   90.00000000
_symmetry_Int_Tables_number   1
_chemical_formula_structural   Rb4Tl2InFeBr16
_chemical_formula_sum   'Rb4 Tl2 In1 Fe1 Br16'
_cell_volume   1012.25159619
_cell_formula_units_Z   1
loop_
 _symmetry_equiv_pos_site_id
 _symmetry_equiv_pos_as_xyz
  1  'x, y, z'
loop_
 _atom_site_type_symbol
 _atom_site_label
 _atom_site_symmetry_multiplicity
 _atom_site_fract_x
 _atom_site_fract_y
 _atom_site_fract_z
 _atom_site_occupancy
  Rb  Rb0  1  0.681940  0.747450  0.749860  1
  Rb  Rb1  1  0.322494  0.249938  0.246617  1
  Rb  Rb2  1  0.818060  0.747450  0.250140  1
  Rb  Rb3  1  0.177506  0.249938  0.753383  1
  Tl  Tl4  1  0.250000  0.680464  0.000000  1
  Tl  Tl5  1  0.750000  0.178780  0.500000  1
  In  In6  1  0.250000  0.819868  0.500000  1
  Fe  Fe7  1  0.750000  0.318950  0.000000  1
  Br  Br8  1  0.825722  0.439700  0.834337  1
  Br  Br9  1  0.162440  0.550113  0.185555  1
  Br  Br10  1  0.674278  0.439700  0.165663  1
  Br  Br11  1  0.656858  0.047264  0.316970  1
  Br  Br12  1  0.337560  0.550113  0.814445  1
  Br  Br13  1  0.339483  0.947458  0.678399  1
  Br  Br14  1  0.843142  0.047264  0.683030  1
  Br  Br15  1  0.160517  0.947458  0.321601  1
  Br  Br16  1  0.997137  0.821621  0.958745  1
  Br  Br17  1  0.976538  0.193816  0.044378  1
  Br  Br18  1  0.502863  0.821621  0.041255  1
  Br  Br19  1  0.495088  0.682865  0.458546  1
  Br  Br20  1  0.523462  0.193816  0.955622  1
  Br  Br21  1  0.497638  0.320744  0.541666  1
  Br  Br22  1  0.004912  0.682865  0.541454  1
  Br  Br23  1  0.002362  0.320744  0.458334  1
