# generated using pymatgen
data_Pr8Hg2PdRu
_symmetry_space_group_name_H-M   'P 1'
_cell_length_a   10.01921347
_cell_length_b   10.01921437
_cell_length_c   10.09421400
_cell_angle_alpha   59.75206854
_cell_angle_beta   59.75206554
_cell_angle_gamma   59.82102499
_symmetry_Int_Tables_number   1
_chemical_formula_structural   Pr8Hg2PdRu
_chemical_formula_sum   'Pr16 Hg4 Pd2 Ru2'
_cell_volume   712.85408015
_cell_formula_units_Z   2
loop_
 _symmetry_equiv_pos_site_id
 _symmetry_equiv_pos_as_xyz
  1  'x, y, z'
loop_
 _atom_site_type_symbol
 _atom_site_label
 _atom_site_symmetry_multiplicity
 _atom_site_fract_x
 _atom_site_fract_y
 _atom_site_fract_z
 _atom_site_occupancy
  Pr  Pr0  1  0.349283  0.349283  0.358146  1
  Pr  Pr1  1  0.349283  0.349283  0.943289  1
  Pr  Pr2  1  0.344441  0.952050  0.351755  1
  Pr  Pr3  1  0.952050  0.344441  0.351755  1
  Pr  Pr4  1  0.815859  0.189556  0.192014  1
  Pr  Pr5  1  0.189556  0.815859  0.802571  1
  Pr  Pr6  1  0.189556  0.815859  0.192014  1
  Pr  Pr7  1  0.815859  0.189556  0.802571  1
  Pr  Pr8  1  0.189479  0.189479  0.810521  1
  Pr  Pr9  1  0.806036  0.806036  0.193964  1
  Pr  Pr10  1  0.936978  0.558626  0.565168  1
  Pr  Pr11  1  0.558626  0.936978  0.939227  1
  Pr  Pr12  1  0.558626  0.936978  0.565168  1
  Pr  Pr13  1  0.936978  0.558626  0.939227  1
  Pr  Pr14  1  0.562135  0.562135  0.937865  1
  Pr  Pr15  1  0.937741  0.937741  0.562259  1
  Hg  Hg16  1  0.583886  0.583886  0.582991  1
  Hg  Hg17  1  0.583886  0.583886  0.249236  1
  Hg  Hg18  1  0.585256  0.247119  0.583812  1
  Hg  Hg19  1  0.247119  0.585256  0.583812  1
  Pd  Pd20  1  0.147470  0.571760  0.140385  1
  Pd  Pd21  1  0.571760  0.147470  0.140385  1
  Ru  Ru22  1  0.144068  0.144068  0.136765  1
  Ru  Ru23  1  0.144068  0.144068  0.575100  1
