# generated using pymatgen
data_Th3Sc2Ru3
_symmetry_space_group_name_H-M   'P 1'
_cell_length_a   6.04811600
_cell_length_b   8.26596913
_cell_length_c   8.26596900
_cell_angle_alpha   120.00000349
_cell_angle_beta   90.00000000
_cell_angle_gamma   90.00000000
_symmetry_Int_Tables_number   1
_chemical_formula_structural   Th3Sc2Ru3
_chemical_formula_sum   'Th6 Sc4 Ru6'
_cell_volume   357.88070129
_cell_formula_units_Z   2
loop_
 _symmetry_equiv_pos_site_id
 _symmetry_equiv_pos_as_xyz
  1  'x, y, z'
loop_
 _atom_site_type_symbol
 _atom_site_label
 _atom_site_symmetry_multiplicity
 _atom_site_fract_x
 _atom_site_fract_y
 _atom_site_fract_z
 _atom_site_occupancy
  Th  Th0  1  0.750000  0.740565  0.740565  1
  Th  Th1  1  0.250000  0.259435  0.259435  1
  Th  Th2  1  0.750000  0.000000  0.259435  1
  Th  Th3  1  0.250000  0.000000  0.740565  1
  Th  Th4  1  0.750000  0.259435  0.000000  1
  Th  Th5  1  0.250000  0.740565  0.000000  1
  Sc  Sc6  1  0.000000  0.666667  0.333333  1
  Sc  Sc7  1  0.000000  0.333333  0.666667  1
  Sc  Sc8  1  0.500000  0.333333  0.666667  1
  Sc  Sc9  1  0.500000  0.666667  0.333333  1
  Ru  Ru10  1  0.750000  0.387372  0.387372  1
  Ru  Ru11  1  0.250000  0.612628  0.612628  1
  Ru  Ru12  1  0.750000  0.000000  0.612628  1
  Ru  Ru13  1  0.250000  0.000000  0.387372  1
  Ru  Ru14  1  0.750000  0.612628  0.000000  1
  Ru  Ru15  1  0.250000  0.387372  0.000000  1
