# generated using pymatgen
data_Tb2PrGa2Co9B4
_symmetry_space_group_name_H-M   'P 1'
_cell_length_a   5.18070003
_cell_length_b   5.18105071
_cell_length_c   9.59565300
_cell_angle_alpha   89.99991326
_cell_angle_beta   89.99997259
_cell_angle_gamma   119.97659854
_symmetry_Int_Tables_number   1
_chemical_formula_structural   Tb2PrGa2Co9B4
_chemical_formula_sum   'Tb2 Pr1 Ga2 Co9 B4'
_cell_volume   223.10731920
_cell_formula_units_Z   1
loop_
 _symmetry_equiv_pos_site_id
 _symmetry_equiv_pos_as_xyz
  1  'x, y, z'
loop_
 _atom_site_type_symbol
 _atom_site_label
 _atom_site_symmetry_multiplicity
 _atom_site_fract_x
 _atom_site_fract_y
 _atom_site_fract_z
 _atom_site_occupancy
  Tb  Tb0  1  0.999991  0.000006  0.341730  1
  Tb  Tb1  1  0.999994  0.999995  0.658328  1
  Pr  Pr2  1  0.999993  0.000016  0.999996  1
  Ga  Ga3  1  0.333361  0.666595  0.999967  1
  Ga  Ga4  1  0.666649  0.333400  0.999968  1
  Co  Co5  1  0.499991  0.000001  0.500007  1
  Co  Co6  1  0.499990  0.500001  0.500007  1
  Co  Co7  1  0.999996  0.499996  0.500006  1
  Co  Co8  1  0.499995  0.000002  0.209887  1
  Co  Co9  1  0.499994  0.500005  0.209887  1
  Co  Co10  1  0.999990  0.499998  0.209884  1
  Co  Co11  1  0.499991  0.999997  0.790088  1
  Co  Co12  1  0.499996  0.499999  0.790095  1
  Co  Co13  1  0.999991  0.499999  0.790088  1
  B  B14  1  0.333363  0.666612  0.350361  1
  B  B15  1  0.666625  0.333381  0.350361  1
  B  B16  1  0.666675  0.333364  0.649674  1
  B  B17  1  0.333313  0.666634  0.649672  1
