# generated using pymatgen
data_PH3ICl
_symmetry_space_group_name_H-M   'P 1'
_cell_length_a   7.33882883
_cell_length_b   7.33882883
_cell_length_c   5.01540309
_cell_angle_alpha   90.40449371
_cell_angle_beta   90.40449371
_cell_angle_gamma   88.75981542
_symmetry_Int_Tables_number   1
_chemical_formula_structural   PH3ICl
_chemical_formula_sum   'P2 H6 I2 Cl2'
_cell_volume   270.04517856
_cell_formula_units_Z   2
loop_
 _symmetry_equiv_pos_site_id
 _symmetry_equiv_pos_as_xyz
  1  'x, y, z'
loop_
 _atom_site_type_symbol
 _atom_site_label
 _atom_site_symmetry_multiplicity
 _atom_site_fract_x
 _atom_site_fract_y
 _atom_site_fract_z
 _atom_site_occupancy
  P  P0  1  0.526438  0.434452  0.945269  1
  P  P1  1  0.934452  0.026438  0.945269  1
  H  H2  1  0.795047  0.035690  0.138512  1
  H  H3  1  0.535690  0.295047  0.138512  1
  H  H4  1  0.961833  0.196434  0.806653  1
  H  H5  1  0.936746  0.857456  0.801471  1
  H  H6  1  0.696434  0.461833  0.806653  1
  H  H7  1  0.357456  0.436746  0.801471  1
  I  I8  1  0.004632  0.504632  0.641059  1
  I  I9  1  0.585767  0.085767  0.607660  1
  Cl  Cl10  1  0.504563  0.660942  0.183734  1
  Cl  Cl11  1  0.160942  0.004563  0.183734  1
