# generated using pymatgen
data_Er8Ti8Re3Si16Au
_symmetry_space_group_name_H-M   'P 1'
_cell_length_a   6.94875211
_cell_length_b   6.94875190
_cell_length_c   12.71154582
_cell_angle_alpha   90.06033881
_cell_angle_beta   89.93966020
_cell_angle_gamma   89.72355078
_symmetry_Int_Tables_number   1
_chemical_formula_structural   Er8Ti8Re3Si16Au
_chemical_formula_sum   'Er8 Ti8 Re3 Si16 Au1'
_cell_volume   613.77112450
_cell_formula_units_Z   1
loop_
 _symmetry_equiv_pos_site_id
 _symmetry_equiv_pos_as_xyz
  1  'x, y, z'
loop_
 _atom_site_type_symbol
 _atom_site_label
 _atom_site_symmetry_multiplicity
 _atom_site_fract_x
 _atom_site_fract_y
 _atom_site_fract_z
 _atom_site_occupancy
  Er  Er0  1  0.340788  0.999216  0.468733  1
  Er  Er1  1  0.499453  0.841287  0.718371  1
  Er  Er2  1  0.501875  0.158420  0.218473  1
  Er  Er3  1  0.841287  0.499453  0.281629  1
  Er  Er4  1  0.158420  0.501875  0.781527  1
  Er  Er5  1  0.656782  0.001538  0.969775  1
  Er  Er6  1  0.999216  0.340788  0.531267  1
  Er  Er7  1  0.001538  0.656782  0.030225  1
  Ti  Ti8  1  0.150132  0.008206  0.879469  1
  Ti  Ti9  1  0.501853  0.649214  0.125571  1
  Ti  Ti10  1  0.503220  0.349853  0.623374  1
  Ti  Ti11  1  0.649214  0.501853  0.874429  1
  Ti  Ti12  1  0.349853  0.503220  0.376626  1
  Ti  Ti13  1  0.849486  0.993560  0.375236  1
  Ti  Ti14  1  0.008206  0.150132  0.120531  1
  Ti  Ti15  1  0.993560  0.849486  0.624764  1
  Re  Re16  1  0.167995  0.825224  0.252986  1
  Re  Re17  1  0.825224  0.167995  0.747014  1
  Re  Re18  1  0.668765  0.668765  0.500000  1
  Si  Si19  1  0.199872  0.131185  0.683836  1
  Si  Si20  1  0.373513  0.719789  0.929706  1
  Si  Si21  1  0.631275  0.294915  0.430835  1
  Si  Si22  1  0.719789  0.373513  0.070294  1
  Si  Si23  1  0.294915  0.631275  0.569165  1
  Si  Si24  1  0.801758  0.869089  0.181747  1
  Si  Si25  1  0.131185  0.199872  0.316164  1
  Si  Si26  1  0.869089  0.801758  0.818253  1
  Si  Si27  1  0.288796  0.934051  0.071452  1
  Si  Si28  1  0.546252  0.789519  0.316232  1
  Si  Si29  1  0.458141  0.208249  0.810033  1
  Si  Si30  1  0.789519  0.546252  0.683768  1
  Si  Si31  1  0.208249  0.458141  0.189967  1
  Si  Si32  1  0.707544  0.045554  0.565188  1
  Si  Si33  1  0.934051  0.288796  0.928548  1
  Si  Si34  1  0.045554  0.707544  0.434812  1
  Au  Au35  1  0.333632  0.333632  0.000000  1
