# generated using pymatgen
data_NaHo7(Sn11Os3)2
_symmetry_space_group_name_H-M   'P 1'
_cell_length_a   9.83573800
_cell_length_b   9.83573752
_cell_length_c   10.10887100
_cell_angle_alpha   90.00000000
_cell_angle_beta   90.00000000
_cell_angle_gamma   119.99999488
_symmetry_Int_Tables_number   1
_chemical_formula_structural   NaHo7(Sn11Os3)2
_chemical_formula_sum   'Na1 Ho7 Sn22 Os6'
_cell_volume   846.92936466
_cell_formula_units_Z   1
loop_
 _symmetry_equiv_pos_site_id
 _symmetry_equiv_pos_as_xyz
  1  'x, y, z'
loop_
 _atom_site_type_symbol
 _atom_site_label
 _atom_site_symmetry_multiplicity
 _atom_site_fract_x
 _atom_site_fract_y
 _atom_site_fract_z
 _atom_site_occupancy
  Na  Na0  1  0.000000  0.000000  0.500000  1
  Ho  Ho1  1  0.000000  0.000000  0.000000  1
  Ho  Ho2  1  0.515365  0.484635  0.694688  1
  Ho  Ho3  1  0.515365  0.030730  0.694688  1
  Ho  Ho4  1  0.969270  0.484635  0.694688  1
  Ho  Ho5  1  0.030730  0.515365  0.305312  1
  Ho  Ho6  1  0.484635  0.969270  0.305312  1
  Ho  Ho7  1  0.484635  0.515365  0.305312  1
  Sn  Sn8  1  0.666667  0.333333  0.173565  1
  Sn  Sn9  1  0.666667  0.333333  0.869922  1
  Sn  Sn10  1  0.333333  0.666667  0.130078  1
  Sn  Sn11  1  0.349838  0.349838  0.000000  1
  Sn  Sn12  1  0.000000  0.650162  0.000000  1
  Sn  Sn13  1  0.650162  0.000000  0.000000  1
  Sn  Sn14  1  0.650162  0.650162  0.000000  1
  Sn  Sn15  1  0.333333  0.666667  0.826435  1
  Sn  Sn16  1  0.442085  0.221043  0.463252  1
  Sn  Sn17  1  0.221043  0.778957  0.536748  1
  Sn  Sn18  1  0.221043  0.442085  0.536748  1
  Sn  Sn19  1  0.557915  0.778957  0.536748  1
  Sn  Sn20  1  0.123475  0.876525  0.267221  1
  Sn  Sn21  1  0.778957  0.557915  0.463252  1
  Sn  Sn22  1  0.778957  0.221043  0.463252  1
  Sn  Sn23  1  0.349838  0.000000  0.000000  1
  Sn  Sn24  1  0.123475  0.246951  0.267221  1
  Sn  Sn25  1  0.753049  0.876525  0.267221  1
  Sn  Sn26  1  0.246951  0.123475  0.732779  1
  Sn  Sn27  1  0.876525  0.753049  0.732779  1
  Sn  Sn28  1  0.876525  0.123475  0.732779  1
  Sn  Sn29  1  0.000000  0.349838  0.000000  1
  Os  Os30  1  0.168490  0.831510  0.795008  1
  Os  Os31  1  0.168490  0.336978  0.795008  1
  Os  Os32  1  0.663022  0.831510  0.795008  1
  Os  Os33  1  0.336978  0.168490  0.204992  1
  Os  Os34  1  0.831510  0.663022  0.204992  1
  Os  Os35  1  0.831510  0.168490  0.204992  1
