# generated using pymatgen
data_Ir4RuRhW2
_symmetry_space_group_name_H-M   'P 1'
_cell_length_a   5.54048719
_cell_length_b   5.54048782
_cell_length_c   4.41836500
_cell_angle_alpha   90.00000000
_cell_angle_beta   90.00000000
_cell_angle_gamma   120.11350915
_symmetry_Int_Tables_number   1
_chemical_formula_structural   Ir4RuRhW2
_chemical_formula_sum   'Ir4 Ru1 Rh1 W2'
_cell_volume   117.32492925
_cell_formula_units_Z   1
loop_
 _symmetry_equiv_pos_site_id
 _symmetry_equiv_pos_as_xyz
  1  'x, y, z'
loop_
 _atom_site_type_symbol
 _atom_site_label
 _atom_site_symmetry_multiplicity
 _atom_site_fract_x
 _atom_site_fract_y
 _atom_site_fract_z
 _atom_site_occupancy
  Ir  Ir0  1  0.165299  0.333854  0.250000  1
  Ir  Ir1  1  0.666146  0.834701  0.250000  1
  Ir  Ir2  1  0.834597  0.667843  0.750000  1
  Ir  Ir3  1  0.332157  0.165403  0.750000  1
  Ru  Ru4  1  0.834240  0.165760  0.750000  1
  Rh  Rh5  1  0.167251  0.832749  0.250000  1
  W  W6  1  0.333043  0.666957  0.750000  1
  W  W7  1  0.667267  0.332733  0.250000  1
