# generated using pymatgen
data_Lu12Tc2IrPt
_symmetry_space_group_name_H-M   'P 1'
_cell_length_a   6.18982801
_cell_length_b   7.26585150
_cell_length_c   8.93903400
_cell_angle_alpha   90.00000000
_cell_angle_beta   90.00000000
_cell_angle_gamma   90.06808431
_symmetry_Int_Tables_number   1
_chemical_formula_structural   Lu12Tc2IrPt
_chemical_formula_sum   'Lu12 Tc2 Ir1 Pt1'
_cell_volume   402.02714839
_cell_formula_units_Z   1
loop_
 _symmetry_equiv_pos_site_id
 _symmetry_equiv_pos_as_xyz
  1  'x, y, z'
loop_
 _atom_site_type_symbol
 _atom_site_label
 _atom_site_symmetry_multiplicity
 _atom_site_fract_x
 _atom_site_fract_y
 _atom_site_fract_z
 _atom_site_occupancy
  Lu  Lu0  1  0.331570  0.676521  0.064410  1
  Lu  Lu1  1  0.169054  0.176057  0.434048  1
  Lu  Lu2  1  0.662136  0.326389  0.558271  1
  Lu  Lu3  1  0.833989  0.820033  0.942374  1
  Lu  Lu4  1  0.662136  0.326389  0.941729  1
  Lu  Lu5  1  0.833989  0.820033  0.557626  1
  Lu  Lu6  1  0.331570  0.676521  0.435590  1
  Lu  Lu7  1  0.169054  0.176057  0.065952  1
  Lu  Lu8  1  0.875995  0.537842  0.250000  1
  Lu  Lu9  1  0.624271  0.038377  0.250000  1
  Lu  Lu10  1  0.130127  0.465608  0.750000  1
  Lu  Lu11  1  0.374524  0.959677  0.750000  1
  Tc  Tc12  1  0.036582  0.884509  0.250000  1
  Tc  Tc13  1  0.463599  0.384853  0.250000  1
  Ir  Ir14  1  0.544375  0.616279  0.750000  1
  Pt  Pt15  1  0.957030  0.114855  0.750000  1
