# generated using pymatgen
data_Hf3Zr3Al15ZnPt7
_symmetry_space_group_name_H-M   'P 1'
_cell_length_a   8.77194820
_cell_length_b   8.77194823
_cell_length_c   8.77207303
_cell_angle_alpha   60.00046304
_cell_angle_beta   60.00046421
_cell_angle_gamma   60.00000461
_symmetry_Int_Tables_number   1
_chemical_formula_structural   Hf3Zr3Al15ZnPt7
_chemical_formula_sum   'Hf3 Zr3 Al15 Zn1 Pt7'
_cell_volume   477.29009043
_cell_formula_units_Z   1
loop_
 _symmetry_equiv_pos_site_id
 _symmetry_equiv_pos_as_xyz
  1  'x, y, z'
loop_
 _atom_site_type_symbol
 _atom_site_label
 _atom_site_symmetry_multiplicity
 _atom_site_fract_x
 _atom_site_fract_y
 _atom_site_fract_z
 _atom_site_occupancy
  Hf  Hf0  1  0.318847  0.318847  0.681904  1
  Hf  Hf1  1  0.680401  0.318847  0.681904  1
  Hf  Hf2  1  0.318847  0.680401  0.681904  1
  Zr  Zr3  1  0.685065  0.685065  0.316270  1
  Zr  Zr4  1  0.313599  0.685065  0.316270  1
  Zr  Zr5  1  0.685065  0.313599  0.316270  1
  Al  Al6  1  0.879909  0.360155  0.880026  1
  Al  Al7  1  0.360155  0.879909  0.880026  1
  Al  Al8  1  0.879909  0.879909  0.880026  1
  Al  Al9  1  0.120128  0.120128  0.639617  1
  Al  Al10  1  0.117939  0.641520  0.122604  1
  Al  Al11  1  0.641520  0.117939  0.122604  1
  Al  Al12  1  0.117939  0.117939  0.122604  1
  Al  Al13  1  0.664742  0.664742  0.005773  1
  Al  Al14  1  0.666851  0.003946  0.662351  1
  Al  Al15  1  0.003946  0.666851  0.662351  1
  Al  Al16  1  0.666851  0.666851  0.662351  1
  Al  Al17  1  0.335580  0.335580  0.993262  1
  Al  Al18  1  0.336284  0.992966  0.334468  1
  Al  Al19  1  0.992966  0.336284  0.334468  1
  Al  Al20  1  0.336284  0.336284  0.334468  1
  Zn  Zn21  1  0.879944  0.879944  0.360169  1
  Pt  Pt22  1  0.002352  0.002352  0.992945  1
  Pt  Pt23  1  0.001718  0.001718  0.506582  1
  Pt  Pt24  1  0.489983  0.001718  0.506582  1
  Pt  Pt25  1  0.001718  0.489983  0.506582  1
  Pt  Pt26  1  0.499998  0.499998  0.998537  1
  Pt  Pt27  1  0.001466  0.499998  0.998537  1
  Pt  Pt28  1  0.499998  0.001466  0.998537  1
