# generated using pymatgen
data_Ti2Co9ReB6
_symmetry_space_group_name_H-M   'P 1'
_cell_length_a   5.58585669
_cell_length_b   5.58585917
_cell_length_c   5.58585843
_cell_angle_alpha   95.37097229
_cell_angle_beta   95.37097168
_cell_angle_gamma   95.37099134
_symmetry_Int_Tables_number   1
_chemical_formula_structural   Ti2Co9ReB6
_chemical_formula_sum   'Ti2 Co9 Re1 B6'
_cell_volume   171.83811207
_cell_formula_units_Z   1
loop_
 _symmetry_equiv_pos_site_id
 _symmetry_equiv_pos_as_xyz
  1  'x, y, z'
loop_
 _atom_site_type_symbol
 _atom_site_label
 _atom_site_symmetry_multiplicity
 _atom_site_fract_x
 _atom_site_fract_y
 _atom_site_fract_z
 _atom_site_occupancy
  Ti  Ti0  1  0.688175  0.688175  0.688175  1
  Ti  Ti1  1  0.311825  0.311825  0.311825  1
  Co  Co2  1  0.000000  0.000000  0.500000  1
  Co  Co3  1  0.500000  0.000000  0.000000  1
  Co  Co4  1  0.000000  0.500000  0.000000  1
  Co  Co5  1  0.704454  0.204076  0.704454  1
  Co  Co6  1  0.704454  0.704454  0.204076  1
  Co  Co7  1  0.204076  0.704454  0.704454  1
  Co  Co8  1  0.295546  0.795924  0.295546  1
  Co  Co9  1  0.295546  0.295546  0.795924  1
  Co  Co10  1  0.795924  0.295546  0.295546  1
  Re  Re11  1  0.000000  0.000000  0.000000  1
  B  B12  1  0.611450  0.388550  0.000000  1
  B  B13  1  0.000000  0.611450  0.388550  1
  B  B14  1  0.388550  0.000000  0.611450  1
  B  B15  1  0.000000  0.388550  0.611450  1
  B  B16  1  0.611450  0.000000  0.388550  1
  B  B17  1  0.388550  0.611450  0.000000  1
