# generated using pymatgen
data_Er3Sc3(Zn3C)2
_symmetry_space_group_name_H-M   'P 1'
_cell_length_a   8.87839955
_cell_length_b   8.87839921
_cell_length_c   8.87839900
_cell_angle_alpha   60.00000451
_cell_angle_beta   60.00000577
_cell_angle_gamma   60.00000474
_symmetry_Int_Tables_number   1
_chemical_formula_structural   Er3Sc3(Zn3C)2
_chemical_formula_sum   'Er6 Sc6 Zn12 C4'
_cell_volume   494.86764963
_cell_formula_units_Z   2
loop_
 _symmetry_equiv_pos_site_id
 _symmetry_equiv_pos_as_xyz
  1  'x, y, z'
loop_
 _atom_site_type_symbol
 _atom_site_label
 _atom_site_symmetry_multiplicity
 _atom_site_fract_x
 _atom_site_fract_y
 _atom_site_fract_z
 _atom_site_occupancy
  Er  Er0  1  0.448636  0.448636  0.051364  1
  Er  Er1  1  0.051364  0.448636  0.051364  1
  Er  Er2  1  0.448636  0.051364  0.051364  1
  Er  Er3  1  0.051364  0.051364  0.448636  1
  Er  Er4  1  0.448636  0.051364  0.448636  1
  Er  Er5  1  0.051364  0.448636  0.448636  1
  Sc  Sc6  1  0.809558  0.809558  0.190442  1
  Sc  Sc7  1  0.190442  0.809558  0.190442  1
  Sc  Sc8  1  0.809558  0.190442  0.190442  1
  Sc  Sc9  1  0.190442  0.190442  0.809558  1
  Sc  Sc10  1  0.809558  0.190442  0.809558  1
  Sc  Sc11  1  0.190442  0.809558  0.809558  1
  Zn  Zn12  1  0.829202  0.829202  0.512394  1
  Zn  Zn13  1  0.829202  0.512394  0.829202  1
  Zn  Zn14  1  0.512394  0.829202  0.829202  1
  Zn  Zn15  1  0.829202  0.829202  0.829202  1
  Zn  Zn16  1  0.422372  0.422372  0.732883  1
  Zn  Zn17  1  0.422372  0.732883  0.422372  1
  Zn  Zn18  1  0.732883  0.422372  0.422372  1
  Zn  Zn19  1  0.422372  0.422372  0.422372  1
  Zn  Zn20  1  0.624988  0.624988  0.125035  1
  Zn  Zn21  1  0.624988  0.125035  0.624988  1
  Zn  Zn22  1  0.125035  0.624988  0.624988  1
  Zn  Zn23  1  0.624988  0.624988  0.624988  1
  C  C24  1  0.116500  0.116500  0.650500  1
  C  C25  1  0.116500  0.650500  0.116500  1
  C  C26  1  0.650500  0.116500  0.116500  1
  C  C27  1  0.116500  0.116500  0.116500  1
