# generated using pymatgen
data_Tb3MgZrSnIr3
_symmetry_space_group_name_H-M   'P 1'
_cell_length_a   7.17309809
_cell_length_b   7.39264990
_cell_length_c   4.28067600
_cell_angle_alpha   90.00000000
_cell_angle_beta   90.00000000
_cell_angle_gamma   120.07903686
_symmetry_Int_Tables_number   1
_chemical_formula_structural   Tb3MgZrSnIr3
_chemical_formula_sum   'Tb3 Mg1 Zr1 Sn1 Ir3'
_cell_volume   196.42803119
_cell_formula_units_Z   1
loop_
 _symmetry_equiv_pos_site_id
 _symmetry_equiv_pos_as_xyz
  1  'x, y, z'
loop_
 _atom_site_type_symbol
 _atom_site_label
 _atom_site_symmetry_multiplicity
 _atom_site_fract_x
 _atom_site_fract_y
 _atom_site_fract_z
 _atom_site_occupancy
  Tb  Tb0  1  0.600276  0.995252  0.000000  1
  Tb  Tb1  1  0.990789  0.580703  0.000000  1
  Tb  Tb2  1  0.416485  0.419579  0.000000  1
  Mg  Mg3  1  0.998688  0.245999  0.500000  1
  Zr  Zr4  1  0.249647  0.004096  0.500000  1
  Sn  Sn5  1  0.747871  0.752123  0.500000  1
  Ir  Ir6  1  0.321038  0.674582  0.500000  1
  Ir  Ir7  1  0.655359  0.327338  0.500000  1
  Ir  Ir8  1  0.019846  0.000328  0.000000  1
