# generated using pymatgen
data_Nd7Th(Si3Ir)4
_symmetry_space_group_name_H-M   'P 1'
_cell_length_a   8.23532994
_cell_length_b   8.23533091
_cell_length_c   8.46975300
_cell_angle_alpha   90.00000000
_cell_angle_beta   90.00000000
_cell_angle_gamma   119.62202988
_symmetry_Int_Tables_number   1
_chemical_formula_structural   Nd7Th(Si3Ir)4
_chemical_formula_sum   'Nd7 Th1 Si12 Ir4'
_cell_volume   499.34988550
_cell_formula_units_Z   1
loop_
 _symmetry_equiv_pos_site_id
 _symmetry_equiv_pos_as_xyz
  1  'x, y, z'
loop_
 _atom_site_type_symbol
 _atom_site_label
 _atom_site_symmetry_multiplicity
 _atom_site_fract_x
 _atom_site_fract_y
 _atom_site_fract_z
 _atom_site_occupancy
  Nd  Nd0  1  0.500399  0.499601  0.250000  1
  Nd  Nd1  1  0.000821  0.500530  0.750000  1
  Nd  Nd2  1  0.999279  0.499574  0.250000  1
  Nd  Nd3  1  0.499470  0.999179  0.750000  1
  Nd  Nd4  1  0.500426  0.000721  0.250000  1
  Nd  Nd5  1  0.000003  0.999997  0.750000  1
  Nd  Nd6  1  0.999957  0.000043  0.250000  1
  Th  Th7  1  0.499653  0.500347  0.750000  1
  Si  Si8  1  0.831372  0.168628  0.999350  1
  Si  Si9  1  0.168609  0.831391  0.999414  1
  Si  Si10  1  0.331088  0.164206  0.000608  1
  Si  Si11  1  0.168609  0.831391  0.500586  1
  Si  Si12  1  0.668979  0.835835  0.000369  1
  Si  Si13  1  0.831372  0.168628  0.500650  1
  Si  Si14  1  0.835794  0.668912  0.000608  1
  Si  Si15  1  0.668979  0.835835  0.499631  1
  Si  Si16  1  0.164165  0.331021  0.000369  1
  Si  Si17  1  0.331088  0.164206  0.499392  1
  Si  Si18  1  0.164165  0.331021  0.499631  1
  Si  Si19  1  0.835794  0.668912  0.499392  1
  Ir  Ir20  1  0.663519  0.336481  0.995102  1
  Ir  Ir21  1  0.336471  0.663529  0.997447  1
  Ir  Ir22  1  0.336471  0.663529  0.502553  1
  Ir  Ir23  1  0.663519  0.336481  0.504898  1
