# generated using pymatgen
data_Zr6Al16Pd5Rh2
_symmetry_space_group_name_H-M   'P 1'
_cell_length_a   8.77867629
_cell_length_b   8.77039929
_cell_length_c   8.77867644
_cell_angle_alpha   60.03117655
_cell_angle_beta   60.11036773
_cell_angle_gamma   60.03117878
_symmetry_Int_Tables_number   1
_chemical_formula_structural   Zr6Al16Pd5Rh2
_chemical_formula_sum   'Zr6 Al16 Pd5 Rh2'
_cell_volume   478.55099692
_cell_formula_units_Z   1
loop_
 _symmetry_equiv_pos_site_id
 _symmetry_equiv_pos_as_xyz
  1  'x, y, z'
loop_
 _atom_site_type_symbol
 _atom_site_label
 _atom_site_symmetry_multiplicity
 _atom_site_fract_x
 _atom_site_fract_y
 _atom_site_fract_z
 _atom_site_occupancy
  Zr  Zr0  1  0.687055  0.314000  0.312944  1
  Zr  Zr1  1  0.312944  0.685999  0.687055  1
  Zr  Zr2  1  0.312097  0.687902  0.312097  1
  Zr  Zr3  1  0.312944  0.314000  0.687055  1
  Zr  Zr4  1  0.687902  0.312097  0.687902  1
  Zr  Zr5  1  0.687055  0.685999  0.312944  1
  Al  Al6  1  0.334219  0.334854  0.334219  1
  Al  Al7  1  0.332311  0.335931  0.995826  1
  Al  Al8  1  0.995826  0.335931  0.332311  1
  Al  Al9  1  0.334219  0.996708  0.334219  1
  Al  Al10  1  0.665781  0.665146  0.665781  1
  Al  Al11  1  0.667689  0.664069  0.004174  1
  Al  Al12  1  0.665781  0.003292  0.665781  1
  Al  Al13  1  0.004174  0.664069  0.667689  1
  Al  Al14  1  0.116474  0.124817  0.116474  1
  Al  Al15  1  0.118478  0.118912  0.643699  1
  Al  Al16  1  0.643699  0.118912  0.118478  1
  Al  Al17  1  0.116474  0.642234  0.116474  1
  Al  Al18  1  0.883525  0.875182  0.883525  1
  Al  Al19  1  0.881521  0.881087  0.356304  1
  Al  Al20  1  0.883525  0.357769  0.883525  1
  Al  Al21  1  0.356304  0.881087  0.881521  1
  Pd  Pd22  1  0.500000  0.000000  0.000000  1
  Pd  Pd23  1  0.000000  0.500000  0.500000  1
  Pd  Pd24  1  0.000000  0.000000  0.500000  1
  Pd  Pd25  1  0.500000  0.000000  0.500000  1
  Pd  Pd26  1  0.500000  0.500000  0.000000  1
  Rh  Rh27  1  0.000000  0.000000  0.000000  1
  Rh  Rh28  1  0.000000  0.500000  0.000000  1
