# generated using pymatgen
data_Li(VCl3)2
_symmetry_space_group_name_H-M   'P 1'
_cell_length_a   6.55579200
_cell_length_b   6.55579251
_cell_length_c   11.60226200
_cell_angle_alpha   90.00000000
_cell_angle_beta   90.00000000
_cell_angle_gamma   119.99999744
_symmetry_Int_Tables_number   1
_chemical_formula_structural   Li(VCl3)2
_chemical_formula_sum   'Li2 V4 Cl12'
_cell_volume   431.84080507
_cell_formula_units_Z   2
loop_
 _symmetry_equiv_pos_site_id
 _symmetry_equiv_pos_as_xyz
  1  'x, y, z'
loop_
 _atom_site_type_symbol
 _atom_site_label
 _atom_site_symmetry_multiplicity
 _atom_site_fract_x
 _atom_site_fract_y
 _atom_site_fract_z
 _atom_site_occupancy
  Li  Li0  1  0.333333  0.666667  0.872434  1
  Li  Li1  1  0.666667  0.333333  0.372434  1
  V  V2  1  0.000000  0.000000  0.125774  1
  V  V3  1  0.000000  0.000000  0.376062  1
  V  V4  1  0.000000  0.000000  0.625774  1
  V  V5  1  0.000000  0.000000  0.876062  1
  Cl  Cl6  1  0.007436  0.708480  0.998880  1
  Cl  Cl7  1  0.299134  0.006589  0.252939  1
  Cl  Cl8  1  0.993411  0.292545  0.252939  1
  Cl  Cl9  1  0.291520  0.298956  0.998880  1
  Cl  Cl10  1  0.298956  0.291520  0.498880  1
  Cl  Cl11  1  0.701044  0.992564  0.998880  1
  Cl  Cl12  1  0.292545  0.993411  0.752939  1
  Cl  Cl13  1  0.707455  0.700866  0.252939  1
  Cl  Cl14  1  0.700866  0.707455  0.752939  1
  Cl  Cl15  1  0.992564  0.701044  0.498880  1
  Cl  Cl16  1  0.708480  0.007436  0.498880  1
  Cl  Cl17  1  0.006589  0.299134  0.752939  1
