# generated using pymatgen
data_TbDyY2(ReC2)2
_symmetry_space_group_name_H-M   'P 1'
_cell_length_a   5.13179500
_cell_length_b   6.60043200
_cell_length_c   9.90819500
_cell_angle_alpha   90.00000000
_cell_angle_beta   90.00000000
_cell_angle_gamma   90.00000000
_symmetry_Int_Tables_number   1
_chemical_formula_structural   TbDyY2(ReC2)2
_chemical_formula_sum   'Tb2 Dy2 Y4 Re4 C8'
_cell_volume   335.61101452
_cell_formula_units_Z   2
loop_
 _symmetry_equiv_pos_site_id
 _symmetry_equiv_pos_as_xyz
  1  'x, y, z'
loop_
 _atom_site_type_symbol
 _atom_site_label
 _atom_site_symmetry_multiplicity
 _atom_site_fract_x
 _atom_site_fract_y
 _atom_site_fract_z
 _atom_site_occupancy
  Tb  Tb0  1  0.750000  0.532269  0.783713  1
  Tb  Tb1  1  0.250000  0.967731  0.283713  1
  Dy  Dy2  1  0.750000  0.679373  0.443685  1
  Dy  Dy3  1  0.250000  0.820627  0.943685  1
  Y  Y4  1  0.750000  0.180152  0.056252  1
  Y  Y5  1  0.250000  0.319848  0.556252  1
  Y  Y6  1  0.250000  0.467471  0.216306  1
  Y  Y7  1  0.750000  0.032529  0.716306  1
  Re  Re8  1  0.250000  0.278271  0.865089  1
  Re  Re9  1  0.250000  0.778084  0.634755  1
  Re  Re10  1  0.750000  0.221729  0.365089  1
  Re  Re11  1  0.750000  0.721916  0.134755  1
  C  C12  1  0.250000  0.678010  0.452240  1
  C  C13  1  0.250000  0.545299  0.759209  1
  C  C14  1  0.750000  0.455271  0.241014  1
  C  C15  1  0.750000  0.821990  0.952240  1
  C  C16  1  0.250000  0.044729  0.741014  1
  C  C17  1  0.250000  0.178330  0.047737  1
  C  C18  1  0.750000  0.321670  0.547737  1
  C  C19  1  0.750000  0.954701  0.259209  1
