# generated using pymatgen
data_Hf2As2O9
_symmetry_space_group_name_H-M   'P 1'
_cell_length_a   7.88113335
_cell_length_b   7.88113314
_cell_length_c   10.55348194
_cell_angle_alpha   52.41326943
_cell_angle_beta   52.41327002
_cell_angle_gamma   51.72610769
_symmetry_Int_Tables_number   1
_chemical_formula_structural   Hf2As2O9
_chemical_formula_sum   'Hf4 As4 O18'
_cell_volume   378.33583510
_cell_formula_units_Z   2
loop_
 _symmetry_equiv_pos_site_id
 _symmetry_equiv_pos_as_xyz
  1  'x, y, z'
loop_
 _atom_site_type_symbol
 _atom_site_label
 _atom_site_symmetry_multiplicity
 _atom_site_fract_x
 _atom_site_fract_y
 _atom_site_fract_z
 _atom_site_occupancy
  Hf  Hf0  1  0.314602  0.314602  0.640209  1
  Hf  Hf1  1  0.685398  0.685398  0.359791  1
  Hf  Hf2  1  0.055244  0.055244  0.092507  1
  Hf  Hf3  1  0.944756  0.944756  0.907493  1
  As  As4  1  0.411373  0.411373  0.836671  1
  As  As5  1  0.829282  0.829282  0.540832  1
  As  As6  1  0.588627  0.588627  0.163329  1
  As  As7  1  0.170718  0.170718  0.459168  1
  O  O8  1  0.486985  0.486985  0.621475  1
  O  O9  1  0.715987  0.715987  0.525863  1
  O  O10  1  0.261169  0.261169  0.900756  1
  O  O11  1  0.284013  0.284013  0.474137  1
  O  O12  1  0.985813  0.388947  0.351696  1
  O  O13  1  0.366374  0.767364  0.094222  1
  O  O14  1  0.232636  0.633626  0.905778  1
  O  O15  1  0.886144  0.886144  0.155794  1
  O  O16  1  0.014187  0.611053  0.648304  1
  O  O17  1  0.979506  0.979506  0.338580  1
  O  O18  1  0.513015  0.513015  0.378525  1
  O  O19  1  0.738831  0.738831  0.099244  1
  O  O20  1  0.767364  0.366374  0.094222  1
  O  O21  1  0.020494  0.020494  0.661420  1
  O  O22  1  0.633626  0.232636  0.905778  1
  O  O23  1  0.611053  0.014187  0.648304  1
  O  O24  1  0.113856  0.113856  0.844206  1
  O  O25  1  0.388947  0.985813  0.351696  1
