# generated using pymatgen
data_Pr6ErPI12
_symmetry_space_group_name_H-M   'P 1'
_cell_length_a   9.98427517
_cell_length_b   9.98427613
_cell_length_c   9.98427569
_cell_angle_alpha   107.72518341
_cell_angle_beta   107.72518403
_cell_angle_gamma   107.72516917
_symmetry_Int_Tables_number   1
_chemical_formula_structural   Pr6ErPI12
_chemical_formula_sum   'Pr6 Er1 P1 I12'
_cell_volume   811.93212761
_cell_formula_units_Z   1
loop_
 _symmetry_equiv_pos_site_id
 _symmetry_equiv_pos_as_xyz
  1  'x, y, z'
loop_
 _atom_site_type_symbol
 _atom_site_label
 _atom_site_symmetry_multiplicity
 _atom_site_fract_x
 _atom_site_fract_y
 _atom_site_fract_z
 _atom_site_occupancy
  Pr  Pr0  1  0.805826  0.529817  0.600538  1
  Pr  Pr1  1  0.529817  0.600538  0.805826  1
  Pr  Pr2  1  0.194174  0.470183  0.399462  1
  Pr  Pr3  1  0.470183  0.399462  0.194174  1
  Pr  Pr4  1  0.600538  0.805826  0.529817  1
  Pr  Pr5  1  0.399462  0.194174  0.470183  1
  Er  Er6  1  0.000000  0.000000  0.000000  1
  P  P7  1  0.500000  0.500000  0.500000  1
  I  I8  1  0.729898  0.185759  0.576065  1
  I  I9  1  0.971626  0.894106  0.668972  1
  I  I10  1  0.576065  0.729898  0.185759  1
  I  I11  1  0.105894  0.331028  0.028374  1
  I  I12  1  0.668972  0.971626  0.894106  1
  I  I13  1  0.894106  0.668972  0.971626  1
  I  I14  1  0.028374  0.105894  0.331028  1
  I  I15  1  0.814241  0.423935  0.270102  1
  I  I16  1  0.331028  0.028374  0.105894  1
  I  I17  1  0.270102  0.814241  0.423935  1
  I  I18  1  0.185759  0.576065  0.729898  1
  I  I19  1  0.423935  0.270102  0.814241  1
