# generated using pymatgen
data_In(BBr)6
_symmetry_space_group_name_H-M   'P 1'
_cell_length_a   10.06087711
_cell_length_b   10.06087626
_cell_length_c   17.03895900
_cell_angle_alpha   107.17142209
_cell_angle_beta   72.82857941
_cell_angle_gamma   119.99999470
_symmetry_Int_Tables_number   1
_chemical_formula_structural   In(BBr)6
_chemical_formula_sum   'In4 B24 Br24'
_cell_volume   1404.16629259
_cell_formula_units_Z   4
loop_
 _symmetry_equiv_pos_site_id
 _symmetry_equiv_pos_as_xyz
  1  'x, y, z'
loop_
 _atom_site_type_symbol
 _atom_site_label
 _atom_site_symmetry_multiplicity
 _atom_site_fract_x
 _atom_site_fract_y
 _atom_site_fract_z
 _atom_site_occupancy
  In  In0  1  0.629712  0.370288  0.110864  1
  In  In1  1  0.199802  0.800197  0.400590  1
  In  In2  1  0.800196  0.199803  0.599410  1
  In  In3  1  0.370288  0.629712  0.889136  1
  B  B4  1  0.030854  0.187869  0.020053  1
  B  B5  1  0.812132  0.863038  0.020053  1
  B  B6  1  0.136962  0.969147  0.020053  1
  B  B7  1  0.882166  0.051397  0.084813  1
  B  B8  1  0.084418  0.117834  0.084813  1
  B  B9  1  0.948602  0.915581  0.084813  1
  B  B10  1  0.446393  0.355891  0.415265  1
  B  B11  1  0.644109  0.505767  0.415265  1
  B  B12  1  0.494233  0.553607  0.415265  1
  B  B13  1  0.561039  0.361374  0.480149  1
  B  B14  1  0.320186  0.438961  0.480149  1
  B  B15  1  0.638626  0.679814  0.480149  1
  B  B16  1  0.361374  0.320186  0.519851  1
  B  B17  1  0.679814  0.561039  0.519851  1
  B  B18  1  0.438960  0.638626  0.519851  1
  B  B19  1  0.505767  0.446393  0.584735  1
  B  B20  1  0.355891  0.494233  0.584735  1
  B  B21  1  0.553607  0.644109  0.584735  1
  B  B22  1  0.051398  0.084419  0.915187  1
  B  B23  1  0.915582  0.882166  0.915187  1
  B  B24  1  0.117835  0.948602  0.915187  1
  B  B25  1  0.863038  0.030853  0.979947  1
  B  B26  1  0.187868  0.136962  0.979947  1
  B  B27  1  0.969146  0.812131  0.979947  1
  Br  Br28  1  0.065297  0.405590  0.044147  1
  Br  Br29  1  0.594410  0.703854  0.044147  1
  Br  Br30  1  0.296147  0.934703  0.044147  1
  Br  Br31  1  0.744262  0.110023  0.180470  1
  Br  Br32  1  0.185290  0.255737  0.180470  1
  Br  Br33  1  0.889977  0.814710  0.180470  1
  Br  Br34  1  0.383169  0.188344  0.318937  1
  Br  Br35  1  0.811656  0.513762  0.318937  1
  Br  Br36  1  0.486238  0.616831  0.318937  1
  Br  Br37  1  0.628650  0.197637  0.455381  1
  Br  Br38  1  0.113606  0.371350  0.455381  1
  Br  Br39  1  0.802363  0.886395  0.455381  1
  Br  Br40  1  0.197637  0.113606  0.544620  1
  Br  Br41  1  0.886394  0.628650  0.544620  1
  Br  Br42  1  0.371350  0.802363  0.544620  1
  Br  Br43  1  0.513762  0.383169  0.681064  1
  Br  Br44  1  0.188344  0.486238  0.681064  1
  Br  Br45  1  0.616831  0.811656  0.681064  1
  Br  Br46  1  0.110023  0.185290  0.819530  1
  Br  Br47  1  0.814710  0.744263  0.819530  1
  Br  Br48  1  0.255738  0.889977  0.819530  1
  Br  Br49  1  0.703853  0.065297  0.955853  1
  Br  Br50  1  0.405590  0.296146  0.955853  1
  Br  Br51  1  0.934703  0.594410  0.955853  1
