# generated using pymatgen
data_Ac9La3Ir2(RuBr6)2
_symmetry_space_group_name_H-M   'P 1'
_cell_length_a   10.96400440
_cell_length_b   10.96278160
_cell_length_c   10.93995097
_cell_angle_alpha   108.37221047
_cell_angle_beta   109.79147624
_cell_angle_gamma   110.23863912
_symmetry_Int_Tables_number   1
_chemical_formula_structural   Ac9La3Ir2(RuBr6)2
_chemical_formula_sum   'Ac9 La3 Ir2 Ru2 Br12'
_cell_volume   1012.16260599
_cell_formula_units_Z   1
loop_
 _symmetry_equiv_pos_site_id
 _symmetry_equiv_pos_as_xyz
  1  'x, y, z'
loop_
 _atom_site_type_symbol
 _atom_site_label
 _atom_site_symmetry_multiplicity
 _atom_site_fract_x
 _atom_site_fract_y
 _atom_site_fract_z
 _atom_site_occupancy
  Ac  Ac0  1  0.266918  0.750122  0.237500  1
  Ac  Ac1  1  0.484206  0.748203  0.018327  1
  Ac  Ac2  1  0.231826  0.468814  0.486874  1
  Ac  Ac3  1  0.015376  0.030859  0.263365  1
  Ac  Ac4  1  0.232623  0.261602  0.748294  1
  Ac  Ac5  1  0.013739  0.481004  0.750098  1
  Ac  Ac6  1  0.484358  0.237353  0.469213  1
  Ac  Ac7  1  0.266213  0.015113  0.030136  1
  Ac  Ac8  1  0.751659  0.236237  0.265221  1
  La  La9  1  0.757983  0.025203  0.483251  1
  La  La10  1  0.457289  0.475656  0.233292  1
  La  La11  1  0.043313  0.267671  0.023609  1
  Ir  Ir12  1  0.501711  0.000815  0.252047  1
  Ir  Ir13  1  0.249609  0.496651  0.003134  1
  Ru  Ru14  1  0.993806  0.243929  0.499726  1
  Ru  Ru15  1  0.251273  0.255568  0.244750  1
  Br  Br16  1  0.249252  0.992411  0.506432  1
  Br  Br17  1  0.514059  0.507574  0.756985  1
  Br  Br18  1  0.249834  0.756391  0.742336  1
  Br  Br19  1  0.985804  0.742898  0.993391  1
  Br  Br20  1  0.994855  0.501216  0.244007  1
  Br  Br21  1  0.748787  0.999539  0.989683  1
  Br  Br22  1  0.752359  0.749193  0.257459  1
  Br  Br23  1  0.507950  0.750526  0.503233  1
  Br  Br24  1  0.506096  0.257637  0.999234  1
  Br  Br25  1  0.752124  0.511517  0.500020  1
  Br  Br26  1  0.747589  0.242040  0.751698  1
  Br  Br27  1  0.989387  0.994258  0.746688  1
