# generated using pymatgen
data_LiSc18Si16W
_symmetry_space_group_name_H-M   'P 1'
_cell_length_a   6.82403568
_cell_length_b   7.16408811
_cell_length_c   13.59559800
_cell_angle_alpha   90.00000000
_cell_angle_beta   90.00000000
_cell_angle_gamma   89.89322053
_symmetry_Int_Tables_number   1
_chemical_formula_structural   LiSc18Si16W
_chemical_formula_sum   'Li1 Sc18 Si16 W1'
_cell_volume   664.66034352
_cell_formula_units_Z   1
loop_
 _symmetry_equiv_pos_site_id
 _symmetry_equiv_pos_as_xyz
  1  'x, y, z'
loop_
 _atom_site_type_symbol
 _atom_site_label
 _atom_site_symmetry_multiplicity
 _atom_site_fract_x
 _atom_site_fract_y
 _atom_site_fract_z
 _atom_site_occupancy
  Li  Li0  1  0.840376  0.011662  0.250000  1
  Sc  Sc1  1  0.344799  0.493904  0.250000  1
  Sc  Sc2  1  0.657800  0.510006  0.750000  1
  Sc  Sc3  1  0.992606  0.686051  0.600069  1
  Sc  Sc4  1  0.009896  0.312902  0.405142  1
  Sc  Sc5  1  0.515391  0.177282  0.404348  1
  Sc  Sc6  1  0.009896  0.312902  0.094858  1
  Sc  Sc7  1  0.486000  0.823073  0.597697  1
  Sc  Sc8  1  0.992606  0.686051  0.899931  1
  Sc  Sc9  1  0.486000  0.823073  0.902303  1
  Sc  Sc10  1  0.515391  0.177282  0.095652  1
  Sc  Sc11  1  0.329224  0.322409  0.626320  1
  Sc  Sc12  1  0.675140  0.679911  0.372688  1
  Sc  Sc13  1  0.166498  0.829709  0.375114  1
  Sc  Sc14  1  0.675140  0.679911  0.127312  1
  Sc  Sc15  1  0.826262  0.173261  0.627967  1
  Sc  Sc16  1  0.329224  0.322409  0.873680  1
  Sc  Sc17  1  0.826262  0.173261  0.872033  1
  Sc  Sc18  1  0.166498  0.829709  0.124886  1
  Si  Si19  1  0.031149  0.388877  0.750000  1
  Si  Si20  1  0.974491  0.592329  0.250000  1
  Si  Si21  1  0.471248  0.900322  0.250000  1
  Si  Si22  1  0.518935  0.092781  0.750000  1
  Si  Si23  1  0.282901  0.647843  0.750000  1
  Si  Si24  1  0.717668  0.362443  0.250000  1
  Si  Si25  1  0.218375  0.136103  0.250000  1
  Si  Si26  1  0.792798  0.865051  0.750000  1
  Si  Si27  1  0.156886  0.028620  0.547285  1
  Si  Si28  1  0.836089  0.963735  0.466743  1
  Si  Si29  1  0.340871  0.532921  0.461519  1
  Si  Si30  1  0.836089  0.963735  0.033257  1
  Si  Si31  1  0.663425  0.469512  0.537552  1
  Si  Si32  1  0.156886  0.028620  0.952715  1
  Si  Si33  1  0.663425  0.469512  0.962448  1
  Si  Si34  1  0.340871  0.532921  0.038481  1
  W  W35  1  0.152881  0.999907  0.750000  1
