# generated using pymatgen
data_ThMnSi2Tc
_symmetry_space_group_name_H-M   'P 1'
_cell_length_a   5.93421618
_cell_length_b   5.93421600
_cell_length_c   5.93421647
_cell_angle_alpha   139.48606870
_cell_angle_beta   139.48606799
_cell_angle_gamma   58.63447117
_symmetry_Int_Tables_number   1
_chemical_formula_structural   ThMnSi2Tc
_chemical_formula_sum   'Th1 Mn1 Si2 Tc1'
_cell_volume   87.36951547
_cell_formula_units_Z   1
loop_
 _symmetry_equiv_pos_site_id
 _symmetry_equiv_pos_as_xyz
  1  'x, y, z'
loop_
 _atom_site_type_symbol
 _atom_site_label
 _atom_site_symmetry_multiplicity
 _atom_site_fract_x
 _atom_site_fract_y
 _atom_site_fract_z
 _atom_site_occupancy
  Th  Th0  1  0.000000  0.000000  0.000000  1
  Mn  Mn1  1  0.250000  0.750000  0.500000  1
  Si  Si2  1  0.376894  0.376894  0.000000  1
  Si  Si3  1  0.623106  0.623106  0.000000  1
  Tc  Tc4  1  0.750000  0.250000  0.500000  1
