# generated using pymatgen
data_Mn28Nb
_symmetry_space_group_name_H-M   'P 1'
_cell_length_a   7.52005514
_cell_length_b   7.52005440
_cell_length_c   7.52005400
_cell_angle_alpha   109.47122224
_cell_angle_beta   109.47122025
_cell_angle_gamma   109.47121540
_symmetry_Int_Tables_number   1
_chemical_formula_structural   Mn28Nb
_chemical_formula_sum   'Mn28 Nb1'
_cell_volume   327.37167299
_cell_formula_units_Z   1
loop_
 _symmetry_equiv_pos_site_id
 _symmetry_equiv_pos_as_xyz
  1  'x, y, z'
loop_
 _atom_site_type_symbol
 _atom_site_label
 _atom_site_symmetry_multiplicity
 _atom_site_fract_x
 _atom_site_fract_y
 _atom_site_fract_z
 _atom_site_occupancy
  Mn  Mn0  1  0.628072  0.628072  0.628072  1
  Mn  Mn1  1  0.000000  0.000000  0.371928  1
  Mn  Mn2  1  0.371928  0.000000  0.000000  1
  Mn  Mn3  1  0.000000  0.371928  0.000000  1
  Mn  Mn4  1  0.390979  0.390979  0.711535  1
  Mn  Mn5  1  0.679444  0.679444  0.288465  1
  Mn  Mn6  1  0.609021  0.320556  0.000000  1
  Mn  Mn7  1  0.320556  0.609021  0.000000  1
  Mn  Mn8  1  0.711535  0.390979  0.390979  1
  Mn  Mn9  1  0.390979  0.711535  0.390979  1
  Mn  Mn10  1  0.000000  0.320556  0.609021  1
  Mn  Mn11  1  0.679444  0.288465  0.679444  1
  Mn  Mn12  1  0.288465  0.679444  0.679444  1
  Mn  Mn13  1  0.320556  0.000000  0.609021  1
  Mn  Mn14  1  0.000000  0.609021  0.320556  1
  Mn  Mn15  1  0.609021  0.000000  0.320556  1
  Mn  Mn16  1  0.375626  0.375626  0.179203  1
  Mn  Mn17  1  0.196423  0.196423  0.820795  1
  Mn  Mn18  1  0.624374  0.803577  0.000000  1
  Mn  Mn19  1  0.803577  0.624374  0.000000  1
  Mn  Mn20  1  0.179203  0.375626  0.375626  1
  Mn  Mn21  1  0.375626  0.179203  0.375626  1
  Mn  Mn22  1  0.000000  0.803577  0.624374  1
  Mn  Mn23  1  0.196423  0.820795  0.196423  1
  Mn  Mn24  1  0.820795  0.196423  0.196423  1
  Mn  Mn25  1  0.803577  0.000000  0.624374  1
  Mn  Mn26  1  0.000000  0.624374  0.803577  1
  Mn  Mn27  1  0.624374  0.000000  0.803577  1
  Nb  Nb28  1  0.000000  0.000000  0.000000  1
