# generated using pymatgen
data_Li4Sm3LuSi8
_symmetry_space_group_name_H-M   'P 1'
_cell_length_a   3.83116800
_cell_length_b   7.63706137
_cell_length_c   10.27302812
_cell_angle_alpha   90.16200982
_cell_angle_beta   90.00000000
_cell_angle_gamma   90.00000000
_symmetry_Int_Tables_number   1
_chemical_formula_structural   Li4Sm3LuSi8
_chemical_formula_sum   'Li4 Sm3 Lu1 Si8'
_cell_volume   300.57594253
_cell_formula_units_Z   1
loop_
 _symmetry_equiv_pos_site_id
 _symmetry_equiv_pos_as_xyz
  1  'x, y, z'
loop_
 _atom_site_type_symbol
 _atom_site_label
 _atom_site_symmetry_multiplicity
 _atom_site_fract_x
 _atom_site_fract_y
 _atom_site_fract_z
 _atom_site_occupancy
  Li  Li0  1  0.250000  0.988827  0.391908  1
  Li  Li1  1  0.250000  0.491428  0.109041  1
  Li  Li2  1  0.750000  0.009310  0.606797  1
  Li  Li3  1  0.750000  0.508865  0.891582  1
  Sm  Sm4  1  0.250000  0.141304  0.864433  1
  Sm  Sm5  1  0.250000  0.639210  0.635396  1
  Sm  Sm6  1  0.750000  0.859702  0.136805  1
  Lu  Lu7  1  0.750000  0.364072  0.363934  1
  Si  Si8  1  0.250000  0.232889  0.563181  1
  Si  Si9  1  0.250000  0.730334  0.930696  1
  Si  Si10  1  0.750000  0.764964  0.430035  1
  Si  Si11  1  0.750000  0.273590  0.074621  1
  Si  Si12  1  0.250000  0.651316  0.321546  1
  Si  Si13  1  0.250000  0.161557  0.183942  1
  Si  Si14  1  0.750000  0.341533  0.675450  1
  Si  Si15  1  0.750000  0.841099  0.820631  1
