# generated using pymatgen
data_Nd5YAl24Pd3Ru5
_symmetry_space_group_name_H-M   'P 1'
_cell_length_a   8.93719674
_cell_length_b   8.93343764
_cell_length_c   9.64816037
_cell_angle_alpha   90.10512170
_cell_angle_beta   89.93830189
_cell_angle_gamma   119.91884950
_symmetry_Int_Tables_number   1
_chemical_formula_structural   Nd5YAl24Pd3Ru5
_chemical_formula_sum   'Nd5 Y1 Al24 Pd3 Ru5'
_cell_volume   667.65005498
_cell_formula_units_Z   1
loop_
 _symmetry_equiv_pos_site_id
 _symmetry_equiv_pos_as_xyz
  1  'x, y, z'
loop_
 _atom_site_type_symbol
 _atom_site_label
 _atom_site_symmetry_multiplicity
 _atom_site_fract_x
 _atom_site_fract_y
 _atom_site_fract_z
 _atom_site_occupancy
  Nd  Nd0  1  0.806874  0.616108  0.750611  1
  Nd  Nd1  1  0.618428  0.806936  0.251872  1
  Nd  Nd2  1  0.381428  0.192578  0.748124  1
  Nd  Nd3  1  0.188845  0.808970  0.249307  1
  Nd  Nd4  1  0.810967  0.190427  0.750454  1
  Y  Y5  1  0.195187  0.387583  0.250071  1
  Al  Al6  1  0.335244  0.662890  0.022736  1
  Al  Al7  1  0.663490  0.335540  0.980662  1
  Al  Al8  1  0.669510  0.338471  0.518755  1
  Al  Al9  1  0.329978  0.660210  0.478123  1
  Al  Al10  1  0.164204  0.327792  0.573137  1
  Al  Al11  1  0.836057  0.672066  0.424302  1
  Al  Al12  1  0.674386  0.830938  0.576503  1
  Al  Al13  1  0.830862  0.674225  0.079223  1
  Al  Al14  1  0.324469  0.169684  0.421926  1
  Al  Al15  1  0.168785  0.325514  0.923289  1
  Al  Al16  1  0.156248  0.831618  0.576335  1
  Al  Al17  1  0.323763  0.169416  0.078000  1
  Al  Al18  1  0.845949  0.169267  0.421813  1
  Al  Al19  1  0.674795  0.831184  0.923700  1
  Al  Al20  1  0.839736  0.162017  0.081187  1
  Al  Al21  1  0.162252  0.838985  0.920364  1
  Al  Al22  1  0.564038  0.128391  0.249957  1
  Al  Al23  1  0.435978  0.871576  0.750008  1
  Al  Al24  1  0.875166  0.436718  0.253177  1
  Al  Al25  1  0.126571  0.562463  0.746367  1
  Al  Al26  1  0.559664  0.438256  0.249760  1
  Al  Al27  1  0.437480  0.560928  0.750438  1
  Al  Al28  1  0.001206  0.002377  0.250307  1
  Al  Al29  1  0.000695  0.001018  0.749699  1
  Pd  Pd30  1  0.499653  0.999029  0.000190  1
  Pd  Pd31  1  0.000464  0.499457  0.000631  1
  Pd  Pd32  1  0.499585  0.999072  0.499839  1
  Ru  Ru33  1  0.498466  0.499271  0.001170  1
  Ru  Ru34  1  0.000755  0.499440  0.498855  1
  Ru  Ru35  1  0.498895  0.499422  0.499070  1
  Ru  Ru36  1  0.999900  0.000080  0.000317  1
  Ru  Ru37  1  0.000025  0.000085  0.499723  1
