# generated using pymatgen
data_Dy16CdNi4Ag3
_symmetry_space_group_name_H-M   'P 1'
_cell_length_a   9.45754646
_cell_length_b   9.47874437
_cell_length_c   9.47874600
_cell_angle_alpha   60.00000130
_cell_angle_beta   59.92582948
_cell_angle_gamma   59.92583783
_symmetry_Int_Tables_number   1
_chemical_formula_structural   Dy16CdNi4Ag3
_chemical_formula_sum   'Dy16 Cd1 Ni4 Ag3'
_cell_volume   600.17433743
_cell_formula_units_Z   1
loop_
 _symmetry_equiv_pos_site_id
 _symmetry_equiv_pos_as_xyz
  1  'x, y, z'
loop_
 _atom_site_type_symbol
 _atom_site_label
 _atom_site_symmetry_multiplicity
 _atom_site_fract_x
 _atom_site_fract_y
 _atom_site_fract_z
 _atom_site_occupancy
  Dy  Dy0  1  0.350248  0.349115  0.349115  1
  Dy  Dy1  1  0.350248  0.349115  0.951521  1
  Dy  Dy2  1  0.350248  0.951521  0.349115  1
  Dy  Dy3  1  0.948127  0.350624  0.350624  1
  Dy  Dy4  1  0.810752  0.189001  0.189001  1
  Dy  Dy5  1  0.188136  0.811425  0.811425  1
  Dy  Dy6  1  0.188136  0.811425  0.189013  1
  Dy  Dy7  1  0.810752  0.189001  0.811247  1
  Dy  Dy8  1  0.188136  0.189013  0.811425  1
  Dy  Dy9  1  0.810752  0.811247  0.189001  1
  Dy  Dy10  1  0.932736  0.564866  0.564866  1
  Dy  Dy11  1  0.565077  0.935279  0.935279  1
  Dy  Dy12  1  0.565077  0.935279  0.564365  1
  Dy  Dy13  1  0.932736  0.564866  0.937531  1
  Dy  Dy14  1  0.565077  0.564365  0.935279  1
  Dy  Dy15  1  0.932736  0.937531  0.564866  1
  Cd  Cd16  1  0.263528  0.578825  0.578825  1
  Ni  Ni17  1  0.142086  0.142919  0.142919  1
  Ni  Ni18  1  0.142086  0.142919  0.572074  1
  Ni  Ni19  1  0.142086  0.572074  0.142919  1
  Ni  Ni20  1  0.573163  0.142279  0.142279  1
  Ag  Ag21  1  0.582693  0.582425  0.582425  1
  Ag  Ag22  1  0.582693  0.582425  0.252456  1
  Ag  Ag23  1  0.582693  0.252456  0.582425  1
