# generated using pymatgen
data_Tb8HoTm(SiB4)4
_symmetry_space_group_name_H-M   'P 1'
_cell_length_a   7.24368400
_cell_length_b   7.24368400
_cell_length_c   8.10357500
_cell_angle_alpha   90.00000000
_cell_angle_beta   90.00000000
_cell_angle_gamma   90.00000000
_symmetry_Int_Tables_number   1
_chemical_formula_structural   Tb8HoTm(SiB4)4
_chemical_formula_sum   'Tb8 Ho1 Tm1 Si4 B16'
_cell_volume   425.20234260
_cell_formula_units_Z   1
loop_
 _symmetry_equiv_pos_site_id
 _symmetry_equiv_pos_as_xyz
  1  'x, y, z'
loop_
 _atom_site_type_symbol
 _atom_site_label
 _atom_site_symmetry_multiplicity
 _atom_site_fract_x
 _atom_site_fract_y
 _atom_site_fract_z
 _atom_site_occupancy
  Tb  Tb0  1  0.680189  0.180396  0.225011  1
  Tb  Tb1  1  0.319811  0.819604  0.774989  1
  Tb  Tb2  1  0.319811  0.819604  0.225011  1
  Tb  Tb3  1  0.819604  0.680189  0.225011  1
  Tb  Tb4  1  0.819604  0.680189  0.774989  1
  Tb  Tb5  1  0.680189  0.180396  0.774989  1
  Tb  Tb6  1  0.180396  0.319811  0.774989  1
  Tb  Tb7  1  0.180396  0.319811  0.225011  1
  Ho  Ho8  1  0.000000  0.000000  0.500000  1
  Tm  Tm9  1  0.500000  0.500000  0.500000  1
  Si  Si10  1  0.115624  0.614735  0.500000  1
  Si  Si11  1  0.884376  0.385265  0.500000  1
  Si  Si12  1  0.385265  0.115624  0.500000  1
  Si  Si13  1  0.614735  0.884376  0.500000  1
  B  B14  1  0.172347  0.039122  0.000000  1
  B  B15  1  0.827653  0.960878  0.000000  1
  B  B16  1  0.960878  0.172347  0.000000  1
  B  B17  1  0.327646  0.539067  0.000000  1
  B  B18  1  0.039122  0.827653  0.000000  1
  B  B19  1  0.672354  0.460933  0.000000  1
  B  B20  1  0.539067  0.672354  0.000000  1
  B  B21  1  0.460933  0.327646  0.000000  1
  B  B22  1  0.089870  0.589936  0.000000  1
  B  B23  1  0.910130  0.410064  0.000000  1
  B  B24  1  0.410064  0.089870  0.000000  1
  B  B25  1  0.589936  0.910130  0.000000  1
  B  B26  1  0.000000  0.000000  0.161824  1
  B  B27  1  0.000000  0.000000  0.838176  1
  B  B28  1  0.500000  0.500000  0.837826  1
  B  B29  1  0.500000  0.500000  0.162174  1
