# generated using pymatgen
data_Ho4TcMo3N8
_symmetry_space_group_name_H-M   'P 1'
_cell_length_a   3.18641500
_cell_length_b   5.68313202
_cell_length_c   10.59177182
_cell_angle_alpha   89.79578859
_cell_angle_beta   90.00000000
_cell_angle_gamma   90.00000000
_symmetry_Int_Tables_number   1
_chemical_formula_structural   Ho4TcMo3N8
_chemical_formula_sum   'Ho4 Tc1 Mo3 N8'
_cell_volume   191.80324067
_cell_formula_units_Z   1
loop_
 _symmetry_equiv_pos_site_id
 _symmetry_equiv_pos_as_xyz
  1  'x, y, z'
loop_
 _atom_site_type_symbol
 _atom_site_label
 _atom_site_symmetry_multiplicity
 _atom_site_fract_x
 _atom_site_fract_y
 _atom_site_fract_z
 _atom_site_occupancy
  Ho  Ho0  1  0.250000  0.078988  0.852726  1
  Ho  Ho1  1  0.250000  0.577573  0.646470  1
  Ho  Ho2  1  0.750000  0.920072  0.146817  1
  Ho  Ho3  1  0.750000  0.420945  0.351566  1
  Tc  Tc4  1  0.250000  0.434583  0.095317  1
  Mo  Mo5  1  0.250000  0.934061  0.407779  1
  Mo  Mo6  1  0.750000  0.566866  0.906434  1
  Mo  Mo7  1  0.750000  0.066267  0.592585  1
  N  N8  1  0.250000  0.164182  0.248983  1
  N  N9  1  0.250000  0.665624  0.250101  1
  N  N10  1  0.750000  0.834238  0.753429  1
  N  N11  1  0.750000  0.333832  0.748324  1
  N  N12  1  0.250000  0.756413  0.993957  1
  N  N13  1  0.250000  0.260304  0.505873  1
  N  N14  1  0.750000  0.246962  0.005850  1
  N  N15  1  0.750000  0.739090  0.493790  1
