# generated using pymatgen
data_La2MnCr2Re14C3
_symmetry_space_group_name_H-M   'P 1'
_cell_length_a   6.98506391
_cell_length_b   6.98506466
_cell_length_c   6.99896836
_cell_angle_alpha   82.90584783
_cell_angle_beta   82.90582980
_cell_angle_gamma   82.87472583
_symmetry_Int_Tables_number   1
_chemical_formula_structural   La2MnCr2Re14C3
_chemical_formula_sum   'La2 Mn1 Cr2 Re14 C3'
_cell_volume   334.22076650
_cell_formula_units_Z   1
loop_
 _symmetry_equiv_pos_site_id
 _symmetry_equiv_pos_as_xyz
  1  'x, y, z'
loop_
 _atom_site_type_symbol
 _atom_site_label
 _atom_site_symmetry_multiplicity
 _atom_site_fract_x
 _atom_site_fract_y
 _atom_site_fract_z
 _atom_site_occupancy
  La  La0  1  0.646225  0.646225  0.647137  1
  La  La1  1  0.353775  0.353775  0.352863  1
  Mn  Mn2  1  0.000000  0.000000  0.500000  1
  Cr  Cr3  1  0.500000  0.000000  0.000000  1
  Cr  Cr4  1  0.000000  0.500000  0.000000  1
  Re  Re5  1  0.722027  0.277973  0.000000  1
  Re  Re6  1  0.000093  0.720825  0.278484  1
  Re  Re7  1  0.279175  0.999907  0.721516  1
  Re  Re8  1  0.999907  0.279175  0.721516  1
  Re  Re9  1  0.720825  0.000093  0.278484  1
  Re  Re10  1  0.277973  0.722027  0.000000  1
  Re  Re11  1  0.343673  0.343673  0.867786  1
  Re  Re12  1  0.867693  0.343704  0.341572  1
  Re  Re13  1  0.343704  0.867693  0.341572  1
  Re  Re14  1  0.656327  0.656327  0.132214  1
  Re  Re15  1  0.132307  0.656296  0.658428  1
  Re  Re16  1  0.656296  0.132307  0.658428  1
  Re  Re17  1  0.901370  0.901370  0.901367  1
  Re  Re18  1  0.098630  0.098630  0.098633  1
  C  C19  1  0.500000  0.500000  0.000000  1
  C  C20  1  0.000000  0.500000  0.500000  1
  C  C21  1  0.500000  0.000000  0.500000  1
