# generated using pymatgen
data_ReW5Cl18
_symmetry_space_group_name_H-M   'P 1'
_cell_length_a   9.51218435
_cell_length_b   9.50353071
_cell_length_c   9.50353057
_cell_angle_alpha   69.20655402
_cell_angle_beta   68.88763507
_cell_angle_gamma   68.88763608
_symmetry_Int_Tables_number   1
_chemical_formula_structural   ReW5Cl18
_chemical_formula_sum   'Re1 W5 Cl18'
_cell_volume   722.16952605
_cell_formula_units_Z   1
loop_
 _symmetry_equiv_pos_site_id
 _symmetry_equiv_pos_as_xyz
  1  'x, y, z'
loop_
 _atom_site_type_symbol
 _atom_site_label
 _atom_site_symmetry_multiplicity
 _atom_site_fract_x
 _atom_site_fract_y
 _atom_site_fract_z
 _atom_site_occupancy
  Re  Re0  1  0.871608  0.649016  0.649016  1
  W  W1  1  0.355557  0.354757  0.116917  1
  W  W2  1  0.113452  0.357698  0.357698  1
  W  W3  1  0.355557  0.116917  0.354757  1
  W  W4  1  0.645408  0.884117  0.642259  1
  W  W5  1  0.645408  0.642259  0.884117  1
  Cl  Cl6  1  0.129103  0.131459  0.579665  1
  Cl  Cl7  1  0.581905  0.128832  0.128832  1
  Cl  Cl8  1  0.129103  0.579665  0.131459  1
  Cl  Cl9  1  0.873702  0.419135  0.871673  1
  Cl  Cl10  1  0.873702  0.871673  0.419135  1
  Cl  Cl11  1  0.420811  0.869247  0.869247  1
  Cl  Cl12  1  0.824325  0.511593  0.511593  1
  Cl  Cl13  1  0.514313  0.505238  0.827108  1
  Cl  Cl14  1  0.514313  0.827108  0.505238  1
  Cl  Cl15  1  0.491440  0.171368  0.489644  1
  Cl  Cl16  1  0.171352  0.490076  0.490076  1
  Cl  Cl17  1  0.491440  0.489644  0.171368  1
  Cl  Cl18  1  0.033267  0.721640  0.721640  1
  Cl  Cl19  1  0.721547  0.716335  0.041864  1
  Cl  Cl20  1  0.721547  0.041864  0.716335  1
  Cl  Cl21  1  0.282249  0.959100  0.278769  1
  Cl  Cl22  1  0.956643  0.282490  0.282490  1
  Cl  Cl23  1  0.282249  0.278769  0.959100  1
