# generated using pymatgen
data_Eu4Be(Si2Pt)5
_symmetry_space_group_name_H-M   'P 1'
_cell_length_a   8.32039151
_cell_length_b   8.32039193
_cell_length_c   8.32039137
_cell_angle_alpha   137.97063935
_cell_angle_beta   104.97968943
_cell_angle_gamma   89.92674745
_symmetry_Int_Tables_number   1
_chemical_formula_structural   Eu4Be(Si2Pt)5
_chemical_formula_sum   'Eu4 Be1 Si10 Pt5'
_cell_volume   355.97549127
_cell_formula_units_Z   1
loop_
 _symmetry_equiv_pos_site_id
 _symmetry_equiv_pos_as_xyz
  1  'x, y, z'
loop_
 _atom_site_type_symbol
 _atom_site_label
 _atom_site_symmetry_multiplicity
 _atom_site_fract_x
 _atom_site_fract_y
 _atom_site_fract_z
 _atom_site_occupancy
  Eu  Eu0  1  0.109178  0.873611  0.236798  1
  Eu  Eu1  1  0.890822  0.127620  0.764433  1
  Eu  Eu2  1  0.636814  0.372380  0.263202  1
  Eu  Eu3  1  0.363186  0.626389  0.735567  1
  Be  Be4  1  0.500000  0.750000  0.250000  1
  Si  Si5  1  0.000000  0.750000  0.750000  1
  Si  Si6  1  0.000000  0.250000  0.250000  1
  Si  Si7  1  0.273074  0.023074  0.750000  1
  Si  Si8  1  0.726926  0.476926  0.750000  1
  Si  Si9  1  0.731510  0.981510  0.250000  1
  Si  Si10  1  0.268490  0.518490  0.250000  1
  Si  Si11  1  0.758697  0.621329  0.155696  1
  Si  Si12  1  0.241303  0.396999  0.862632  1
  Si  Si13  1  0.465633  0.103001  0.344304  1
  Si  Si14  1  0.534367  0.878671  0.637368  1
  Pt  Pt15  1  0.500000  0.250000  0.750000  1
  Pt  Pt16  1  0.022769  0.638351  0.389163  1
  Pt  Pt17  1  0.977231  0.366394  0.615582  1
  Pt  Pt18  1  0.249188  0.133606  0.110837  1
  Pt  Pt19  1  0.750812  0.861649  0.884418  1
