# generated using pymatgen
data_La5Pr5(Sn3P)2
_symmetry_space_group_name_H-M   'P 1'
_cell_length_a   9.53676535
_cell_length_b   9.55424931
_cell_length_c   7.15829600
_cell_angle_alpha   90.00000000
_cell_angle_beta   90.00000000
_cell_angle_gamma   120.06065706
_symmetry_Int_Tables_number   1
_chemical_formula_structural   La5Pr5(Sn3P)2
_chemical_formula_sum   'La5 Pr5 Sn6 P2'
_cell_volume   564.51069809
_cell_formula_units_Z   1
loop_
 _symmetry_equiv_pos_site_id
 _symmetry_equiv_pos_as_xyz
  1  'x, y, z'
loop_
 _atom_site_type_symbol
 _atom_site_label
 _atom_site_symmetry_multiplicity
 _atom_site_fract_x
 _atom_site_fract_y
 _atom_site_fract_z
 _atom_site_occupancy
  La  La0  1  0.760312  0.759940  0.750000  1
  La  La1  1  0.239688  0.999628  0.750000  1
  La  La2  1  0.000000  0.239575  0.750000  1
  La  La3  1  0.239838  0.239764  0.250000  1
  La  La4  1  0.760162  0.999926  0.250000  1
  Pr  Pr5  1  0.667135  0.333800  0.000259  1
  Pr  Pr6  1  0.332865  0.666666  0.000259  1
  Pr  Pr7  1  0.332865  0.666666  0.499741  1
  Pr  Pr8  1  0.667135  0.333800  0.499741  1
  Pr  Pr9  1  0.000000  0.760371  0.250000  1
  Sn  Sn10  1  0.401936  0.401871  0.750000  1
  Sn  Sn11  1  0.598064  0.999935  0.750000  1
  Sn  Sn12  1  0.000000  0.598560  0.750000  1
  Sn  Sn13  1  0.599945  0.598619  0.250000  1
  Sn  Sn14  1  0.400055  0.998674  0.250000  1
  Sn  Sn15  1  0.000000  0.402529  0.250000  1
  P  P16  1  0.000000  0.999838  0.000366  1
  P  P17  1  0.000000  0.999838  0.499634  1
