# generated using pymatgen
data_CsZrHgF7
_symmetry_space_group_name_H-M   'P 1'
_cell_length_a   6.81151046
_cell_length_b   6.81151006
_cell_length_c   9.00449100
_cell_angle_alpha   90.00000000
_cell_angle_beta   90.00000000
_cell_angle_gamma   118.32922867
_symmetry_Int_Tables_number   1
_chemical_formula_structural   CsZrHgF7
_chemical_formula_sum   'Cs2 Zr2 Hg2 F14'
_cell_volume   367.74334650
_cell_formula_units_Z   2
loop_
 _symmetry_equiv_pos_site_id
 _symmetry_equiv_pos_as_xyz
  1  'x, y, z'
loop_
 _atom_site_type_symbol
 _atom_site_label
 _atom_site_symmetry_multiplicity
 _atom_site_fract_x
 _atom_site_fract_y
 _atom_site_fract_z
 _atom_site_occupancy
  Cs  Cs0  1  0.500000  0.500000  0.500000  1
  Cs  Cs1  1  0.500000  0.500000  0.000000  1
  Zr  Zr2  1  0.808484  0.191516  0.250000  1
  Zr  Zr3  1  0.191516  0.808484  0.750000  1
  Hg  Hg4  1  0.809439  0.190561  0.750000  1
  Hg  Hg5  1  0.190561  0.809439  0.250000  1
  F  F6  1  0.796947  0.203053  0.023427  1
  F  F7  1  0.148554  0.435127  0.250000  1
  F  F8  1  0.564873  0.851446  0.250000  1
  F  F9  1  0.521400  0.832391  0.750000  1
  F  F10  1  0.167609  0.478600  0.750000  1
  F  F11  1  0.796947  0.203053  0.476573  1
  F  F12  1  0.435127  0.148554  0.750000  1
  F  F13  1  0.832391  0.521400  0.250000  1
  F  F14  1  0.478600  0.167609  0.250000  1
  F  F15  1  0.985386  0.014614  0.250000  1
  F  F16  1  0.203053  0.796947  0.523427  1
  F  F17  1  0.203053  0.796947  0.976573  1
  F  F18  1  0.014614  0.985386  0.750000  1
  F  F19  1  0.851446  0.564873  0.750000  1
