# generated using pymatgen
data_Ta3BiF20
_symmetry_space_group_name_H-M   'P 1'
_cell_length_a   9.00159977
_cell_length_b   9.00160015
_cell_length_c   5.53607744
_cell_angle_alpha   88.23269409
_cell_angle_beta   88.23269635
_cell_angle_gamma   111.04040151
_symmetry_Int_Tables_number   1
_chemical_formula_structural   Ta3BiF20
_chemical_formula_sum   'Ta3 Bi1 F20'
_cell_volume   418.05193050
_cell_formula_units_Z   1
loop_
 _symmetry_equiv_pos_site_id
 _symmetry_equiv_pos_as_xyz
  1  'x, y, z'
loop_
 _atom_site_type_symbol
 _atom_site_label
 _atom_site_symmetry_multiplicity
 _atom_site_fract_x
 _atom_site_fract_y
 _atom_site_fract_z
 _atom_site_occupancy
  Ta  Ta0  1  0.200494  0.799506  0.000000  1
  Ta  Ta1  1  0.256227  0.251126  0.246794  1
  Ta  Ta2  1  0.748874  0.743773  0.753206  1
  Bi  Bi3  1  0.796657  0.203343  0.000000  1
  F  F4  1  0.267519  0.450544  0.342679  1
  F  F5  1  0.455869  0.263996  0.342962  1
  F  F6  1  0.736004  0.544131  0.657038  1
  F  F7  1  0.549456  0.732481  0.657321  1
  F  F8  1  0.321977  0.319557  0.921857  1
  F  F9  1  0.680443  0.678023  0.078143  1
  F  F10  1  0.837316  0.417122  0.140736  1
  F  F11  1  0.398218  0.830640  0.123682  1
  F  F12  1  0.169360  0.601782  0.876318  1
  F  F13  1  0.582878  0.162684  0.859264  1
  F  F14  1  0.027699  0.211053  0.120567  1
  F  F15  1  0.213976  0.023193  0.119560  1
  F  F16  1  0.976807  0.786024  0.880440  1
  F  F17  1  0.788947  0.972301  0.879433  1
  F  F18  1  0.140304  0.137860  0.524656  1
  F  F19  1  0.862140  0.859696  0.475344  1
  F  F20  1  0.918455  0.293350  0.686883  1
  F  F21  1  0.278869  0.915141  0.704627  1
  F  F22  1  0.084859  0.721131  0.295373  1
  F  F23  1  0.706650  0.081545  0.313117  1
