# generated using pymatgen
data_Dy2Ho3Rh2
_symmetry_space_group_name_H-M   'P 1'
_cell_length_a   6.40474174
_cell_length_b   7.14942787
_cell_length_c   8.63359081
_cell_angle_alpha   96.84912670
_cell_angle_beta   111.77237157
_cell_angle_gamma   90.00000065
_symmetry_Int_Tables_number   1
_chemical_formula_structural   Dy2Ho3Rh2
_chemical_formula_sum   'Dy4 Ho6 Rh4'
_cell_volume   364.09322956
_cell_formula_units_Z   2
loop_
 _symmetry_equiv_pos_site_id
 _symmetry_equiv_pos_as_xyz
  1  'x, y, z'
loop_
 _atom_site_type_symbol
 _atom_site_label
 _atom_site_symmetry_multiplicity
 _atom_site_fract_x
 _atom_site_fract_y
 _atom_site_fract_z
 _atom_site_occupancy
  Dy  Dy0  1  0.980432  0.917658  0.189127  1
  Dy  Dy1  1  0.791304  0.582342  0.810873  1
  Dy  Dy2  1  0.019568  0.082342  0.810873  1
  Dy  Dy3  1  0.208696  0.417658  0.189127  1
  Ho  Ho4  1  0.646380  0.813294  0.437178  1
  Ho  Ho5  1  0.209202  0.686706  0.562822  1
  Ho  Ho6  1  0.353620  0.186706  0.562822  1
  Ho  Ho7  1  0.790798  0.313294  0.437178  1
  Ho  Ho8  1  0.423809  0.750000  0.000000  1
  Ho  Ho9  1  0.576191  0.250000  0.000000  1
  Rh  Rh10  1  0.817449  0.574318  0.221995  1
  Rh  Rh11  1  0.595453  0.925682  0.778005  1
  Rh  Rh12  1  0.182551  0.425682  0.778005  1
  Rh  Rh13  1  0.404547  0.074318  0.221995  1
