# generated using pymatgen
data_Zr6B4Ir3Ru7
_symmetry_space_group_name_H-M   'P 1'
_cell_length_a   9.61440709
_cell_length_b   9.62649409
_cell_length_c   3.13933000
_cell_angle_alpha   90.00000000
_cell_angle_beta   90.00000000
_cell_angle_gamma   89.98472978
_symmetry_Int_Tables_number   1
_chemical_formula_structural   Zr6B4Ir3Ru7
_chemical_formula_sum   'Zr6 B4 Ir3 Ru7'
_cell_volume   290.55450259
_cell_formula_units_Z   1
loop_
 _symmetry_equiv_pos_site_id
 _symmetry_equiv_pos_as_xyz
  1  'x, y, z'
loop_
 _atom_site_type_symbol
 _atom_site_label
 _atom_site_symmetry_multiplicity
 _atom_site_fract_x
 _atom_site_fract_y
 _atom_site_fract_z
 _atom_site_occupancy
  Zr  Zr0  1  0.675023  0.180151  0.000000  1
  Zr  Zr1  1  0.329081  0.821428  0.000000  1
  Zr  Zr2  1  0.175050  0.327885  0.000000  1
  Zr  Zr3  1  0.821500  0.669540  0.000000  1
  Zr  Zr4  1  0.998579  0.004373  0.000000  1
  Zr  Zr5  1  0.499458  0.498677  0.000000  1
  B  B6  1  0.123498  0.615460  0.000000  1
  B  B7  1  0.877031  0.379432  0.000000  1
  B  B8  1  0.614845  0.874491  0.000000  1
  B  B9  1  0.386257  0.124893  0.000000  1
  Ir  Ir10  1  0.224090  0.069385  0.500000  1
  Ir  Ir11  1  0.776630  0.928611  0.500000  1
  Ir  Ir12  1  0.070203  0.778597  0.500000  1
  Ru  Ru13  1  0.721824  0.427999  0.500000  1
  Ru  Ru14  1  0.930311  0.223763  0.500000  1
  Ru  Ru15  1  0.277493  0.574294  0.500000  1
  Ru  Ru16  1  0.572563  0.721750  0.500000  1
  Ru  Ru17  1  0.426040  0.277617  0.500000  1
  Ru  Ru18  1  0.500845  0.000058  0.500000  1
  Ru  Ru19  1  0.999680  0.501593  0.500000  1
