# generated using pymatgen
data_YbY7(TcC2)4
_symmetry_space_group_name_H-M   'P 1'
_cell_length_a   5.10808700
_cell_length_b   6.56935533
_cell_length_c   9.96791476
_cell_angle_alpha   89.29469141
_cell_angle_beta   90.00000000
_cell_angle_gamma   90.00000000
_symmetry_Int_Tables_number   1
_chemical_formula_structural   YbY7(TcC2)4
_chemical_formula_sum   'Yb1 Y7 Tc4 C8'
_cell_volume   334.46636329
_cell_formula_units_Z   1
loop_
 _symmetry_equiv_pos_site_id
 _symmetry_equiv_pos_as_xyz
  1  'x, y, z'
loop_
 _atom_site_type_symbol
 _atom_site_label
 _atom_site_symmetry_multiplicity
 _atom_site_fract_x
 _atom_site_fract_y
 _atom_site_fract_z
 _atom_site_occupancy
  Yb  Yb0  1  0.250000  0.034214  0.281629  1
  Y  Y1  1  0.250000  0.681600  0.555901  1
  Y  Y2  1  0.750000  0.318462  0.442642  1
  Y  Y3  1  0.750000  0.820691  0.057443  1
  Y  Y4  1  0.250000  0.177295  0.943993  1
  Y  Y5  1  0.250000  0.532497  0.218996  1
  Y  Y6  1  0.750000  0.466000  0.782199  1
  Y  Y7  1  0.750000  0.964815  0.717624  1
  Tc  Tc8  1  0.250000  0.718801  0.862277  1
  Tc  Tc9  1  0.750000  0.280950  0.136095  1
  Tc  Tc10  1  0.750000  0.779872  0.363757  1
  Tc  Tc11  1  0.250000  0.223141  0.636459  1
  C  C12  1  0.250000  0.452437  0.759259  1
  C  C13  1  0.750000  0.548146  0.241670  1
  C  C14  1  0.750000  0.046805  0.258506  1
  C  C15  1  0.250000  0.954684  0.740084  1
  C  C16  1  0.250000  0.810321  0.042378  1
  C  C17  1  0.750000  0.179824  0.955459  1
  C  C18  1  0.750000  0.685166  0.547195  1
  C  C19  1  0.250000  0.324277  0.456436  1
