# generated using pymatgen
data_CePr3Tm4(B6Os)4
_symmetry_space_group_name_H-M   'P 1'
_cell_length_a   3.69319600
_cell_length_b   9.20240842
_cell_length_c   11.62815653
_cell_angle_alpha   90.03470381
_cell_angle_beta   90.00000000
_cell_angle_gamma   90.00000000
_symmetry_Int_Tables_number   1
_chemical_formula_structural   CePr3Tm4(B6Os)4
_chemical_formula_sum   'Ce1 Pr3 Tm4 B24 Os4'
_cell_volume   395.19792034
_cell_formula_units_Z   1
loop_
 _symmetry_equiv_pos_site_id
 _symmetry_equiv_pos_as_xyz
  1  'x, y, z'
loop_
 _atom_site_type_symbol
 _atom_site_label
 _atom_site_symmetry_multiplicity
 _atom_site_fract_x
 _atom_site_fract_y
 _atom_site_fract_z
 _atom_site_occupancy
  Ce  Ce0  1  0.000000  0.322551  0.414463  1
  Pr  Pr1  1  0.000000  0.678542  0.585885  1
  Pr  Pr2  1  0.000000  0.821893  0.085407  1
  Pr  Pr3  1  0.000000  0.177938  0.914326  1
  Tm  Tm4  1  0.000000  0.944711  0.373380  1
  Tm  Tm5  1  0.000000  0.054863  0.626537  1
  Tm  Tm6  1  0.000000  0.444714  0.126913  1
  Tm  Tm7  1  0.000000  0.555471  0.872967  1
  B  B8  1  0.500000  0.554850  0.429673  1
  B  B9  1  0.500000  0.442567  0.568680  1
  B  B10  1  0.500000  0.057341  0.071195  1
  B  B11  1  0.500000  0.943029  0.929579  1
  B  B12  1  0.500000  0.750710  0.416725  1
  B  B13  1  0.500000  0.249402  0.581269  1
  B  B14  1  0.500000  0.250984  0.083515  1
  B  B15  1  0.500000  0.749087  0.916857  1
  B  B16  1  0.500000  0.790965  0.266848  1
  B  B17  1  0.500000  0.208791  0.733069  1
  B  B18  1  0.500000  0.292330  0.234851  1
  B  B19  1  0.500000  0.708654  0.766659  1
  B  B20  1  0.500000  0.629999  0.184968  1
  B  B21  1  0.500000  0.369427  0.814892  1
  B  B22  1  0.500000  0.131851  0.316355  1
  B  B23  1  0.500000  0.869660  0.684761  1
  B  B24  1  0.500000  0.985933  0.215137  1
  B  B25  1  0.500000  0.014598  0.784923  1
  B  B26  1  0.500000  0.484160  0.285921  1
  B  B27  1  0.500000  0.513795  0.714707  1
  B  B28  1  0.500000  0.601624  0.027602  1
  B  B29  1  0.500000  0.398146  0.972371  1
  B  B30  1  0.500000  0.104291  0.471756  1
  B  B31  1  0.500000  0.897612  0.527424  1
  Os  Os32  1  0.000000  0.637940  0.319703  1
  Os  Os33  1  0.000000  0.359765  0.678611  1
  Os  Os34  1  0.000000  0.141691  0.183514  1
  Os  Os35  1  0.000000  0.860116  0.818557  1
