# generated using pymatgen
data_Ti4FeCo10GeB4
_symmetry_space_group_name_H-M   'P 1'
_cell_length_a   8.36124500
_cell_length_b   8.36124500
_cell_length_c   3.03198400
_cell_angle_alpha   90.00000000
_cell_angle_beta   90.00000000
_cell_angle_gamma   90.00000000
_symmetry_Int_Tables_number   1
_chemical_formula_structural   Ti4FeCo10GeB4
_chemical_formula_sum   'Ti4 Fe1 Co10 Ge1 B4'
_cell_volume   211.96726866
_cell_formula_units_Z   1
loop_
 _symmetry_equiv_pos_site_id
 _symmetry_equiv_pos_as_xyz
  1  'x, y, z'
loop_
 _atom_site_type_symbol
 _atom_site_label
 _atom_site_symmetry_multiplicity
 _atom_site_fract_x
 _atom_site_fract_y
 _atom_site_fract_z
 _atom_site_occupancy
  Ti  Ti0  1  0.823142  0.325565  0.000000  1
  Ti  Ti1  1  0.325565  0.176858  0.000000  1
  Ti  Ti2  1  0.674435  0.823142  0.000000  1
  Ti  Ti3  1  0.176858  0.674435  0.000000  1
  Fe  Fe4  1  0.500000  0.500000  0.000000  1
  Co  Co5  1  0.500000  0.000000  0.500000  1
  Co  Co6  1  0.000000  0.500000  0.500000  1
  Co  Co7  1  0.070624  0.218713  0.500000  1
  Co  Co8  1  0.218713  0.929376  0.500000  1
  Co  Co9  1  0.781287  0.070624  0.500000  1
  Co  Co10  1  0.929376  0.781287  0.500000  1
  Co  Co11  1  0.429701  0.716793  0.500000  1
  Co  Co12  1  0.570299  0.283207  0.500000  1
  Co  Co13  1  0.716793  0.570299  0.500000  1
  Co  Co14  1  0.283207  0.429701  0.500000  1
  Ge  Ge15  1  0.000000  0.000000  0.000000  1
  B  B16  1  0.619928  0.121595  0.000000  1
  B  B17  1  0.121595  0.380072  0.000000  1
  B  B18  1  0.878405  0.619928  0.000000  1
  B  B19  1  0.380072  0.878405  0.000000  1
