# generated using pymatgen
data_Yb20Mg2GaAg9
_symmetry_space_group_name_H-M   'P 1'
_cell_length_a   8.07647600
_cell_length_b   8.07647600
_cell_length_c   14.67848500
_cell_angle_alpha   90.00000000
_cell_angle_beta   90.00000000
_cell_angle_gamma   90.00000000
_symmetry_Int_Tables_number   1
_chemical_formula_structural   Yb20Mg2GaAg9
_chemical_formula_sum   'Yb20 Mg2 Ga1 Ag9'
_cell_volume   957.46971737
_cell_formula_units_Z   1
loop_
 _symmetry_equiv_pos_site_id
 _symmetry_equiv_pos_as_xyz
  1  'x, y, z'
loop_
 _atom_site_type_symbol
 _atom_site_label
 _atom_site_symmetry_multiplicity
 _atom_site_fract_x
 _atom_site_fract_y
 _atom_site_fract_z
 _atom_site_occupancy
  Yb  Yb0  1  0.000000  0.000000  0.752792  1
  Yb  Yb1  1  0.500000  0.500000  0.253221  1
  Yb  Yb2  1  0.000000  0.000000  0.247208  1
  Yb  Yb3  1  0.500000  0.500000  0.746779  1
  Yb  Yb4  1  0.175109  0.656701  0.107882  1
  Yb  Yb5  1  0.659288  0.174140  0.608556  1
  Yb  Yb6  1  0.824891  0.343299  0.107882  1
  Yb  Yb7  1  0.340712  0.825860  0.608556  1
  Yb  Yb8  1  0.343299  0.175109  0.107882  1
  Yb  Yb9  1  0.825860  0.659288  0.608556  1
  Yb  Yb10  1  0.656701  0.824891  0.107882  1
  Yb  Yb11  1  0.174140  0.340712  0.608556  1
  Yb  Yb12  1  0.343299  0.824891  0.892118  1
  Yb  Yb13  1  0.825860  0.340712  0.391444  1
  Yb  Yb14  1  0.656701  0.175109  0.892118  1
  Yb  Yb15  1  0.174140  0.659288  0.391444  1
  Yb  Yb16  1  0.175109  0.343299  0.892118  1
  Yb  Yb17  1  0.659288  0.825860  0.391444  1
  Yb  Yb18  1  0.824891  0.656701  0.892118  1
  Yb  Yb19  1  0.340712  0.174140  0.391444  1
  Mg  Mg20  1  0.000000  0.000000  0.500000  1
  Mg  Mg21  1  0.000000  0.000000  0.000000  1
  Ga  Ga22  1  0.500000  0.500000  0.500000  1
  Ag  Ag23  1  0.629963  0.126201  0.248997  1
  Ag  Ag24  1  0.126201  0.629963  0.751003  1
  Ag  Ag25  1  0.873799  0.370037  0.751003  1
  Ag  Ag26  1  0.370037  0.873799  0.248997  1
  Ag  Ag27  1  0.370037  0.126201  0.751003  1
  Ag  Ag28  1  0.873799  0.629963  0.248997  1
  Ag  Ag29  1  0.126201  0.370037  0.248997  1
  Ag  Ag30  1  0.629963  0.873799  0.751003  1
  Ag  Ag31  1  0.500000  0.500000  0.000000  1
