# generated using pymatgen
data_Ho20IrRh11
_symmetry_space_group_name_H-M   'P 1'
_cell_length_a   10.85336664
_cell_length_b   10.85336664
_cell_length_c   6.33190500
_cell_angle_alpha   90.00288798
_cell_angle_beta   90.00288798
_cell_angle_gamma   90.07992523
_symmetry_Int_Tables_number   1
_chemical_formula_structural   Ho20IrRh11
_chemical_formula_sum   'Ho20 Ir1 Rh11'
_cell_volume   745.86961569
_cell_formula_units_Z   1
loop_
 _symmetry_equiv_pos_site_id
 _symmetry_equiv_pos_as_xyz
  1  'x, y, z'
loop_
 _atom_site_type_symbol
 _atom_site_label
 _atom_site_symmetry_multiplicity
 _atom_site_fract_x
 _atom_site_fract_y
 _atom_site_fract_z
 _atom_site_occupancy
  Ho  Ho0  1  0.290757  0.088458  0.378212  1
  Ho  Ho1  1  0.291059  0.910214  0.878069  1
  Ho  Ho2  1  0.709167  0.088327  0.878138  1
  Ho  Ho3  1  0.709063  0.911454  0.378036  1
  Ho  Ho4  1  0.587145  0.790312  0.877825  1
  Ho  Ho5  1  0.588519  0.209157  0.378496  1
  Ho  Ho6  1  0.411158  0.790274  0.379091  1
  Ho  Ho7  1  0.411420  0.209001  0.878010  1
  Ho  Ho8  1  0.209688  0.412855  0.622175  1
  Ho  Ho9  1  0.209726  0.588842  0.120909  1
  Ho  Ho10  1  0.790843  0.411481  0.121504  1
  Ho  Ho11  1  0.790999  0.588580  0.621990  1
  Ho  Ho12  1  0.911542  0.709243  0.121788  1
  Ho  Ho13  1  0.911673  0.290833  0.621862  1
  Ho  Ho14  1  0.089786  0.708941  0.621931  1
  Ho  Ho15  1  0.088546  0.290937  0.121964  1
  Ho  Ho16  1  0.999846  0.999923  0.500071  1
  Ho  Ho17  1  0.000077  0.000154  0.999929  1
  Ho  Ho18  1  0.499760  0.500055  0.000081  1
  Ho  Ho19  1  0.499945  0.500240  0.499919  1
  Ir  Ir20  1  0.346002  0.653998  0.750000  1
  Rh  Rh21  1  0.845913  0.154087  0.250000  1
  Rh  Rh22  1  0.845807  0.846044  0.750137  1
  Rh  Rh23  1  0.153956  0.154193  0.749863  1
  Rh  Rh24  1  0.153516  0.846484  0.250000  1
  Rh  Rh25  1  0.654117  0.345883  0.750000  1
  Rh  Rh26  1  0.654725  0.654191  0.250129  1
  Rh  Rh27  1  0.345809  0.345275  0.249871  1
  Rh  Rh28  1  0.500197  0.000431  0.122663  1
  Rh  Rh29  1  0.500278  0.000607  0.622180  1
  Rh  Rh30  1  0.999393  0.499722  0.877820  1
  Rh  Rh31  1  0.999569  0.499803  0.377337  1
