# generated using pymatgen
data_Sr2Al20ReIr3
_symmetry_space_group_name_H-M   'P 1'
_cell_length_a   6.93902804
_cell_length_b   6.92968846
_cell_length_c   9.25364184
_cell_angle_alpha   90.26872988
_cell_angle_beta   90.05184919
_cell_angle_gamma   96.49155796
_symmetry_Int_Tables_number   1
_chemical_formula_structural   Sr2Al20ReIr3
_chemical_formula_sum   'Sr2 Al20 Re1 Ir3'
_cell_volume   442.10596645
_cell_formula_units_Z   1
loop_
 _symmetry_equiv_pos_site_id
 _symmetry_equiv_pos_as_xyz
  1  'x, y, z'
loop_
 _atom_site_type_symbol
 _atom_site_label
 _atom_site_symmetry_multiplicity
 _atom_site_fract_x
 _atom_site_fract_y
 _atom_site_fract_z
 _atom_site_occupancy
  Sr  Sr0  1  0.878249  0.123347  0.750184  1
  Sr  Sr1  1  0.121751  0.876653  0.249816  1
  Al  Al2  1  0.410694  0.141904  0.750188  1
  Al  Al3  1  0.142163  0.412297  0.249223  1
  Al  Al4  1  0.589306  0.858096  0.249812  1
  Al  Al5  1  0.857837  0.587703  0.750777  1
  Al  Al6  1  0.518097  0.776463  0.748549  1
  Al  Al7  1  0.778191  0.518688  0.247289  1
  Al  Al8  1  0.481903  0.223537  0.251451  1
  Al  Al9  1  0.221809  0.481312  0.752711  1
  Al  Al10  1  0.836781  0.161119  0.396856  1
  Al  Al11  1  0.163219  0.838881  0.603144  1
  Al  Al12  1  0.838901  0.162866  0.100926  1
  Al  Al13  1  0.161099  0.837134  0.899074  1
  Al  Al14  1  0.620518  0.379373  0.551111  1
  Al  Al15  1  0.379482  0.620627  0.448889  1
  Al  Al16  1  0.623810  0.380473  0.950166  1
  Al  Al17  1  0.376190  0.619527  0.049834  1
  Al  Al18  1  0.776407  0.774771  0.001316  1
  Al  Al19  1  0.775383  0.774878  0.499906  1
  Al  Al20  1  0.223593  0.225229  0.998684  1
  Al  Al21  1  0.224617  0.225122  0.500094  1
  Re  Re22  1  0.000000  0.500000  0.000000  1
  Ir  Ir23  1  0.500000  0.000000  0.000000  1
  Ir  Ir24  1  0.500000  0.000000  0.500000  1
  Ir  Ir25  1  0.000000  0.500000  0.500000  1
