# generated using pymatgen
data_Tb5SmRh18
_symmetry_space_group_name_H-M   'P 1'
_cell_length_a   5.29889800
_cell_length_b   5.29968354
_cell_length_c   17.49220100
_cell_angle_alpha   90.00085288
_cell_angle_beta   89.99928589
_cell_angle_gamma   120.00503994
_symmetry_Int_Tables_number   1
_chemical_formula_structural   Tb5SmRh18
_chemical_formula_sum   'Tb5 Sm1 Rh18'
_cell_volume   425.39122805
_cell_formula_units_Z   1
loop_
 _symmetry_equiv_pos_site_id
 _symmetry_equiv_pos_as_xyz
  1  'x, y, z'
loop_
 _atom_site_type_symbol
 _atom_site_label
 _atom_site_symmetry_multiplicity
 _atom_site_fract_x
 _atom_site_fract_y
 _atom_site_fract_z
 _atom_site_occupancy
  Tb  Tb0  1  0.333343  0.666665  0.542011  1
  Tb  Tb1  1  0.666651  0.333335  0.041746  1
  Tb  Tb2  1  0.666653  0.333325  0.458258  1
  Tb  Tb3  1  0.333344  0.666671  0.958005  1
  Tb  Tb4  1  0.333320  0.666672  0.749997  1
  Sm  Sm5  1  0.666671  0.333329  0.250006  1
  Rh  Rh6  1  0.665061  0.832537  0.125219  1
  Rh  Rh7  1  0.832522  0.665065  0.625750  1
  Rh  Rh8  1  0.167455  0.334927  0.125227  1
  Rh  Rh9  1  0.167458  0.832539  0.125227  1
  Rh  Rh10  1  0.832526  0.167467  0.625745  1
  Rh  Rh11  1  0.334936  0.167473  0.625744  1
  Rh  Rh12  1  0.832620  0.665258  0.874254  1
  Rh  Rh13  1  0.832622  0.167377  0.874255  1
  Rh  Rh14  1  0.334745  0.167380  0.874257  1
  Rh  Rh15  1  0.664876  0.832437  0.374728  1
  Rh  Rh16  1  0.167554  0.832440  0.374725  1
  Rh  Rh17  1  0.167552  0.335107  0.374723  1
  Rh  Rh18  1  0.000044  0.999999  0.249959  1
  Rh  Rh19  1  0.999975  0.000006  0.750154  1
  Rh  Rh20  1  0.333266  0.666664  0.249966  1
  Rh  Rh21  1  0.666705  0.333334  0.750138  1
  Rh  Rh22  1  0.000007  0.999996  0.999830  1
  Rh  Rh23  1  0.999998  0.000003  0.500073  1
