# generated using pymatgen
data_Tb2Dy4TcSb2
_symmetry_space_group_name_H-M   'P 1'
_cell_length_a   8.21515600
_cell_length_b   8.21510111
_cell_length_c   4.25585100
_cell_angle_alpha   90.00000000
_cell_angle_beta   90.00000000
_cell_angle_gamma   119.99978040
_symmetry_Int_Tables_number   1
_chemical_formula_structural   Tb2Dy4TcSb2
_chemical_formula_sum   'Tb2 Dy4 Tc1 Sb2'
_cell_volume   248.74063301
_cell_formula_units_Z   1
loop_
 _symmetry_equiv_pos_site_id
 _symmetry_equiv_pos_as_xyz
  1  'x, y, z'
loop_
 _atom_site_type_symbol
 _atom_site_label
 _atom_site_symmetry_multiplicity
 _atom_site_fract_x
 _atom_site_fract_y
 _atom_site_fract_z
 _atom_site_occupancy
  Tb  Tb0  1  0.601169  0.000052  0.500000  1
  Tb  Tb1  1  0.398831  0.398882  0.500000  1
  Dy  Dy2  1  0.236133  0.999825  0.000000  1
  Dy  Dy3  1  0.763867  0.763692  0.000000  1
  Dy  Dy4  1  0.000000  0.236272  0.000000  1
  Dy  Dy5  1  0.000000  0.601289  0.500000  1
  Tc  Tc6  1  0.000000  0.999756  0.500000  1
  Sb  Sb7  1  0.333102  0.666668  0.000000  1
  Sb  Sb8  1  0.666898  0.333564  0.000000  1
