# generated using pymatgen
data_Tb12Co2Ni3Sn
_symmetry_space_group_name_H-M   'P 1'
_cell_length_a   8.33569878
_cell_length_b   8.33569980
_cell_length_c   8.33569993
_cell_angle_alpha   111.03136282
_cell_angle_beta   109.24823226
_cell_angle_gamma   108.14721643
_symmetry_Int_Tables_number   1
_chemical_formula_structural   Tb12Co2Ni3Sn
_chemical_formula_sum   'Tb12 Co2 Ni3 Sn1'
_cell_volume   445.57719662
_cell_formula_units_Z   1
loop_
 _symmetry_equiv_pos_site_id
 _symmetry_equiv_pos_as_xyz
  1  'x, y, z'
loop_
 _atom_site_type_symbol
 _atom_site_label
 _atom_site_symmetry_multiplicity
 _atom_site_fract_x
 _atom_site_fract_y
 _atom_site_fract_z
 _atom_site_occupancy
  Tb  Tb0  1  0.815788  0.705941  0.521728  1
  Tb  Tb1  1  0.184212  0.294059  0.478272  1
  Tb  Tb2  1  0.184212  0.705941  0.890154  1
  Tb  Tb3  1  0.815788  0.294059  0.109846  1
  Tb  Tb4  1  0.683348  0.376186  0.692838  1
  Tb  Tb5  1  0.316652  0.623814  0.307162  1
  Tb  Tb6  1  0.683348  0.990509  0.307162  1
  Tb  Tb7  1  0.316652  0.009491  0.692838  1
  Tb  Tb8  1  0.597647  0.789896  0.807752  1
  Tb  Tb9  1  0.402353  0.210104  0.192248  1
  Tb  Tb10  1  0.982144  0.789896  0.192248  1
  Tb  Tb11  1  0.017856  0.210104  0.807752  1
  Co  Co12  1  0.114323  0.614323  0.500000  1
  Co  Co13  1  0.885677  0.385677  0.500000  1
  Ni  Ni14  1  0.632248  0.000000  0.632248  1
  Ni  Ni15  1  0.367752  0.000000  0.367752  1
  Ni  Ni16  1  0.000000  0.000000  0.000000  1
  Sn  Sn17  1  0.500000  0.500000  0.000000  1
