# generated using pymatgen
data_Y4Sc6Sn7Ge
_symmetry_space_group_name_H-M   'P 1'
_cell_length_a   7.61604500
_cell_length_b   7.87029769
_cell_length_c   14.77512100
_cell_angle_alpha   90.00000000
_cell_angle_beta   90.00000000
_cell_angle_gamma   89.33212481
_symmetry_Int_Tables_number   1
_chemical_formula_structural   Y4Sc6Sn7Ge
_chemical_formula_sum   'Y8 Sc12 Sn14 Ge2'
_cell_volume   885.56858396
_cell_formula_units_Z   2
loop_
 _symmetry_equiv_pos_site_id
 _symmetry_equiv_pos_as_xyz
  1  'x, y, z'
loop_
 _atom_site_type_symbol
 _atom_site_label
 _atom_site_symmetry_multiplicity
 _atom_site_fract_x
 _atom_site_fract_y
 _atom_site_fract_z
 _atom_site_occupancy
  Y  Y0  1  0.991144  0.169524  0.097595  1
  Y  Y1  1  0.008856  0.830476  0.902405  1
  Y  Y2  1  0.506475  0.677628  0.905730  1
  Y  Y3  1  0.008856  0.830476  0.597595  1
  Y  Y4  1  0.493525  0.322372  0.094270  1
  Y  Y5  1  0.991144  0.169524  0.402405  1
  Y  Y6  1  0.493525  0.322372  0.405730  1
  Y  Y7  1  0.506475  0.677628  0.594270  1
  Sc  Sc8  1  0.168891  0.491291  0.750000  1
  Sc  Sc9  1  0.831109  0.508709  0.250000  1
  Sc  Sc10  1  0.321350  0.993945  0.250000  1
  Sc  Sc11  1  0.678650  0.006055  0.750000  1
  Sc  Sc12  1  0.327231  0.160113  0.628465  1
  Sc  Sc13  1  0.672769  0.839887  0.371535  1
  Sc  Sc14  1  0.147511  0.672428  0.368091  1
  Sc  Sc15  1  0.672769  0.839887  0.128465  1
  Sc  Sc16  1  0.852489  0.327572  0.631909  1
  Sc  Sc17  1  0.327231  0.160113  0.871535  1
  Sc  Sc18  1  0.852489  0.327572  0.868091  1
  Sc  Sc19  1  0.147511  0.672428  0.131909  1
  Sn  Sn20  1  0.467769  0.627659  0.250000  1
  Sn  Sn21  1  0.532231  0.372341  0.750000  1
  Sn  Sn22  1  0.311637  0.851870  0.750000  1
  Sn  Sn23  1  0.688363  0.148130  0.250000  1
  Sn  Sn24  1  0.189613  0.353058  0.250000  1
  Sn  Sn25  1  0.810387  0.646942  0.750000  1
  Sn  Sn26  1  0.179829  0.460302  0.539701  1
  Sn  Sn27  1  0.820171  0.539698  0.460299  1
  Sn  Sn28  1  0.319836  0.954689  0.457547  1
  Sn  Sn29  1  0.820171  0.539698  0.039701  1
  Sn  Sn30  1  0.680164  0.045311  0.542453  1
  Sn  Sn31  1  0.179829  0.460302  0.960299  1
  Sn  Sn32  1  0.680164  0.045311  0.957547  1
  Sn  Sn33  1  0.319836  0.954689  0.042453  1
  Ge  Ge34  1  0.036017  0.127596  0.750000  1
  Ge  Ge35  1  0.963983  0.872404  0.250000  1
