# generated using pymatgen
data_Dy8Zr11Si16Au
_symmetry_space_group_name_H-M   'P 1'
_cell_length_a   7.35218948
_cell_length_b   7.35218902
_cell_length_c   13.38180347
_cell_angle_alpha   89.78253836
_cell_angle_beta   90.21746133
_cell_angle_gamma   89.82519999
_symmetry_Int_Tables_number   1
_chemical_formula_structural   Dy8Zr11Si16Au
_chemical_formula_sum   'Dy8 Zr11 Si16 Au1'
_cell_volume   723.33537671
_cell_formula_units_Z   1
loop_
 _symmetry_equiv_pos_site_id
 _symmetry_equiv_pos_as_xyz
  1  'x, y, z'
loop_
 _atom_site_type_symbol
 _atom_site_label
 _atom_site_symmetry_multiplicity
 _atom_site_fract_x
 _atom_site_fract_y
 _atom_site_fract_z
 _atom_site_occupancy
  Dy  Dy0  1  0.996515  0.653929  0.036205  1
  Dy  Dy1  1  0.997493  0.349783  0.533809  1
  Dy  Dy2  1  0.653929  0.996515  0.963795  1
  Dy  Dy3  1  0.153829  0.504469  0.784097  1
  Dy  Dy4  1  0.847206  0.498577  0.290505  1
  Dy  Dy5  1  0.504469  0.153829  0.215903  1
  Dy  Dy6  1  0.498577  0.847206  0.709495  1
  Dy  Dy7  1  0.349783  0.997493  0.466191  1
  Zr  Zr8  1  0.357928  0.503801  0.379329  1
  Zr  Zr9  1  0.856561  0.992068  0.377184  1
  Zr  Zr10  1  0.004415  0.144754  0.126627  1
  Zr  Zr11  1  0.992068  0.856561  0.622816  1
  Zr  Zr12  1  0.503801  0.357928  0.620671  1
  Zr  Zr13  1  0.144754  0.004415  0.873373  1
  Zr  Zr14  1  0.822268  0.177512  0.748591  1
  Zr  Zr15  1  0.177512  0.822268  0.251409  1
  Zr  Zr16  1  0.324408  0.324408  0.000000  1
  Zr  Zr17  1  0.497069  0.643903  0.125939  1
  Zr  Zr18  1  0.643903  0.497069  0.874061  1
  Si  Si19  1  0.066111  0.709515  0.437407  1
  Si  Si20  1  0.948168  0.296411  0.936698  1
  Si  Si21  1  0.709515  0.066111  0.562593  1
  Si  Si22  1  0.204229  0.448539  0.188183  1
  Si  Si23  1  0.795504  0.554773  0.688935  1
  Si  Si24  1  0.448539  0.204229  0.811817  1
  Si  Si25  1  0.554773  0.795504  0.311065  1
  Si  Si26  1  0.296411  0.948168  0.063302  1
  Si  Si27  1  0.794450  0.858481  0.183659  1
  Si  Si28  1  0.274152  0.632356  0.572804  1
  Si  Si29  1  0.708693  0.360055  0.068386  1
  Si  Si30  1  0.632356  0.274152  0.427196  1
  Si  Si31  1  0.360055  0.708693  0.931614  1
  Si  Si32  1  0.141473  0.205977  0.319755  1
  Si  Si33  1  0.205977  0.141473  0.680245  1
  Si  Si34  1  0.858481  0.794450  0.816341  1
  Au  Au35  1  0.674626  0.674626  0.500000  1
