# generated using pymatgen
data_Lu6InCuTc
_symmetry_space_group_name_H-M   'P 1'
_cell_length_a   8.34103960
_cell_length_b   8.34104080
_cell_length_c   8.34104000
_cell_angle_alpha   113.36813567
_cell_angle_beta   111.12523714
_cell_angle_gamma   104.06100215
_symmetry_Int_Tables_number   1
_chemical_formula_structural   Lu6InCuTc
_chemical_formula_sum   'Lu12 In2 Cu2 Tc2'
_cell_volume   443.58547880
_cell_formula_units_Z   2
loop_
 _symmetry_equiv_pos_site_id
 _symmetry_equiv_pos_as_xyz
  1  'x, y, z'
loop_
 _atom_site_type_symbol
 _atom_site_label
 _atom_site_symmetry_multiplicity
 _atom_site_fract_x
 _atom_site_fract_y
 _atom_site_fract_z
 _atom_site_occupancy
  Lu  Lu0  1  0.663540  0.849262  0.185723  1
  Lu  Lu1  1  0.336460  0.522183  0.185723  1
  Lu  Lu2  1  0.813302  0.781770  0.595072  1
  Lu  Lu3  1  0.186698  0.781770  0.968468  1
  Lu  Lu4  1  0.813302  0.218230  0.031532  1
  Lu  Lu5  1  0.186698  0.218230  0.404928  1
  Lu  Lu6  1  0.663540  0.477817  0.814277  1
  Lu  Lu7  1  0.336460  0.150738  0.814277  1
  Lu  Lu8  1  0.558905  0.258583  0.300322  1
  Lu  Lu9  1  0.441095  0.741417  0.699678  1
  Lu  Lu10  1  0.041739  0.741417  0.300322  1
  Lu  Lu11  1  0.958261  0.258583  0.699678  1
  In  In12  1  0.000000  0.500000  0.500000  1
  In  In13  1  0.500000  0.000000  0.500000  1
  Cu  Cu14  1  0.879830  0.879830  0.000000  1
  Cu  Cu15  1  0.120170  0.120170  0.000000  1
  Tc  Tc16  1  0.324384  0.500000  0.824384  1
  Tc  Tc17  1  0.675616  0.500000  0.175616  1
