# generated using pymatgen
data_TbDy2Al3Ge2Rh
_symmetry_space_group_name_H-M   'P 1'
_cell_length_a   6.99127300
_cell_length_b   6.99613739
_cell_length_c   4.23823100
_cell_angle_alpha   90.00000000
_cell_angle_beta   90.00000000
_cell_angle_gamma   119.97700716
_symmetry_Int_Tables_number   1
_chemical_formula_structural   TbDy2Al3Ge2Rh
_chemical_formula_sum   'Tb1 Dy2 Al3 Ge2 Rh1'
_cell_volume   179.56861037
_cell_formula_units_Z   1
loop_
 _symmetry_equiv_pos_site_id
 _symmetry_equiv_pos_as_xyz
  1  'x, y, z'
loop_
 _atom_site_type_symbol
 _atom_site_label
 _atom_site_symmetry_multiplicity
 _atom_site_fract_x
 _atom_site_fract_y
 _atom_site_fract_z
 _atom_site_occupancy
  Tb  Tb0  1  0.412287  0.000000  0.000000  1
  Dy  Dy1  1  0.000201  0.412014  0.000000  1
  Dy  Dy2  1  0.588189  0.587987  0.000000  1
  Al  Al3  1  0.770220  0.000000  0.499999  1
  Al  Al4  1  0.229792  0.230008  0.499999  1
  Al  Al5  1  0.999783  0.769993  0.499999  1
  Ge  Ge6  1  0.667398  0.334525  0.499999  1
  Ge  Ge7  1  0.332873  0.665474  0.499999  1
  Rh  Rh8  1  0.999258  0.000000  0.000000  1
