# generated using pymatgen
data_Sr2LuUO6
_symmetry_space_group_name_H-M   'P 1'
_cell_length_a   5.94945298
_cell_length_b   6.04899000
_cell_length_c   8.47269939
_cell_angle_alpha   90.00000000
_cell_angle_beta   90.05819964
_cell_angle_gamma   90.00000000
_symmetry_Int_Tables_number   1
_chemical_formula_structural   Sr2LuUO6
_chemical_formula_sum   'Sr4 Lu2 U2 O12'
_cell_volume   304.91688689
_cell_formula_units_Z   2
loop_
 _symmetry_equiv_pos_site_id
 _symmetry_equiv_pos_as_xyz
  1  'x, y, z'
loop_
 _atom_site_type_symbol
 _atom_site_label
 _atom_site_symmetry_multiplicity
 _atom_site_fract_x
 _atom_site_fract_y
 _atom_site_fract_z
 _atom_site_occupancy
  Sr  Sr0  1  0.508129  0.540145  0.249069  1
  Sr  Sr1  1  0.991871  0.040146  0.250932  1
  Sr  Sr2  1  0.008128  0.959854  0.749069  1
  Sr  Sr3  1  0.491872  0.459853  0.750930  1
  Lu  Lu4  1  0.500001  0.000000  0.000000  1
  Lu  Lu5  1  0.000000  0.499999  0.500000  1
  U  U6  1  0.000000  0.499999  0.000000  1
  U  U7  1  0.500000  0.000000  0.500000  1
  O  O8  1  0.707293  0.299260  0.045657  1
  O  O9  1  0.799412  0.791540  0.048701  1
  O  O10  1  0.090179  0.468868  0.246885  1
  O  O11  1  0.409821  0.968869  0.253116  1
  O  O12  1  0.700589  0.291541  0.451298  1
  O  O13  1  0.792707  0.799259  0.454343  1
  O  O14  1  0.207292  0.200740  0.545657  1
  O  O15  1  0.299412  0.708459  0.548701  1
  O  O16  1  0.590178  0.031132  0.746885  1
  O  O17  1  0.909822  0.531131  0.753115  1
  O  O18  1  0.200588  0.208458  0.951298  1
  O  O19  1  0.292708  0.700741  0.954344  1
