# generated using pymatgen
data_Tb7Lu3CuPPb6
_symmetry_space_group_name_H-M   'P 1'
_cell_length_a   9.17089000
_cell_length_b   9.17088938
_cell_length_c   6.68154300
_cell_angle_alpha   90.00000000
_cell_angle_beta   90.00000000
_cell_angle_gamma   120.00000223
_symmetry_Int_Tables_number   1
_chemical_formula_structural   Tb7Lu3CuPPb6
_chemical_formula_sum   'Tb7 Lu3 Cu1 P1 Pb6'
_cell_volume   486.66524119
_cell_formula_units_Z   1
loop_
 _symmetry_equiv_pos_site_id
 _symmetry_equiv_pos_as_xyz
  1  'x, y, z'
loop_
 _atom_site_type_symbol
 _atom_site_label
 _atom_site_symmetry_multiplicity
 _atom_site_fract_x
 _atom_site_fract_y
 _atom_site_fract_z
 _atom_site_occupancy
  Tb  Tb0  1  0.247340  0.000567  0.738648  1
  Tb  Tb1  1  0.753227  0.000567  0.261352  1
  Tb  Tb2  1  0.999433  0.246773  0.738648  1
  Tb  Tb3  1  0.999433  0.752660  0.261352  1
  Tb  Tb4  1  0.753227  0.752660  0.738648  1
  Tb  Tb5  1  0.247340  0.246773  0.261352  1
  Tb  Tb6  1  0.333333  0.666667  0.500000  1
  Lu  Lu7  1  0.666667  0.333333  0.500000  1
  Lu  Lu8  1  0.666667  0.333333  0.000000  1
  Lu  Lu9  1  0.333333  0.666667  0.000000  1
  Cu  Cu10  1  0.000000  0.000000  0.000000  1
  P  P11  1  0.000000  0.000000  0.500000  1
  Pb  Pb12  1  0.604657  0.000955  0.750682  1
  Pb  Pb13  1  0.396298  0.000955  0.249318  1
  Pb  Pb14  1  0.999045  0.603702  0.750682  1
  Pb  Pb15  1  0.999045  0.395343  0.249318  1
  Pb  Pb16  1  0.396298  0.395343  0.750682  1
  Pb  Pb17  1  0.604657  0.603702  0.249318  1
