# generated using pymatgen
data_Ac3Mg2ScGe2Pt
_symmetry_space_group_name_H-M   'P 1'
_cell_length_a   7.89458444
_cell_length_b   7.73412965
_cell_length_c   4.58856000
_cell_angle_alpha   90.00000000
_cell_angle_beta   90.00000000
_cell_angle_gamma   119.32990965
_symmetry_Int_Tables_number   1
_chemical_formula_structural   Ac3Mg2ScGe2Pt
_chemical_formula_sum   'Ac3 Mg2 Sc1 Ge2 Pt1'
_cell_volume   244.25351334
_cell_formula_units_Z   1
loop_
 _symmetry_equiv_pos_site_id
 _symmetry_equiv_pos_as_xyz
  1  'x, y, z'
loop_
 _atom_site_type_symbol
 _atom_site_label
 _atom_site_symmetry_multiplicity
 _atom_site_fract_x
 _atom_site_fract_y
 _atom_site_fract_z
 _atom_site_occupancy
  Ac  Ac0  1  0.413945  0.407845  0.000000  1
  Ac  Ac1  1  0.586055  0.993901  0.000000  1
  Ac  Ac2  1  0.000000  0.596556  0.000000  1
  Mg  Mg3  1  0.765507  0.764605  0.500000  1
  Mg  Mg4  1  0.234493  0.999098  0.500000  1
  Sc  Sc5  1  0.000000  0.226459  0.500000  1
  Ge  Ge6  1  0.676987  0.333098  0.500000  1
  Ge  Ge7  1  0.323013  0.656112  0.500000  1
  Pt  Pt8  1  0.000000  0.022324  0.000000  1
