# generated using pymatgen
data_PrCrPt4
_symmetry_space_group_name_H-M   'P 1'
_cell_length_a   5.30860766
_cell_length_b   5.30860809
_cell_length_c   4.41713900
_cell_angle_alpha   90.00000000
_cell_angle_beta   90.00000000
_cell_angle_gamma   116.89032599
_symmetry_Int_Tables_number   1
_chemical_formula_structural   PrCrPt4
_chemical_formula_sum   'Pr1 Cr1 Pt4'
_cell_volume   111.02117472
_cell_formula_units_Z   1
loop_
 _symmetry_equiv_pos_site_id
 _symmetry_equiv_pos_as_xyz
  1  'x, y, z'
loop_
 _atom_site_type_symbol
 _atom_site_label
 _atom_site_symmetry_multiplicity
 _atom_site_fract_x
 _atom_site_fract_y
 _atom_site_fract_z
 _atom_site_occupancy
  Pr  Pr0  1  0.999999  0.999999  0.000000  1
  Cr  Cr1  1  0.500183  0.500183  0.500001  1
  Pt  Pt2  1  0.660332  0.339631  0.000000  1
  Pt  Pt3  1  0.339631  0.660332  0.000000  1
  Pt  Pt4  1  0.499951  0.000006  0.500001  1
  Pt  Pt5  1  0.000005  0.499950  0.500001  1
