# generated using pymatgen
data_LuHf3(SiRh5)2
_symmetry_space_group_name_H-M   'P 1'
_cell_length_a   4.05867800
_cell_length_b   5.56387977
_cell_length_c   10.88183350
_cell_angle_alpha   90.06021691
_cell_angle_beta   90.00000000
_cell_angle_gamma   90.00000000
_symmetry_Int_Tables_number   1
_chemical_formula_structural   LuHf3(SiRh5)2
_chemical_formula_sum   'Lu1 Hf3 Si2 Rh10'
_cell_volume   245.73338937
_cell_formula_units_Z   1
loop_
 _symmetry_equiv_pos_site_id
 _symmetry_equiv_pos_as_xyz
  1  'x, y, z'
loop_
 _atom_site_type_symbol
 _atom_site_label
 _atom_site_symmetry_multiplicity
 _atom_site_fract_x
 _atom_site_fract_y
 _atom_site_fract_z
 _atom_site_occupancy
  Lu  Lu0  1  0.500000  0.176267  0.640026  1
  Hf  Hf1  1  0.500000  0.824757  0.359542  1
  Hf  Hf2  1  0.500000  0.675229  0.858280  1
  Hf  Hf3  1  0.500000  0.324862  0.140898  1
  Si  Si4  1  0.000000  0.501855  0.499232  1
  Si  Si5  1  0.000000  0.999388  0.000444  1
  Rh  Rh6  1  0.500000  0.179847  0.901671  1
  Rh  Rh7  1  0.500000  0.819408  0.102659  1
  Rh  Rh8  1  0.500000  0.676868  0.601741  1
  Rh  Rh9  1  0.500000  0.321535  0.393340  1
  Rh  Rh10  1  0.000000  0.435271  0.744708  1
  Rh  Rh11  1  0.000000  0.571755  0.258005  1
  Rh  Rh12  1  0.000000  0.993514  0.495905  1
  Rh  Rh13  1  0.000000  0.500644  0.000847  1
  Rh  Rh14  1  0.000000  0.070490  0.239810  1
  Rh  Rh15  1  0.000000  0.928310  0.762889  1
