# generated using pymatgen
data_Ag3Pd2Au3
_symmetry_space_group_name_H-M   'P 1'
_cell_length_a   5.75439500
_cell_length_b   5.75439453
_cell_length_c   4.84025200
_cell_angle_alpha   90.00000000
_cell_angle_beta   90.00000000
_cell_angle_gamma   119.99999695
_symmetry_Int_Tables_number   1
_chemical_formula_structural   Ag3Pd2Au3
_chemical_formula_sum   'Ag3 Pd2 Au3'
_cell_volume   138.80270270
_cell_formula_units_Z   1
loop_
 _symmetry_equiv_pos_site_id
 _symmetry_equiv_pos_as_xyz
  1  'x, y, z'
loop_
 _atom_site_type_symbol
 _atom_site_label
 _atom_site_symmetry_multiplicity
 _atom_site_fract_x
 _atom_site_fract_y
 _atom_site_fract_z
 _atom_site_occupancy
  Ag  Ag0  1  0.832093  0.167907  0.750000  1
  Ag  Ag1  1  0.335813  0.167907  0.750000  1
  Ag  Ag2  1  0.832093  0.664187  0.750000  1
  Pd  Pd3  1  0.666667  0.333333  0.250000  1
  Pd  Pd4  1  0.333333  0.666667  0.750000  1
  Au  Au5  1  0.167656  0.832344  0.250000  1
  Au  Au6  1  0.664689  0.832344  0.250000  1
  Au  Au7  1  0.167656  0.335311  0.250000  1
