# generated using pymatgen
data_CaLa4(CoB3)2
_symmetry_space_group_name_H-M   'P 1'
_cell_length_a   9.26049634
_cell_length_b   9.26049553
_cell_length_c   9.26049632
_cell_angle_alpha   34.19615469
_cell_angle_beta   34.19616477
_cell_angle_gamma   34.19615538
_symmetry_Int_Tables_number   1
_chemical_formula_structural   CaLa4(CoB3)2
_chemical_formula_sum   'Ca1 La4 Co2 B6'
_cell_volume   223.67718509
_cell_formula_units_Z   1
loop_
 _symmetry_equiv_pos_site_id
 _symmetry_equiv_pos_as_xyz
  1  'x, y, z'
loop_
 _atom_site_type_symbol
 _atom_site_label
 _atom_site_symmetry_multiplicity
 _atom_site_fract_x
 _atom_site_fract_y
 _atom_site_fract_z
 _atom_site_occupancy
  Ca  Ca0  1  0.000000  0.000000  0.000000  1
  La  La1  1  0.579901  0.579901  0.579901  1
  La  La2  1  0.420099  0.420099  0.420099  1
  La  La3  1  0.752623  0.752623  0.752623  1
  La  La4  1  0.247377  0.247377  0.247377  1
  Co  Co5  1  0.874736  0.874736  0.874736  1
  Co  Co6  1  0.125264  0.125264  0.125264  1
  B  B7  1  0.500000  0.832427  0.167573  1
  B  B8  1  0.167573  0.500000  0.832427  1
  B  B9  1  0.832427  0.167573  0.500000  1
  B  B10  1  0.500000  0.167573  0.832427  1
  B  B11  1  0.832427  0.500000  0.167573  1
  B  B12  1  0.167573  0.832427  0.500000  1
