# generated using pymatgen
data_Hf18Ta5Re2As2W
_symmetry_space_group_name_H-M   'P 1'
_cell_length_a   8.71385109
_cell_length_b   8.75190596
_cell_length_c   8.80541800
_cell_angle_alpha   90.00000000
_cell_angle_beta   90.00000000
_cell_angle_gamma   120.14456486
_symmetry_Int_Tables_number   1
_chemical_formula_structural   Hf18Ta5Re2As2W
_chemical_formula_sum   'Hf18 Ta5 Re2 As2 W1'
_cell_volume   580.70944531
_cell_formula_units_Z   1
loop_
 _symmetry_equiv_pos_site_id
 _symmetry_equiv_pos_as_xyz
  1  'x, y, z'
loop_
 _atom_site_type_symbol
 _atom_site_label
 _atom_site_symmetry_multiplicity
 _atom_site_fract_x
 _atom_site_fract_y
 _atom_site_fract_z
 _atom_site_occupancy
  Hf  Hf0  1  0.196698  0.392990  0.046025  1
  Hf  Hf1  1  0.803828  0.607688  0.547679  1
  Hf  Hf2  1  0.608256  0.804128  0.044009  1
  Hf  Hf3  1  0.196698  0.803707  0.046025  1
  Hf  Hf4  1  0.803828  0.196141  0.547679  1
  Hf  Hf5  1  0.392529  0.196265  0.546300  1
  Hf  Hf6  1  0.803828  0.607688  0.952321  1
  Hf  Hf7  1  0.803828  0.196141  0.952321  1
  Hf  Hf8  1  0.392529  0.196265  0.953700  1
  Hf  Hf9  1  0.608256  0.804128  0.455991  1
  Hf  Hf10  1  0.196698  0.803707  0.453975  1
  Hf  Hf11  1  0.196698  0.392990  0.453975  1
  Hf  Hf12  1  0.539832  0.079272  0.250000  1
  Hf  Hf13  1  0.462297  0.920683  0.750000  1
  Hf  Hf14  1  0.920390  0.460194  0.250000  1
  Hf  Hf15  1  0.539832  0.460560  0.250000  1
  Hf  Hf16  1  0.462297  0.541615  0.750000  1
  Hf  Hf17  1  0.079093  0.539547  0.750000  1
  Ta  Ta18  1  0.889381  0.778943  0.250000  1
  Ta  Ta19  1  0.107744  0.219940  0.750000  1
  Ta  Ta20  1  0.220866  0.110432  0.250000  1
  Ta  Ta21  1  0.889381  0.110438  0.250000  1
  Ta  Ta22  1  0.107744  0.887804  0.750000  1
  Re  Re23  1  0.999057  0.999528  0.999358  1
  Re  Re24  1  0.999057  0.999528  0.500642  1
  As  As25  1  0.334197  0.667099  0.250000  1
  As  As26  1  0.666872  0.333435  0.750000  1
  W  W27  1  0.778281  0.889141  0.750000  1
