# generated using pymatgen
data_LiNi2Pt4W
_symmetry_space_group_name_H-M   'P 1'
_cell_length_a   3.86924600
_cell_length_b   3.86924600
_cell_length_c   7.26931400
_cell_angle_alpha   90.00000000
_cell_angle_beta   90.00000000
_cell_angle_gamma   90.00000000
_symmetry_Int_Tables_number   1
_chemical_formula_structural   LiNi2Pt4W
_chemical_formula_sum   'Li1 Ni2 Pt4 W1'
_cell_volume   108.82936955
_cell_formula_units_Z   1
loop_
 _symmetry_equiv_pos_site_id
 _symmetry_equiv_pos_as_xyz
  1  'x, y, z'
loop_
 _atom_site_type_symbol
 _atom_site_label
 _atom_site_symmetry_multiplicity
 _atom_site_fract_x
 _atom_site_fract_y
 _atom_site_fract_z
 _atom_site_occupancy
  Li  Li0  1  0.000000  0.000000  0.500000  1
  Ni  Ni1  1  0.500000  0.500000  0.000000  1
  Ni  Ni2  1  0.500000  0.500000  0.500000  1
  Pt  Pt3  1  0.500000  0.000000  0.254522  1
  Pt  Pt4  1  0.500000  0.000000  0.745478  1
  Pt  Pt5  1  0.000000  0.500000  0.254522  1
  Pt  Pt6  1  0.000000  0.500000  0.745478  1
  W  W7  1  0.000000  0.000000  0.000000  1
