# generated using pymatgen
data_La3PrSm2(RuI3)2
_symmetry_space_group_name_H-M   'P 1'
_cell_length_a   4.34709500
_cell_length_b   9.53897082
_cell_length_c   12.49959748
_cell_angle_alpha   88.01847231
_cell_angle_beta   90.00000000
_cell_angle_gamma   90.00000000
_symmetry_Int_Tables_number   1
_chemical_formula_structural   La3PrSm2(RuI3)2
_chemical_formula_sum   'La3 Pr1 Sm2 Ru2 I6'
_cell_volume   518.00852260
_cell_formula_units_Z   1
loop_
 _symmetry_equiv_pos_site_id
 _symmetry_equiv_pos_as_xyz
  1  'x, y, z'
loop_
 _atom_site_type_symbol
 _atom_site_label
 _atom_site_symmetry_multiplicity
 _atom_site_fract_x
 _atom_site_fract_y
 _atom_site_fract_z
 _atom_site_occupancy
  La  La0  1  0.250000  0.883717  0.327799  1
  La  La1  1  0.750000  0.117594  0.671740  1
  La  La2  1  0.250000  0.899951  0.898358  1
  Pr  Pr3  1  0.750000  0.099635  0.103394  1
  Sm  Sm4  1  0.750000  0.688667  0.119216  1
  Sm  Sm5  1  0.250000  0.311922  0.881924  1
  Ru  Ru6  1  0.250000  0.884997  0.127979  1
  Ru  Ru7  1  0.750000  0.113828  0.868709  1
  I  I8  1  0.250000  0.864916  0.619095  1
  I  I9  1  0.750000  0.136509  0.379765  1
  I  I10  1  0.750000  0.629177  0.371986  1
  I  I11  1  0.250000  0.372376  0.629182  1
  I  I12  1  0.250000  0.396693  0.130455  1
  I  I13  1  0.750000  0.600017  0.870402  1
