# generated using pymatgen
data_Ho3Re(P3Ir4)2
_symmetry_space_group_name_H-M   'P 1'
_cell_length_a   3.97708000
_cell_length_b   11.11691900
_cell_length_c   12.81458900
_cell_angle_alpha   90.00000000
_cell_angle_beta   90.00000000
_cell_angle_gamma   90.00000000
_symmetry_Int_Tables_number   1
_chemical_formula_structural   Ho3Re(P3Ir4)2
_chemical_formula_sum   'Ho6 Re2 P12 Ir16'
_cell_volume   566.56983722
_cell_formula_units_Z   2
loop_
 _symmetry_equiv_pos_site_id
 _symmetry_equiv_pos_as_xyz
  1  'x, y, z'
loop_
 _atom_site_type_symbol
 _atom_site_label
 _atom_site_symmetry_multiplicity
 _atom_site_fract_x
 _atom_site_fract_y
 _atom_site_fract_z
 _atom_site_occupancy
  Ho  Ho0  1  0.000000  0.500000  0.522241  1
  Ho  Ho1  1  0.500000  0.000000  0.477759  1
  Ho  Ho2  1  0.500000  0.819938  0.205657  1
  Ho  Ho3  1  0.500000  0.180062  0.205657  1
  Ho  Ho4  1  0.000000  0.680062  0.794343  1
  Ho  Ho5  1  0.000000  0.319938  0.794343  1
  Re  Re6  1  0.500000  0.500000  0.163495  1
  Re  Re7  1  0.000000  0.000000  0.836505  1
  P  P8  1  0.500000  0.316366  0.618183  1
  P  P9  1  0.500000  0.683634  0.618183  1
  P  P10  1  0.000000  0.183634  0.381817  1
  P  P11  1  0.000000  0.816366  0.381817  1
  P  P12  1  0.500000  0.500000  0.874908  1
  P  P13  1  0.000000  0.000000  0.125092  1
  P  P14  1  0.500000  0.842426  0.885349  1
  P  P15  1  0.500000  0.157574  0.885349  1
  P  P16  1  0.000000  0.657574  0.114651  1
  P  P17  1  0.000000  0.342426  0.114651  1
  P  P18  1  0.500000  0.500000  0.350340  1
  P  P19  1  0.000000  0.000000  0.649660  1
  Ir  Ir20  1  0.000000  0.500000  0.000920  1
  Ir  Ir21  1  0.500000  0.000000  0.999080  1
  Ir  Ir22  1  0.500000  0.299077  0.432468  1
  Ir  Ir23  1  0.500000  0.700923  0.432468  1
  Ir  Ir24  1  0.000000  0.200923  0.567532  1
  Ir  Ir25  1  0.000000  0.799077  0.567532  1
  Ir  Ir26  1  0.500000  0.871680  0.710842  1
  Ir  Ir27  1  0.500000  0.128320  0.710842  1
  Ir  Ir28  1  0.000000  0.628320  0.289158  1
  Ir  Ir29  1  0.000000  0.371680  0.289158  1
  Ir  Ir30  1  0.500000  0.332447  0.981725  1
  Ir  Ir31  1  0.500000  0.667553  0.981725  1
  Ir  Ir32  1  0.000000  0.167553  0.018275  1
  Ir  Ir33  1  0.000000  0.832447  0.018275  1
  Ir  Ir34  1  0.500000  0.500000  0.699389  1
  Ir  Ir35  1  0.000000  0.000000  0.300611  1
