# generated using pymatgen
data_Dy6Zn22CdP
_symmetry_space_group_name_H-M   'P 1'
_cell_length_a   9.05857707
_cell_length_b   9.05854952
_cell_length_c   9.05847000
_cell_angle_alpha   60.00050220
_cell_angle_beta   60.00031796
_cell_angle_gamma   59.99978784
_symmetry_Int_Tables_number   1
_chemical_formula_structural   Dy6Zn22CdP
_chemical_formula_sum   'Dy6 Zn22 Cd1 P1'
_cell_volume   525.60621829
_cell_formula_units_Z   1
loop_
 _symmetry_equiv_pos_site_id
 _symmetry_equiv_pos_as_xyz
  1  'x, y, z'
loop_
 _atom_site_type_symbol
 _atom_site_label
 _atom_site_symmetry_multiplicity
 _atom_site_fract_x
 _atom_site_fract_y
 _atom_site_fract_z
 _atom_site_occupancy
  Dy  Dy0  1  0.712664  0.287338  0.287335  1
  Dy  Dy1  1  0.712662  0.287337  0.712665  1
  Dy  Dy2  1  0.712661  0.712663  0.287337  1
  Dy  Dy3  1  0.287336  0.712662  0.712665  1
  Dy  Dy4  1  0.287338  0.712663  0.287335  1
  Dy  Dy5  1  0.287339  0.287337  0.712663  1
  Zn  Zn6  1  0.614457  0.128514  0.128517  1
  Zn  Zn7  1  0.128514  0.614458  0.128514  1
  Zn  Zn8  1  0.128518  0.128516  0.614456  1
  Zn  Zn9  1  0.128516  0.128515  0.128512  1
  Zn  Zn10  1  0.385543  0.871486  0.871483  1
  Zn  Zn11  1  0.871486  0.385542  0.871486  1
  Zn  Zn12  1  0.871482  0.871484  0.385544  1
  Zn  Zn13  1  0.871484  0.871485  0.871488  1
  Zn  Zn14  1  0.500000  0.000000  0.000000  1
  Zn  Zn15  1  0.500000  0.000000  0.500000  1
  Zn  Zn16  1  0.500000  0.500000  0.000000  1
  Zn  Zn17  1  0.000000  0.500000  0.500000  1
  Zn  Zn18  1  0.000000  0.500000  0.000000  1
  Zn  Zn19  1  0.000000  0.000000  0.500000  1
  Zn  Zn20  1  0.009887  0.330037  0.330038  1
  Zn  Zn21  1  0.330036  0.009884  0.330040  1
  Zn  Zn22  1  0.330041  0.330038  0.009883  1
  Zn  Zn23  1  0.330039  0.330039  0.330037  1
  Zn  Zn24  1  0.990113  0.669963  0.669962  1
  Zn  Zn25  1  0.669964  0.990116  0.669960  1
  Zn  Zn26  1  0.669959  0.669962  0.990117  1
  Zn  Zn27  1  0.669961  0.669961  0.669963  1
  Cd  Cd28  1  0.000000  0.000000  0.000000  1
  P  P29  1  0.500000  0.500000  0.500000  1
