# generated using pymatgen
data_UAs3(Se2F3)2
_symmetry_space_group_name_H-M   'P 1'
_cell_length_a   10.25328100
_cell_length_b   6.67792472
_cell_length_c   10.87641903
_cell_angle_alpha   88.47081721
_cell_angle_beta   90.00000000
_cell_angle_gamma   90.00000000
_symmetry_Int_Tables_number   1
_chemical_formula_structural   UAs3(Se2F3)2
_chemical_formula_sum   'U2 As6 Se8 F12'
_cell_volume   744.45013639
_cell_formula_units_Z   2
loop_
 _symmetry_equiv_pos_site_id
 _symmetry_equiv_pos_as_xyz
  1  'x, y, z'
loop_
 _atom_site_type_symbol
 _atom_site_label
 _atom_site_symmetry_multiplicity
 _atom_site_fract_x
 _atom_site_fract_y
 _atom_site_fract_z
 _atom_site_occupancy
  U  U0  1  0.750000  0.498882  0.832739  1
  U  U1  1  0.250000  0.501118  0.167261  1
  As  As2  1  0.250000  0.055210  0.519001  1
  As  As3  1  0.127612  0.976988  0.842343  1
  As  As4  1  0.627612  0.023012  0.157657  1
  As  As5  1  0.750000  0.944790  0.480999  1
  As  As6  1  0.872388  0.023012  0.157657  1
  As  As7  1  0.372388  0.976988  0.842343  1
  Se  Se8  1  0.070630  0.130629  0.653168  1
  Se  Se9  1  0.429370  0.130629  0.653168  1
  Se  Se10  1  0.750000  0.327968  0.229854  1
  Se  Se11  1  0.250000  0.672032  0.770146  1
  Se  Se12  1  0.570630  0.869371  0.346832  1
  Se  Se13  1  0.750000  0.305086  0.444323  1
  Se  Se14  1  0.929370  0.869371  0.346832  1
  Se  Se15  1  0.250000  0.694914  0.555677  1
  F  F16  1  0.750000  0.270336  0.702067  1
  F  F17  1  0.609984  0.338373  0.934966  1
  F  F18  1  0.393969  0.353974  0.269974  1
  F  F19  1  0.750000  0.727731  0.960906  1
  F  F20  1  0.106031  0.353974  0.269974  1
  F  F21  1  0.250000  0.272269  0.039094  1
  F  F22  1  0.109984  0.661627  0.065034  1
  F  F23  1  0.606031  0.646026  0.730026  1
  F  F24  1  0.893969  0.646026  0.730026  1
  F  F25  1  0.890016  0.338373  0.934966  1
  F  F26  1  0.390016  0.661627  0.065034  1
  F  F27  1  0.250000  0.729664  0.297933  1
