# generated using pymatgen
data_CaYb9Sb8
_symmetry_space_group_name_H-M   'P 1'
_cell_length_a   8.40843261
_cell_length_b   8.01156245
_cell_length_c   8.80317020
_cell_angle_alpha   68.16566274
_cell_angle_beta   89.96560948
_cell_angle_gamma   89.96230421
_symmetry_Int_Tables_number   1
_chemical_formula_structural   CaYb9Sb8
_chemical_formula_sum   'Ca1 Yb9 Sb8'
_cell_volume   550.48099469
_cell_formula_units_Z   1
loop_
 _symmetry_equiv_pos_site_id
 _symmetry_equiv_pos_as_xyz
  1  'x, y, z'
loop_
 _atom_site_type_symbol
 _atom_site_label
 _atom_site_symmetry_multiplicity
 _atom_site_fract_x
 _atom_site_fract_y
 _atom_site_fract_z
 _atom_site_occupancy
  Ca  Ca0  1  0.500000  0.500000  0.000000  1
  Yb  Yb1  1  0.303617  0.040432  0.329459  1
  Yb  Yb2  1  0.196217  0.540449  0.329483  1
  Yb  Yb3  1  0.803783  0.459551  0.670517  1
  Yb  Yb4  1  0.345231  0.276983  0.728266  1
  Yb  Yb5  1  0.000000  0.000000  0.000000  1
  Yb  Yb6  1  0.696383  0.959568  0.670541  1
  Yb  Yb7  1  0.845535  0.222778  0.271729  1
  Yb  Yb8  1  0.154465  0.777222  0.728271  1
  Yb  Yb9  1  0.654769  0.723017  0.271734  1
  Sb  Sb10  1  0.867459  0.625494  0.977971  1
  Sb  Sb11  1  0.965854  0.815401  0.404117  1
  Sb  Sb12  1  0.132541  0.374506  0.022029  1
  Sb  Sb13  1  0.534230  0.315233  0.404540  1
  Sb  Sb14  1  0.366888  0.875079  0.022198  1
  Sb  Sb15  1  0.465770  0.684767  0.595460  1
  Sb  Sb16  1  0.034146  0.184599  0.595883  1
  Sb  Sb17  1  0.633112  0.124921  0.977802  1
