# generated using pymatgen
data_CsNi8Bi8B
_symmetry_space_group_name_H-M   'P 1'
_cell_length_a   9.91634800
_cell_length_b   9.91634800
_cell_length_c   4.23473500
_cell_angle_alpha   90.00000000
_cell_angle_beta   90.00000000
_cell_angle_gamma   90.00000000
_symmetry_Int_Tables_number   1
_chemical_formula_structural   CsNi8Bi8B
_chemical_formula_sum   'Cs1 Ni8 Bi8 B1'
_cell_volume   416.41825218
_cell_formula_units_Z   1
loop_
 _symmetry_equiv_pos_site_id
 _symmetry_equiv_pos_as_xyz
  1  'x, y, z'
loop_
 _atom_site_type_symbol
 _atom_site_label
 _atom_site_symmetry_multiplicity
 _atom_site_fract_x
 _atom_site_fract_y
 _atom_site_fract_z
 _atom_site_occupancy
  Cs  Cs0  1  0.500000  0.500000  0.512718  1
  Ni  Ni1  1  0.080667  0.833713  0.499256  1
  Ni  Ni2  1  0.919333  0.166287  0.499256  1
  Ni  Ni3  1  0.833713  0.919333  0.499256  1
  Ni  Ni4  1  0.166287  0.080667  0.499256  1
  Ni  Ni5  1  0.175275  0.943565  0.003667  1
  Ni  Ni6  1  0.824725  0.056435  0.003667  1
  Ni  Ni7  1  0.943565  0.824725  0.003667  1
  Ni  Ni8  1  0.056435  0.175275  0.003667  1
  Bi  Bi9  1  0.349414  0.881025  0.501123  1
  Bi  Bi10  1  0.650586  0.118975  0.501123  1
  Bi  Bi11  1  0.881025  0.650586  0.501123  1
  Bi  Bi12  1  0.118975  0.349414  0.501123  1
  Bi  Bi13  1  0.166941  0.671277  0.001676  1
  Bi  Bi14  1  0.833059  0.328723  0.001676  1
  Bi  Bi15  1  0.671277  0.833059  0.001676  1
  Bi  Bi16  1  0.328723  0.166941  0.001676  1
  B  B17  1  0.000000  0.000000  0.253795  1
