# generated using pymatgen
data_Nd6C2BrCl9
_symmetry_space_group_name_H-M   'P 1'
_cell_length_a   7.46275582
_cell_length_b   8.83207752
_cell_length_c   8.91753738
_cell_angle_alpha   108.35901218
_cell_angle_beta   97.29649527
_cell_angle_gamma   106.06857654
_symmetry_Int_Tables_number   1
_chemical_formula_structural   Nd6C2BrCl9
_chemical_formula_sum   'Nd6 C2 Br1 Cl9'
_cell_volume   521.06619756
_cell_formula_units_Z   1
loop_
 _symmetry_equiv_pos_site_id
 _symmetry_equiv_pos_as_xyz
  1  'x, y, z'
loop_
 _atom_site_type_symbol
 _atom_site_label
 _atom_site_symmetry_multiplicity
 _atom_site_fract_x
 _atom_site_fract_y
 _atom_site_fract_z
 _atom_site_occupancy
  Nd  Nd0  1  0.879313  0.949830  0.233206  1
  Nd  Nd1  1  0.120568  0.049767  0.766938  1
  Nd  Nd2  1  0.027328  0.711482  0.911274  1
  Nd  Nd3  1  0.967921  0.286390  0.086695  1
  Nd  Nd4  1  0.602630  0.837482  0.784777  1
  Nd  Nd5  1  0.396667  0.155700  0.212227  1
  C  C6  1  0.904910  0.964245  0.950300  1
  C  C7  1  0.093133  0.035074  0.049154  1
  Br  Br8  1  0.359537  0.485954  0.290897  1
  Cl  Cl9  1  0.759150  0.918526  0.538200  1
  Cl  Cl10  1  0.241715  0.081861  0.462026  1
  Cl  Cl11  1  0.457046  0.824182  0.076191  1
  Cl  Cl12  1  0.541220  0.171183  0.920435  1
  Cl  Cl13  1  0.817446  0.260587  0.353647  1
  Cl  Cl14  1  0.180576  0.738131  0.646030  1
  Cl  Cl15  1  0.908759  0.625896  0.168492  1
  Cl  Cl16  1  0.087631  0.372300  0.829654  1
  Cl  Cl17  1  0.654449  0.531410  0.719858  1
