# generated using pymatgen
data_Y4Hf2Sn5
_symmetry_space_group_name_H-M   'P 1'
_cell_length_a   11.37994708
_cell_length_b   11.37994729
_cell_length_c   11.37994599
_cell_angle_alpha   148.42928519
_cell_angle_beta   131.88770300
_cell_angle_gamma   58.69005642
_symmetry_Int_Tables_number   1
_chemical_formula_structural   Y4Hf2Sn5
_chemical_formula_sum   'Y8 Hf4 Sn10'
_cell_volume   569.81204865
_cell_formula_units_Z   2
loop_
 _symmetry_equiv_pos_site_id
 _symmetry_equiv_pos_as_xyz
  1  'x, y, z'
loop_
 _atom_site_type_symbol
 _atom_site_label
 _atom_site_symmetry_multiplicity
 _atom_site_fract_x
 _atom_site_fract_y
 _atom_site_fract_z
 _atom_site_occupancy
  Y  Y0  1  0.670639  0.441466  0.229173  1
  Y  Y1  1  0.329361  0.558534  0.770827  1
  Y  Y2  1  0.212294  0.941466  0.270827  1
  Y  Y3  1  0.787706  0.058534  0.729173  1
  Y  Y4  1  0.256442  0.145688  0.110755  1
  Y  Y5  1  0.743558  0.854312  0.889245  1
  Y  Y6  1  0.034932  0.645688  0.389245  1
  Y  Y7  1  0.965068  0.354312  0.610755  1
  Hf  Hf8  1  0.302929  0.552929  0.250000  1
  Hf  Hf9  1  0.697071  0.447071  0.750000  1
  Hf  Hf10  1  0.697071  0.947071  0.250000  1
  Hf  Hf11  1  0.302929  0.052929  0.750000  1
  Sn  Sn12  1  0.587057  0.290128  0.296929  1
  Sn  Sn13  1  0.412943  0.709872  0.703071  1
  Sn  Sn14  1  0.993199  0.790128  0.203071  1
  Sn  Sn15  1  0.006801  0.209872  0.796929  1
  Sn  Sn16  1  0.000000  0.250000  0.250000  1
  Sn  Sn17  1  0.000000  0.750000  0.750000  1
  Sn  Sn18  1  0.481079  0.080471  0.400608  1
  Sn  Sn19  1  0.518921  0.919529  0.599392  1
  Sn  Sn20  1  0.679863  0.580471  0.099392  1
  Sn  Sn21  1  0.320137  0.419529  0.900608  1
