# generated using pymatgen
data_K2Ca(BSe)9
_symmetry_space_group_name_H-M   'P 1'
_cell_length_a   9.97428755
_cell_length_b   10.75114009
_cell_length_c   11.31842500
_cell_angle_alpha   100.14274928
_cell_angle_beta   90.63083407
_cell_angle_gamma   116.28969081
_symmetry_Int_Tables_number   1
_chemical_formula_structural   K2Ca(BSe)9
_chemical_formula_sum   'K4 Ca2 B18 Se18'
_cell_volume   1065.72241217
_cell_formula_units_Z   2
loop_
 _symmetry_equiv_pos_site_id
 _symmetry_equiv_pos_as_xyz
  1  'x, y, z'
loop_
 _atom_site_type_symbol
 _atom_site_label
 _atom_site_symmetry_multiplicity
 _atom_site_fract_x
 _atom_site_fract_y
 _atom_site_fract_z
 _atom_site_occupancy
  K  K0  1  0.799884  0.191929  0.021492  1
  K  K1  1  0.200116  0.808071  0.978508  1
  K  K2  1  0.167274  0.349026  0.510515  1
  K  K3  1  0.832726  0.650974  0.489485  1
  Ca  Ca4  1  0.321665  0.297583  0.092875  1
  Ca  Ca5  1  0.678335  0.702417  0.907125  1
  B  B6  1  0.518435  0.164179  0.552682  1
  B  B7  1  0.481565  0.835821  0.447318  1
  B  B8  1  0.661829  0.117362  0.589463  1
  B  B9  1  0.338171  0.882638  0.410537  1
  B  B10  1  0.483669  0.041342  0.648002  1
  B  B11  1  0.516331  0.958658  0.351998  1
  B  B12  1  0.339652  0.011796  0.536560  1
  B  B13  1  0.660348  0.988204  0.463440  1
  B  B14  1  0.429045  0.067381  0.405906  1
  B  B15  1  0.570955  0.932619  0.594094  1
  B  B16  1  0.625683  0.131619  0.438885  1
  B  B17  1  0.374317  0.868381  0.561115  1
  B  B18  1  0.760289  0.417839  0.709467  1
  B  B19  1  0.239711  0.582161  0.290533  1
  B  B20  1  0.242464  0.076680  0.777907  1
  B  B21  1  0.757536  0.923320  0.222093  1
  B  B22  1  0.593137  0.294928  0.262012  1
  B  B23  1  0.406863  0.705072  0.737988  1
  Se  Se24  1  0.563260  0.365049  0.625183  1
  Se  Se25  1  0.436740  0.634951  0.374817  1
  Se  Se26  1  0.839343  0.276288  0.697927  1
  Se  Se27  1  0.160657  0.723712  0.302073  1
  Se  Se28  1  0.441464  0.089194  0.818980  1
  Se  Se29  1  0.558536  0.910806  0.181020  1
  Se  Se30  1  0.164003  0.033172  0.606181  1
  Se  Se31  1  0.835997  0.966828  0.393819  1
  Se  Se32  1  0.381433  0.171186  0.291834  1
  Se  Se33  1  0.618567  0.828814  0.708166  1
  Se  Se34  1  0.756532  0.287532  0.354868  1
  Se  Se35  1  0.243468  0.712468  0.645132  1
  Se  Se36  1  0.880389  0.610607  0.795984  1
  Se  Se37  1  0.119611  0.389393  0.204016  1
  Se  Se38  1  0.116309  0.091669  0.901714  1
  Se  Se39  1  0.883691  0.908331  0.098286  1
  Se  Se40  1  0.640992  0.416656  0.145564  1
  Se  Se41  1  0.359008  0.583344  0.854436  1
