# generated using pymatgen
data_Ho6B14OsW
_symmetry_space_group_name_H-M   'P 1'
_cell_length_a   8.08020028
_cell_length_b   8.08020047
_cell_length_c   9.38008200
_cell_angle_alpha   90.00000000
_cell_angle_beta   90.00000000
_cell_angle_gamma   155.04671232
_symmetry_Int_Tables_number   1
_chemical_formula_structural   Ho6B14OsW
_chemical_formula_sum   'Ho6 B14 Os1 W1'
_cell_volume   258.36818483
_cell_formula_units_Z   1
loop_
 _symmetry_equiv_pos_site_id
 _symmetry_equiv_pos_as_xyz
  1  'x, y, z'
loop_
 _atom_site_type_symbol
 _atom_site_label
 _atom_site_symmetry_multiplicity
 _atom_site_fract_x
 _atom_site_fract_y
 _atom_site_fract_z
 _atom_site_occupancy
  Ho  Ho0  1  0.893903  0.106097  0.438143  1
  Ho  Ho1  1  0.107231  0.892769  0.558002  1
  Ho  Ho2  1  0.893903  0.106097  0.061857  1
  Ho  Ho3  1  0.107231  0.892769  0.941998  1
  Ho  Ho4  1  0.243677  0.756323  0.250000  1
  Ho  Ho5  1  0.754702  0.245298  0.750000  1
  B  B6  1  0.726637  0.273363  0.464827  1
  B  B7  1  0.271833  0.728167  0.532076  1
  B  B8  1  0.726637  0.273363  0.035173  1
  B  B9  1  0.271833  0.728167  0.967924  1
  B  B10  1  0.631717  0.368283  0.151391  1
  B  B11  1  0.365272  0.634728  0.852564  1
  B  B12  1  0.631717  0.368283  0.348609  1
  B  B13  1  0.365272  0.634728  0.647436  1
  B  B14  1  0.520737  0.479263  0.096711  1
  B  B15  1  0.480862  0.519138  0.909055  1
  B  B16  1  0.520737  0.479263  0.403289  1
  B  B17  1  0.480862  0.519138  0.590945  1
  B  B18  1  0.456860  0.543140  0.250000  1
  B  B19  1  0.546751  0.453249  0.750000  1
  Os  Os20  1  0.053794  0.946206  0.250000  1
  W  W21  1  0.947834  0.052166  0.750000  1
