# generated using pymatgen
data_Nd3Ho5(CdIr)2
_symmetry_space_group_name_H-M   'P 1'
_cell_length_a   9.72412724
_cell_length_b   9.72412751
_cell_length_c   9.72412700
_cell_angle_alpha   59.99999832
_cell_angle_beta   59.99999741
_cell_angle_gamma   60.00000311
_symmetry_Int_Tables_number   1
_chemical_formula_structural   Nd3Ho5(CdIr)2
_chemical_formula_sum   'Nd6 Ho10 Cd4 Ir4'
_cell_volume   650.18492887
_cell_formula_units_Z   2
loop_
 _symmetry_equiv_pos_site_id
 _symmetry_equiv_pos_as_xyz
  1  'x, y, z'
loop_
 _atom_site_type_symbol
 _atom_site_label
 _atom_site_symmetry_multiplicity
 _atom_site_fract_x
 _atom_site_fract_y
 _atom_site_fract_z
 _atom_site_occupancy
  Nd  Nd0  1  0.940482  0.559518  0.559518  1
  Nd  Nd1  1  0.559518  0.940482  0.940482  1
  Nd  Nd2  1  0.559518  0.940482  0.559518  1
  Nd  Nd3  1  0.940482  0.559518  0.940482  1
  Nd  Nd4  1  0.559518  0.559518  0.940482  1
  Nd  Nd5  1  0.940482  0.940482  0.559518  1
  Ho  Ho6  1  0.347303  0.347303  0.347303  1
  Ho  Ho7  1  0.347303  0.347303  0.958090  1
  Ho  Ho8  1  0.347303  0.958090  0.347303  1
  Ho  Ho9  1  0.958090  0.347303  0.347303  1
  Ho  Ho10  1  0.812549  0.187451  0.187451  1
  Ho  Ho11  1  0.187451  0.812549  0.812549  1
  Ho  Ho12  1  0.187451  0.812549  0.187451  1
  Ho  Ho13  1  0.812549  0.187451  0.812549  1
  Ho  Ho14  1  0.187451  0.187451  0.812549  1
  Ho  Ho15  1  0.812549  0.812549  0.187451  1
  Cd  Cd16  1  0.579488  0.579488  0.579488  1
  Cd  Cd17  1  0.579488  0.579488  0.261536  1
  Cd  Cd18  1  0.579488  0.261536  0.579488  1
  Cd  Cd19  1  0.261536  0.579488  0.579488  1
  Ir  Ir20  1  0.141235  0.141235  0.141235  1
  Ir  Ir21  1  0.141235  0.141235  0.576294  1
  Ir  Ir22  1  0.141235  0.576294  0.141235  1
  Ir  Ir23  1  0.576294  0.141235  0.141235  1
