# generated using pymatgen
data_Ta4Co2PdS12
_symmetry_space_group_name_H-M   'P 1'
_cell_length_a   6.88593406
_cell_length_b   6.88593430
_cell_length_c   18.75294114
_cell_angle_alpha   70.45849697
_cell_angle_beta   70.45849627
_cell_angle_gamma   28.04273802
_symmetry_Int_Tables_number   1
_chemical_formula_structural   Ta4Co2PdS12
_chemical_formula_sum   'Ta4 Co2 Pd1 S12'
_cell_volume   392.40582359
_cell_formula_units_Z   1
loop_
 _symmetry_equiv_pos_site_id
 _symmetry_equiv_pos_as_xyz
  1  'x, y, z'
loop_
 _atom_site_type_symbol
 _atom_site_label
 _atom_site_symmetry_multiplicity
 _atom_site_fract_x
 _atom_site_fract_y
 _atom_site_fract_z
 _atom_site_occupancy
  Ta  Ta0  1  0.624329  0.624329  0.848992  1
  Ta  Ta1  1  0.375671  0.375671  0.151008  1
  Ta  Ta2  1  0.743847  0.743847  0.592349  1
  Ta  Ta3  1  0.256153  0.256153  0.407651  1
  Co  Co4  1  0.231143  0.231143  0.716828  1
  Co  Co5  1  0.768857  0.768857  0.283172  1
  Pd  Pd6  1  0.000000  0.000000  0.000000  1
  S  S7  1  0.977432  0.977432  0.880843  1
  S  S8  1  0.022568  0.022568  0.119157  1
  S  S9  1  0.631652  0.631652  0.395441  1
  S  S10  1  0.368348  0.368348  0.604559  1
  S  S11  1  0.138693  0.138693  0.549452  1
  S  S12  1  0.861307  0.861307  0.450548  1
  S  S13  1  0.805389  0.805389  0.763542  1
  S  S14  1  0.194611  0.194611  0.236458  1
  S  S15  1  0.183030  0.183030  0.924659  1
  S  S16  1  0.816970  0.816970  0.075341  1
  S  S17  1  0.611749  0.611749  0.718682  1
  S  S18  1  0.388251  0.388251  0.281318  1
