# generated using pymatgen
data_Ba3Sr13Nb4(FeO8)4
_symmetry_space_group_name_H-M   'P 1'
_cell_length_a   5.92665906
_cell_length_b   7.37007230
_cell_length_c   20.32748431
_cell_angle_alpha   82.96739443
_cell_angle_beta   89.88617054
_cell_angle_gamma   89.95682633
_symmetry_Int_Tables_number   1
_chemical_formula_structural   Ba3Sr13Nb4(FeO8)4
_chemical_formula_sum   'Ba3 Sr13 Nb4 Fe4 O32'
_cell_volume   881.22073145
_cell_formula_units_Z   1
loop_
 _symmetry_equiv_pos_site_id
 _symmetry_equiv_pos_as_xyz
  1  'x, y, z'
loop_
 _atom_site_type_symbol
 _atom_site_label
 _atom_site_symmetry_multiplicity
 _atom_site_fract_x
 _atom_site_fract_y
 _atom_site_fract_z
 _atom_site_occupancy
  Ba  Ba0  1  0.767392  0.142362  0.289385  1
  Ba  Ba1  1  0.735250  0.146139  0.790476  1
  Ba  Ba2  1  0.236149  0.853544  0.709427  1
  Sr  Sr3  1  0.748416  0.026039  0.100631  1
  Sr  Sr4  1  0.247157  0.973567  0.399312  1
  Sr  Sr5  1  0.253110  0.971891  0.900395  1
  Sr  Sr6  1  0.754602  0.027610  0.598931  1
  Sr  Sr7  1  0.748746  0.503889  0.136247  1
  Sr  Sr8  1  0.253640  0.498126  0.362814  1
  Sr  Sr9  1  0.249402  0.495563  0.864440  1
  Sr  Sr10  1  0.749415  0.503473  0.635883  1
  Sr  Sr11  1  0.281162  0.289490  0.048311  1
  Sr  Sr12  1  0.779987  0.708272  0.453174  1
  Sr  Sr13  1  0.717855  0.706374  0.953790  1
  Sr  Sr14  1  0.218599  0.293311  0.545763  1
  Sr  Sr15  1  0.286556  0.837015  0.209084  1
  Nb  Nb16  1  0.258371  0.338291  0.209822  1
  Nb  Nb17  1  0.762615  0.660164  0.288967  1
  Nb  Nb18  1  0.741701  0.658230  0.790621  1
  Nb  Nb19  1  0.241599  0.341357  0.709228  1
  Fe  Fe20  1  0.212218  0.738553  0.056130  1
  Fe  Fe21  1  0.715193  0.263669  0.444735  1
  Fe  Fe22  1  0.785602  0.261277  0.946300  1
  Fe  Fe23  1  0.285382  0.738277  0.553749  1
  O  O24  1  0.495062  0.504026  0.255064  1
  O  O25  1  0.996627  0.503271  0.243109  1
  O  O26  1  0.498358  0.501067  0.744505  1
  O  O27  1  0.998512  0.498692  0.755549  1
  O  O28  1  0.506989  0.212007  0.174508  1
  O  O29  1  0.016637  0.794088  0.319200  1
  O  O30  1  0.492691  0.786181  0.826604  1
  O  O31  1  0.993211  0.212915  0.673651  1
  O  O32  1  0.239559  0.182160  0.293082  1
  O  O33  1  0.721166  0.822959  0.206866  1
  O  O34  1  0.758436  0.823303  0.708417  1
  O  O35  1  0.258131  0.176851  0.791653  1
  O  O36  1  0.028712  0.221047  0.161022  1
  O  O37  1  0.537705  0.781969  0.339686  1
  O  O38  1  0.968813  0.778624  0.839784  1
  O  O39  1  0.469477  0.220822  0.660220  1
  O  O40  1  0.296505  0.549765  0.127513  1
  O  O41  1  0.799053  0.454747  0.373003  1
  O  O42  1  0.702788  0.449047  0.873671  1
  O  O43  1  0.202021  0.549871  0.626195  1
  O  O44  1  0.334961  0.951478  0.083872  1
  O  O45  1  0.842930  0.044755  0.423932  1
  O  O46  1  0.656378  0.043573  0.925308  1
  O  O47  1  0.158584  0.956342  0.575368  1
  O  O48  1  0.298858  0.665210  0.972860  1
  O  O49  1  0.797583  0.339570  0.527792  1
  O  O50  1  0.699383  0.338136  0.028730  1
  O  O51  1  0.201634  0.662322  0.470852  1
  O  O52  1  0.893227  0.753726  0.057563  1
  O  O53  1  0.396575  0.246360  0.441672  1
  O  O54  1  0.105118  0.244268  0.943640  1
  O  O55  1  0.604196  0.754365  0.557496  1
