# generated using pymatgen
data_Lu4In2HgAu3
_symmetry_space_group_name_H-M   'P 1'
_cell_length_a   7.94785920
_cell_length_b   7.94785920
_cell_length_c   7.30059700
_cell_angle_alpha   90.00000000
_cell_angle_beta   90.00000000
_cell_angle_gamma   89.91470361
_symmetry_Int_Tables_number   1
_chemical_formula_structural   Lu4In2HgAu3
_chemical_formula_sum   'Lu8 In4 Hg2 Au6'
_cell_volume   461.16700155
_cell_formula_units_Z   2
loop_
 _symmetry_equiv_pos_site_id
 _symmetry_equiv_pos_as_xyz
  1  'x, y, z'
loop_
 _atom_site_type_symbol
 _atom_site_label
 _atom_site_symmetry_multiplicity
 _atom_site_fract_x
 _atom_site_fract_y
 _atom_site_fract_z
 _atom_site_occupancy
  Lu  Lu0  1  0.846865  0.153135  0.504415  1
  Lu  Lu1  1  0.153135  0.846865  0.504415  1
  Lu  Lu2  1  0.340311  0.340311  0.991066  1
  Lu  Lu3  1  0.659689  0.659689  0.991066  1
  Lu  Lu4  1  0.686398  0.686398  0.507938  1
  Lu  Lu5  1  0.313602  0.313602  0.507938  1
  Lu  Lu6  1  0.178493  0.821508  0.994964  1
  Lu  Lu7  1  0.821508  0.178493  0.994964  1
  In  In8  1  0.500000  0.000000  0.248107  1
  In  In9  1  0.000000  0.500000  0.751658  1
  In  In10  1  0.500000  0.000000  0.751658  1
  In  In11  1  0.000000  0.500000  0.248107  1
  Hg  Hg12  1  0.629785  0.370215  0.277659  1
  Hg  Hg13  1  0.370215  0.629785  0.277659  1
  Au  Au14  1  0.129378  0.129378  0.774916  1
  Au  Au15  1  0.870622  0.870622  0.774916  1
  Au  Au16  1  0.370625  0.629375  0.724058  1
  Au  Au17  1  0.629375  0.370625  0.724058  1
  Au  Au18  1  0.870048  0.870048  0.225219  1
  Au  Au19  1  0.129952  0.129952  0.225219  1
