# generated using pymatgen
data_ScBi4Os3O16
_symmetry_space_group_name_H-M   'P 1'
_cell_length_a   5.57825141
_cell_length_b   7.80474975
_cell_length_c   7.70130778
_cell_angle_alpha   103.30123789
_cell_angle_beta   89.71287954
_cell_angle_gamma   91.62361326
_symmetry_Int_Tables_number   1
_chemical_formula_structural   ScBi4Os3O16
_chemical_formula_sum   'Sc1 Bi4 Os3 O16'
_cell_volume   326.16479585
_cell_formula_units_Z   1
loop_
 _symmetry_equiv_pos_site_id
 _symmetry_equiv_pos_as_xyz
  1  'x, y, z'
loop_
 _atom_site_type_symbol
 _atom_site_label
 _atom_site_symmetry_multiplicity
 _atom_site_fract_x
 _atom_site_fract_y
 _atom_site_fract_z
 _atom_site_occupancy
  Sc  Sc0  1  0.769661  0.657749  0.294397  1
  Bi  Bi1  1  0.220008  0.883270  0.585457  1
  Bi  Bi2  1  0.721962  0.115614  0.903078  1
  Bi  Bi3  1  0.281413  0.823182  0.104543  1
  Bi  Bi4  1  0.742996  0.123042  0.390097  1
  Os  Os5  1  0.752541  0.667675  0.794558  1
  Os  Os6  1  0.255233  0.332792  0.205921  1
  Os  Os7  1  0.242250  0.336188  0.706937  1
  O  O8  1  0.999596  0.902272  0.326083  1
  O  O9  1  0.104948  0.551932  0.229121  1
  O  O10  1  0.296369  0.320172  0.955767  1
  O  O11  1  0.505210  0.855631  0.359172  1
  O  O12  1  0.456601  0.136020  0.642378  1
  O  O13  1  0.991358  0.140897  0.672215  1
  O  O14  1  0.559245  0.436892  0.270864  1
  O  O15  1  0.511206  0.853117  0.813090  1
  O  O16  1  0.509301  0.495116  0.721327  1
  O  O17  1  0.967490  0.875218  0.880522  1
  O  O18  1  0.004524  0.509435  0.781057  1
  O  O19  1  0.195848  0.326469  0.452042  1
  O  O20  1  0.445644  0.098826  0.157316  1
  O  O21  1  0.960748  0.193409  0.153954  1
  O  O22  1  0.827984  0.691171  0.562278  1
  O  O23  1  0.677863  0.673911  0.037828  1
