# generated using pymatgen
data_Tb16Tl3InRuRh3
_symmetry_space_group_name_H-M   'P 1'
_cell_length_a   9.70636504
_cell_length_b   9.73317303
_cell_length_c   9.71596800
_cell_angle_alpha   60.05845681
_cell_angle_beta   59.96726728
_cell_angle_gamma   60.03011148
_symmetry_Int_Tables_number   1
_chemical_formula_structural   Tb16Tl3InRuRh3
_chemical_formula_sum   'Tb16 Tl3 In1 Ru1 Rh3'
_cell_volume   649.32895379
_cell_formula_units_Z   1
loop_
 _symmetry_equiv_pos_site_id
 _symmetry_equiv_pos_as_xyz
  1  'x, y, z'
loop_
 _atom_site_type_symbol
 _atom_site_label
 _atom_site_symmetry_multiplicity
 _atom_site_fract_x
 _atom_site_fract_y
 _atom_site_fract_z
 _atom_site_occupancy
  Tb  Tb0  1  0.812060  0.810266  0.188837  1
  Tb  Tb1  1  0.812830  0.191778  0.809234  1
  Tb  Tb2  1  0.186509  0.190966  0.811262  1
  Tb  Tb3  1  0.649687  0.048823  0.650744  1
  Tb  Tb4  1  0.060637  0.061303  0.439031  1
  Tb  Tb5  1  0.441263  0.437364  0.060687  1
  Tb  Tb6  1  0.651771  0.649509  0.652715  1
  Tb  Tb7  1  0.812830  0.191778  0.186158  1
  Tb  Tb8  1  0.189367  0.812250  0.810302  1
  Tb  Tb9  1  0.047998  0.648495  0.651753  1
  Tb  Tb10  1  0.438648  0.060590  0.061531  1
  Tb  Tb11  1  0.438648  0.060590  0.439232  1
  Tb  Tb12  1  0.059566  0.437419  0.060927  1
  Tb  Tb13  1  0.651771  0.649509  0.046004  1
  Tb  Tb14  1  0.189367  0.812250  0.188081  1
  Tb  Tb15  1  0.059566  0.437419  0.442089  1
  Tl  Tl16  1  0.416203  0.414423  0.414431  1
  Tl  Tl17  1  0.416203  0.414423  0.754942  1
  Tl  Tl18  1  0.416773  0.753726  0.414750  1
  In  In19  1  0.750016  0.416706  0.416639  1
  Ru  Ru20  1  0.857555  0.425996  0.858225  1
  Rh  Rh21  1  0.857578  0.858187  0.858006  1
  Rh  Rh22  1  0.857578  0.858187  0.426230  1
  Rh  Rh23  1  0.425575  0.858043  0.858192  1
