# generated using pymatgen
data_YTm11AlFe4Cu
_symmetry_space_group_name_H-M   'P 1'
_cell_length_a   8.20425712
_cell_length_b   8.19338009
_cell_length_c   8.19327000
_cell_angle_alpha   111.10257338
_cell_angle_beta   110.88074226
_cell_angle_gamma   106.41889257
_symmetry_Int_Tables_number   1
_chemical_formula_structural   YTm11AlFe4Cu
_chemical_formula_sum   'Y1 Tm11 Al1 Fe4 Cu1'
_cell_volume   423.36438903
_cell_formula_units_Z   1
loop_
 _symmetry_equiv_pos_site_id
 _symmetry_equiv_pos_as_xyz
  1  'x, y, z'
loop_
 _atom_site_type_symbol
 _atom_site_label
 _atom_site_symmetry_multiplicity
 _atom_site_fract_x
 _atom_site_fract_y
 _atom_site_fract_z
 _atom_site_occupancy
  Y  Y0  1  0.420071  0.221869  0.198166  1
  Tm  Tm1  1  0.576801  0.777360  0.799409  1
  Tm  Tm2  1  0.021526  0.222236  0.799255  1
  Tm  Tm3  1  0.978533  0.778815  0.199689  1
  Tm  Tm4  1  0.188095  0.289780  0.478550  1
  Tm  Tm5  1  0.813303  0.712392  0.524652  1
  Tm  Tm6  1  0.188101  0.709523  0.898301  1
  Tm  Tm7  1  0.813310  0.288638  0.100902  1
  Tm  Tm8  1  0.314392  0.614508  0.298690  1
  Tm  Tm9  1  0.686057  0.387016  0.702233  1
  Tm  Tm10  1  0.314406  0.015674  0.699845  1
  Tm  Tm11  1  0.686076  0.983805  0.298999  1
  Al  Al12  1  0.499995  0.500505  0.999446  1
  Fe  Fe13  1  0.383132  0.998994  0.384082  1
  Fe  Fe14  1  0.620413  0.000538  0.619801  1
  Fe  Fe15  1  0.108981  0.609781  0.499255  1
  Fe  Fe16  1  0.892913  0.390801  0.502299  1
  Cu  Cu17  1  0.993894  0.997764  0.996425  1
