# generated using pymatgen
data_Li2Hf3AlRh6
_symmetry_space_group_name_H-M   'P 1'
_cell_length_a   4.46748900
_cell_length_b   6.20636000
_cell_length_c   13.30159500
_cell_angle_alpha   90.00000000
_cell_angle_beta   89.99892292
_cell_angle_gamma   90.00000000
_symmetry_Int_Tables_number   1
_chemical_formula_structural   Li2Hf3AlRh6
_chemical_formula_sum   'Li4 Hf6 Al2 Rh12'
_cell_volume   368.81126318
_cell_formula_units_Z   2
loop_
 _symmetry_equiv_pos_site_id
 _symmetry_equiv_pos_as_xyz
  1  'x, y, z'
loop_
 _atom_site_type_symbol
 _atom_site_label
 _atom_site_symmetry_multiplicity
 _atom_site_fract_x
 _atom_site_fract_y
 _atom_site_fract_z
 _atom_site_occupancy
  Li  Li0  1  0.999882  0.500000  0.334278  1
  Li  Li1  1  0.499998  0.000000  0.500412  1
  Li  Li2  1  0.000142  0.500000  0.666208  1
  Li  Li3  1  0.500116  0.000000  0.832429  1
  Hf  Hf4  1  0.999991  0.000000  0.996673  1
  Hf  Hf5  1  0.499904  0.500000  0.169829  1
  Hf  Hf6  1  0.999887  0.000000  0.337903  1
  Hf  Hf7  1  0.500005  0.500000  0.502122  1
  Hf  Hf8  1  0.000105  0.000000  0.664718  1
  Hf  Hf9  1  0.500099  0.500000  0.828778  1
  Al  Al10  1  0.999995  0.500000  0.998930  1
  Al  Al11  1  0.499892  0.000000  0.167778  1
  Rh  Rh12  1  0.499994  0.252638  0.001531  1
  Rh  Rh13  1  0.499994  0.747362  0.001531  1
  Rh  Rh14  1  0.999896  0.247378  0.164899  1
  Rh  Rh15  1  0.999896  0.752622  0.164899  1
  Rh  Rh16  1  0.499885  0.247611  0.332437  1
  Rh  Rh17  1  0.499885  0.752389  0.332437  1
  Rh  Rh18  1  0.000002  0.251979  0.500379  1
  Rh  Rh19  1  0.000002  0.748021  0.500379  1
  Rh  Rh20  1  0.500111  0.247984  0.666521  1
  Rh  Rh21  1  0.500111  0.752016  0.666521  1
  Rh  Rh22  1  0.000106  0.252433  0.834204  1
  Rh  Rh23  1  0.000106  0.747567  0.834204  1
