# generated using pymatgen
data_Ti(NbAs)3
_symmetry_space_group_name_H-M   'P 1'
_cell_length_a   7.44217154
_cell_length_b   7.44217148
_cell_length_c   19.18230900
_cell_angle_alpha   90.00000000
_cell_angle_beta   90.00000000
_cell_angle_gamma   152.42842610
_symmetry_Int_Tables_number   1
_chemical_formula_structural   Ti(NbAs)3
_chemical_formula_sum   'Ti4 Nb12 As12'
_cell_volume   491.75231938
_cell_formula_units_Z   4
loop_
 _symmetry_equiv_pos_site_id
 _symmetry_equiv_pos_as_xyz
  1  'x, y, z'
loop_
 _atom_site_type_symbol
 _atom_site_label
 _atom_site_symmetry_multiplicity
 _atom_site_fract_x
 _atom_site_fract_y
 _atom_site_fract_z
 _atom_site_occupancy
  Ti  Ti0  1  0.735868  0.264132  0.163260  1
  Ti  Ti1  1  0.264132  0.735868  0.836740  1
  Ti  Ti2  1  0.264132  0.735868  0.663260  1
  Ti  Ti3  1  0.735868  0.264132  0.336740  1
  Nb  Nb4  1  0.535328  0.464672  0.121313  1
  Nb  Nb5  1  0.464672  0.535328  0.878687  1
  Nb  Nb6  1  0.464672  0.535328  0.621313  1
  Nb  Nb7  1  0.535328  0.464672  0.378687  1
  Nb  Nb8  1  0.664324  0.335676  0.973275  1
  Nb  Nb9  1  0.335676  0.664324  0.026725  1
  Nb  Nb10  1  0.335676  0.664324  0.473275  1
  Nb  Nb11  1  0.664324  0.335676  0.526725  1
  Nb  Nb12  1  0.000000  0.000000  0.000000  1
  Nb  Nb13  1  0.000000  0.000000  0.500000  1
  Nb  Nb14  1  0.055760  0.944240  0.750000  1
  Nb  Nb15  1  0.944240  0.055760  0.250000  1
  As  As16  1  0.900205  0.099795  0.118405  1
  As  As17  1  0.099795  0.900205  0.881595  1
  As  As18  1  0.099795  0.900205  0.618405  1
  As  As19  1  0.900205  0.099795  0.381595  1
  As  As20  1  0.838675  0.161325  0.921179  1
  As  As21  1  0.161325  0.838675  0.078821  1
  As  As22  1  0.161325  0.838675  0.421179  1
  As  As23  1  0.838675  0.161325  0.578821  1
  As  As24  1  0.700037  0.299963  0.750000  1
  As  As25  1  0.299963  0.700037  0.250000  1
  As  As26  1  0.412336  0.587664  0.750000  1
  As  As27  1  0.587664  0.412336  0.250000  1
