# generated using pymatgen
data_Sr2B4Ir3Ru
_symmetry_space_group_name_H-M   'P 1'
_cell_length_a   7.08796146
_cell_length_b   6.13956803
_cell_length_c   5.66247328
_cell_angle_alpha   73.69667422
_cell_angle_beta   56.23931468
_cell_angle_gamma   49.78621539
_symmetry_Int_Tables_number   1
_chemical_formula_structural   Sr2B4Ir3Ru
_chemical_formula_sum   'Sr2 B4 Ir3 Ru1'
_cell_volume   155.25204149
_cell_formula_units_Z   1
loop_
 _symmetry_equiv_pos_site_id
 _symmetry_equiv_pos_as_xyz
  1  'x, y, z'
loop_
 _atom_site_type_symbol
 _atom_site_label
 _atom_site_symmetry_multiplicity
 _atom_site_fract_x
 _atom_site_fract_y
 _atom_site_fract_z
 _atom_site_occupancy
  Sr  Sr0  1  0.499763  0.499763  0.500237  1
  Sr  Sr1  1  0.749286  0.749286  0.750714  1
  B  B2  1  0.826956  0.177270  0.825844  1
  B  B3  1  0.070980  0.425890  0.076323  1
  B  B4  1  0.177270  0.826956  0.169930  1
  B  B5  1  0.425890  0.070980  0.426807  1
  Ir  Ir6  1  0.382197  0.382197  0.117803  1
  Ir  Ir7  1  0.117572  0.117572  0.382428  1
  Ir  Ir8  1  0.867568  0.867568  0.132432  1
  Ru  Ru9  1  0.132518  0.132518  0.867482  1
