# generated using pymatgen
data_Yb2Er2Tc3B16W
_symmetry_space_group_name_H-M   'P 1'
_cell_length_a   3.57024600
_cell_length_b   5.98582178
_cell_length_c   11.56925502
_cell_angle_alpha   89.89623379
_cell_angle_beta   90.00000000
_cell_angle_gamma   90.00000000
_symmetry_Int_Tables_number   1
_chemical_formula_structural   Yb2Er2Tc3B16W
_chemical_formula_sum   'Yb2 Er2 Tc3 B16 W1'
_cell_volume   247.24448093
_cell_formula_units_Z   1
loop_
 _symmetry_equiv_pos_site_id
 _symmetry_equiv_pos_as_xyz
  1  'x, y, z'
loop_
 _atom_site_type_symbol
 _atom_site_label
 _atom_site_symmetry_multiplicity
 _atom_site_fract_x
 _atom_site_fract_y
 _atom_site_fract_z
 _atom_site_occupancy
  Yb  Yb0  1  0.000000  0.626009  0.349505  1
  Yb  Yb1  1  0.000000  0.371576  0.649707  1
  Er  Er2  1  0.000000  0.128430  0.151626  1
  Er  Er3  1  0.000000  0.871985  0.849798  1
  Tc  Tc4  1  0.000000  0.632537  0.084788  1
  Tc  Tc5  1  0.000000  0.367520  0.916378  1
  Tc  Tc6  1  0.000000  0.129528  0.414912  1
  B  B7  1  0.500000  0.784929  0.185499  1
  B  B8  1  0.500000  0.215804  0.815659  1
  B  B9  1  0.500000  0.286583  0.314604  1
  B  B10  1  0.500000  0.709999  0.687405  1
  B  B11  1  0.500000  0.864481  0.031656  1
  B  B12  1  0.500000  0.135812  0.969125  1
  B  B13  1  0.500000  0.365665  0.466321  1
  B  B14  1  0.500000  0.631474  0.531103  1
  B  B15  1  0.500000  0.887338  0.450499  1
  B  B16  1  0.500000  0.117807  0.545881  1
  B  B17  1  0.500000  0.387178  0.048035  1
  B  B18  1  0.500000  0.613321  0.952689  1
  B  B19  1  0.500000  0.978341  0.306033  1
  B  B20  1  0.500000  0.025646  0.694426  1
  B  B21  1  0.500000  0.476976  0.192519  1
  B  B22  1  0.500000  0.522246  0.808226  1
  W  W23  1  0.000000  0.868816  0.583606  1
