# generated using pymatgen
data_TiMn3(SeO4)6
_symmetry_space_group_name_H-M   'P 1'
_cell_length_a   9.36389398
_cell_length_b   9.36389445
_cell_length_c   9.36389466
_cell_angle_alpha   57.90946335
_cell_angle_beta   57.90946259
_cell_angle_gamma   57.90946342
_symmetry_Int_Tables_number   1
_chemical_formula_structural   TiMn3(SeO4)6
_chemical_formula_sum   'Ti1 Mn3 Se6 O24'
_cell_volume   552.71541473
_cell_formula_units_Z   1
loop_
 _symmetry_equiv_pos_site_id
 _symmetry_equiv_pos_as_xyz
  1  'x, y, z'
loop_
 _atom_site_type_symbol
 _atom_site_label
 _atom_site_symmetry_multiplicity
 _atom_site_fract_x
 _atom_site_fract_y
 _atom_site_fract_z
 _atom_site_occupancy
  Ti  Ti0  1  0.143912  0.143912  0.143912  1
  Mn  Mn1  1  0.852927  0.852927  0.852927  1
  Mn  Mn2  1  0.642281  0.642281  0.642281  1
  Mn  Mn3  1  0.354220  0.354220  0.354220  1
  Se  Se4  1  0.241218  0.539824  0.967099  1
  Se  Se5  1  0.967099  0.241218  0.539824  1
  Se  Se6  1  0.539824  0.967099  0.241218  1
  Se  Se7  1  0.461673  0.040982  0.748221  1
  Se  Se8  1  0.040982  0.748221  0.461673  1
  Se  Se9  1  0.748221  0.461673  0.040982  1
  O  O10  1  0.740296  0.475822  0.862096  1
  O  O11  1  0.475822  0.862096  0.740296  1
  O  O12  1  0.057349  0.722220  0.950532  1
  O  O13  1  0.862096  0.740296  0.475822  1
  O  O14  1  0.419883  0.551026  0.784138  1
  O  O15  1  0.205493  0.361012  0.006291  1
  O  O16  1  0.950532  0.057349  0.722220  1
  O  O17  1  0.784138  0.419883  0.551026  1
  O  O18  1  0.551026  0.784138  0.419883  1
  O  O19  1  0.642793  0.019541  0.765312  1
  O  O20  1  0.275467  0.079545  0.928181  1
  O  O21  1  0.019541  0.765312  0.642793  1
  O  O22  1  0.006291  0.205493  0.361012  1
  O  O23  1  0.722220  0.950532  0.057349  1
  O  O24  1  0.361012  0.006291  0.205493  1
  O  O25  1  0.439738  0.226273  0.569279  1
  O  O26  1  0.226273  0.569279  0.439738  1
  O  O27  1  0.079545  0.928181  0.275467  1
  O  O28  1  0.765312  0.642793  0.019541  1
  O  O29  1  0.569279  0.439738  0.226273  1
  O  O30  1  0.145593  0.260589  0.519171  1
  O  O31  1  0.928181  0.275467  0.079545  1
  O  O32  1  0.519171  0.145593  0.260589  1
  O  O33  1  0.260589  0.519171  0.145593  1
