# generated using pymatgen
data_AgAu(Se2O7)2
_symmetry_space_group_name_H-M   'P 1'
_cell_length_a   6.05687935
_cell_length_b   7.40469855
_cell_length_c   9.35895218
_cell_angle_alpha   106.03846739
_cell_angle_beta   94.38955369
_cell_angle_gamma   102.83742984
_symmetry_Int_Tables_number   1
_chemical_formula_structural   AgAu(Se2O7)2
_chemical_formula_sum   'Ag1 Au1 Se4 O14'
_cell_volume   389.03795717
_cell_formula_units_Z   1
loop_
 _symmetry_equiv_pos_site_id
 _symmetry_equiv_pos_as_xyz
  1  'x, y, z'
loop_
 _atom_site_type_symbol
 _atom_site_label
 _atom_site_symmetry_multiplicity
 _atom_site_fract_x
 _atom_site_fract_y
 _atom_site_fract_z
 _atom_site_occupancy
  Ag  Ag0  1  0.500000  0.000000  0.000000  1
  Au  Au1  1  0.500000  0.500000  0.500000  1
  Se  Se2  1  0.933412  0.736824  0.765836  1
  Se  Se3  1  0.066588  0.263176  0.234164  1
  Se  Se4  1  0.662747  0.309030  0.751919  1
  Se  Se5  1  0.337253  0.690970  0.248081  1
  O  O6  1  0.833809  0.647781  0.574100  1
  O  O7  1  0.166191  0.352219  0.425900  1
  O  O8  1  0.462033  0.415951  0.688320  1
  O  O9  1  0.537967  0.584049  0.311680  1
  O  O10  1  0.208957  0.830082  0.781650  1
  O  O11  1  0.791043  0.169918  0.218350  1
  O  O12  1  0.774457  0.860349  0.863565  1
  O  O13  1  0.225543  0.139651  0.136435  1
  O  O14  1  0.582251  0.266423  0.905124  1
  O  O15  1  0.417749  0.733577  0.094876  1
  O  O16  1  0.918974  0.517156  0.821677  1
  O  O17  1  0.081026  0.482844  0.178323  1
  O  O18  1  0.735543  0.147260  0.622042  1
  O  O19  1  0.264457  0.852740  0.377958  1
