# generated using pymatgen
data_LiDyY15Cd3Pt4
_symmetry_space_group_name_H-M   'P 1'
_cell_length_a   9.73882274
_cell_length_b   9.73882308
_cell_length_c   9.73882391
_cell_angle_alpha   59.84111107
_cell_angle_beta   59.84110979
_cell_angle_gamma   59.84110599
_symmetry_Int_Tables_number   1
_chemical_formula_structural   LiDyY15Cd3Pt4
_chemical_formula_sum   'Li1 Dy1 Y15 Cd3 Pt4'
_cell_volume   650.78200860
_cell_formula_units_Z   1
loop_
 _symmetry_equiv_pos_site_id
 _symmetry_equiv_pos_as_xyz
  1  'x, y, z'
loop_
 _atom_site_type_symbol
 _atom_site_label
 _atom_site_symmetry_multiplicity
 _atom_site_fract_x
 _atom_site_fract_y
 _atom_site_fract_z
 _atom_site_occupancy
  Li  Li0  1  0.571341  0.571341  0.571341  1
  Dy  Dy1  1  0.350894  0.350894  0.350894  1
  Y  Y2  1  0.352613  0.352613  0.943389  1
  Y  Y3  1  0.352613  0.943389  0.352613  1
  Y  Y4  1  0.943389  0.352613  0.352613  1
  Y  Y5  1  0.809496  0.192448  0.192448  1
  Y  Y6  1  0.188396  0.812370  0.812370  1
  Y  Y7  1  0.192448  0.809496  0.192448  1
  Y  Y8  1  0.812370  0.188396  0.812370  1
  Y  Y9  1  0.192448  0.192448  0.809496  1
  Y  Y10  1  0.812370  0.812370  0.188396  1
  Y  Y11  1  0.937386  0.564540  0.564540  1
  Y  Y12  1  0.563131  0.936343  0.936343  1
  Y  Y13  1  0.564540  0.937386  0.564540  1
  Y  Y14  1  0.936343  0.563131  0.936343  1
  Y  Y15  1  0.564540  0.564540  0.937386  1
  Y  Y16  1  0.936343  0.936343  0.563131  1
  Cd  Cd17  1  0.582074  0.582074  0.253791  1
  Cd  Cd18  1  0.582074  0.253791  0.582074  1
  Cd  Cd19  1  0.253791  0.582074  0.582074  1
  Pt  Pt20  1  0.143898  0.143898  0.143898  1
  Pt  Pt21  1  0.143471  0.143471  0.570559  1
  Pt  Pt22  1  0.143471  0.570559  0.143471  1
  Pt  Pt23  1  0.570559  0.143471  0.143471  1
