# generated using pymatgen
data_Hf6Al16PdPtRh5
_symmetry_space_group_name_H-M   'P 1'
_cell_length_a   8.69847807
_cell_length_b   8.69847773
_cell_length_c   8.71474000
_cell_angle_alpha   59.93813638
_cell_angle_beta   59.93813766
_cell_angle_gamma   60.09577021
_symmetry_Int_Tables_number   1
_chemical_formula_structural   Hf6Al16PdPtRh5
_chemical_formula_sum   'Hf6 Al16 Pd1 Pt1 Rh5'
_cell_volume   466.15677486
_cell_formula_units_Z   1
loop_
 _symmetry_equiv_pos_site_id
 _symmetry_equiv_pos_as_xyz
  1  'x, y, z'
loop_
 _atom_site_type_symbol
 _atom_site_label
 _atom_site_symmetry_multiplicity
 _atom_site_fract_x
 _atom_site_fract_y
 _atom_site_fract_z
 _atom_site_occupancy
  Hf  Hf0  1  0.688576  0.311423  0.310087  1
  Hf  Hf1  1  0.311423  0.688576  0.689912  1
  Hf  Hf2  1  0.311423  0.688576  0.310087  1
  Hf  Hf3  1  0.327437  0.327437  0.672562  1
  Hf  Hf4  1  0.688576  0.311423  0.689912  1
  Hf  Hf5  1  0.672562  0.672562  0.327437  1
  Al  Al6  1  0.335888  0.335888  0.339309  1
  Al  Al7  1  0.335888  0.335888  0.988914  1
  Al  Al8  1  0.989243  0.338284  0.336236  1
  Al  Al9  1  0.338284  0.989243  0.336236  1
  Al  Al10  1  0.664112  0.664112  0.660691  1
  Al  Al11  1  0.664112  0.664112  0.011086  1
  Al  Al12  1  0.661716  0.010757  0.663764  1
  Al  Al13  1  0.010757  0.661716  0.663764  1
  Al  Al14  1  0.122116  0.122116  0.113339  1
  Al  Al15  1  0.122116  0.122116  0.642429  1
  Al  Al16  1  0.641892  0.114139  0.121984  1
  Al  Al17  1  0.114139  0.641892  0.121984  1
  Al  Al18  1  0.877883  0.877883  0.886660  1
  Al  Al19  1  0.877883  0.877883  0.357574  1
  Al  Al20  1  0.885860  0.358111  0.878015  1
  Al  Al21  1  0.358111  0.885860  0.878015  1
  Pd  Pd22  1  0.000000  0.000000  0.500000  1
  Pt  Pt23  1  0.500000  0.500000  0.000000  1
  Rh  Rh24  1  0.000000  0.000000  0.000000  1
  Rh  Rh25  1  0.500000  0.000000  0.000000  1
  Rh  Rh26  1  0.000000  0.500000  0.500000  1
  Rh  Rh27  1  0.000000  0.500000  0.000000  1
  Rh  Rh28  1  0.500000  0.000000  0.500000  1
