# generated using pymatgen
data_Tb3(LuSb4)5
_symmetry_space_group_name_H-M   'P 1'
_cell_length_a   4.25958400
_cell_length_b   13.08207318
_cell_length_c   14.50299428
_cell_angle_alpha   77.82114777
_cell_angle_beta   90.00000000
_cell_angle_gamma   90.00000000
_symmetry_Int_Tables_number   1
_chemical_formula_structural   Tb3(LuSb4)5
_chemical_formula_sum   'Tb3 Lu5 Sb20'
_cell_volume   789.97884344
_cell_formula_units_Z   1
loop_
 _symmetry_equiv_pos_site_id
 _symmetry_equiv_pos_as_xyz
  1  'x, y, z'
loop_
 _atom_site_type_symbol
 _atom_site_label
 _atom_site_symmetry_multiplicity
 _atom_site_fract_x
 _atom_site_fract_y
 _atom_site_fract_z
 _atom_site_occupancy
  Tb  Tb0  1  0.750000  0.331315  0.424284  1
  Tb  Tb1  1  0.250000  0.951356  0.357592  1
  Tb  Tb2  1  0.750000  0.047422  0.641860  1
  Lu  Lu3  1  0.250000  0.399408  0.773747  1
  Lu  Lu4  1  0.750000  0.602310  0.227327  1
  Lu  Lu5  1  0.250000  0.661657  0.856004  1
  Lu  Lu6  1  0.750000  0.338549  0.143327  1
  Lu  Lu7  1  0.250000  0.669047  0.577015  1
  Sb  Sb8  1  0.250000  0.146221  0.782279  1
  Sb  Sb9  1  0.750000  0.853331  0.217238  1
  Sb  Sb10  1  0.250000  0.141835  0.482142  1
  Sb  Sb11  1  0.750000  0.853208  0.517690  1
  Sb  Sb12  1  0.250000  0.156443  0.169491  1
  Sb  Sb13  1  0.750000  0.843496  0.829134  1
  Sb  Sb14  1  0.250000  0.421059  0.977137  1
  Sb  Sb15  1  0.750000  0.579398  0.023175  1
  Sb  Sb16  1  0.750000  0.030881  0.906026  1
  Sb  Sb17  1  0.250000  0.968714  0.093540  1
  Sb  Sb18  1  0.750000  0.139643  0.320167  1
  Sb  Sb19  1  0.250000  0.858869  0.678119  1
  Sb  Sb20  1  0.750000  0.281010  0.938790  1
  Sb  Sb21  1  0.250000  0.719165  0.061466  1
  Sb  Sb22  1  0.750000  0.291845  0.656794  1
  Sb  Sb23  1  0.250000  0.709210  0.345622  1
  Sb  Sb24  1  0.750000  0.578639  0.735047  1
  Sb  Sb25  1  0.250000  0.423812  0.262743  1
  Sb  Sb26  1  0.750000  0.574794  0.446138  1
  Sb  Sb27  1  0.250000  0.427363  0.556107  1
