# generated using pymatgen
data_ErPa(SiRu)2
_symmetry_space_group_name_H-M   'P 1'
_cell_length_a   4.29953600
_cell_length_b   7.08012060
_cell_length_c   6.99794964
_cell_angle_alpha   89.61801744
_cell_angle_beta   90.00000000
_cell_angle_gamma   90.00000000
_symmetry_Int_Tables_number   1
_chemical_formula_structural   ErPa(SiRu)2
_chemical_formula_sum   'Er2 Pa2 Si4 Ru4'
_cell_volume   213.02148401
_cell_formula_units_Z   2
loop_
 _symmetry_equiv_pos_site_id
 _symmetry_equiv_pos_as_xyz
  1  'x, y, z'
loop_
 _atom_site_type_symbol
 _atom_site_label
 _atom_site_symmetry_multiplicity
 _atom_site_fract_x
 _atom_site_fract_y
 _atom_site_fract_z
 _atom_site_occupancy
  Er  Er0  1  0.250000  0.485955  0.683227  1
  Er  Er1  1  0.750000  0.514045  0.316773  1
  Pa  Pa2  1  0.250000  0.984785  0.826495  1
  Pa  Pa3  1  0.750000  0.015215  0.173505  1
  Si  Si4  1  0.250000  0.307270  0.111557  1
  Si  Si5  1  0.750000  0.692730  0.888443  1
  Si  Si6  1  0.250000  0.793370  0.391271  1
  Si  Si7  1  0.750000  0.206630  0.608729  1
  Ru  Ru8  1  0.750000  0.860338  0.569129  1
  Ru  Ru9  1  0.250000  0.139662  0.430871  1
  Ru  Ru10  1  0.750000  0.345094  0.938238  1
  Ru  Ru11  1  0.250000  0.654906  0.061762  1
