# generated using pymatgen
data_Tb4Y4CdHgIr2
_symmetry_space_group_name_H-M   'P 1'
_cell_length_a   9.65849834
_cell_length_b   9.65849798
_cell_length_c   9.66821600
_cell_angle_alpha   59.96671081
_cell_angle_beta   59.96671207
_cell_angle_gamma   60.10487804
_symmetry_Int_Tables_number   1
_chemical_formula_structural   Tb4Y4CdHgIr2
_chemical_formula_sum   'Tb8 Y8 Cd2 Hg2 Ir4'
_cell_volume   637.93223407
_cell_formula_units_Z   2
loop_
 _symmetry_equiv_pos_site_id
 _symmetry_equiv_pos_as_xyz
  1  'x, y, z'
loop_
 _atom_site_type_symbol
 _atom_site_label
 _atom_site_symmetry_multiplicity
 _atom_site_fract_x
 _atom_site_fract_y
 _atom_site_fract_z
 _atom_site_occupancy
  Tb  Tb0  1  0.349259  0.349259  0.348493  1
  Tb  Tb1  1  0.349259  0.349259  0.952990  1
  Tb  Tb2  1  0.351929  0.949473  0.349299  1
  Tb  Tb3  1  0.949473  0.351929  0.349299  1
  Tb  Tb4  1  0.809281  0.188858  0.191368  1
  Tb  Tb5  1  0.188858  0.809281  0.810493  1
  Tb  Tb6  1  0.188858  0.809281  0.191368  1
  Tb  Tb7  1  0.809281  0.188858  0.810493  1
  Y  Y8  1  0.189756  0.189756  0.810244  1
  Y  Y9  1  0.808492  0.808492  0.191508  1
  Y  Y10  1  0.937755  0.561361  0.562501  1
  Y  Y11  1  0.561361  0.937755  0.938383  1
  Y  Y12  1  0.561361  0.937755  0.562501  1
  Y  Y13  1  0.937755  0.561361  0.938383  1
  Y  Y14  1  0.561195  0.561195  0.938805  1
  Y  Y15  1  0.938365  0.938365  0.561635  1
  Cd  Cd16  1  0.579782  0.258137  0.581041  1
  Cd  Cd17  1  0.258137  0.579782  0.581041  1
  Hg  Hg18  1  0.584076  0.584076  0.585896  1
  Hg  Hg19  1  0.584076  0.584076  0.245953  1
  Ir  Ir20  1  0.141591  0.141591  0.142207  1
  Ir  Ir21  1  0.141591  0.141591  0.574611  1
  Ir  Ir22  1  0.143424  0.575087  0.140744  1
  Ir  Ir23  1  0.575087  0.143424  0.140744  1
