# generated using pymatgen
data_Cs2CdSnSe4
_symmetry_space_group_name_H-M   'P 1'
_cell_length_a   14.58075793
_cell_length_b   12.90046704
_cell_length_c   8.31758519
_cell_angle_alpha   83.84590705
_cell_angle_beta   61.60152109
_cell_angle_gamma   34.55256237
_symmetry_Int_Tables_number   1
_chemical_formula_structural   Cs2CdSnSe4
_chemical_formula_sum   'Cs4 Cd2 Sn2 Se8'
_cell_volume   641.20473330
_cell_formula_units_Z   2
loop_
 _symmetry_equiv_pos_site_id
 _symmetry_equiv_pos_as_xyz
  1  'x, y, z'
loop_
 _atom_site_type_symbol
 _atom_site_label
 _atom_site_symmetry_multiplicity
 _atom_site_fract_x
 _atom_site_fract_y
 _atom_site_fract_z
 _atom_site_occupancy
  Cs  Cs0  1  0.816047  0.816047  0.183953  1
  Cs  Cs1  1  0.183953  0.183953  0.816047  1
  Cs  Cs2  1  0.433953  0.433953  0.066047  1
  Cs  Cs3  1  0.066047  0.066047  0.433953  1
  Cd  Cd4  1  0.750000  0.750000  0.750000  1
  Cd  Cd5  1  0.500000  0.500000  0.500000  1
  Sn  Sn6  1  0.250000  0.250000  0.250000  1
  Sn  Sn7  1  0.000000  0.000000  0.000000  1
  Se  Se8  1  0.384472  0.730265  0.806014  1
  Se  Se9  1  0.079249  0.806014  0.730265  1
  Se  Se10  1  0.806014  0.079249  0.384472  1
  Se  Se11  1  0.730265  0.384472  0.079249  1
  Se  Se12  1  0.865528  0.519735  0.443986  1
  Se  Se13  1  0.170751  0.443986  0.519735  1
  Se  Se14  1  0.443986  0.170751  0.865528  1
  Se  Se15  1  0.519735  0.865528  0.170751  1
