# generated using pymatgen
data_Ca3PaCuAs4Pd3
_symmetry_space_group_name_H-M   'P 1'
_cell_length_a   4.31475000
_cell_length_b   7.69345125
_cell_length_c   7.49309705
_cell_angle_alpha   89.62463264
_cell_angle_beta   90.00000000
_cell_angle_gamma   90.00000000
_symmetry_Int_Tables_number   1
_chemical_formula_structural   Ca3PaCuAs4Pd3
_chemical_formula_sum   'Ca3 Pa1 Cu1 As4 Pd3'
_cell_volume   248.73040753
_cell_formula_units_Z   1
loop_
 _symmetry_equiv_pos_site_id
 _symmetry_equiv_pos_as_xyz
  1  'x, y, z'
loop_
 _atom_site_type_symbol
 _atom_site_label
 _atom_site_symmetry_multiplicity
 _atom_site_fract_x
 _atom_site_fract_y
 _atom_site_fract_z
 _atom_site_occupancy
  Ca  Ca0  1  0.250000  0.508720  0.259569  1
  Ca  Ca1  1  0.250000  0.996859  0.244489  1
  Ca  Ca2  1  0.750000  0.499858  0.739327  1
  Pa  Pa3  1  0.750000  0.994339  0.752144  1
  Cu  Cu4  1  0.750000  0.230909  0.083262  1
  As  As5  1  0.250000  0.245629  0.925413  1
  As  As6  1  0.250000  0.791577  0.584756  1
  As  As7  1  0.750000  0.772701  0.078941  1
  As  As8  1  0.750000  0.258085  0.408828  1
  Pd  Pd9  1  0.250000  0.732009  0.911785  1
  Pd  Pd10  1  0.250000  0.219512  0.591558  1
  Pd  Pd11  1  0.750000  0.749803  0.419928  1
