# generated using pymatgen
data_TmLu3Tc5Os3
_symmetry_space_group_name_H-M   'P 1'
_cell_length_a   5.28761917
_cell_length_b   5.28761963
_cell_length_c   8.94209200
_cell_angle_alpha   90.00045251
_cell_angle_beta   89.99954815
_cell_angle_gamma   120.83874018
_symmetry_Int_Tables_number   1
_chemical_formula_structural   TmLu3Tc5Os3
_chemical_formula_sum   'Tm1 Lu3 Tc5 Os3'
_cell_volume   214.66300959
_cell_formula_units_Z   1
loop_
 _symmetry_equiv_pos_site_id
 _symmetry_equiv_pos_as_xyz
  1  'x, y, z'
loop_
 _atom_site_type_symbol
 _atom_site_label
 _atom_site_symmetry_multiplicity
 _atom_site_fract_x
 _atom_site_fract_y
 _atom_site_fract_z
 _atom_site_occupancy
  Tm  Tm0  1  0.334075  0.665925  0.435446  1
  Lu  Lu1  1  0.666076  0.333924  0.562448  1
  Lu  Lu2  1  0.666079  0.333921  0.937607  1
  Lu  Lu3  1  0.334086  0.665914  0.064556  1
  Tc  Tc4  1  0.171078  0.342544  0.750086  1
  Tc  Tc5  1  0.171521  0.828479  0.750079  1
  Tc  Tc6  1  0.341516  0.171108  0.249885  1
  Tc  Tc7  1  0.828892  0.658484  0.249885  1
  Tc  Tc8  1  0.657456  0.828922  0.750086  1
  Os  Os9  1  0.000685  0.999315  0.000505  1
  Os  Os10  1  0.827840  0.172160  0.249871  1
  Os  Os11  1  0.000696  0.999304  0.499547  1
