# generated using pymatgen
data_SmDy2Co(P3Rh4)2
_symmetry_space_group_name_H-M   'P 1'
_cell_length_a   3.87948500
_cell_length_b   11.14293600
_cell_length_c   12.82216000
_cell_angle_alpha   90.00000000
_cell_angle_beta   90.00000000
_cell_angle_gamma   90.00000000
_symmetry_Int_Tables_number   1
_chemical_formula_structural   SmDy2Co(P3Rh4)2
_chemical_formula_sum   'Sm2 Dy4 Co2 P12 Rh16'
_cell_volume   554.28727065
_cell_formula_units_Z   2
loop_
 _symmetry_equiv_pos_site_id
 _symmetry_equiv_pos_as_xyz
  1  'x, y, z'
loop_
 _atom_site_type_symbol
 _atom_site_label
 _atom_site_symmetry_multiplicity
 _atom_site_fract_x
 _atom_site_fract_y
 _atom_site_fract_z
 _atom_site_occupancy
  Sm  Sm0  1  0.000000  0.500000  0.522359  1
  Sm  Sm1  1  0.500000  0.000000  0.477641  1
  Dy  Dy2  1  0.500000  0.814798  0.201685  1
  Dy  Dy3  1  0.500000  0.185202  0.201685  1
  Dy  Dy4  1  0.000000  0.685202  0.798315  1
  Dy  Dy5  1  0.000000  0.314798  0.798315  1
  Co  Co6  1  0.000000  0.500000  0.979151  1
  Co  Co7  1  0.500000  0.000000  0.020849  1
  P  P8  1  0.500000  0.500000  0.882108  1
  P  P9  1  0.000000  0.000000  0.117892  1
  P  P10  1  0.500000  0.500000  0.349817  1
  P  P11  1  0.000000  0.000000  0.650183  1
  P  P12  1  0.500000  0.314762  0.620056  1
  P  P13  1  0.500000  0.685238  0.620056  1
  P  P14  1  0.000000  0.185238  0.379944  1
  P  P15  1  0.000000  0.814762  0.379944  1
  P  P16  1  0.500000  0.853338  0.896344  1
  P  P17  1  0.500000  0.146662  0.896344  1
  P  P18  1  0.000000  0.646662  0.103656  1
  P  P19  1  0.000000  0.353338  0.103656  1
  Rh  Rh20  1  0.500000  0.500000  0.167917  1
  Rh  Rh21  1  0.000000  0.000000  0.832083  1
  Rh  Rh22  1  0.500000  0.500000  0.704989  1
  Rh  Rh23  1  0.000000  0.000000  0.295011  1
  Rh  Rh24  1  0.500000  0.336612  0.993988  1
  Rh  Rh25  1  0.500000  0.663388  0.993988  1
  Rh  Rh26  1  0.000000  0.163388  0.006012  1
  Rh  Rh27  1  0.000000  0.836612  0.006012  1
  Rh  Rh28  1  0.500000  0.293192  0.429498  1
  Rh  Rh29  1  0.500000  0.706808  0.429498  1
  Rh  Rh30  1  0.000000  0.206808  0.570502  1
  Rh  Rh31  1  0.000000  0.793192  0.570502  1
  Rh  Rh32  1  0.500000  0.873437  0.712895  1
  Rh  Rh33  1  0.500000  0.126563  0.712895  1
  Rh  Rh34  1  0.000000  0.626563  0.287105  1
  Rh  Rh35  1  0.000000  0.373437  0.287105  1
