# generated using pymatgen
data_Sc2Pa2Ga5Tc3
_symmetry_space_group_name_H-M   'P 1'
_cell_length_a   5.32586977
_cell_length_b   5.23875532
_cell_length_c   8.81943322
_cell_angle_alpha   90.00000282
_cell_angle_beta   91.84398093
_cell_angle_gamma   119.46038391
_symmetry_Int_Tables_number   1
_chemical_formula_structural   Sc2Pa2Ga5Tc3
_chemical_formula_sum   'Sc2 Pa2 Ga5 Tc3'
_cell_volume   214.10612176
_cell_formula_units_Z   1
loop_
 _symmetry_equiv_pos_site_id
 _symmetry_equiv_pos_as_xyz
  1  'x, y, z'
loop_
 _atom_site_type_symbol
 _atom_site_label
 _atom_site_symmetry_multiplicity
 _atom_site_fract_x
 _atom_site_fract_y
 _atom_site_fract_z
 _atom_site_occupancy
  Sc  Sc0  1  0.656829  0.328414  0.944179  1
  Sc  Sc1  1  0.325762  0.662882  0.057137  1
  Pa  Pa2  1  0.361037  0.680519  0.465295  1
  Pa  Pa3  1  0.659719  0.329859  0.549627  1
  Ga  Ga4  1  0.836067  0.169310  0.241827  1
  Ga  Ga5  1  0.836067  0.666758  0.241827  1
  Ga  Ga6  1  0.336171  0.168086  0.236597  1
  Ga  Ga7  1  0.166295  0.830631  0.761343  1
  Ga  Ga8  1  0.166295  0.335664  0.761343  1
  Tc  Tc9  1  0.021112  0.010556  0.494869  1
  Tc  Tc10  1  0.974630  0.987315  0.995751  1
  Tc  Tc11  1  0.660016  0.830007  0.750206  1
