# generated using pymatgen
data_Co2Ni6IrS8
_symmetry_space_group_name_H-M   'P 1'
_cell_length_a   7.07454111
_cell_length_b   7.07454108
_cell_length_c   7.07454149
_cell_angle_alpha   90.03365892
_cell_angle_beta   59.93382811
_cell_angle_gamma   119.97273163
_symmetry_Int_Tables_number   1
_chemical_formula_structural   Co2Ni6IrS8
_chemical_formula_sum   'Co2 Ni6 Ir1 S8'
_cell_volume   250.29470327
_cell_formula_units_Z   1
loop_
 _symmetry_equiv_pos_site_id
 _symmetry_equiv_pos_as_xyz
  1  'x, y, z'
loop_
 _atom_site_type_symbol
 _atom_site_label
 _atom_site_symmetry_multiplicity
 _atom_site_fract_x
 _atom_site_fract_y
 _atom_site_fract_z
 _atom_site_occupancy
  Co  Co0  1  0.249607  0.125442  0.624950  1
  Co  Co1  1  0.750393  0.125442  0.124166  1
  Ni  Ni2  1  0.744443  0.617031  0.127412  1
  Ni  Ni3  1  0.255557  0.128146  0.127412  1
  Ni  Ni4  1  0.746896  0.873741  0.379362  1
  Ni  Ni5  1  0.253104  0.873741  0.873155  1
  Ni  Ni6  1  0.252118  0.378619  0.873501  1
  Ni  Ni7  1  0.747882  0.874381  0.873501  1
  Ir  Ir8  1  0.000000  0.501468  0.498532  1
  S  S9  1  0.516226  0.257953  0.737241  1
  S  S10  1  0.004806  0.746532  0.737241  1
  S  S11  1  0.000000  0.258265  0.741735  1
  S  S12  1  0.483774  0.746532  0.258274  1
  S  S13  1  0.995194  0.257953  0.258274  1
  S  S14  1  0.000000  0.741601  0.258399  1
  S  S15  1  0.500000  0.243642  0.256358  1
  S  S16  1  0.500000  0.749511  0.750489  1
