# generated using pymatgen
data_Ac12Sn3HgI12
_symmetry_space_group_name_H-M   'P 1'
_cell_length_a   11.70949188
_cell_length_b   11.70949199
_cell_length_c   11.70949200
_cell_angle_alpha   109.59264813
_cell_angle_beta   109.59264833
_cell_angle_gamma   109.59265684
_symmetry_Int_Tables_number   1
_chemical_formula_structural   Ac12Sn3HgI12
_chemical_formula_sum   'Ac12 Sn3 Hg1 I12'
_cell_volume   1230.33753317
_cell_formula_units_Z   1
loop_
 _symmetry_equiv_pos_site_id
 _symmetry_equiv_pos_as_xyz
  1  'x, y, z'
loop_
 _atom_site_type_symbol
 _atom_site_label
 _atom_site_symmetry_multiplicity
 _atom_site_fract_x
 _atom_site_fract_y
 _atom_site_fract_z
 _atom_site_occupancy
  Ac  Ac0  1  0.476898  0.485905  0.240160  1
  Ac  Ac1  1  0.750000  0.239901  0.260099  1
  Ac  Ac2  1  0.750000  0.009352  0.490648  1
  Ac  Ac3  1  0.240160  0.476898  0.485905  1
  Ac  Ac4  1  0.260099  0.750000  0.239901  1
  Ac  Ac5  1  0.023102  0.259840  0.014095  1
  Ac  Ac6  1  0.014095  0.023102  0.259840  1
  Ac  Ac7  1  0.490648  0.750000  0.009352  1
  Ac  Ac8  1  0.485905  0.240160  0.476898  1
  Ac  Ac9  1  0.009352  0.490648  0.750000  1
  Ac  Ac10  1  0.259840  0.014095  0.023102  1
  Ac  Ac11  1  0.239901  0.260099  0.750000  1
  Sn  Sn12  1  0.499800  0.000200  0.250000  1
  Sn  Sn13  1  0.000200  0.250000  0.499800  1
  Sn  Sn14  1  0.250000  0.499800  0.000200  1
  Hg  Hg15  1  0.250000  0.250000  0.250000  1
  I  I16  1  0.250000  0.755113  0.744887  1
  I  I17  1  0.511795  0.506515  0.756911  1
  I  I18  1  0.988205  0.743089  0.993485  1
  I  I19  1  0.744887  0.250000  0.755113  1
  I  I20  1  0.993485  0.988205  0.743089  1
  I  I21  1  0.250000  0.993249  0.506751  1
  I  I22  1  0.756911  0.511795  0.506515  1
  I  I23  1  0.506751  0.250000  0.993249  1
  I  I24  1  0.755113  0.744887  0.250000  1
  I  I25  1  0.743089  0.993485  0.988205  1
  I  I26  1  0.993249  0.506751  0.250000  1
  I  I27  1  0.506515  0.756911  0.511795  1
