# generated using pymatgen
data_Tb5Tm11(Ga3Ir)2
_symmetry_space_group_name_H-M   'P 1'
_cell_length_a   9.96481000
_cell_length_b   9.96480948
_cell_length_c   7.02882300
_cell_angle_alpha   90.00000000
_cell_angle_beta   90.00000000
_cell_angle_gamma   120.00000174
_symmetry_Int_Tables_number   1
_chemical_formula_structural   Tb5Tm11(Ga3Ir)2
_chemical_formula_sum   'Tb5 Tm11 Ga6 Ir2'
_cell_volume   604.43729468
_cell_formula_units_Z   1
loop_
 _symmetry_equiv_pos_site_id
 _symmetry_equiv_pos_as_xyz
  1  'x, y, z'
loop_
 _atom_site_type_symbol
 _atom_site_label
 _atom_site_symmetry_multiplicity
 _atom_site_fract_x
 _atom_site_fract_y
 _atom_site_fract_z
 _atom_site_occupancy
  Tb  Tb0  1  0.466433  0.932867  0.293983  1
  Tb  Tb1  1  0.067133  0.533567  0.293983  1
  Tb  Tb2  1  0.466433  0.533567  0.293983  1
  Tb  Tb3  1  0.000000  0.000000  0.766149  1
  Tb  Tb4  1  0.000000  0.000000  0.265845  1
  Tm  Tm5  1  0.828510  0.657020  0.490249  1
  Tm  Tm6  1  0.342980  0.171490  0.490249  1
  Tm  Tm7  1  0.828510  0.171490  0.490249  1
  Tm  Tm8  1  0.171653  0.343306  0.985551  1
  Tm  Tm9  1  0.656694  0.828347  0.985551  1
  Tm  Tm10  1  0.171653  0.828347  0.985551  1
  Tm  Tm11  1  0.666667  0.333333  0.163845  1
  Tm  Tm12  1  0.333333  0.666667  0.664377  1
  Tm  Tm13  1  0.535622  0.071244  0.795017  1
  Tm  Tm14  1  0.928756  0.464378  0.795017  1
  Tm  Tm15  1  0.535622  0.464378  0.795017  1
  Ga  Ga16  1  0.835780  0.671563  0.043654  1
  Ga  Ga17  1  0.328437  0.164220  0.043654  1
  Ga  Ga18  1  0.835780  0.164220  0.043654  1
  Ga  Ga19  1  0.163613  0.327224  0.545332  1
  Ga  Ga20  1  0.672776  0.836387  0.545332  1
  Ga  Ga21  1  0.163613  0.836387  0.545332  1
  Ir  Ir22  1  0.666667  0.333333  0.553804  1
  Ir  Ir23  1  0.333333  0.666667  0.050699  1
