# generated using pymatgen
data_Tb3YZrIr3
_symmetry_space_group_name_H-M   'P 1'
_cell_length_a   10.90369200
_cell_length_b   10.88627600
_cell_length_c   6.28483800
_cell_angle_alpha   90.00000000
_cell_angle_beta   90.00000000
_cell_angle_gamma   90.00000000
_symmetry_Int_Tables_number   1
_chemical_formula_structural   Tb3YZrIr3
_chemical_formula_sum   'Tb12 Y4 Zr4 Ir12'
_cell_volume   746.01404484
_cell_formula_units_Z   4
loop_
 _symmetry_equiv_pos_site_id
 _symmetry_equiv_pos_as_xyz
  1  'x, y, z'
loop_
 _atom_site_type_symbol
 _atom_site_label
 _atom_site_symmetry_multiplicity
 _atom_site_fract_x
 _atom_site_fract_y
 _atom_site_fract_z
 _atom_site_occupancy
  Tb  Tb0  1  0.289945  0.086731  0.373910  1
  Tb  Tb1  1  0.289945  0.913269  0.873910  1
  Tb  Tb2  1  0.710055  0.086731  0.873910  1
  Tb  Tb3  1  0.710055  0.913269  0.373910  1
  Tb  Tb4  1  0.586750  0.789937  0.874079  1
  Tb  Tb5  1  0.586750  0.210063  0.374079  1
  Tb  Tb6  1  0.413250  0.789937  0.374079  1
  Tb  Tb7  1  0.413250  0.210063  0.874079  1
  Tb  Tb8  1  0.209810  0.413456  0.625895  1
  Tb  Tb9  1  0.209810  0.586544  0.125895  1
  Tb  Tb10  1  0.790190  0.413456  0.125895  1
  Tb  Tb11  1  0.790190  0.586544  0.625895  1
  Y  Y12  1  0.913477  0.710495  0.126045  1
  Y  Y13  1  0.913477  0.289505  0.626045  1
  Y  Y14  1  0.086523  0.710495  0.626045  1
  Y  Y15  1  0.086523  0.289505  0.126045  1
  Zr  Zr16  1  0.000000  0.000000  0.499717  1
  Zr  Zr17  1  0.000000  0.000000  0.999717  1
  Zr  Zr18  1  0.500000  0.500000  0.000859  1
  Zr  Zr19  1  0.500000  0.500000  0.500859  1
  Ir  Ir20  1  0.855728  0.144043  0.249340  1
  Ir  Ir21  1  0.855728  0.855957  0.749340  1
  Ir  Ir22  1  0.144272  0.144043  0.749340  1
  Ir  Ir23  1  0.144272  0.855957  0.249340  1
  Ir  Ir24  1  0.644018  0.355744  0.750382  1
  Ir  Ir25  1  0.644018  0.644256  0.250382  1
  Ir  Ir26  1  0.355982  0.355744  0.250382  1
  Ir  Ir27  1  0.355982  0.644256  0.750382  1
  Ir  Ir28  1  0.500000  0.000000  0.119549  1
  Ir  Ir29  1  0.500000  0.000000  0.619549  1
  Ir  Ir30  1  0.000000  0.500000  0.880573  1
  Ir  Ir31  1  0.000000  0.500000  0.380573  1
