# generated using pymatgen
data_Y3(Fe2Os)2
_symmetry_space_group_name_H-M   'P 1'
_cell_length_a   5.27942653
_cell_length_b   5.23398061
_cell_length_c   12.82808394
_cell_angle_alpha   89.57933706
_cell_angle_beta   90.51166579
_cell_angle_gamma   120.05910986
_symmetry_Int_Tables_number   1
_chemical_formula_structural   Y3(Fe2Os)2
_chemical_formula_sum   'Y6 Fe8 Os4'
_cell_volume   306.78392092
_cell_formula_units_Z   2
loop_
 _symmetry_equiv_pos_site_id
 _symmetry_equiv_pos_as_xyz
  1  'x, y, z'
loop_
 _atom_site_type_symbol
 _atom_site_label
 _atom_site_symmetry_multiplicity
 _atom_site_fract_x
 _atom_site_fract_y
 _atom_site_fract_z
 _atom_site_occupancy
  Y  Y0  1  0.332927  0.666555  0.914243  1
  Y  Y1  1  0.002569  0.001172  0.251206  1
  Y  Y2  1  0.667449  0.332860  0.583879  1
  Y  Y3  1  0.332551  0.667140  0.666121  1
  Y  Y4  1  0.997431  0.998828  0.998794  1
  Y  Y5  1  0.667073  0.333445  0.335757  1
  Fe  Fe6  1  0.167028  0.332988  0.459589  1
  Fe  Fe7  1  0.832972  0.667012  0.790411  1
  Fe  Fe8  1  0.334011  0.665091  0.296661  1
  Fe  Fe9  1  0.000000  0.000000  0.625000  1
  Fe  Fe10  1  0.665989  0.334909  0.953339  1
  Fe  Fe11  1  0.000000  0.500000  0.125000  1
  Fe  Fe12  1  0.668122  0.833434  0.460139  1
  Fe  Fe13  1  0.331878  0.166566  0.789861  1
  Os  Os14  1  0.500000  0.500000  0.125000  1
  Os  Os15  1  0.166671  0.833628  0.459861  1
  Os  Os16  1  0.833329  0.166372  0.790139  1
  Os  Os17  1  0.500000  0.000000  0.125000  1
