# generated using pymatgen
data_Er8Sc12Sn13Bi3
_symmetry_space_group_name_H-M   'P 1'
_cell_length_a   7.80160531
_cell_length_b   7.88012824
_cell_length_c   14.86418611
_cell_angle_alpha   89.89671756
_cell_angle_beta   88.91377941
_cell_angle_gamma   90.01088531
_symmetry_Int_Tables_number   1
_chemical_formula_structural   Er8Sc12Sn13Bi3
_chemical_formula_sum   'Er8 Sc12 Sn13 Bi3'
_cell_volume   913.64951594
_cell_formula_units_Z   1
loop_
 _symmetry_equiv_pos_site_id
 _symmetry_equiv_pos_as_xyz
  1  'x, y, z'
loop_
 _atom_site_type_symbol
 _atom_site_label
 _atom_site_symmetry_multiplicity
 _atom_site_fract_x
 _atom_site_fract_y
 _atom_site_fract_z
 _atom_site_occupancy
  Er  Er0  1  0.983044  0.176276  0.092648  1
  Er  Er1  1  0.017158  0.823828  0.906908  1
  Er  Er2  1  0.517853  0.676409  0.906451  1
  Er  Er3  1  0.021045  0.827063  0.601594  1
  Er  Er4  1  0.482134  0.324420  0.093140  1
  Er  Er5  1  0.966834  0.174550  0.398434  1
  Er  Er6  1  0.474516  0.317997  0.398091  1
  Er  Er7  1  0.530112  0.683793  0.603508  1
  Sc  Sc8  1  0.186869  0.495616  0.753864  1
  Sc  Sc9  1  0.812929  0.504216  0.245663  1
  Sc  Sc10  1  0.313379  0.994686  0.245653  1
  Sc  Sc11  1  0.686941  0.005192  0.750766  1
  Sc  Sc12  1  0.367463  0.156203  0.628955  1
  Sc  Sc13  1  0.639100  0.846740  0.372682  1
  Sc  Sc14  1  0.137034  0.655435  0.371092  1
  Sc  Sc15  1  0.644319  0.837157  0.126005  1
  Sc  Sc16  1  0.860954  0.338829  0.627574  1
  Sc  Sc17  1  0.355498  0.162265  0.874093  1
  Sc  Sc18  1  0.856135  0.338218  0.874046  1
  Sc  Sc19  1  0.145329  0.660620  0.126394  1
  Sn  Sn20  1  0.053098  0.126221  0.749913  1
  Sn  Sn21  1  0.948015  0.873895  0.249985  1
  Sn  Sn22  1  0.448380  0.625100  0.251669  1
  Sn  Sn23  1  0.552804  0.375739  0.750188  1
  Sn  Sn24  1  0.326277  0.850047  0.754009  1
  Sn  Sn25  1  0.671408  0.150021  0.245638  1
  Sn  Sn26  1  0.171069  0.347859  0.247427  1
  Sn  Sn27  1  0.828920  0.649560  0.753326  1
  Sn  Sn28  1  0.808020  0.542334  0.041639  1
  Sn  Sn29  1  0.706026  0.042286  0.542997  1
  Sn  Sn30  1  0.192581  0.457955  0.958301  1
  Sn  Sn31  1  0.692294  0.042391  0.957766  1
  Sn  Sn32  1  0.308188  0.957115  0.041775  1
  Bi  Bi33  1  0.210513  0.460246  0.543618  1
  Bi  Bi34  1  0.791020  0.541689  0.456787  1
  Bi  Bi35  1  0.292740  0.958025  0.457404  1
