# generated using pymatgen
data_LaTb6Co2Sn23Rh4
_symmetry_space_group_name_H-M   'P 1'
_cell_length_a   9.84941301
_cell_length_b   9.84848692
_cell_length_c   10.08537565
_cell_angle_alpha   89.99999667
_cell_angle_beta   89.99706391
_cell_angle_gamma   119.99688996
_symmetry_Int_Tables_number   1
_chemical_formula_structural   LaTb6Co2Sn23Rh4
_chemical_formula_sum   'La1 Tb6 Co2 Sn23 Rh4'
_cell_volume   847.25898006
_cell_formula_units_Z   1
loop_
 _symmetry_equiv_pos_site_id
 _symmetry_equiv_pos_as_xyz
  1  'x, y, z'
loop_
 _atom_site_type_symbol
 _atom_site_label
 _atom_site_symmetry_multiplicity
 _atom_site_fract_x
 _atom_site_fract_y
 _atom_site_fract_z
 _atom_site_occupancy
  La  La0  1  0.000000  0.000000  0.000000  1
  Tb  Tb1  1  0.479140  0.521340  0.306975  1
  Tb  Tb2  1  0.520860  0.478660  0.693025  1
  Tb  Tb3  1  0.479140  0.957800  0.306975  1
  Tb  Tb4  1  0.520860  0.042200  0.693025  1
  Tb  Tb5  1  0.042793  0.521397  0.306825  1
  Tb  Tb6  1  0.957207  0.478603  0.693175  1
  Co  Co7  1  0.337578  0.168789  0.199057  1
  Co  Co8  1  0.662422  0.831211  0.800943  1
  Sn  Sn9  1  0.352419  0.004660  0.004681  1
  Sn  Sn10  1  0.647581  0.995340  0.995319  1
  Sn  Sn11  1  0.000000  0.352655  0.000000  1
  Sn  Sn12  1  0.000000  0.647345  0.000000  1
  Sn  Sn13  1  0.647581  0.652240  0.995319  1
  Sn  Sn14  1  0.352419  0.347760  0.004681  1
  Sn  Sn15  1  0.338327  0.669164  0.819306  1
  Sn  Sn16  1  0.661673  0.330836  0.180694  1
  Sn  Sn17  1  0.000000  0.000000  0.500000  1
  Sn  Sn18  1  0.778773  0.221454  0.455777  1
  Sn  Sn19  1  0.221227  0.778546  0.544223  1
  Sn  Sn20  1  0.778773  0.557319  0.455777  1
  Sn  Sn21  1  0.221227  0.442681  0.544223  1
  Sn  Sn22  1  0.438853  0.219426  0.450281  1
  Sn  Sn23  1  0.561147  0.780574  0.549719  1
  Sn  Sn24  1  0.333291  0.666646  0.117596  1
  Sn  Sn25  1  0.666709  0.333354  0.882404  1
  Sn  Sn26  1  0.123556  0.886639  0.278272  1
  Sn  Sn27  1  0.876444  0.113361  0.721728  1
  Sn  Sn28  1  0.123556  0.236918  0.278272  1
  Sn  Sn29  1  0.876444  0.763082  0.721728  1
  Sn  Sn30  1  0.758537  0.879269  0.282954  1
  Sn  Sn31  1  0.241463  0.120731  0.717046  1
  Rh  Rh32  1  0.830780  0.167884  0.198286  1
  Rh  Rh33  1  0.169220  0.832116  0.801714  1
  Rh  Rh34  1  0.830780  0.662896  0.198286  1
  Rh  Rh35  1  0.169220  0.337104  0.801714  1
