# generated using pymatgen
data_YbErSiRh3
_symmetry_space_group_name_H-M   'P 1'
_cell_length_a   4.98590741
_cell_length_b   4.98590768
_cell_length_c   4.98590731
_cell_angle_alpha   68.16141674
_cell_angle_beta   68.16141339
_cell_angle_gamma   68.16142244
_symmetry_Int_Tables_number   1
_chemical_formula_structural   YbErSiRh3
_chemical_formula_sum   'Yb1 Er1 Si1 Rh3'
_cell_volume   102.79420471
_cell_formula_units_Z   1
loop_
 _symmetry_equiv_pos_site_id
 _symmetry_equiv_pos_as_xyz
  1  'x, y, z'
loop_
 _atom_site_type_symbol
 _atom_site_label
 _atom_site_symmetry_multiplicity
 _atom_site_fract_x
 _atom_site_fract_y
 _atom_site_fract_z
 _atom_site_occupancy
  Yb  Yb0  1  0.630341  0.630341  0.630341  1
  Er  Er1  1  0.370732  0.370732  0.370732  1
  Si  Si2  1  0.000586  0.000586  0.000586  1
  Rh  Rh3  1  0.998386  0.998386  0.501569  1
  Rh  Rh4  1  0.501569  0.998386  0.998386  1
  Rh  Rh5  1  0.998386  0.501569  0.998386  1
