# generated using pymatgen
data_Y6Ga7Pd16Se
_symmetry_space_group_name_H-M   'P 1'
_cell_length_a   9.06499010
_cell_length_b   9.06535800
_cell_length_c   9.06504200
_cell_angle_alpha   59.99935323
_cell_angle_beta   59.99769045
_cell_angle_gamma   59.99679356
_symmetry_Int_Tables_number   1
_chemical_formula_structural   Y6Ga7Pd16Se
_chemical_formula_sum   'Y6 Ga7 Pd16 Se1'
_cell_volume   526.72858509
_cell_formula_units_Z   1
loop_
 _symmetry_equiv_pos_site_id
 _symmetry_equiv_pos_as_xyz
  1  'x, y, z'
loop_
 _atom_site_type_symbol
 _atom_site_label
 _atom_site_symmetry_multiplicity
 _atom_site_fract_x
 _atom_site_fract_y
 _atom_site_fract_z
 _atom_site_occupancy
  Y  Y0  1  0.719887  0.280072  0.280061  1
  Y  Y1  1  0.280113  0.719928  0.719939  1
  Y  Y2  1  0.280112  0.719946  0.280004  1
  Y  Y3  1  0.719888  0.280054  0.719996  1
  Y  Y4  1  0.280117  0.280008  0.719949  1
  Y  Y5  1  0.719883  0.719992  0.280051  1
  Ga  Ga6  1  0.000000  0.000000  0.000000  1
  Ga  Ga7  1  0.500000  0.000000  0.000000  1
  Ga  Ga8  1  0.000000  0.500000  0.500000  1
  Ga  Ga9  1  0.000000  0.500000  0.000000  1
  Ga  Ga10  1  0.500000  0.000000  0.500000  1
  Ga  Ga11  1  0.000000  0.000000  0.500000  1
  Ga  Ga12  1  0.500000  0.500000  0.000000  1
  Pd  Pd13  1  0.119056  0.119164  0.119130  1
  Pd  Pd14  1  0.880944  0.880836  0.880870  1
  Pd  Pd15  1  0.119048  0.119161  0.642655  1
  Pd  Pd16  1  0.119061  0.642644  0.119141  1
  Pd  Pd17  1  0.880952  0.880839  0.357345  1
  Pd  Pd18  1  0.880939  0.357356  0.880859  1
  Pd  Pd19  1  0.642686  0.119127  0.119081  1
  Pd  Pd20  1  0.357314  0.880873  0.880919  1
  Pd  Pd21  1  0.333060  0.333005  0.332995  1
  Pd  Pd22  1  0.666940  0.666995  0.667005  1
  Pd  Pd23  1  0.333058  0.333001  0.000935  1
  Pd  Pd24  1  0.333062  0.000914  0.333003  1
  Pd  Pd25  1  0.666942  0.666999  0.999065  1
  Pd  Pd26  1  0.666938  0.999086  0.666997  1
  Pd  Pd27  1  0.001064  0.332980  0.332969  1
  Pd  Pd28  1  0.998936  0.667020  0.667031  1
  Se  Se29  1  0.500000  0.500000  0.500000  1
