# generated using pymatgen
data_La2Fe2TeWO12
_symmetry_space_group_name_H-M   'P 1'
_cell_length_a   5.26317300
_cell_length_b   5.26322811
_cell_length_c   10.43182300
_cell_angle_alpha   89.99917123
_cell_angle_beta   90.00041085
_cell_angle_gamma   120.00034286
_symmetry_Int_Tables_number   1
_chemical_formula_structural   La2Fe2TeWO12
_chemical_formula_sum   'La2 Fe2 Te1 W1 O12'
_cell_volume   250.25869703
_cell_formula_units_Z   1
loop_
 _symmetry_equiv_pos_site_id
 _symmetry_equiv_pos_as_xyz
  1  'x, y, z'
loop_
 _atom_site_type_symbol
 _atom_site_label
 _atom_site_symmetry_multiplicity
 _atom_site_fract_x
 _atom_site_fract_y
 _atom_site_fract_z
 _atom_site_occupancy
  La  La0  1  0.000000  0.000002  0.000598  1
  La  La1  1  0.000000  0.999998  0.499402  1
  Fe  Fe2  1  0.333372  0.666686  0.250000  1
  Fe  Fe3  1  0.666645  0.333323  0.750000  1
  Te  Te4  1  0.333352  0.666676  0.750000  1
  W  W5  1  0.666615  0.333308  0.250000  1
  O  O6  1  0.637901  0.625654  0.144992  1
  O  O7  1  0.374316  0.012205  0.144987  1
  O  O8  1  0.987796  0.362094  0.144983  1
  O  O9  1  0.987796  0.625700  0.355017  1
  O  O10  1  0.374314  0.362109  0.355013  1
  O  O11  1  0.637901  0.012245  0.355008  1
  O  O12  1  0.012915  0.376169  0.644349  1
  O  O13  1  0.363253  0.987054  0.644360  1
  O  O14  1  0.623828  0.636740  0.644352  1
  O  O15  1  0.623828  0.987089  0.855648  1
  O  O16  1  0.363255  0.376202  0.855640  1
  O  O17  1  0.012917  0.636748  0.855651  1
