# generated using pymatgen
data_Zr2Ni3BRh3
_symmetry_space_group_name_H-M   'P 1'
_cell_length_a   5.62746362
_cell_length_b   5.62746324
_cell_length_c   5.54149939
_cell_angle_alpha   59.48551135
_cell_angle_beta   59.48551124
_cell_angle_gamma   59.99999065
_symmetry_Int_Tables_number   1
_chemical_formula_structural   Zr2Ni3BRh3
_chemical_formula_sum   'Zr2 Ni3 B1 Rh3'
_cell_volume   123.11648166
_cell_formula_units_Z   1
loop_
 _symmetry_equiv_pos_site_id
 _symmetry_equiv_pos_as_xyz
  1  'x, y, z'
loop_
 _atom_site_type_symbol
 _atom_site_label
 _atom_site_symmetry_multiplicity
 _atom_site_fract_x
 _atom_site_fract_y
 _atom_site_fract_z
 _atom_site_occupancy
  Zr  Zr0  1  0.756220  0.756220  0.731340  1
  Zr  Zr1  1  0.248765  0.248765  0.253705  1
  Ni  Ni2  1  0.737703  0.737703  0.248766  1
  Ni  Ni3  1  0.275828  0.737703  0.248766  1
  Ni  Ni4  1  0.737703  0.275828  0.248766  1
  B  B5  1  0.987321  0.987321  0.038036  1
  Rh  Rh6  1  0.255578  0.255578  0.743541  1
  Rh  Rh7  1  0.745303  0.255578  0.743541  1
  Rh  Rh8  1  0.255578  0.745303  0.743541  1
