# generated using pymatgen
data_P2PdPt5Pb
_symmetry_space_group_name_H-M   'P 1'
_cell_length_a   8.62111400
_cell_length_b   8.56066700
_cell_length_c   8.52763800
_cell_angle_alpha   90.00000000
_cell_angle_beta   90.00000000
_cell_angle_gamma   90.00000000
_symmetry_Int_Tables_number   1
_chemical_formula_structural   P2PdPt5Pb
_chemical_formula_sum   'P8 Pd4 Pt20 Pb4'
_cell_volume   629.36088516
_cell_formula_units_Z   4
loop_
 _symmetry_equiv_pos_site_id
 _symmetry_equiv_pos_as_xyz
  1  'x, y, z'
loop_
 _atom_site_type_symbol
 _atom_site_label
 _atom_site_symmetry_multiplicity
 _atom_site_fract_x
 _atom_site_fract_y
 _atom_site_fract_z
 _atom_site_occupancy
  P  P0  1  0.807425  0.304181  0.193332  1
  P  P1  1  0.192575  0.804181  0.306668  1
  P  P2  1  0.692575  0.695819  0.693332  1
  P  P3  1  0.307425  0.195819  0.806668  1
  P  P4  1  0.197347  0.693878  0.808121  1
  P  P5  1  0.802653  0.193878  0.691879  1
  P  P6  1  0.302653  0.306122  0.308121  1
  P  P7  1  0.697347  0.806122  0.191879  1
  Pd  Pd8  1  0.421559  0.845781  0.160546  1
  Pd  Pd9  1  0.578441  0.345781  0.339454  1
  Pd  Pd10  1  0.078441  0.154219  0.660546  1
  Pd  Pd11  1  0.921559  0.654219  0.839454  1
  Pt  Pt12  1  0.161142  0.422314  0.846359  1
  Pt  Pt13  1  0.338858  0.577686  0.346359  1
  Pt  Pt14  1  0.661142  0.077686  0.153641  1
  Pt  Pt15  1  0.838858  0.922314  0.653641  1
  Pt  Pt16  1  0.846608  0.159275  0.421804  1
  Pt  Pt17  1  0.346608  0.340725  0.578196  1
  Pt  Pt18  1  0.153392  0.659275  0.078196  1
  Pt  Pt19  1  0.653392  0.840725  0.921804  1
  Pt  Pt20  1  0.577706  0.156817  0.839922  1
  Pt  Pt21  1  0.422294  0.656817  0.660078  1
  Pt  Pt22  1  0.922294  0.843183  0.339922  1
  Pt  Pt23  1  0.077706  0.343183  0.160078  1
  Pt  Pt24  1  0.840554  0.573971  0.158058  1
  Pt  Pt25  1  0.659446  0.426029  0.658058  1
  Pt  Pt26  1  0.340554  0.926029  0.841942  1
  Pt  Pt27  1  0.159446  0.073971  0.341942  1
  Pt  Pt28  1  0.149723  0.835455  0.579438  1
  Pt  Pt29  1  0.649723  0.664545  0.420562  1
  Pt  Pt30  1  0.850277  0.335455  0.920562  1
  Pt  Pt31  1  0.350277  0.164545  0.079438  1
  Pb  Pb32  1  0.500903  0.501462  0.000593  1
  Pb  Pb33  1  0.499097  0.001462  0.499407  1
  Pb  Pb34  1  0.999097  0.498538  0.500593  1
  Pb  Pb35  1  0.000903  0.998538  0.999407  1
