# generated using pymatgen
data_Nd3Si2Rh3
_symmetry_space_group_name_H-M   'P 1'
_cell_length_a   5.72609200
_cell_length_b   7.75948600
_cell_length_c   15.04563500
_cell_angle_alpha   90.00000000
_cell_angle_beta   90.00000000
_cell_angle_gamma   90.00000000
_symmetry_Int_Tables_number   1
_chemical_formula_structural   Nd3Si2Rh3
_chemical_formula_sum   'Nd12 Si8 Rh12'
_cell_volume   668.50059353
_cell_formula_units_Z   4
loop_
 _symmetry_equiv_pos_site_id
 _symmetry_equiv_pos_as_xyz
  1  'x, y, z'
loop_
 _atom_site_type_symbol
 _atom_site_label
 _atom_site_symmetry_multiplicity
 _atom_site_fract_x
 _atom_site_fract_y
 _atom_site_fract_z
 _atom_site_occupancy
  Nd  Nd0  1  0.139769  0.473620  0.891153  1
  Nd  Nd1  1  0.360231  0.973620  0.891153  1
  Nd  Nd2  1  0.615680  0.334107  0.750000  1
  Nd  Nd3  1  0.384320  0.665893  0.250000  1
  Nd  Nd4  1  0.639769  0.026380  0.391153  1
  Nd  Nd5  1  0.860231  0.526380  0.108847  1
  Nd  Nd6  1  0.860231  0.526380  0.391153  1
  Nd  Nd7  1  0.360231  0.973620  0.608847  1
  Nd  Nd8  1  0.884320  0.834107  0.750000  1
  Nd  Nd9  1  0.139769  0.473620  0.608847  1
  Nd  Nd10  1  0.639769  0.026380  0.108847  1
  Nd  Nd11  1  0.115680  0.165893  0.250000  1
  Si  Si12  1  0.367682  0.374145  0.098513  1
  Si  Si13  1  0.632318  0.625855  0.901487  1
  Si  Si14  1  0.867682  0.125855  0.901487  1
  Si  Si15  1  0.367682  0.374145  0.401487  1
  Si  Si16  1  0.867682  0.125855  0.598513  1
  Si  Si17  1  0.632318  0.625855  0.598513  1
  Si  Si18  1  0.132318  0.874145  0.401487  1
  Si  Si19  1  0.132318  0.874145  0.098513  1
  Rh  Rh20  1  0.602694  0.337144  0.962442  1
  Rh  Rh21  1  0.397306  0.662856  0.037558  1
  Rh  Rh22  1  0.577006  0.319889  0.250000  1
  Rh  Rh23  1  0.397306  0.662856  0.462442  1
  Rh  Rh24  1  0.077006  0.180111  0.750000  1
  Rh  Rh25  1  0.102694  0.162856  0.462442  1
  Rh  Rh26  1  0.422994  0.680111  0.750000  1
  Rh  Rh27  1  0.922994  0.819889  0.250000  1
  Rh  Rh28  1  0.102694  0.162856  0.037558  1
  Rh  Rh29  1  0.602694  0.337144  0.537558  1
  Rh  Rh30  1  0.897306  0.837144  0.537558  1
  Rh  Rh31  1  0.897306  0.837144  0.962442  1
