# generated using pymatgen
data_MnBe4Ru
_symmetry_space_group_name_H-M   'P 1'
_cell_length_a   4.28958201
_cell_length_b   4.28958207
_cell_length_c   4.28958200
_cell_angle_alpha   60.00000052
_cell_angle_beta   60.00000011
_cell_angle_gamma   59.99999603
_symmetry_Int_Tables_number   1
_chemical_formula_structural   MnBe4Ru
_chemical_formula_sum   'Mn1 Be4 Ru1'
_cell_volume   55.81230030
_cell_formula_units_Z   1
loop_
 _symmetry_equiv_pos_site_id
 _symmetry_equiv_pos_as_xyz
  1  'x, y, z'
loop_
 _atom_site_type_symbol
 _atom_site_label
 _atom_site_symmetry_multiplicity
 _atom_site_fract_x
 _atom_site_fract_y
 _atom_site_fract_z
 _atom_site_occupancy
  Mn  Mn0  1  0.000000  0.000000  0.000000  1
  Be  Be1  1  0.625090  0.625090  0.124731  1
  Be  Be2  1  0.625090  0.124731  0.625090  1
  Be  Be3  1  0.124731  0.625090  0.625090  1
  Be  Be4  1  0.625090  0.625090  0.625090  1
  Ru  Ru5  1  0.250000  0.250000  0.250000  1
