# generated using pymatgen
data_K2Sb2PdPt
_symmetry_space_group_name_H-M   'P 1'
_cell_length_a   7.19388100
_cell_length_b   7.20578508
_cell_length_c   7.19446126
_cell_angle_alpha   89.19130706
_cell_angle_beta   90.00000000
_cell_angle_gamma   90.00000000
_symmetry_Int_Tables_number   1
_chemical_formula_structural   K2Sb2PdPt
_chemical_formula_sum   'K4 Sb4 Pd2 Pt2'
_cell_volume   372.90617240
_cell_formula_units_Z   2
loop_
 _symmetry_equiv_pos_site_id
 _symmetry_equiv_pos_as_xyz
  1  'x, y, z'
loop_
 _atom_site_type_symbol
 _atom_site_label
 _atom_site_symmetry_multiplicity
 _atom_site_fract_x
 _atom_site_fract_y
 _atom_site_fract_z
 _atom_site_occupancy
  K  K0  1  0.635030  0.366041  0.860800  1
  K  K1  1  0.363348  0.862466  0.633367  1
  K  K2  1  0.135030  0.133959  0.139200  1
  K  K3  1  0.863348  0.637534  0.366633  1
  Sb  Sb4  1  0.158547  0.340541  0.659076  1
  Sb  Sb5  1  0.658547  0.159459  0.340924  1
  Sb  Sb6  1  0.344490  0.655141  0.157746  1
  Sb  Sb7  1  0.844490  0.844859  0.842254  1
  Pd  Pd8  1  0.598457  0.903143  0.098971  1
  Pd  Pd9  1  0.098457  0.596857  0.901029  1
  Pt  Pt10  1  0.400128  0.398359  0.402044  1
  Pt  Pt11  1  0.900128  0.101641  0.597956  1
