# generated using pymatgen
data_Er9Sc3(ReSi2)8
_symmetry_space_group_name_H-M   'P 1'
_cell_length_a   10.49438300
_cell_length_b   10.49735585
_cell_length_c   14.13779980
_cell_angle_alpha   54.91275562
_cell_angle_beta   125.05794902
_cell_angle_gamma   149.64689775
_symmetry_Int_Tables_number   1
_chemical_formula_structural   Er9Sc3(ReSi2)8
_chemical_formula_sum   'Er9 Sc3 Re8 Si16'
_cell_volume   632.33589358
_cell_formula_units_Z   1
loop_
 _symmetry_equiv_pos_site_id
 _symmetry_equiv_pos_as_xyz
  1  'x, y, z'
loop_
 _atom_site_type_symbol
 _atom_site_label
 _atom_site_symmetry_multiplicity
 _atom_site_fract_x
 _atom_site_fract_y
 _atom_site_fract_z
 _atom_site_occupancy
  Er  Er0  1  0.293413  0.961431  0.362261  1
  Er  Er1  1  0.962106  0.292241  0.139930  1
  Er  Er2  1  0.707976  0.038475  0.637112  1
  Er  Er3  1  0.038885  0.709774  0.860871  1
  Er  Er4  1  0.536837  0.693813  0.345386  1
  Er  Er5  1  0.695310  0.534802  0.157145  1
  Er  Er6  1  0.462459  0.307087  0.653641  1
  Er  Er7  1  0.306774  0.465415  0.843391  1
  Er  Er8  1  0.518887  0.753136  0.048484  1
  Sc  Sc9  1  0.752607  0.514818  0.453268  1
  Sc  Sc10  1  0.484292  0.248006  0.952822  1
  Sc  Sc11  1  0.248083  0.485135  0.547204  1
  Re  Re12  1  0.640067  0.167944  0.218341  1
  Re  Re13  1  0.167238  0.640292  0.281998  1
  Re  Re14  1  0.357666  0.832134  0.780249  1
  Re  Re15  1  0.832177  0.360603  0.716790  1
  Re  Re16  1  0.137140  0.087533  0.423005  1
  Re  Re17  1  0.089681  0.137552  0.078586  1
  Re  Re18  1  0.863042  0.912378  0.578293  1
  Re  Re19  1  0.912836  0.863862  0.921984  1
  Si  Si20  1  0.599513  0.944658  0.426513  1
  Si  Si21  1  0.944354  0.599825  0.073221  1
  Si  Si22  1  0.399865  0.054318  0.572980  1
  Si  Si23  1  0.043932  0.390447  0.925520  1
  Si  Si24  1  0.382374  0.844137  0.114467  1
  Si  Si25  1  0.847780  0.386044  0.389948  1
  Si  Si26  1  0.612627  0.158443  0.883218  1
  Si  Si27  1  0.152450  0.613379  0.610144  1
  Si  Si28  1  0.230026  0.000460  0.120444  1
  Si  Si29  1  0.002592  0.230886  0.381237  1
  Si  Si30  1  0.771574  0.001886  0.875774  1
  Si  Si31  1  0.996754  0.769376  0.619181  1
  Si  Si32  1  0.900991  0.895746  0.253614  1
  Si  Si33  1  0.107706  0.107568  0.749990  1
  Si  Si34  1  0.352725  0.348533  0.253125  1
  Si  Si35  1  0.647251  0.647861  0.749861  1
