# generated using pymatgen
data_Cu3OsSe8
_symmetry_space_group_name_H-M   'P 1'
_cell_length_a   6.13734252
_cell_length_b   6.13734252
_cell_length_c   6.13734252
_cell_angle_alpha   89.11105786
_cell_angle_beta   89.11105786
_cell_angle_gamma   89.11105786
_symmetry_Int_Tables_number   1
_chemical_formula_structural   Cu3OsSe8
_chemical_formula_sum   'Cu3 Os1 Se8'
_cell_volume   231.09250119
_cell_formula_units_Z   1
loop_
 _symmetry_equiv_pos_site_id
 _symmetry_equiv_pos_as_xyz
  1  'x, y, z'
loop_
 _atom_site_type_symbol
 _atom_site_label
 _atom_site_symmetry_multiplicity
 _atom_site_fract_x
 _atom_site_fract_y
 _atom_site_fract_z
 _atom_site_occupancy
  Cu  Cu0  1  0.000000  0.500000  0.500000  1
  Cu  Cu1  1  0.500000  0.500000  0.000000  1
  Cu  Cu2  1  0.500000  0.000000  0.500000  1
  Os  Os3  1  0.000000  0.000000  0.000000  1
  Se  Se4  1  0.376425  0.113003  0.890254  1
  Se  Se5  1  0.113003  0.890254  0.376425  1
  Se  Se6  1  0.890254  0.376425  0.113003  1
  Se  Se7  1  0.609428  0.609428  0.609428  1
  Se  Se8  1  0.390572  0.390572  0.390572  1
  Se  Se9  1  0.109746  0.623575  0.886997  1
  Se  Se10  1  0.886997  0.109746  0.623575  1
  Se  Se11  1  0.623575  0.886997  0.109746  1
