# generated using pymatgen
data_Th4Sc3Au10
_symmetry_space_group_name_H-M   'P 1'
_cell_length_a   8.74175415
_cell_length_b   8.74171593
_cell_length_c   10.40253000
_cell_angle_alpha   89.70676614
_cell_angle_beta   90.29279999
_cell_angle_gamma   107.46683485
_symmetry_Int_Tables_number   1
_chemical_formula_structural   Th4Sc3Au10
_chemical_formula_sum   'Th8 Sc6 Au20'
_cell_volume   758.27057319
_cell_formula_units_Z   2
loop_
 _symmetry_equiv_pos_site_id
 _symmetry_equiv_pos_as_xyz
  1  'x, y, z'
loop_
 _atom_site_type_symbol
 _atom_site_label
 _atom_site_symmetry_multiplicity
 _atom_site_fract_x
 _atom_site_fract_y
 _atom_site_fract_z
 _atom_site_occupancy
  Th  Th0  1  0.696752  0.302704  0.999605  1
  Th  Th1  1  0.197095  0.803008  0.499863  1
  Th  Th2  1  0.803388  0.803724  0.301196  1
  Th  Th3  1  0.303450  0.303138  0.198871  1
  Th  Th4  1  0.802812  0.196779  0.500370  1
  Th  Th5  1  0.302917  0.697076  0.000130  1
  Th  Th6  1  0.696458  0.696808  0.801526  1
  Th  Th7  1  0.196769  0.196395  0.698540  1
  Sc  Sc8  1  0.505447  0.005314  0.249969  1
  Sc  Sc9  1  0.994637  0.494639  0.749951  1
  Sc  Sc10  1  0.000391  0.000358  0.999426  1
  Sc  Sc11  1  0.005067  0.505267  0.250007  1
  Sc  Sc12  1  0.500642  0.500698  0.500182  1
  Sc  Sc13  1  0.494421  0.994384  0.749919  1
  Au  Au14  1  0.151930  0.440490  0.490906  1
  Au  Au15  1  0.900313  0.899718  0.597663  1
  Au  Au16  1  0.559845  0.848649  0.508901  1
  Au  Au17  1  0.866507  0.155185  0.205894  1
  Au  Au18  1  0.366763  0.655645  0.294494  1
  Au  Au19  1  0.655417  0.366376  0.294376  1
  Au  Au20  1  0.399738  0.400328  0.902325  1
  Au  Au21  1  0.940474  0.652077  0.009162  1
  Au  Au22  1  0.344980  0.633317  0.705485  1
  Au  Au23  1  0.348438  0.059665  0.990994  1
  Au  Au24  1  0.599665  0.599180  0.098009  1
  Au  Au25  1  0.651955  0.940172  0.009423  1
  Au  Au26  1  0.099044  0.099520  0.402060  1
  Au  Au27  1  0.633053  0.344689  0.705322  1
  Au  Au28  1  0.133411  0.845042  0.794537  1
  Au  Au29  1  0.059262  0.348456  0.991337  1
  Au  Au30  1  0.848591  0.559402  0.508538  1
  Au  Au31  1  0.155350  0.866855  0.205721  1
  Au  Au32  1  0.440268  0.151865  0.490655  1
  Au  Au33  1  0.844752  0.133079  0.794641  1
