# generated using pymatgen
data_Li3YEr2Si2As
_symmetry_space_group_name_H-M   'P 1'
_cell_length_a   7.03849499
_cell_length_b   7.03849541
_cell_length_c   4.16764400
_cell_angle_alpha   90.00000000
_cell_angle_beta   90.00000000
_cell_angle_gamma   120.50366847
_symmetry_Int_Tables_number   1
_chemical_formula_structural   Li3YEr2Si2As
_chemical_formula_sum   'Li3 Y1 Er2 Si2 As1'
_cell_volume   177.89111627
_cell_formula_units_Z   1
loop_
 _symmetry_equiv_pos_site_id
 _symmetry_equiv_pos_as_xyz
  1  'x, y, z'
loop_
 _atom_site_type_symbol
 _atom_site_label
 _atom_site_symmetry_multiplicity
 _atom_site_fract_x
 _atom_site_fract_y
 _atom_site_fract_z
 _atom_site_occupancy
  Li  Li0  1  0.235566  0.999582  0.500000  1
  Li  Li1  1  0.765656  0.765656  0.500000  1
  Li  Li2  1  0.999582  0.235566  0.500000  1
  Y  Y3  1  0.422262  0.422262  0.000000  1
  Er  Er4  1  0.002641  0.581252  0.000000  1
  Er  Er5  1  0.581252  0.002641  0.000000  1
  Si  Si6  1  0.332630  0.669036  0.500000  1
  Si  Si7  1  0.669036  0.332630  0.500000  1
  As  As8  1  0.991374  0.991374  0.000000  1
