# generated using pymatgen
data_BeCl30
_symmetry_space_group_name_H-M   'P 1'
_cell_length_a   14.00169125
_cell_length_b   14.00169187
_cell_length_c   14.74582574
_cell_angle_alpha   82.27572508
_cell_angle_beta   82.27572556
_cell_angle_gamma   120.53006847
_symmetry_Int_Tables_number   1
_chemical_formula_structural   BeCl30
_chemical_formula_sum   'Be1 Cl30'
_cell_volume   2396.92515671
_cell_formula_units_Z   1
loop_
 _symmetry_equiv_pos_site_id
 _symmetry_equiv_pos_as_xyz
  1  'x, y, z'
loop_
 _atom_site_type_symbol
 _atom_site_label
 _atom_site_symmetry_multiplicity
 _atom_site_fract_x
 _atom_site_fract_y
 _atom_site_fract_z
 _atom_site_occupancy
  Be  Be0  1  0.000000  0.000000  0.000000  1
  Cl  Cl1  1  0.960148  0.960148  0.128008  1
  Cl  Cl2  1  0.039852  0.039852  0.871992  1
  Cl  Cl3  1  0.182652  0.264726  0.005141  1
  Cl  Cl4  1  0.817348  0.735274  0.994859  1
  Cl  Cl5  1  0.264726  0.182652  0.005141  1
  Cl  Cl6  1  0.735274  0.817348  0.994859  1
  Cl  Cl7  1  0.208840  0.729161  0.069932  1
  Cl  Cl8  1  0.791160  0.270839  0.930068  1
  Cl  Cl9  1  0.684781  0.069218  0.281661  1
  Cl  Cl10  1  0.270839  0.791160  0.930068  1
  Cl  Cl11  1  0.315219  0.930782  0.718339  1
  Cl  Cl12  1  0.729161  0.208840  0.069932  1
  Cl  Cl13  1  0.976282  0.210427  0.774100  1
  Cl  Cl14  1  0.930782  0.315219  0.718339  1
  Cl  Cl15  1  0.023718  0.789573  0.225900  1
  Cl  Cl16  1  0.069218  0.684781  0.281661  1
  Cl  Cl17  1  0.789573  0.023718  0.225900  1
  Cl  Cl18  1  0.210427  0.976282  0.774100  1
  Cl  Cl19  1  0.468443  0.550493  0.262927  1
  Cl  Cl20  1  0.531557  0.449507  0.737073  1
  Cl  Cl21  1  0.509410  0.203683  0.449908  1
  Cl  Cl22  1  0.449507  0.531557  0.737073  1
  Cl  Cl23  1  0.490590  0.796317  0.550092  1
  Cl  Cl24  1  0.550493  0.468443  0.262927  1
  Cl  Cl25  1  0.241116  0.429686  0.547879  1
  Cl  Cl26  1  0.796317  0.490590  0.550092  1
  Cl  Cl27  1  0.758884  0.570314  0.452121  1
  Cl  Cl28  1  0.203683  0.509410  0.449908  1
  Cl  Cl29  1  0.570314  0.758884  0.452121  1
  Cl  Cl30  1  0.429686  0.241116  0.547879  1
