# generated using pymatgen
data_Pr2ThSn3PtRh2
_symmetry_space_group_name_H-M   'P 1'
_cell_length_a   7.63563805
_cell_length_b   7.67304063
_cell_length_c   4.11295400
_cell_angle_alpha   90.00000000
_cell_angle_beta   90.00000000
_cell_angle_gamma   120.05339757
_symmetry_Int_Tables_number   1
_chemical_formula_structural   Pr2ThSn3PtRh2
_chemical_formula_sum   'Pr2 Th1 Sn3 Pt1 Rh2'
_cell_volume   208.57554301
_cell_formula_units_Z   1
loop_
 _symmetry_equiv_pos_site_id
 _symmetry_equiv_pos_as_xyz
  1  'x, y, z'
loop_
 _atom_site_type_symbol
 _atom_site_label
 _atom_site_symmetry_multiplicity
 _atom_site_fract_x
 _atom_site_fract_y
 _atom_site_fract_z
 _atom_site_occupancy
  Pr  Pr0  1  0.409484  0.412909  0.500000  1
  Pr  Pr1  1  0.587650  0.998214  0.500000  1
  Th  Th2  1  0.006877  0.590357  0.500000  1
  Sn  Sn3  1  0.742066  0.751772  0.000000  1
  Sn  Sn4  1  0.254804  0.004000  0.000000  1
  Sn  Sn5  1  0.003990  0.243757  0.000000  1
  Pt  Pt6  1  0.682734  0.347715  0.000000  1
  Rh  Rh7  1  0.313195  0.663838  0.000000  1
  Rh  Rh8  1  0.999200  0.987439  0.500000  1
