# generated using pymatgen
data_KGa9Au4
_symmetry_space_group_name_H-M   'P 1'
_cell_length_a   6.30150663
_cell_length_b   6.30150802
_cell_length_c   15.02497100
_cell_angle_alpha   102.10483501
_cell_angle_beta   102.10483771
_cell_angle_gamma   89.99999651
_symmetry_Int_Tables_number   1
_chemical_formula_structural   KGa9Au4
_chemical_formula_sum   'K2 Ga18 Au8'
_cell_volume   569.78639146
_cell_formula_units_Z   2
loop_
 _symmetry_equiv_pos_site_id
 _symmetry_equiv_pos_as_xyz
  1  'x, y, z'
loop_
 _atom_site_type_symbol
 _atom_site_label
 _atom_site_symmetry_multiplicity
 _atom_site_fract_x
 _atom_site_fract_y
 _atom_site_fract_z
 _atom_site_occupancy
  K  K0  1  0.750001  0.250000  0.500000  1
  K  K1  1  0.250000  0.750001  0.500000  1
  Ga  Ga2  1  0.301570  0.301570  0.103929  1
  Ga  Ga3  1  0.802359  0.301570  0.103929  1
  Ga  Ga4  1  0.301570  0.802359  0.103929  1
  Ga  Ga5  1  0.802359  0.802359  0.103929  1
  Ga  Ga6  1  0.405156  0.405156  0.310307  1
  Ga  Ga7  1  0.905151  0.405156  0.310307  1
  Ga  Ga8  1  0.405156  0.905151  0.310307  1
  Ga  Ga9  1  0.905151  0.905151  0.310307  1
  Ga  Ga10  1  0.094848  0.094848  0.689693  1
  Ga  Ga11  1  0.594844  0.094848  0.689693  1
  Ga  Ga12  1  0.094848  0.594844  0.689693  1
  Ga  Ga13  1  0.594844  0.594844  0.689693  1
  Ga  Ga14  1  0.197642  0.197642  0.896071  1
  Ga  Ga15  1  0.698429  0.197642  0.896071  1
  Ga  Ga16  1  0.197642  0.698429  0.896071  1
  Ga  Ga17  1  0.698429  0.698429  0.896071  1
  Ga  Ga18  1  0.205827  0.205827  0.411654  1
  Ga  Ga19  1  0.794173  0.794173  0.588347  1
  Au  Au20  1  0.000000  0.000000  0.000000  1
  Au  Au21  1  0.500001  0.500001  0.000000  1
  Au  Au22  1  0.602903  0.102903  0.205806  1
  Au  Au23  1  0.102903  0.602903  0.205806  1
  Au  Au24  1  0.704821  0.704821  0.409642  1
  Au  Au25  1  0.295180  0.295180  0.590358  1
  Au  Au26  1  0.897098  0.397097  0.794193  1
  Au  Au27  1  0.397097  0.897098  0.794193  1
