# generated using pymatgen
data_Li2CeP2Pt
_symmetry_space_group_name_H-M   'P 1'
_cell_length_a   4.13013700
_cell_length_b   4.13013676
_cell_length_c   6.62884200
_cell_angle_alpha   90.00000000
_cell_angle_beta   90.00000000
_cell_angle_gamma   120.00000991
_symmetry_Int_Tables_number   1
_chemical_formula_structural   Li2CeP2Pt
_chemical_formula_sum   'Li2 Ce1 P2 Pt1'
_cell_volume   97.92580414
_cell_formula_units_Z   1
loop_
 _symmetry_equiv_pos_site_id
 _symmetry_equiv_pos_as_xyz
  1  'x, y, z'
loop_
 _atom_site_type_symbol
 _atom_site_label
 _atom_site_symmetry_multiplicity
 _atom_site_fract_x
 _atom_site_fract_y
 _atom_site_fract_z
 _atom_site_occupancy
  Li  Li0  1  0.000000  0.000000  0.505405  1
  Li  Li1  1  0.333333  0.666667  0.640955  1
  Ce  Ce2  1  0.000000  0.000000  0.010693  1
  P  P3  1  0.333333  0.666667  0.255059  1
  P  P4  1  0.666667  0.333333  0.740654  1
  Pt  Pt5  1  0.666667  0.333333  0.347234  1
