# generated using pymatgen
data_La3Pr(PI)2
_symmetry_space_group_name_H-M   'P 1'
_cell_length_a   4.27389400
_cell_length_b   4.27389419
_cell_length_c   15.66423600
_cell_angle_alpha   90.00000000
_cell_angle_beta   90.00000000
_cell_angle_gamma   119.99999851
_symmetry_Int_Tables_number   1
_chemical_formula_structural   La3Pr(PI)2
_chemical_formula_sum   'La3 Pr1 P2 I2'
_cell_volume   247.79205016
_cell_formula_units_Z   1
loop_
 _symmetry_equiv_pos_site_id
 _symmetry_equiv_pos_as_xyz
  1  'x, y, z'
loop_
 _atom_site_type_symbol
 _atom_site_label
 _atom_site_symmetry_multiplicity
 _atom_site_fract_x
 _atom_site_fract_y
 _atom_site_fract_z
 _atom_site_occupancy
  La  La0  1  0.333333  0.666667  0.598592  1
  La  La1  1  0.666667  0.333333  0.404266  1
  La  La2  1  0.666667  0.333333  0.093497  1
  Pr  Pr3  1  0.333333  0.666667  0.903141  1
  P  P4  1  0.000000  0.000000  0.997106  1
  P  P5  1  0.000000  0.000000  0.501633  1
  I  I6  1  0.333333  0.666667  0.248219  1
  I  I7  1  0.666667  0.333333  0.753547  1
