# generated using pymatgen
data_TbDyCdCo2
_symmetry_space_group_name_H-M   'P 1'
_cell_length_a   7.12727431
_cell_length_b   7.12727393
_cell_length_c   3.91709000
_cell_angle_alpha   90.00000000
_cell_angle_beta   90.00000000
_cell_angle_gamma   148.86830635
_symmetry_Int_Tables_number   1
_chemical_formula_structural   TbDyCdCo2
_chemical_formula_sum   'Tb1 Dy1 Cd1 Co2'
_cell_volume   102.87428151
_cell_formula_units_Z   1
loop_
 _symmetry_equiv_pos_site_id
 _symmetry_equiv_pos_as_xyz
  1  'x, y, z'
loop_
 _atom_site_type_symbol
 _atom_site_label
 _atom_site_symmetry_multiplicity
 _atom_site_fract_x
 _atom_site_fract_y
 _atom_site_fract_z
 _atom_site_occupancy
  Tb  Tb0  1  0.361108  0.638892  0.500000  1
  Dy  Dy1  1  0.639289  0.360711  0.500000  1
  Cd  Cd2  1  0.000483  0.999517  0.000000  1
  Co  Co3  1  0.791655  0.208345  0.000000  1
  Co  Co4  1  0.207465  0.792535  0.000000  1
