# generated using pymatgen
data_Tb2Lu8Bi5Au
_symmetry_space_group_name_H-M   'P 1'
_cell_length_a   8.08711600
_cell_length_b   9.34429400
_cell_length_c   11.90882000
_cell_angle_alpha   90.00000000
_cell_angle_beta   90.00000000
_cell_angle_gamma   90.00000000
_symmetry_Int_Tables_number   1
_chemical_formula_structural   Tb2Lu8Bi5Au
_chemical_formula_sum   'Tb4 Lu16 Bi10 Au2'
_cell_volume   899.93034844
_cell_formula_units_Z   2
loop_
 _symmetry_equiv_pos_site_id
 _symmetry_equiv_pos_as_xyz
  1  'x, y, z'
loop_
 _atom_site_type_symbol
 _atom_site_label
 _atom_site_symmetry_multiplicity
 _atom_site_fract_x
 _atom_site_fract_y
 _atom_site_fract_z
 _atom_site_occupancy
  Tb  Tb0  1  0.311528  0.250000  0.217405  1
  Tb  Tb1  1  0.811528  0.250000  0.282595  1
  Tb  Tb2  1  0.675195  0.750000  0.791416  1
  Tb  Tb3  1  0.175195  0.750000  0.708584  1
  Lu  Lu4  1  0.349571  0.750000  0.202909  1
  Lu  Lu5  1  0.849571  0.750000  0.297091  1
  Lu  Lu6  1  0.656700  0.250000  0.780461  1
  Lu  Lu7  1  0.156700  0.250000  0.719539  1
  Lu  Lu8  1  0.683456  0.572310  0.059465  1
  Lu  Lu9  1  0.183456  0.927690  0.440535  1
  Lu  Lu10  1  0.311931  0.045515  0.940386  1
  Lu  Lu11  1  0.811931  0.454485  0.559614  1
  Lu  Lu12  1  0.311931  0.454485  0.940386  1
  Lu  Lu13  1  0.811931  0.045515  0.559614  1
  Lu  Lu14  1  0.683456  0.927690  0.059465  1
  Lu  Lu15  1  0.183456  0.572310  0.440535  1
  Lu  Lu16  1  0.484719  0.250000  0.491997  1
  Lu  Lu17  1  0.984719  0.250000  0.008003  1
  Lu  Lu18  1  0.539557  0.750000  0.508442  1
  Lu  Lu19  1  0.039557  0.750000  0.991558  1
  Bi  Bi20  1  0.597872  0.250000  0.037865  1
  Bi  Bi21  1  0.097872  0.250000  0.462135  1
  Bi  Bi22  1  0.554620  0.996128  0.324041  1
  Bi  Bi23  1  0.054620  0.503872  0.175959  1
  Bi  Bi24  1  0.439341  0.496060  0.675565  1
  Bi  Bi25  1  0.939341  0.003940  0.824435  1
  Bi  Bi26  1  0.439341  0.003940  0.675565  1
  Bi  Bi27  1  0.939341  0.496060  0.824435  1
  Bi  Bi28  1  0.554620  0.503872  0.324041  1
  Bi  Bi29  1  0.054620  0.996128  0.175959  1
  Au  Au30  1  0.406161  0.750000  0.968469  1
  Au  Au31  1  0.906161  0.750000  0.531531  1
