# generated using pymatgen
data_Sr3Mo8P8PbO48
_symmetry_space_group_name_H-M   'P 1'
_cell_length_a   12.52941386
_cell_length_b   6.43274377
_cell_length_c   12.05925494
_cell_angle_alpha   88.50168225
_cell_angle_beta   89.88167004
_cell_angle_gamma   89.97878508
_symmetry_Int_Tables_number   1
_chemical_formula_structural   Sr3Mo8P8PbO48
_chemical_formula_sum   'Sr3 Mo8 P8 Pb1 O48'
_cell_volume   971.62352709
_cell_formula_units_Z   1
loop_
 _symmetry_equiv_pos_site_id
 _symmetry_equiv_pos_as_xyz
  1  'x, y, z'
loop_
 _atom_site_type_symbol
 _atom_site_label
 _atom_site_symmetry_multiplicity
 _atom_site_fract_x
 _atom_site_fract_y
 _atom_site_fract_z
 _atom_site_occupancy
  Sr  Sr0  1  0.624511  0.000138  0.765942  1
  Sr  Sr1  1  0.874352  0.999953  0.264597  1
  Sr  Sr2  1  0.375279  0.001299  0.233739  1
  Mo  Mo3  1  0.871077  0.248530  0.904840  1
  Mo  Mo4  1  0.371664  0.751400  0.594898  1
  Mo  Mo5  1  0.385327  0.251294  0.901979  1
  Mo  Mo6  1  0.628747  0.248687  0.404934  1
  Mo  Mo7  1  0.614545  0.749896  0.098399  1
  Mo  Mo8  1  0.129329  0.751162  0.095632  1
  Mo  Mo9  1  0.884796  0.749238  0.598296  1
  Mo  Mo10  1  0.114310  0.250519  0.400710  1
  P  P11  1  0.436679  0.243974  0.613094  1
  P  P12  1  0.376707  0.755237  0.960566  1
  P  P13  1  0.063478  0.244087  0.112889  1
  P  P14  1  0.936677  0.755534  0.887515  1
  P  P15  1  0.624012  0.245218  0.039716  1
  P  P16  1  0.123983  0.755090  0.459645  1
  P  P17  1  0.875974  0.244866  0.539441  1
  P  P18  1  0.563415  0.755780  0.386816  1
  Pb  Pb19  1  0.124052  0.994367  0.732495  1
  O  O20  1  0.991910  0.235267  0.832634  1
  O  O21  1  0.906325  0.446213  0.602259  1
  O  O22  1  0.745426  0.235421  0.025883  1
  O  O23  1  0.356664  0.067742  0.585458  1
  O  O24  1  0.365165  0.217830  0.044694  1
  O  O25  1  0.492129  0.766831  0.666733  1
  O  O26  1  0.257223  0.241758  0.847214  1
  O  O27  1  0.547600  0.203922  0.562839  1
  O  O28  1  0.452682  0.795520  0.437386  1
  O  O29  1  0.383968  0.447176  0.567775  1
  O  O30  1  0.863755  0.781725  0.455964  1
  O  O31  1  0.643649  0.931403  0.414292  1
  O  O32  1  0.724576  0.262064  0.299353  1
  O  O33  1  0.882133  0.553095  0.931269  1
  O  O34  1  0.953004  0.204040  0.062338  1
  O  O35  1  0.408664  0.554522  0.898215  1
  O  O36  1  0.255545  0.763168  0.975876  1
  O  O37  1  0.041944  0.250671  0.239345  1
  O  O38  1  0.593346  0.446797  0.102420  1
  O  O39  1  0.584948  0.062058  0.117606  1
  O  O40  1  0.564831  0.238811  0.927875  1
  O  O41  1  0.914217  0.061060  0.617279  1
  O  O42  1  0.008370  0.766968  0.167369  1
  O  O43  1  0.856663  0.931999  0.914305  1
  O  O44  1  0.935950  0.238162  0.427700  1
  O  O45  1  0.457180  0.250163  0.739462  1
  O  O46  1  0.244824  0.765176  0.474998  1
  O  O47  1  0.775490  0.261272  0.799565  1
  O  O48  1  0.224375  0.737584  0.201448  1
  O  O49  1  0.143838  0.068188  0.085752  1
  O  O50  1  0.093320  0.554106  0.396978  1
  O  O51  1  0.436603  0.762681  0.072249  1
  O  O52  1  0.046986  0.793783  0.938369  1
  O  O53  1  0.116913  0.447369  0.068668  1
  O  O54  1  0.635860  0.782561  0.955939  1
  O  O55  1  0.063087  0.760207  0.571503  1
  O  O56  1  0.742191  0.766348  0.155105  1
  O  O57  1  0.958046  0.748972  0.760623  1
  O  O58  1  0.757321  0.765244  0.655729  1
  O  O59  1  0.616734  0.552576  0.431541  1
  O  O60  1  0.275782  0.733381  0.700690  1
  O  O61  1  0.508068  0.233169  0.333387  1
  O  O62  1  0.754805  0.235734  0.525118  1
  O  O63  1  0.135261  0.219410  0.543301  1
  O  O64  1  0.542316  0.749406  0.260579  1
  O  O65  1  0.242063  0.234241  0.343925  1
  O  O66  1  0.414305  0.939365  0.882499  1
  O  O67  1  0.085032  0.938573  0.382348  1
