# generated using pymatgen
data_TbY2ScAu5
_symmetry_space_group_name_H-M   'P 1'
_cell_length_a   7.92710644
_cell_length_b   7.93020759
_cell_length_c   7.92298920
_cell_angle_alpha   66.34314869
_cell_angle_beta   66.36763331
_cell_angle_gamma   66.34772760
_symmetry_Int_Tables_number   1
_chemical_formula_structural   TbY2ScAu5
_chemical_formula_sum   'Tb2 Y4 Sc2 Au10'
_cell_volume   400.44467711
_cell_formula_units_Z   2
loop_
 _symmetry_equiv_pos_site_id
 _symmetry_equiv_pos_as_xyz
  1  'x, y, z'
loop_
 _atom_site_type_symbol
 _atom_site_label
 _atom_site_symmetry_multiplicity
 _atom_site_fract_x
 _atom_site_fract_y
 _atom_site_fract_z
 _atom_site_occupancy
  Tb  Tb0  1  0.891762  0.189373  0.619313  1
  Tb  Tb1  1  0.619540  0.891348  0.189481  1
  Y  Y2  1  0.189471  0.619030  0.891924  1
  Y  Y3  1  0.108519  0.810642  0.380791  1
  Y  Y4  1  0.380476  0.108337  0.810740  1
  Y  Y5  1  0.810628  0.380631  0.108587  1
  Sc  Sc6  1  0.658985  0.659116  0.659401  1
  Sc  Sc7  1  0.340964  0.341152  0.340368  1
  Au  Au8  1  0.000083  0.999781  0.000077  1
  Au  Au9  1  0.500064  0.500441  0.499801  1
  Au  Au10  1  0.806967  0.806823  0.806670  1
  Au  Au11  1  0.193250  0.193059  0.193135  1
  Au  Au12  1  0.936700  0.550030  0.319643  1
  Au  Au13  1  0.319487  0.937318  0.549940  1
  Au  Au14  1  0.550201  0.319611  0.936965  1
  Au  Au15  1  0.062989  0.449840  0.680153  1
  Au  Au16  1  0.680102  0.063165  0.449834  1
  Au  Au17  1  0.449812  0.680303  0.063177  1
