# generated using pymatgen
data_Ho12Rh7
_symmetry_space_group_name_H-M   'P 1'
_cell_length_a   11.25344200
_cell_length_b   8.26377914
_cell_length_c   11.37506789
_cell_angle_alpha   57.23656628
_cell_angle_beta   90.00000000
_cell_angle_gamma   90.00000000
_symmetry_Int_Tables_number   1
_chemical_formula_structural   Ho12Rh7
_chemical_formula_sum   'Ho24 Rh14'
_cell_volume   889.54659992
_cell_formula_units_Z   2
loop_
 _symmetry_equiv_pos_site_id
 _symmetry_equiv_pos_as_xyz
  1  'x, y, z'
loop_
 _atom_site_type_symbol
 _atom_site_label
 _atom_site_symmetry_multiplicity
 _atom_site_fract_x
 _atom_site_fract_y
 _atom_site_fract_z
 _atom_site_occupancy
  Ho  Ho0  1  0.701611  0.240060  0.527338  1
  Ho  Ho1  1  0.201611  0.759940  0.972662  1
  Ho  Ho2  1  0.845952  0.508020  0.658142  1
  Ho  Ho3  1  0.345952  0.491980  0.841858  1
  Ho  Ho4  1  0.154048  0.491980  0.341858  1
  Ho  Ho5  1  0.654048  0.508020  0.158142  1
  Ho  Ho6  1  0.005680  0.844837  0.365998  1
  Ho  Ho7  1  0.505680  0.155163  0.134002  1
  Ho  Ho8  1  0.994320  0.155163  0.634002  1
  Ho  Ho9  1  0.494320  0.844837  0.865998  1
  Ho  Ho10  1  0.798389  0.240060  0.027338  1
  Ho  Ho11  1  0.298389  0.759940  0.472662  1
  Ho  Ho12  1  0.925451  0.777505  0.094619  1
  Ho  Ho13  1  0.425451  0.222495  0.405381  1
  Ho  Ho14  1  0.074549  0.222495  0.905381  1
  Ho  Ho15  1  0.574549  0.777505  0.594619  1
  Ho  Ho16  1  0.305563  0.242371  0.670338  1
  Ho  Ho17  1  0.805563  0.757629  0.829662  1
  Ho  Ho18  1  0.694437  0.757629  0.329662  1
  Ho  Ho19  1  0.194437  0.242371  0.170338  1
  Ho  Ho20  1  0.918123  0.274769  0.291132  1
  Ho  Ho21  1  0.418123  0.725231  0.208868  1
  Ho  Ho22  1  0.081877  0.725231  0.708868  1
  Ho  Ho23  1  0.581877  0.274769  0.791132  1
  Rh  Rh24  1  0.500000  0.500000  0.500000  1
  Rh  Rh25  1  0.000000  0.500000  0.000000  1
  Rh  Rh26  1  0.641306  0.916805  0.052683  1
  Rh  Rh27  1  0.141306  0.083195  0.447317  1
  Rh  Rh28  1  0.358694  0.083195  0.947317  1
  Rh  Rh29  1  0.858694  0.916805  0.552683  1
  Rh  Rh30  1  0.395313  0.488916  0.102623  1
  Rh  Rh31  1  0.895313  0.511084  0.397377  1
  Rh  Rh32  1  0.604687  0.511084  0.897377  1
  Rh  Rh33  1  0.104687  0.488916  0.602623  1
  Rh  Rh34  1  0.829499  0.110921  0.842048  1
  Rh  Rh35  1  0.329499  0.889079  0.657952  1
  Rh  Rh36  1  0.170501  0.889079  0.157952  1
  Rh  Rh37  1  0.670501  0.110921  0.342048  1
