# generated using pymatgen
data_Tb12B3PBr12
_symmetry_space_group_name_H-M   'P 1'
_cell_length_a   9.87468008
_cell_length_b   9.87467945
_cell_length_c   9.87468029
_cell_angle_alpha   109.74784563
_cell_angle_beta   109.74784266
_cell_angle_gamma   109.74784456
_symmetry_Int_Tables_number   1
_chemical_formula_structural   Tb12B3PBr12
_chemical_formula_sum   'Tb12 B3 P1 Br12'
_cell_volume   733.53056567
_cell_formula_units_Z   1
loop_
 _symmetry_equiv_pos_site_id
 _symmetry_equiv_pos_as_xyz
  1  'x, y, z'
loop_
 _atom_site_type_symbol
 _atom_site_label
 _atom_site_symmetry_multiplicity
 _atom_site_fract_x
 _atom_site_fract_y
 _atom_site_fract_z
 _atom_site_occupancy
  Tb  Tb0  1  0.466143  0.491963  0.225140  1
  Tb  Tb1  1  0.750000  0.228478  0.271522  1
  Tb  Tb2  1  0.750000  0.019432  0.480568  1
  Tb  Tb3  1  0.225140  0.466143  0.491963  1
  Tb  Tb4  1  0.271522  0.750000  0.228478  1
  Tb  Tb5  1  0.033857  0.274860  0.008037  1
  Tb  Tb6  1  0.008037  0.033857  0.274860  1
  Tb  Tb7  1  0.480568  0.750000  0.019432  1
  Tb  Tb8  1  0.491963  0.225140  0.466143  1
  Tb  Tb9  1  0.019432  0.480568  0.750000  1
  Tb  Tb10  1  0.274860  0.008037  0.033857  1
  Tb  Tb11  1  0.228478  0.271522  0.750000  1
  B  B12  1  0.499905  0.000095  0.250000  1
  B  B13  1  0.000095  0.250000  0.499905  1
  B  B14  1  0.250000  0.499905  0.000095  1
  P  P15  1  0.250000  0.250000  0.250000  1
  Br  Br16  1  0.250000  0.758342  0.741658  1
  Br  Br17  1  0.513558  0.506720  0.756602  1
  Br  Br18  1  0.986442  0.743398  0.993280  1
  Br  Br19  1  0.741658  0.250000  0.758342  1
  Br  Br20  1  0.993280  0.986442  0.743398  1
  Br  Br21  1  0.250000  0.993212  0.506788  1
  Br  Br22  1  0.756602  0.513558  0.506720  1
  Br  Br23  1  0.506788  0.250000  0.993212  1
  Br  Br24  1  0.758342  0.741658  0.250000  1
  Br  Br25  1  0.743398  0.993280  0.986442  1
  Br  Br26  1  0.993212  0.506788  0.250000  1
  Br  Br27  1  0.506720  0.756602  0.513558  1
