# generated using pymatgen
data_Y3Th7(Pb3C)2
_symmetry_space_group_name_H-M   'P 1'
_cell_length_a   9.37905300
_cell_length_b   9.37905534
_cell_length_c   6.57874500
_cell_angle_alpha   90.00000000
_cell_angle_beta   90.00000000
_cell_angle_gamma   120.00000232
_symmetry_Int_Tables_number   1
_chemical_formula_structural   Y3Th7(Pb3C)2
_chemical_formula_sum   'Y3 Th7 Pb6 C2'
_cell_volume   501.17772799
_cell_formula_units_Z   1
loop_
 _symmetry_equiv_pos_site_id
 _symmetry_equiv_pos_as_xyz
  1  'x, y, z'
loop_
 _atom_site_type_symbol
 _atom_site_label
 _atom_site_symmetry_multiplicity
 _atom_site_fract_x
 _atom_site_fract_y
 _atom_site_fract_z
 _atom_site_occupancy
  Y  Y0  1  0.666667  0.333333  0.000000  1
  Y  Y1  1  0.666667  0.333333  0.500000  1
  Y  Y2  1  0.333333  0.666667  0.500000  1
  Th  Th3  1  0.218960  0.999120  0.250119  1
  Th  Th4  1  0.780160  0.999120  0.749881  1
  Th  Th5  1  0.000880  0.219840  0.250119  1
  Th  Th6  1  0.000880  0.781040  0.749881  1
  Th  Th7  1  0.780160  0.781040  0.250119  1
  Th  Th8  1  0.218960  0.219840  0.749881  1
  Th  Th9  1  0.333333  0.666667  0.000000  1
  Pb  Pb10  1  0.596631  0.003552  0.253190  1
  Pb  Pb11  1  0.406921  0.003552  0.746810  1
  Pb  Pb12  1  0.996448  0.593079  0.253190  1
  Pb  Pb13  1  0.996448  0.403369  0.746810  1
  Pb  Pb14  1  0.406921  0.403369  0.253190  1
  Pb  Pb15  1  0.596631  0.593079  0.746810  1
  C  C16  1  0.000000  0.000000  0.000000  1
  C  C17  1  0.000000  0.000000  0.500000  1
