# generated using pymatgen
data_Pr4CrMo5O24
_symmetry_space_group_name_H-M   'P 1'
_cell_length_a   7.65042621
_cell_length_b   7.65042621
_cell_length_c   10.98676565
_cell_angle_alpha   89.74792200
_cell_angle_beta   89.74792200
_cell_angle_gamma   90.35006928
_symmetry_Int_Tables_number   1
_chemical_formula_structural   Pr4CrMo5O24
_chemical_formula_sum   'Pr4 Cr1 Mo5 O24'
_cell_volume   643.02011410
_cell_formula_units_Z   1
loop_
 _symmetry_equiv_pos_site_id
 _symmetry_equiv_pos_as_xyz
  1  'x, y, z'
loop_
 _atom_site_type_symbol
 _atom_site_label
 _atom_site_symmetry_multiplicity
 _atom_site_fract_x
 _atom_site_fract_y
 _atom_site_fract_z
 _atom_site_occupancy
  Pr  Pr0  1  0.189414  0.689414  0.733728  1
  Pr  Pr1  1  0.810598  0.310598  0.739469  1
  Pr  Pr2  1  0.687125  0.806781  0.263924  1
  Pr  Pr3  1  0.306781  0.187125  0.263924  1
  Cr  Cr4  1  0.210017  0.710017  0.355686  1
  Mo  Mo5  1  0.789874  0.289874  0.356011  1
  Mo  Mo6  1  0.709786  0.791548  0.644083  1
  Mo  Mo7  1  0.291548  0.209786  0.644083  1
  Mo  Mo8  1  0.002000  0.997271  0.000118  1
  Mo  Mo9  1  0.497271  0.502000  0.000118  1
  O  O10  1  0.996891  0.225283  0.296495  1
  O  O11  1  0.016391  0.768047  0.302393  1
  O  O12  1  0.224813  0.001423  0.701507  1
  O  O13  1  0.501423  0.724813  0.701507  1
  O  O14  1  0.774136  0.998557  0.703315  1
  O  O15  1  0.498557  0.274136  0.703315  1
  O  O16  1  0.268047  0.516391  0.302393  1
  O  O17  1  0.725283  0.496891  0.296495  1
  O  O18  1  0.187982  0.041573  0.093531  1
  O  O19  1  0.817702  0.953492  0.097481  1
  O  O20  1  0.043832  0.813421  0.903816  1
  O  O21  1  0.313421  0.543832  0.903816  1
  O  O22  1  0.958474  0.184367  0.906257  1
  O  O23  1  0.684367  0.458474  0.906257  1
  O  O24  1  0.453492  0.317702  0.097481  1
  O  O25  1  0.541573  0.687982  0.093531  1
  O  O26  1  0.625892  0.125892  0.312319  1
  O  O27  1  0.363553  0.863553  0.311666  1
  O  O28  1  0.128083  0.372518  0.687921  1
  O  O29  1  0.872518  0.628083  0.687921  1
  O  O30  1  0.200854  0.700854  0.506685  1
  O  O31  1  0.802575  0.302575  0.517554  1
  O  O32  1  0.699817  0.805914  0.482602  1
  O  O33  1  0.305914  0.199817  0.482602  1
