# generated using pymatgen
data_Dy16InHg3Ir4
_symmetry_space_group_name_H-M   'P 1'
_cell_length_a   9.61649632
_cell_length_b   9.60916678
_cell_length_c   9.61365500
_cell_angle_alpha   59.98455145
_cell_angle_beta   60.00977680
_cell_angle_gamma   60.01215052
_symmetry_Int_Tables_number   1
_chemical_formula_structural   Dy16InHg3Ir4
_chemical_formula_sum   'Dy16 In1 Hg3 Ir4'
_cell_volume   628.19913999
_cell_formula_units_Z   1
loop_
 _symmetry_equiv_pos_site_id
 _symmetry_equiv_pos_as_xyz
  1  'x, y, z'
loop_
 _atom_site_type_symbol
 _atom_site_label
 _atom_site_symmetry_multiplicity
 _atom_site_fract_x
 _atom_site_fract_y
 _atom_site_fract_z
 _atom_site_occupancy
  Dy  Dy0  1  0.599816  0.599896  0.599883  1
  Dy  Dy1  1  0.599816  0.599896  0.200405  1
  Dy  Dy2  1  0.599797  0.200444  0.599879  1
  Dy  Dy3  1  0.198978  0.600447  0.600287  1
  Dy  Dy4  1  0.060773  0.439081  0.439153  1
  Dy  Dy5  1  0.439710  0.060017  0.060098  1
  Dy  Dy6  1  0.439710  0.060017  0.440175  1
  Dy  Dy7  1  0.060773  0.439081  0.060992  1
  Dy  Dy8  1  0.439770  0.440099  0.060066  1
  Dy  Dy9  1  0.060703  0.061035  0.439131  1
  Dy  Dy10  1  0.184094  0.812889  0.812893  1
  Dy  Dy11  1  0.811476  0.187684  0.187708  1
  Dy  Dy12  1  0.811476  0.187684  0.813132  1
  Dy  Dy13  1  0.184094  0.812889  0.190124  1
  Dy  Dy14  1  0.811449  0.813178  0.187686  1
  Dy  Dy15  1  0.184160  0.190121  0.812859  1
  In  In16  1  0.508404  0.830505  0.830545  1
  Hg  Hg17  1  0.834574  0.834471  0.834494  1
  Hg  Hg18  1  0.834574  0.834471  0.496461  1
  Hg  Hg19  1  0.834567  0.496483  0.834475  1
  Ir  Ir20  1  0.392276  0.391989  0.391973  1
  Ir  Ir21  1  0.392276  0.391989  0.823763  1
  Ir  Ir22  1  0.392359  0.823755  0.391943  1
  Ir  Ir23  1  0.824376  0.391880  0.391873  1
