# generated using pymatgen
data_Rb8Hf6BCl20
_symmetry_space_group_name_H-M   'P 1'
_cell_length_a   11.44034937
_cell_length_b   11.44034958
_cell_length_c   11.44034900
_cell_angle_alpha   59.99999880
_cell_angle_beta   59.99999818
_cell_angle_gamma   59.99999607
_symmetry_Int_Tables_number   1
_chemical_formula_structural   Rb8Hf6BCl20
_chemical_formula_sum   'Rb8 Hf6 B1 Cl20'
_cell_volume   1058.77294537
_cell_formula_units_Z   1
loop_
 _symmetry_equiv_pos_site_id
 _symmetry_equiv_pos_as_xyz
  1  'x, y, z'
loop_
 _atom_site_type_symbol
 _atom_site_label
 _atom_site_symmetry_multiplicity
 _atom_site_fract_x
 _atom_site_fract_y
 _atom_site_fract_z
 _atom_site_occupancy
  Rb  Rb0  1  0.360444  0.360444  0.360444  1
  Rb  Rb1  1  0.639556  0.639556  0.639556  1
  Rb  Rb2  1  0.360444  0.360444  0.918668  1
  Rb  Rb3  1  0.360444  0.918668  0.360444  1
  Rb  Rb4  1  0.639556  0.639556  0.081332  1
  Rb  Rb5  1  0.639556  0.081332  0.639556  1
  Rb  Rb6  1  0.918668  0.360444  0.360444  1
  Rb  Rb7  1  0.081332  0.639556  0.639556  1
  Hf  Hf8  1  0.860437  0.139563  0.139563  1
  Hf  Hf9  1  0.139563  0.860437  0.860437  1
  Hf  Hf10  1  0.139563  0.860437  0.139563  1
  Hf  Hf11  1  0.860437  0.139563  0.860437  1
  Hf  Hf12  1  0.139563  0.139563  0.860437  1
  Hf  Hf13  1  0.860437  0.860437  0.139563  1
  B  B14  1  0.000000  0.000000  0.000000  1
  Cl  Cl15  1  0.316470  0.000000  0.000000  1
  Cl  Cl16  1  0.683530  0.000000  0.000000  1
  Cl  Cl17  1  0.000000  0.316470  0.683530  1
  Cl  Cl18  1  0.000000  0.683530  0.316470  1
  Cl  Cl19  1  0.000000  0.316470  0.000000  1
  Cl  Cl20  1  0.683530  0.000000  0.316470  1
  Cl  Cl21  1  0.000000  0.683530  0.000000  1
  Cl  Cl22  1  0.316470  0.000000  0.683530  1
  Cl  Cl23  1  0.000000  0.000000  0.316470  1
  Cl  Cl24  1  0.000000  0.000000  0.683530  1
  Cl  Cl25  1  0.683530  0.316470  0.000000  1
  Cl  Cl26  1  0.316470  0.683530  0.000000  1
  Cl  Cl27  1  0.692622  0.307378  0.307378  1
  Cl  Cl28  1  0.307378  0.692622  0.692622  1
  Cl  Cl29  1  0.307378  0.692622  0.307378  1
  Cl  Cl30  1  0.692622  0.307378  0.692622  1
  Cl  Cl31  1  0.307378  0.307378  0.692622  1
  Cl  Cl32  1  0.692622  0.692622  0.307378  1
  Cl  Cl33  1  0.250000  0.250000  0.250000  1
  Cl  Cl34  1  0.750000  0.750000  0.750000  1
