# generated using pymatgen
data_Ho10In4NiHg4Pd3
_symmetry_space_group_name_H-M   'P 1'
_cell_length_a   3.62527000
_cell_length_b   7.89734852
_cell_length_c   18.21749605
_cell_angle_alpha   90.04019851
_cell_angle_beta   90.00000000
_cell_angle_gamma   90.00000000
_symmetry_Int_Tables_number   1
_chemical_formula_structural   Ho10In4NiHg4Pd3
_chemical_formula_sum   'Ho10 In4 Ni1 Hg4 Pd3'
_cell_volume   521.56715993
_cell_formula_units_Z   1
loop_
 _symmetry_equiv_pos_site_id
 _symmetry_equiv_pos_as_xyz
  1  'x, y, z'
loop_
 _atom_site_type_symbol
 _atom_site_label
 _atom_site_symmetry_multiplicity
 _atom_site_fract_x
 _atom_site_fract_y
 _atom_site_fract_z
 _atom_site_occupancy
  Ho  Ho0  1  0.000000  0.499401  0.499225  1
  Ho  Ho1  1  0.000000  0.999440  0.001014  1
  Ho  Ho2  1  0.000000  0.735617  0.279768  1
  Ho  Ho3  1  0.000000  0.256288  0.716686  1
  Ho  Ho4  1  0.000000  0.757161  0.783655  1
  Ho  Ho5  1  0.000000  0.253974  0.216180  1
  Ho  Ho6  1  0.000000  0.607072  0.089126  1
  Ho  Ho7  1  0.000000  0.390661  0.917316  1
  Ho  Ho8  1  0.000000  0.889217  0.583553  1
  Ho  Ho9  1  0.000000  0.110353  0.414578  1
  In  In10  1  0.500000  0.579726  0.648918  1
  In  In11  1  0.500000  0.421894  0.348239  1
  In  In12  1  0.500000  0.920128  0.149712  1
  In  In13  1  0.500000  0.080038  0.851356  1
  Ni  Ni14  1  0.500000  0.529181  0.197290  1
  Hg  Hg15  1  0.500000  0.713686  0.933911  1
  Hg  Hg16  1  0.500000  0.288120  0.068699  1
  Hg  Hg17  1  0.500000  0.785875  0.432307  1
  Hg  Hg18  1  0.500000  0.213530  0.566525  1
  Pd  Pd19  1  0.500000  0.468930  0.802950  1
  Pd  Pd20  1  0.500000  0.968696  0.697209  1
  Pd  Pd21  1  0.500000  0.031012  0.301784  1
