# generated using pymatgen
data_Yb6MnN5
_symmetry_space_group_name_H-M   'P 1'
_cell_length_a   6.14249900
_cell_length_b   6.14249910
_cell_length_c   12.14207900
_cell_angle_alpha   90.00000000
_cell_angle_beta   90.00000000
_cell_angle_gamma   120.00000486
_symmetry_Int_Tables_number   1
_chemical_formula_structural   Yb6MnN5
_chemical_formula_sum   'Yb12 Mn2 N10'
_cell_volume   396.74719078
_cell_formula_units_Z   2
loop_
 _symmetry_equiv_pos_site_id
 _symmetry_equiv_pos_as_xyz
  1  'x, y, z'
loop_
 _atom_site_type_symbol
 _atom_site_label
 _atom_site_symmetry_multiplicity
 _atom_site_fract_x
 _atom_site_fract_y
 _atom_site_fract_z
 _atom_site_occupancy
  Yb  Yb0  1  0.000000  0.396707  0.880327  1
  Yb  Yb1  1  0.603293  0.603293  0.880327  1
  Yb  Yb2  1  0.603293  0.000000  0.119673  1
  Yb  Yb3  1  0.396707  0.000000  0.619673  1
  Yb  Yb4  1  0.396707  0.396707  0.380327  1
  Yb  Yb5  1  0.603293  0.000000  0.380327  1
  Yb  Yb6  1  0.396707  0.396707  0.119673  1
  Yb  Yb7  1  0.000000  0.603293  0.119673  1
  Yb  Yb8  1  0.000000  0.396707  0.619673  1
  Yb  Yb9  1  0.603293  0.603293  0.619673  1
  Yb  Yb10  1  0.396707  0.000000  0.880327  1
  Yb  Yb11  1  0.000000  0.603293  0.380327  1
  Mn  Mn12  1  0.000000  0.000000  0.750000  1
  Mn  Mn13  1  0.000000  0.000000  0.250000  1
  N  N14  1  0.709938  0.000000  0.750000  1
  N  N15  1  0.290062  0.290062  0.750000  1
  N  N16  1  0.290062  0.000000  0.250000  1
  N  N17  1  0.666667  0.333333  0.500000  1
  N  N18  1  0.333333  0.666667  0.000000  1
  N  N19  1  0.333333  0.666667  0.500000  1
  N  N20  1  0.666667  0.333333  0.000000  1
  N  N21  1  0.709938  0.709938  0.250000  1
  N  N22  1  0.000000  0.290062  0.250000  1
  N  N23  1  0.000000  0.709938  0.750000  1
