# generated using pymatgen
data_Eu4SiNi3I2
_symmetry_space_group_name_H-M   'P 1'
_cell_length_a   4.14080600
_cell_length_b   4.14080620
_cell_length_c   17.44619500
_cell_angle_alpha   90.00000000
_cell_angle_beta   90.00000000
_cell_angle_gamma   119.99998240
_symmetry_Int_Tables_number   1
_chemical_formula_structural   Eu4SiNi3I2
_chemical_formula_sum   'Eu4 Si1 Ni3 I2'
_cell_volume   259.06051245
_cell_formula_units_Z   1
loop_
 _symmetry_equiv_pos_site_id
 _symmetry_equiv_pos_as_xyz
  1  'x, y, z'
loop_
 _atom_site_type_symbol
 _atom_site_label
 _atom_site_symmetry_multiplicity
 _atom_site_fract_x
 _atom_site_fract_y
 _atom_site_fract_z
 _atom_site_occupancy
  Eu  Eu0  1  0.000000  0.000000  0.106945  1
  Eu  Eu1  1  0.000000  0.000000  0.892504  1
  Eu  Eu2  1  0.000000  0.000000  0.609798  1
  Eu  Eu3  1  0.000000  0.000000  0.391093  1
  Si  Si4  1  0.333333  0.666667  0.502002  1
  Ni  Ni5  1  0.666667  0.333333  0.498798  1
  Ni  Ni6  1  0.666667  0.333333  0.000762  1
  Ni  Ni7  1  0.333333  0.666667  0.998851  1
  I  I8  1  0.333333  0.666667  0.249442  1
  I  I9  1  0.666667  0.333333  0.749804  1
