# generated using pymatgen
data_Lu5Pa5Ru6
_symmetry_space_group_name_H-M   'P 1'
_cell_length_a   6.40932100
_cell_length_b   7.90753107
_cell_length_c   8.07088558
_cell_angle_alpha   119.33270260
_cell_angle_beta   90.00000000
_cell_angle_gamma   90.00000000
_symmetry_Int_Tables_number   1
_chemical_formula_structural   Lu5Pa5Ru6
_chemical_formula_sum   'Lu5 Pa5 Ru6'
_cell_volume   356.60375094
_cell_formula_units_Z   1
loop_
 _symmetry_equiv_pos_site_id
 _symmetry_equiv_pos_as_xyz
  1  'x, y, z'
loop_
 _atom_site_type_symbol
 _atom_site_label
 _atom_site_symmetry_multiplicity
 _atom_site_fract_x
 _atom_site_fract_y
 _atom_site_fract_z
 _atom_site_occupancy
  Lu  Lu0  1  0.000272  0.668815  0.331125  1
  Lu  Lu1  1  0.000272  0.337689  0.668875  1
  Lu  Lu2  1  0.499728  0.337689  0.668875  1
  Lu  Lu3  1  0.499728  0.668815  0.331125  1
  Lu  Lu4  1  0.250000  0.743982  0.000000  1
  Pa  Pa5  1  0.750000  0.757609  0.759070  1
  Pa  Pa6  1  0.250000  0.240984  0.249871  1
  Pa  Pa7  1  0.750000  0.998538  0.240930  1
  Pa  Pa8  1  0.250000  0.991113  0.750129  1
  Pa  Pa9  1  0.750000  0.242201  0.000000  1
  Ru  Ru10  1  0.750000  0.362742  0.360550  1
  Ru  Ru11  1  0.250000  0.635608  0.609578  1
  Ru  Ru12  1  0.750000  0.002193  0.639450  1
  Ru  Ru13  1  0.250000  0.026030  0.390422  1
  Ru  Ru14  1  0.750000  0.633191  0.000000  1
  Ru  Ru15  1  0.250000  0.352798  0.000000  1
