# generated using pymatgen
data_Yb6MnOsN6
_symmetry_space_group_name_H-M   'P 1'
_cell_length_a   6.54620371
_cell_length_b   6.54620260
_cell_length_c   4.97316300
_cell_angle_alpha   90.00000000
_cell_angle_beta   90.00000000
_cell_angle_gamma   101.09889048
_symmetry_Int_Tables_number   1
_chemical_formula_structural   Yb6MnOsN6
_chemical_formula_sum   'Yb6 Mn1 Os1 N6'
_cell_volume   209.12784107
_cell_formula_units_Z   1
loop_
 _symmetry_equiv_pos_site_id
 _symmetry_equiv_pos_as_xyz
  1  'x, y, z'
loop_
 _atom_site_type_symbol
 _atom_site_label
 _atom_site_symmetry_multiplicity
 _atom_site_fract_x
 _atom_site_fract_y
 _atom_site_fract_z
 _atom_site_occupancy
  Yb  Yb0  1  0.669394  0.905703  0.750000  1
  Yb  Yb1  1  0.391316  0.608684  0.250000  1
  Yb  Yb2  1  0.904947  0.671490  0.250000  1
  Yb  Yb3  1  0.608474  0.391526  0.750000  1
  Yb  Yb4  1  0.328510  0.095053  0.250000  1
  Yb  Yb5  1  0.094297  0.330606  0.750000  1
  Mn  Mn6  1  0.196748  0.803252  0.750000  1
  Os  Os7  1  0.807987  0.192013  0.250000  1
  N  N8  1  0.671378  0.912282  0.250000  1
  N  N9  1  0.372994  0.627006  0.750000  1
  N  N10  1  0.616523  0.383477  0.250000  1
  N  N11  1  0.929076  0.679359  0.750000  1
  N  N12  1  0.320641  0.070924  0.750000  1
  N  N13  1  0.087718  0.328622  0.250000  1
