# generated using pymatgen
data_Tb8Lu9Sc3Si15Tc
_symmetry_space_group_name_H-M   'P 1'
_cell_length_a   7.22737760
_cell_length_b   7.63883082
_cell_length_c   14.26920600
_cell_angle_alpha   90.00000000
_cell_angle_beta   90.00000000
_cell_angle_gamma   90.16881053
_symmetry_Int_Tables_number   1
_chemical_formula_structural   Tb8Lu9Sc3Si15Tc
_chemical_formula_sum   'Tb8 Lu9 Sc3 Si15 Tc1'
_cell_volume   787.78110478
_cell_formula_units_Z   1
loop_
 _symmetry_equiv_pos_site_id
 _symmetry_equiv_pos_as_xyz
  1  'x, y, z'
loop_
 _atom_site_type_symbol
 _atom_site_label
 _atom_site_symmetry_multiplicity
 _atom_site_fract_x
 _atom_site_fract_y
 _atom_site_fract_z
 _atom_site_occupancy
  Tb  Tb0  1  0.016279  0.182734  0.097496  1
  Tb  Tb1  1  0.985721  0.827875  0.905068  1
  Tb  Tb2  1  0.485434  0.679394  0.904378  1
  Tb  Tb3  1  0.985721  0.827875  0.594932  1
  Tb  Tb4  1  0.514868  0.320440  0.097020  1
  Tb  Tb5  1  0.016279  0.182734  0.402504  1
  Tb  Tb6  1  0.514868  0.320440  0.402980  1
  Tb  Tb7  1  0.485434  0.679394  0.595622  1
  Lu  Lu8  1  0.153526  0.509565  0.750000  1
  Lu  Lu9  1  0.311513  0.171176  0.627373  1
  Lu  Lu10  1  0.676745  0.826102  0.373230  1
  Lu  Lu11  1  0.176525  0.678177  0.372878  1
  Lu  Lu12  1  0.676745  0.826102  0.126770  1
  Lu  Lu13  1  0.833591  0.314925  0.626535  1
  Lu  Lu14  1  0.311513  0.171176  0.872627  1
  Lu  Lu15  1  0.833591  0.314925  0.873465  1
  Lu  Lu16  1  0.176525  0.678177  0.127122  1
  Sc  Sc17  1  0.841152  0.487928  0.250000  1
  Sc  Sc18  1  0.341870  0.013707  0.250000  1
  Sc  Sc19  1  0.667421  0.991196  0.750000  1
  Si  Si20  1  0.977516  0.897799  0.250000  1
  Si  Si21  1  0.479514  0.602408  0.250000  1
  Si  Si22  1  0.526417  0.394110  0.750000  1
  Si  Si23  1  0.285488  0.866490  0.750000  1
  Si  Si24  1  0.715344  0.135373  0.250000  1
  Si  Si25  1  0.217547  0.365848  0.250000  1
  Si  Si26  1  0.771790  0.631677  0.750000  1
  Si  Si27  1  0.157653  0.471942  0.536503  1
  Si  Si28  1  0.846651  0.533223  0.460292  1
  Si  Si29  1  0.346026  0.968808  0.458487  1
  Si  Si30  1  0.846651  0.533223  0.039708  1
  Si  Si31  1  0.649464  0.031113  0.538858  1
  Si  Si32  1  0.157653  0.471942  0.963497  1
  Si  Si33  1  0.649464  0.031113  0.961142  1
  Si  Si34  1  0.346026  0.968808  0.041513  1
  Tc  Tc35  1  0.021473  0.092080  0.750000  1
