# generated using pymatgen
data_NdTh3(TcB2)6
_symmetry_space_group_name_H-M   'P 1'
_cell_length_a   6.32784846
_cell_length_b   6.32150199
_cell_length_c   7.64999333
_cell_angle_alpha   90.68003507
_cell_angle_beta   90.92525039
_cell_angle_gamma   114.93247348
_symmetry_Int_Tables_number   1
_chemical_formula_structural   NdTh3(TcB2)6
_chemical_formula_sum   'Nd1 Th3 Tc6 B12'
_cell_volume   277.39756693
_cell_formula_units_Z   1
loop_
 _symmetry_equiv_pos_site_id
 _symmetry_equiv_pos_as_xyz
  1  'x, y, z'
loop_
 _atom_site_type_symbol
 _atom_site_label
 _atom_site_symmetry_multiplicity
 _atom_site_fract_x
 _atom_site_fract_y
 _atom_site_fract_z
 _atom_site_occupancy
  Nd  Nd0  1  0.437853  0.095621  0.823808  1
  Th  Th1  1  0.095308  0.438876  0.326220  1
  Th  Th2  1  0.561992  0.906562  0.172914  1
  Th  Th3  1  0.905345  0.561543  0.674979  1
  Tc  Tc4  1  0.588077  0.412604  0.250611  1
  Tc  Tc5  1  0.411637  0.586498  0.749308  1
  Tc  Tc6  1  0.989608  0.803086  0.087774  1
  Tc  Tc7  1  0.196088  0.009658  0.411515  1
  Tc  Tc8  1  0.009286  0.196738  0.913408  1
  Tc  Tc9  1  0.805153  0.991245  0.587948  1
  B  B10  1  0.244708  0.152415  0.130674  1
  B  B11  1  0.846987  0.754846  0.367782  1
  B  B12  1  0.755956  0.847411  0.866987  1
  B  B13  1  0.154453  0.245742  0.633340  1
  B  B14  1  0.581299  0.159531  0.483153  1
  B  B15  1  0.839329  0.416245  0.018136  1
  B  B16  1  0.418062  0.839339  0.518100  1
  B  B17  1  0.160681  0.582617  0.982785  1
  B  B18  1  0.443277  0.349392  0.533721  1
  B  B19  1  0.649421  0.555824  0.967144  1
  B  B20  1  0.555773  0.650503  0.466843  1
  B  B21  1  0.349708  0.443704  0.032849  1
