# generated using pymatgen
data_La5Mo3(P3Rh4)4
_symmetry_space_group_name_H-M   'P 1'
_cell_length_a   12.80998500
_cell_length_b   12.80998488
_cell_length_c   3.92139700
_cell_angle_alpha   90.00000000
_cell_angle_beta   90.00000000
_cell_angle_gamma   120.00000290
_symmetry_Int_Tables_number   1
_chemical_formula_structural   La5Mo3(P3Rh4)4
_chemical_formula_sum   'La5 Mo3 P12 Rh16'
_cell_volume   557.27385656
_cell_formula_units_Z   1
loop_
 _symmetry_equiv_pos_site_id
 _symmetry_equiv_pos_as_xyz
  1  'x, y, z'
loop_
 _atom_site_type_symbol
 _atom_site_label
 _atom_site_symmetry_multiplicity
 _atom_site_fract_x
 _atom_site_fract_y
 _atom_site_fract_z
 _atom_site_occupancy
  La  La0  1  0.187361  0.187361  0.500000  1
  La  La1  1  0.812639  0.000000  0.500000  1
  La  La2  1  0.000000  0.812639  0.500000  1
  La  La3  1  0.333333  0.666667  0.000000  1
  La  La4  1  0.666667  0.333333  0.000000  1
  Mo  Mo5  1  0.549957  0.549957  0.000000  1
  Mo  Mo6  1  0.450043  0.000000  0.000000  1
  Mo  Mo7  1  0.000000  0.450043  0.000000  1
  P  P8  1  0.820490  0.820490  0.000000  1
  P  P9  1  0.179510  0.000000  0.000000  1
  P  P10  1  0.000000  0.179510  0.000000  1
  P  P11  1  0.161529  0.480634  0.500000  1
  P  P12  1  0.519366  0.680894  0.500000  1
  P  P13  1  0.319106  0.838471  0.500000  1
  P  P14  1  0.680894  0.519366  0.500000  1
  P  P15  1  0.838471  0.319106  0.500000  1
  P  P16  1  0.480634  0.161529  0.500000  1
  P  P17  1  0.367079  0.367079  0.000000  1
  P  P18  1  0.632921  0.000000  0.000000  1
  P  P19  1  0.000000  0.632921  0.000000  1
  Rh  Rh20  1  0.715667  0.715667  0.500000  1
  Rh  Rh21  1  0.284333  0.000000  0.500000  1
  Rh  Rh22  1  0.000000  0.284333  0.500000  1
  Rh  Rh23  1  0.177109  0.377304  0.000000  1
  Rh  Rh24  1  0.622696  0.799806  0.000000  1
  Rh  Rh25  1  0.200194  0.822891  0.000000  1
  Rh  Rh26  1  0.799806  0.622696  0.000000  1
  Rh  Rh27  1  0.822891  0.200194  0.000000  1
  Rh  Rh28  1  0.377304  0.177109  0.000000  1
  Rh  Rh29  1  0.356616  0.484930  0.500000  1
  Rh  Rh30  1  0.515070  0.871687  0.500000  1
  Rh  Rh31  1  0.128313  0.643384  0.500000  1
  Rh  Rh32  1  0.871687  0.515070  0.500000  1
  Rh  Rh33  1  0.643384  0.128313  0.500000  1
  Rh  Rh34  1  0.484930  0.356616  0.500000  1
  Rh  Rh35  1  0.000000  0.000000  0.000000  1
