# generated using pymatgen
data_LiSc12InNi4
_symmetry_space_group_name_H-M   'P 1'
_cell_length_a   7.79791434
_cell_length_b   7.79791417
_cell_length_c   7.79791453
_cell_angle_alpha   111.76225384
_cell_angle_beta   110.87376647
_cell_angle_gamma   105.83892075
_symmetry_Int_Tables_number   1
_chemical_formula_structural   LiSc12InNi4
_chemical_formula_sum   'Li1 Sc12 In1 Ni4'
_cell_volume   363.90261356
_cell_formula_units_Z   1
loop_
 _symmetry_equiv_pos_site_id
 _symmetry_equiv_pos_as_xyz
  1  'x, y, z'
loop_
 _atom_site_type_symbol
 _atom_site_label
 _atom_site_symmetry_multiplicity
 _atom_site_fract_x
 _atom_site_fract_y
 _atom_site_fract_z
 _atom_site_occupancy
  Li  Li0  1  0.000000  0.000000  0.000000  1
  Sc  Sc1  1  0.430859  0.229747  0.201112  1
  Sc  Sc2  1  0.569141  0.770253  0.798888  1
  Sc  Sc3  1  0.028635  0.229747  0.798888  1
  Sc  Sc4  1  0.971365  0.770253  0.201112  1
  Sc  Sc5  1  0.321802  0.621067  0.299265  1
  Sc  Sc6  1  0.678198  0.378933  0.700735  1
  Sc  Sc7  1  0.321802  0.022537  0.700735  1
  Sc  Sc8  1  0.678198  0.977463  0.299265  1
  Sc  Sc9  1  0.185866  0.290045  0.475912  1
  Sc  Sc10  1  0.814134  0.709954  0.524088  1
  Sc  Sc11  1  0.185866  0.709954  0.895821  1
  Sc  Sc12  1  0.814134  0.290045  0.104179  1
  In  In13  1  0.500000  0.500000  0.000000  1
  Ni  Ni14  1  0.351373  0.000000  0.351373  1
  Ni  Ni15  1  0.648627  0.000000  0.648627  1
  Ni  Ni16  1  0.128658  0.628658  0.500000  1
  Ni  Ni17  1  0.871342  0.371342  0.500000  1
