# generated using pymatgen
data_Tm3LuGa2(B2Rh5)2
_symmetry_space_group_name_H-M   'P 1'
_cell_length_a   9.43101470
_cell_length_b   9.43101470
_cell_length_c   3.18401400
_cell_angle_alpha   90.00000000
_cell_angle_beta   90.00000000
_cell_angle_gamma   90.04411847
_symmetry_Int_Tables_number   1
_chemical_formula_structural   Tm3LuGa2(B2Rh5)2
_chemical_formula_sum   'Tm3 Lu1 Ga2 B4 Rh10'
_cell_volume   283.19897905
_cell_formula_units_Z   1
loop_
 _symmetry_equiv_pos_site_id
 _symmetry_equiv_pos_as_xyz
  1  'x, y, z'
loop_
 _atom_site_type_symbol
 _atom_site_label
 _atom_site_symmetry_multiplicity
 _atom_site_fract_x
 _atom_site_fract_y
 _atom_site_fract_z
 _atom_site_occupancy
  Tm  Tm0  1  0.825644  0.325644  0.000000  1
  Tm  Tm1  1  0.325487  0.174480  0.000000  1
  Tm  Tm2  1  0.674480  0.825487  0.000000  1
  Lu  Lu3  1  0.174423  0.674423  0.000000  1
  Ga  Ga4  1  0.000004  0.000014  0.000000  1
  Ga  Ga5  1  0.500014  0.500004  0.000000  1
  B  B6  1  0.623338  0.123338  0.000000  1
  B  B7  1  0.123311  0.376951  0.000000  1
  B  B8  1  0.876951  0.623311  0.000000  1
  B  B9  1  0.376376  0.876376  0.000000  1
  Rh  Rh10  1  0.070783  0.218202  0.500000  1
  Rh  Rh11  1  0.218063  0.928707  0.500000  1
  Rh  Rh12  1  0.781756  0.070736  0.500000  1
  Rh  Rh13  1  0.929643  0.781754  0.500000  1
  Rh  Rh14  1  0.428707  0.718063  0.500000  1
  Rh  Rh15  1  0.570736  0.281756  0.500000  1
  Rh  Rh16  1  0.718202  0.570783  0.500000  1
  Rh  Rh17  1  0.281754  0.429643  0.500000  1
  Rh  Rh18  1  0.499947  0.999947  0.500000  1
  Rh  Rh19  1  0.000381  0.500381  0.500000  1
