# generated using pymatgen
data_Zr6Zn6O
_symmetry_space_group_name_H-M   'P 1'
_cell_length_a   8.55115125
_cell_length_b   8.55115171
_cell_length_c   8.55115100
_cell_angle_alpha   59.99999888
_cell_angle_beta   59.99999711
_cell_angle_gamma   59.99999761
_symmetry_Int_Tables_number   1
_chemical_formula_structural   Zr6Zn6O
_chemical_formula_sum   'Zr12 Zn12 O2'
_cell_volume   442.13893053
_cell_formula_units_Z   2
loop_
 _symmetry_equiv_pos_site_id
 _symmetry_equiv_pos_as_xyz
  1  'x, y, z'
loop_
 _atom_site_type_symbol
 _atom_site_label
 _atom_site_symmetry_multiplicity
 _atom_site_fract_x
 _atom_site_fract_y
 _atom_site_fract_z
 _atom_site_occupancy
  Zr  Zr0  1  0.193176  0.806824  0.193176  1
  Zr  Zr1  1  0.443176  0.056824  0.443176  1
  Zr  Zr2  1  0.443176  0.056824  0.056824  1
  Zr  Zr3  1  0.443176  0.443176  0.056824  1
  Zr  Zr4  1  0.193176  0.806824  0.806824  1
  Zr  Zr5  1  0.056824  0.443176  0.056824  1
  Zr  Zr6  1  0.806824  0.806824  0.193176  1
  Zr  Zr7  1  0.056824  0.443176  0.443176  1
  Zr  Zr8  1  0.193176  0.193176  0.806824  1
  Zr  Zr9  1  0.806824  0.193176  0.193176  1
  Zr  Zr10  1  0.806824  0.193176  0.806824  1
  Zr  Zr11  1  0.056824  0.056824  0.443176  1
  Zn  Zn12  1  0.831941  0.504178  0.831941  1
  Zn  Zn13  1  0.418059  0.418059  0.745822  1
  Zn  Zn14  1  0.745822  0.418059  0.418059  1
  Zn  Zn15  1  0.418059  0.418059  0.418059  1
  Zn  Zn16  1  0.831941  0.831941  0.504178  1
  Zn  Zn17  1  0.418059  0.745822  0.418059  1
  Zn  Zn18  1  0.831941  0.831941  0.831941  1
  Zn  Zn19  1  0.504178  0.831941  0.831941  1
  Zn  Zn20  1  0.625000  0.125000  0.625000  1
  Zn  Zn21  1  0.625000  0.625000  0.125000  1
  Zn  Zn22  1  0.125000  0.625000  0.625000  1
  Zn  Zn23  1  0.625000  0.625000  0.625000  1
  O  O24  1  0.000000  0.000000  0.000000  1
  O  O25  1  0.250000  0.250000  0.250000  1
