# generated using pymatgen
data_NaV9Se16
_symmetry_space_group_name_H-M   'P 1'
_cell_length_a   6.72861100
_cell_length_b   6.72861207
_cell_length_c   13.99876500
_cell_angle_alpha   90.00000000
_cell_angle_beta   90.00000000
_cell_angle_gamma   119.99999968
_symmetry_Int_Tables_number   1
_chemical_formula_structural   NaV9Se16
_chemical_formula_sum   'Na1 V9 Se16'
_cell_volume   548.87224140
_cell_formula_units_Z   1
loop_
 _symmetry_equiv_pos_site_id
 _symmetry_equiv_pos_as_xyz
  1  'x, y, z'
loop_
 _atom_site_type_symbol
 _atom_site_label
 _atom_site_symmetry_multiplicity
 _atom_site_fract_x
 _atom_site_fract_y
 _atom_site_fract_z
 _atom_site_occupancy
  Na  Na0  1  0.000000  0.000000  0.000000  1
  V  V1  1  0.000000  0.000000  0.273650  1
  V  V2  1  0.000000  0.000000  0.726350  1
  V  V3  1  0.508260  0.016520  0.273161  1
  V  V4  1  0.491740  0.983480  0.726839  1
  V  V5  1  0.983480  0.491740  0.273161  1
  V  V6  1  0.016520  0.508260  0.726839  1
  V  V7  1  0.508260  0.491740  0.273161  1
  V  V8  1  0.491740  0.508260  0.726839  1
  V  V9  1  0.000000  0.000000  0.500000  1
  Se  Se10  1  0.333333  0.666667  0.610683  1
  Se  Se11  1  0.666667  0.333333  0.389317  1
  Se  Se12  1  0.666667  0.333333  0.155727  1
  Se  Se13  1  0.333333  0.666667  0.844273  1
  Se  Se14  1  0.167894  0.335788  0.161683  1
  Se  Se15  1  0.832106  0.664212  0.838317  1
  Se  Se16  1  0.664212  0.832106  0.161683  1
  Se  Se17  1  0.832587  0.665174  0.616084  1
  Se  Se18  1  0.335788  0.167894  0.838317  1
  Se  Se19  1  0.167413  0.334826  0.383916  1
  Se  Se20  1  0.167894  0.832106  0.161683  1
  Se  Se21  1  0.334826  0.167413  0.616084  1
  Se  Se22  1  0.832106  0.167894  0.838317  1
  Se  Se23  1  0.665174  0.832587  0.383916  1
  Se  Se24  1  0.832587  0.167413  0.616084  1
  Se  Se25  1  0.167413  0.832587  0.383916  1
