# generated using pymatgen
data_Tb16Tl3InPd3Rh
_symmetry_space_group_name_H-M   'P 1'
_cell_length_a   9.80145248
_cell_length_b   9.77631572
_cell_length_c   9.77631400
_cell_angle_alpha   60.00000582
_cell_angle_beta   60.08480573
_cell_angle_gamma   60.08480159
_symmetry_Int_Tables_number   1
_chemical_formula_structural   Tb16Tl3InPd3Rh
_chemical_formula_sum   'Tb16 Tl3 In1 Pd3 Rh1'
_cell_volume   663.25619386
_cell_formula_units_Z   1
loop_
 _symmetry_equiv_pos_site_id
 _symmetry_equiv_pos_as_xyz
  1  'x, y, z'
loop_
 _atom_site_type_symbol
 _atom_site_label
 _atom_site_symmetry_multiplicity
 _atom_site_fract_x
 _atom_site_fract_y
 _atom_site_fract_z
 _atom_site_occupancy
  Tb  Tb0  1  0.811935  0.809619  0.189223  1
  Tb  Tb1  1  0.811935  0.189223  0.809619  1
  Tb  Tb2  1  0.193152  0.183984  0.811432  1
  Tb  Tb3  1  0.644106  0.055195  0.650350  1
  Tb  Tb4  1  0.059353  0.063198  0.438725  1
  Tb  Tb5  1  0.437490  0.439937  0.061286  1
  Tb  Tb6  1  0.644106  0.650350  0.650350  1
  Tb  Tb7  1  0.811935  0.189223  0.189223  1
  Tb  Tb8  1  0.193152  0.811432  0.811432  1
  Tb  Tb9  1  0.059256  0.646915  0.646915  1
  Tb  Tb10  1  0.437490  0.061286  0.061286  1
  Tb  Tb11  1  0.437490  0.061286  0.439937  1
  Tb  Tb12  1  0.059353  0.438725  0.063198  1
  Tb  Tb13  1  0.644106  0.650350  0.055195  1
  Tb  Tb14  1  0.193152  0.811432  0.183984  1
  Tb  Tb15  1  0.059353  0.438725  0.438725  1
  Tl  Tl16  1  0.415539  0.414506  0.414506  1
  Tl  Tl17  1  0.415539  0.414506  0.755447  1
  Tl  Tl18  1  0.415539  0.755447  0.414506  1
  In  In19  1  0.752407  0.415864  0.415864  1
  Pd  Pd20  1  0.857183  0.432384  0.855217  1
  Pd  Pd21  1  0.857183  0.855217  0.855217  1
  Pd  Pd22  1  0.857183  0.855217  0.432384  1
  Rh  Rh23  1  0.432065  0.855979  0.855979  1
