# generated using pymatgen
data_Dy3Er5VOs3C8
_symmetry_space_group_name_H-M   'P 1'
_cell_length_a   5.06557700
_cell_length_b   6.49897734
_cell_length_c   9.75970952
_cell_angle_alpha   89.74248979
_cell_angle_beta   90.00000000
_cell_angle_gamma   90.00000000
_symmetry_Int_Tables_number   1
_chemical_formula_structural   Dy3Er5VOs3C8
_chemical_formula_sum   'Dy3 Er5 V1 Os3 C8'
_cell_volume   321.29683654
_cell_formula_units_Z   1
loop_
 _symmetry_equiv_pos_site_id
 _symmetry_equiv_pos_as_xyz
  1  'x, y, z'
loop_
 _atom_site_type_symbol
 _atom_site_label
 _atom_site_symmetry_multiplicity
 _atom_site_fract_x
 _atom_site_fract_y
 _atom_site_fract_z
 _atom_site_occupancy
  Dy  Dy0  1  0.750000  0.468725  0.780294  1
  Dy  Dy1  1  0.750000  0.973217  0.716300  1
  Dy  Dy2  1  0.250000  0.029067  0.283272  1
  Er  Er3  1  0.250000  0.683001  0.558164  1
  Er  Er4  1  0.750000  0.321592  0.443884  1
  Er  Er5  1  0.750000  0.819635  0.055253  1
  Er  Er6  1  0.250000  0.175300  0.942302  1
  Er  Er7  1  0.250000  0.532548  0.213682  1
  V  V8  1  0.250000  0.723732  0.866597  1
  Os  Os9  1  0.750000  0.277578  0.134351  1
  Os  Os10  1  0.750000  0.776306  0.364679  1
  Os  Os11  1  0.250000  0.226402  0.634498  1
  C  C12  1  0.250000  0.459472  0.762498  1
  C  C13  1  0.750000  0.541969  0.241909  1
  C  C14  1  0.750000  0.042571  0.259039  1
  C  C15  1  0.250000  0.956924  0.741251  1
  C  C16  1  0.250000  0.818986  0.051841  1
  C  C17  1  0.750000  0.173220  0.950960  1
  C  C18  1  0.750000  0.674553  0.550944  1
  C  C19  1  0.250000  0.325205  0.448279  1
