# generated using pymatgen
data_AcNdY2(WN3)4
_symmetry_space_group_name_H-M   'P 1'
_cell_length_a   7.36107567
_cell_length_b   7.36107578
_cell_length_c   6.29499300
_cell_angle_alpha   74.85773838
_cell_angle_beta   74.85774622
_cell_angle_gamma   83.11394353
_symmetry_Int_Tables_number   1
_chemical_formula_structural   AcNdY2(WN3)4
_chemical_formula_sum   'Ac1 Nd1 Y2 W4 N12'
_cell_volume   317.33362713
_cell_formula_units_Z   1
loop_
 _symmetry_equiv_pos_site_id
 _symmetry_equiv_pos_as_xyz
  1  'x, y, z'
loop_
 _atom_site_type_symbol
 _atom_site_label
 _atom_site_symmetry_multiplicity
 _atom_site_fract_x
 _atom_site_fract_y
 _atom_site_fract_z
 _atom_site_occupancy
  Ac  Ac0  1  0.305187  0.694813  0.250000  1
  Nd  Nd1  1  0.697280  0.302720  0.750000  1
  Y  Y2  1  0.083480  0.916520  0.750000  1
  Y  Y3  1  0.907570  0.092430  0.250000  1
  W  W4  1  0.378988  0.197233  0.258693  1
  W  W5  1  0.623919  0.800498  0.737334  1
  W  W6  1  0.802767  0.621012  0.241307  1
  W  W7  1  0.199502  0.376081  0.762666  1
  N  N8  1  0.616070  0.102164  0.166147  1
  N  N9  1  0.365545  0.336014  0.488027  1
  N  N10  1  0.000183  0.216490  0.856630  1
  N  N11  1  0.384244  0.888285  0.824456  1
  N  N12  1  0.783510  0.999817  0.643370  1
  N  N13  1  0.111715  0.615756  0.675544  1
  N  N14  1  0.897836  0.383930  0.333853  1
  N  N15  1  0.634167  0.652252  0.518015  1
  N  N16  1  0.663986  0.634455  0.011973  1
  N  N17  1  0.347748  0.365833  0.981985  1
  N  N18  1  0.989483  0.793181  0.142467  1
  N  N19  1  0.206819  0.010517  0.357533  1
