# generated using pymatgen
data_Yb7ThP6
_symmetry_space_group_name_H-M   'P 1'
_cell_length_a   7.53262772
_cell_length_b   7.53262806
_cell_length_c   7.47372000
_cell_angle_alpha   109.31288738
_cell_angle_beta   109.31288828
_cell_angle_gamma   109.62908311
_symmetry_Int_Tables_number   1
_chemical_formula_structural   Yb7ThP6
_chemical_formula_sum   'Yb7 Th1 P6'
_cell_volume   327.07917031
_cell_formula_units_Z   1
loop_
 _symmetry_equiv_pos_site_id
 _symmetry_equiv_pos_as_xyz
  1  'x, y, z'
loop_
 _atom_site_type_symbol
 _atom_site_label
 _atom_site_symmetry_multiplicity
 _atom_site_fract_x
 _atom_site_fract_y
 _atom_site_fract_z
 _atom_site_occupancy
  Yb  Yb0  1  0.639183  0.638090  0.639431  1
  Yb  Yb1  1  0.014450  0.378351  0.509801  1
  Yb  Yb2  1  0.363901  0.485550  0.995351  1
  Yb  Yb3  1  0.998907  0.860817  0.500249  1
  Yb  Yb4  1  0.861910  0.501093  0.001342  1
  Yb  Yb5  1  0.500000  0.000000  0.861511  1
  Yb  Yb6  1  0.121649  0.136099  0.131450  1
  Th  Th7  1  0.500000  0.000000  0.355621  1
  P  P8  1  0.869326  0.123762  0.742209  1
  P  P9  1  0.376238  0.245564  0.618447  1
  P  P10  1  0.131669  0.757495  0.886956  1
  P  P11  1  0.742505  0.874174  0.129463  1
  P  P12  1  0.254436  0.630674  0.372883  1
  P  P13  1  0.625826  0.368331  0.255288  1
