# generated using pymatgen
data_Sc4Hg2S
_symmetry_space_group_name_H-M   'P 1'
_cell_length_a   9.44046207
_cell_length_b   9.44046104
_cell_length_c   9.44046100
_cell_angle_alpha   59.99999665
_cell_angle_beta   60.00000026
_cell_angle_gamma   60.00000061
_symmetry_Int_Tables_number   1
_chemical_formula_structural   Sc4Hg2S
_chemical_formula_sum   'Sc16 Hg8 S4'
_cell_volume   594.92833350
_cell_formula_units_Z   4
loop_
 _symmetry_equiv_pos_site_id
 _symmetry_equiv_pos_as_xyz
  1  'x, y, z'
loop_
 _atom_site_type_symbol
 _atom_site_label
 _atom_site_symmetry_multiplicity
 _atom_site_fract_x
 _atom_site_fract_y
 _atom_site_fract_z
 _atom_site_occupancy
  Sc  Sc0  1  0.125000  0.625000  0.625000  1
  Sc  Sc1  1  0.625000  0.125000  0.625000  1
  Sc  Sc2  1  0.625000  0.625000  0.125000  1
  Sc  Sc3  1  0.625000  0.625000  0.625000  1
  Sc  Sc4  1  0.803693  0.803693  0.196307  1
  Sc  Sc5  1  0.196307  0.196307  0.803693  1
  Sc  Sc6  1  0.803693  0.196307  0.803693  1
  Sc  Sc7  1  0.196307  0.803693  0.196307  1
  Sc  Sc8  1  0.196307  0.803693  0.803693  1
  Sc  Sc9  1  0.803693  0.196307  0.196307  1
  Sc  Sc10  1  0.446307  0.446307  0.053693  1
  Sc  Sc11  1  0.053693  0.053693  0.446307  1
  Sc  Sc12  1  0.446307  0.053693  0.446307  1
  Sc  Sc13  1  0.053693  0.446307  0.053693  1
  Sc  Sc14  1  0.053693  0.446307  0.446307  1
  Sc  Sc15  1  0.446307  0.053693  0.053693  1
  Hg  Hg16  1  0.781664  0.406112  0.406112  1
  Hg  Hg17  1  0.406112  0.781664  0.406112  1
  Hg  Hg18  1  0.406112  0.406112  0.781664  1
  Hg  Hg19  1  0.406112  0.406112  0.406112  1
  Hg  Hg20  1  0.468336  0.843888  0.843888  1
  Hg  Hg21  1  0.843888  0.468336  0.843888  1
  Hg  Hg22  1  0.843888  0.843888  0.468336  1
  Hg  Hg23  1  0.843888  0.843888  0.843888  1
  S  S24  1  0.625000  0.125000  0.125000  1
  S  S25  1  0.125000  0.625000  0.125000  1
  S  S26  1  0.125000  0.125000  0.625000  1
  S  S27  1  0.125000  0.125000  0.125000  1
