# generated using pymatgen
data_Tb2DyNbIn2Ir3
_symmetry_space_group_name_H-M   'P 1'
_cell_length_a   7.34857604
_cell_length_b   7.07473529
_cell_length_c   4.26764100
_cell_angle_alpha   90.00000000
_cell_angle_beta   90.00000000
_cell_angle_gamma   118.77476454
_symmetry_Int_Tables_number   1
_chemical_formula_structural   Tb2DyNbIn2Ir3
_chemical_formula_sum   'Tb2 Dy1 Nb1 In2 Ir3'
_cell_volume   194.47442307
_cell_formula_units_Z   1
loop_
 _symmetry_equiv_pos_site_id
 _symmetry_equiv_pos_as_xyz
  1  'x, y, z'
loop_
 _atom_site_type_symbol
 _atom_site_label
 _atom_site_symmetry_multiplicity
 _atom_site_fract_x
 _atom_site_fract_y
 _atom_site_fract_z
 _atom_site_occupancy
  Tb  Tb0  1  0.588189  0.586462  0.000000  1
  Tb  Tb1  1  0.411811  0.998273  0.000000  1
  Dy  Dy2  1  0.000000  0.402622  0.000000  1
  Nb  Nb3  1  0.000000  0.753442  0.500000  1
  In  In4  1  0.249821  0.250938  0.500000  1
  In  In5  1  0.750179  0.001117  0.500000  1
  Ir  Ir6  1  0.000000  0.963128  0.000000  1
  Ir  Ir7  1  0.686775  0.365395  0.500000  1
  Ir  Ir8  1  0.313225  0.678621  0.500000  1
