# generated using pymatgen
data_Sc(AlCu)6
_symmetry_space_group_name_H-M   'P 1'
_cell_length_a   6.55307964
_cell_length_b   6.55307933
_cell_length_c   6.55308057
_cell_angle_alpha   134.64393595
_cell_angle_beta   99.19198226
_cell_angle_gamma   97.90656930
_symmetry_Int_Tables_number   1
_chemical_formula_structural   Sc(AlCu)6
_chemical_formula_sum   'Sc1 Al6 Cu6'
_cell_volume   184.72286271
_cell_formula_units_Z   1
loop_
 _symmetry_equiv_pos_site_id
 _symmetry_equiv_pos_as_xyz
  1  'x, y, z'
loop_
 _atom_site_type_symbol
 _atom_site_label
 _atom_site_symmetry_multiplicity
 _atom_site_fract_x
 _atom_site_fract_y
 _atom_site_fract_z
 _atom_site_occupancy
  Sc  Sc0  1  0.000000  0.000000  0.000000  1
  Al  Al1  1  0.344510  0.344510  0.000000  1
  Al  Al2  1  0.655490  0.655490  0.000000  1
  Al  Al3  1  0.655456  0.000000  0.655456  1
  Al  Al4  1  0.344544  0.000000  0.344544  1
  Al  Al5  1  0.812243  0.312243  0.500000  1
  Al  Al6  1  0.187757  0.687757  0.500000  1
  Cu  Cu7  1  0.500000  0.000000  0.000000  1
  Cu  Cu8  1  0.500000  0.500000  0.500000  1
  Cu  Cu9  1  0.000000  0.000000  0.500000  1
  Cu  Cu10  1  0.000000  0.500000  0.000000  1
  Cu  Cu11  1  0.235866  0.500000  0.735866  1
  Cu  Cu12  1  0.764134  0.500000  0.264134  1
