# generated using pymatgen
data_Dy2TcB8Ir
_symmetry_space_group_name_H-M   'P 1'
_cell_length_a   3.58313700
_cell_length_b   5.97159977
_cell_length_c   11.57419838
_cell_angle_alpha   89.71386979
_cell_angle_beta   90.00000000
_cell_angle_gamma   90.00000000
_symmetry_Int_Tables_number   1
_chemical_formula_structural   Dy2TcB8Ir
_chemical_formula_sum   'Dy4 Tc2 B16 Ir2'
_cell_volume   247.65073008
_cell_formula_units_Z   2
loop_
 _symmetry_equiv_pos_site_id
 _symmetry_equiv_pos_as_xyz
  1  'x, y, z'
loop_
 _atom_site_type_symbol
 _atom_site_label
 _atom_site_symmetry_multiplicity
 _atom_site_fract_x
 _atom_site_fract_y
 _atom_site_fract_z
 _atom_site_occupancy
  Dy  Dy0  1  0.000000  0.129166  0.650292  1
  Dy  Dy1  1  0.000000  0.870834  0.349708  1
  Dy  Dy2  1  0.000000  0.628366  0.851901  1
  Dy  Dy3  1  0.000000  0.371634  0.148099  1
  Tc  Tc4  1  0.000000  0.134048  0.910790  1
  Tc  Tc5  1  0.000000  0.865952  0.089210  1
  B  B6  1  0.500000  0.474792  0.692576  1
  B  B7  1  0.500000  0.525208  0.307424  1
  B  B8  1  0.500000  0.976233  0.808162  1
  B  B9  1  0.500000  0.023767  0.191838  1
  B  B10  1  0.500000  0.287940  0.814350  1
  B  B11  1  0.500000  0.712060  0.185650  1
  B  B12  1  0.500000  0.790428  0.686811  1
  B  B13  1  0.500000  0.209572  0.313189  1
  B  B14  1  0.500000  0.364402  0.969107  1
  B  B15  1  0.500000  0.635598  0.030893  1
  B  B16  1  0.500000  0.863996  0.530632  1
  B  B17  1  0.500000  0.136004  0.469368  1
  B  B18  1  0.500000  0.387380  0.547424  1
  B  B19  1  0.500000  0.612620  0.452576  1
  B  B20  1  0.500000  0.887469  0.953713  1
  B  B21  1  0.500000  0.112531  0.046287  1
  Ir  Ir22  1  0.000000  0.643738  0.595415  1
  Ir  Ir23  1  0.000000  0.356262  0.404585  1
