# generated using pymatgen
data_Nd12Sn(OsI4)3
_symmetry_space_group_name_H-M   'P 1'
_cell_length_a   11.06923241
_cell_length_b   11.06848485
_cell_length_c   11.06923076
_cell_angle_alpha   110.23878701
_cell_angle_beta   110.25592354
_cell_angle_gamma   110.24768414
_symmetry_Int_Tables_number   1
_chemical_formula_structural   Nd12Sn(OsI4)3
_chemical_formula_sum   'Nd12 Sn1 Os3 I12'
_cell_volume   1012.88784340
_cell_formula_units_Z   1
loop_
 _symmetry_equiv_pos_site_id
 _symmetry_equiv_pos_as_xyz
  1  'x, y, z'
loop_
 _atom_site_type_symbol
 _atom_site_label
 _atom_site_symmetry_multiplicity
 _atom_site_fract_x
 _atom_site_fract_y
 _atom_site_fract_z
 _atom_site_occupancy
  Nd  Nd0  1  0.463074  0.498710  0.218940  1
  Nd  Nd1  1  0.749992  0.225241  0.274746  1
  Nd  Nd2  1  0.749975  0.019135  0.480821  1
  Nd  Nd3  1  0.218940  0.463069  0.498702  1
  Nd  Nd4  1  0.274761  0.750003  0.225245  1
  Nd  Nd5  1  0.036936  0.281083  0.001293  1
  Nd  Nd6  1  0.001293  0.036947  0.281083  1
  Nd  Nd7  1  0.480833  0.749959  0.019135  1
  Nd  Nd8  1  0.498715  0.218938  0.463080  1
  Nd  Nd9  1  0.019136  0.480821  0.749953  1
  Nd  Nd10  1  0.281095  0.001300  0.036954  1
  Nd  Nd11  1  0.225249  0.274766  0.750012  1
  Sn  Sn12  1  0.249947  0.250008  0.249995  1
  Os  Os13  1  0.503370  0.996630  0.249998  1
  Os  Os14  1  0.996632  0.250002  0.503363  1
  Os  Os15  1  0.249998  0.503382  0.996617  1
  I  I16  1  0.249995  0.762778  0.737208  1
  I  I17  1  0.512287  0.502543  0.753131  1
  I  I18  1  0.987733  0.746880  0.997461  1
  I  I19  1  0.737218  0.249999  0.762787  1
  I  I20  1  0.997440  0.987734  0.746877  1
  I  I21  1  0.250002  0.998395  0.501630  1
  I  I22  1  0.753128  0.512286  0.502563  1
  I  I23  1  0.501610  0.249990  0.998377  1
  I  I24  1  0.762803  0.737210  0.250012  1
  I  I25  1  0.746882  0.997440  0.987715  1
  I  I26  1  0.998387  0.501622  0.250003  1
  I  I27  1  0.502572  0.753129  0.512301  1
