# generated using pymatgen
data_LiCd2H7Os
_symmetry_space_group_name_H-M   'P 1'
_cell_length_a   4.93280900
_cell_length_b   4.93280983
_cell_length_c   10.96478200
_cell_angle_alpha   90.00000000
_cell_angle_beta   90.00000000
_cell_angle_gamma   120.00001454
_symmetry_Int_Tables_number   1
_chemical_formula_structural   LiCd2H7Os
_chemical_formula_sum   'Li2 Cd4 H14 Os2'
_cell_volume   231.05705962
_cell_formula_units_Z   2
loop_
 _symmetry_equiv_pos_site_id
 _symmetry_equiv_pos_as_xyz
  1  'x, y, z'
loop_
 _atom_site_type_symbol
 _atom_site_label
 _atom_site_symmetry_multiplicity
 _atom_site_fract_x
 _atom_site_fract_y
 _atom_site_fract_z
 _atom_site_occupancy
  Li  Li0  1  0.000000  0.000000  0.250000  1
  Li  Li1  1  0.000000  0.000000  0.750000  1
  Cd  Cd2  1  0.333333  0.666667  0.077289  1
  Cd  Cd3  1  0.666667  0.333333  0.922711  1
  Cd  Cd4  1  0.666667  0.333333  0.577289  1
  Cd  Cd5  1  0.333333  0.666667  0.422711  1
  H  H6  1  0.333333  0.666667  0.250000  1
  H  H7  1  0.666667  0.333333  0.750000  1
  H  H8  1  0.153559  0.307117  0.600269  1
  H  H9  1  0.846441  0.692883  0.399731  1
  H  H10  1  0.692883  0.846441  0.600269  1
  H  H11  1  0.846441  0.692883  0.100269  1
  H  H12  1  0.307117  0.153559  0.399731  1
  H  H13  1  0.153559  0.307117  0.899731  1
  H  H14  1  0.153559  0.846441  0.600269  1
  H  H15  1  0.307117  0.153559  0.100269  1
  H  H16  1  0.846441  0.153559  0.399731  1
  H  H17  1  0.692883  0.846441  0.899731  1
  H  H18  1  0.846441  0.153559  0.100269  1
  H  H19  1  0.153559  0.846441  0.899731  1
  Os  Os20  1  0.000000  0.000000  0.000000  1
  Os  Os21  1  0.000000  0.000000  0.500000  1
