# generated using pymatgen
data_LaSmSiPd14
_symmetry_space_group_name_H-M   'P 1'
_cell_length_a   8.97890800
_cell_length_b   8.97890800
_cell_length_c   7.17741800
_cell_angle_alpha   90.00000000
_cell_angle_beta   90.00000000
_cell_angle_gamma   90.00000000
_symmetry_Int_Tables_number   1
_chemical_formula_structural   LaSmSiPd14
_chemical_formula_sum   'La2 Sm2 Si2 Pd28'
_cell_volume   578.64910123
_cell_formula_units_Z   2
loop_
 _symmetry_equiv_pos_site_id
 _symmetry_equiv_pos_as_xyz
  1  'x, y, z'
loop_
 _atom_site_type_symbol
 _atom_site_label
 _atom_site_symmetry_multiplicity
 _atom_site_fract_x
 _atom_site_fract_y
 _atom_site_fract_z
 _atom_site_occupancy
  La  La0  1  0.000000  0.000000  0.500000  1
  La  La1  1  0.500000  0.500000  0.500000  1
  Sm  Sm2  1  0.500000  0.000000  0.935955  1
  Sm  Sm3  1  0.000000  0.500000  0.064045  1
  Si  Si4  1  0.500000  0.000000  0.448619  1
  Si  Si5  1  0.000000  0.500000  0.551381  1
  Pd  Pd6  1  0.335350  0.835350  0.615806  1
  Pd  Pd7  1  0.335350  0.164650  0.615806  1
  Pd  Pd8  1  0.664650  0.835350  0.615806  1
  Pd  Pd9  1  0.664650  0.164650  0.615806  1
  Pd  Pd10  1  0.164650  0.664650  0.384194  1
  Pd  Pd11  1  0.164650  0.335350  0.384194  1
  Pd  Pd12  1  0.835350  0.664650  0.384194  1
  Pd  Pd13  1  0.835350  0.335350  0.384194  1
  Pd  Pd14  1  0.500000  0.772399  0.254867  1
  Pd  Pd15  1  0.500000  0.227601  0.254867  1
  Pd  Pd16  1  0.272399  0.000000  0.254867  1
  Pd  Pd17  1  0.727601  0.000000  0.254867  1
  Pd  Pd18  1  0.000000  0.727601  0.745133  1
  Pd  Pd19  1  0.000000  0.272399  0.745133  1
  Pd  Pd20  1  0.227601  0.500000  0.745133  1
  Pd  Pd21  1  0.772399  0.500000  0.745133  1
  Pd  Pd22  1  0.500000  0.348152  0.856249  1
  Pd  Pd23  1  0.500000  0.651848  0.856249  1
  Pd  Pd24  1  0.848152  0.000000  0.856249  1
  Pd  Pd25  1  0.151848  0.000000  0.856249  1
  Pd  Pd26  1  0.000000  0.151848  0.143751  1
  Pd  Pd27  1  0.000000  0.848152  0.143751  1
  Pd  Pd28  1  0.651848  0.500000  0.143751  1
  Pd  Pd29  1  0.348152  0.500000  0.143751  1
  Pd  Pd30  1  0.250000  0.750000  0.000000  1
  Pd  Pd31  1  0.250000  0.250000  0.000000  1
  Pd  Pd32  1  0.750000  0.750000  0.000000  1
  Pd  Pd33  1  0.750000  0.250000  0.000000  1
