# generated using pymatgen
data_RbPmS2
_symmetry_space_group_name_H-M   'P 1'
_cell_length_a   8.34807490
_cell_length_b   8.27461300
_cell_length_c   7.35117562
_cell_angle_alpha   89.99990588
_cell_angle_beta   106.46021155
_cell_angle_gamma   89.99989137
_symmetry_Int_Tables_number   1
_chemical_formula_structural   RbPmS2
_chemical_formula_sum   'Rb4 Pm4 S8'
_cell_volume   486.98660093
_cell_formula_units_Z   4
loop_
 _symmetry_equiv_pos_site_id
 _symmetry_equiv_pos_as_xyz
  1  'x, y, z'
loop_
 _atom_site_type_symbol
 _atom_site_label
 _atom_site_symmetry_multiplicity
 _atom_site_fract_x
 _atom_site_fract_y
 _atom_site_fract_z
 _atom_site_occupancy
  Rb  Rb0  1  0.000798  0.745987  0.005258  1
  Rb  Rb1  1  0.999201  0.245987  0.494741  1
  Rb  Rb2  1  0.000799  0.754012  0.505257  1
  Rb  Rb3  1  0.999202  0.254011  0.994744  1
  Pm  Pm4  1  0.501681  0.626248  0.249788  1
  Pm  Pm5  1  0.498318  0.126249  0.250211  1
  Pm  Pm6  1  0.501682  0.873751  0.749790  1
  Pm  Pm7  1  0.498319  0.373751  0.750211  1
  S  S8  1  0.688864  0.380185  0.141550  1
  S  S9  1  0.311135  0.880185  0.358448  1
  S  S10  1  0.688866  0.119814  0.641549  1
  S  S11  1  0.311135  0.619815  0.858449  1
  S  S12  1  0.690463  0.881338  0.143895  1
  S  S13  1  0.309536  0.381341  0.356105  1
  S  S14  1  0.690464  0.618660  0.643895  1
  S  S15  1  0.309537  0.118662  0.856105  1
