# generated using pymatgen
data_Tb5Hg2(PtPb)2
_symmetry_space_group_name_H-M   'P 1'
_cell_length_a   3.67636600
_cell_length_b   8.14649900
_cell_length_c   18.47036100
_cell_angle_alpha   90.00000000
_cell_angle_beta   90.00000000
_cell_angle_gamma   90.00000000
_symmetry_Int_Tables_number   1
_chemical_formula_structural   Tb5Hg2(PtPb)2
_chemical_formula_sum   'Tb10 Hg4 Pt4 Pb4'
_cell_volume   553.17829735
_cell_formula_units_Z   2
loop_
 _symmetry_equiv_pos_site_id
 _symmetry_equiv_pos_as_xyz
  1  'x, y, z'
loop_
 _atom_site_type_symbol
 _atom_site_label
 _atom_site_symmetry_multiplicity
 _atom_site_fract_x
 _atom_site_fract_y
 _atom_site_fract_z
 _atom_site_occupancy
  Tb  Tb0  1  0.000000  0.107473  0.414388  1
  Tb  Tb1  1  0.000000  0.892527  0.585612  1
  Tb  Tb2  1  0.000000  0.392527  0.914388  1
  Tb  Tb3  1  0.000000  0.607473  0.085612  1
  Tb  Tb4  1  0.000000  0.243233  0.217017  1
  Tb  Tb5  1  0.000000  0.756767  0.782983  1
  Tb  Tb6  1  0.000000  0.256767  0.717017  1
  Tb  Tb7  1  0.000000  0.743233  0.282983  1
  Tb  Tb8  1  0.000000  0.000000  0.000000  1
  Tb  Tb9  1  0.000000  0.500000  0.500000  1
  Hg  Hg10  1  0.500000  0.292775  0.063209  1
  Hg  Hg11  1  0.500000  0.707225  0.936791  1
  Hg  Hg12  1  0.500000  0.207225  0.563209  1
  Hg  Hg13  1  0.500000  0.792775  0.436791  1
  Pt  Pt14  1  0.500000  0.024970  0.303290  1
  Pt  Pt15  1  0.500000  0.975030  0.696710  1
  Pt  Pt16  1  0.500000  0.475030  0.803290  1
  Pt  Pt17  1  0.500000  0.524970  0.196710  1
  Pb  Pb18  1  0.500000  0.421905  0.353902  1
  Pb  Pb19  1  0.500000  0.578095  0.646098  1
  Pb  Pb20  1  0.500000  0.078095  0.853902  1
  Pb  Pb21  1  0.500000  0.921905  0.146098  1
