# generated using pymatgen
data_Tm2Sn5Rh3
_symmetry_space_group_name_H-M   'P 1'
_cell_length_a   4.34170816
_cell_length_b   7.36530200
_cell_length_c   13.42801290
_cell_angle_alpha   90.00000000
_cell_angle_beta   80.69638977
_cell_angle_gamma   90.00000000
_symmetry_Int_Tables_number   1
_chemical_formula_structural   Tm2Sn5Rh3
_chemical_formula_sum   'Tm4 Sn10 Rh6'
_cell_volume   423.75234595
_cell_formula_units_Z   2
loop_
 _symmetry_equiv_pos_site_id
 _symmetry_equiv_pos_as_xyz
  1  'x, y, z'
loop_
 _atom_site_type_symbol
 _atom_site_label
 _atom_site_symmetry_multiplicity
 _atom_site_fract_x
 _atom_site_fract_y
 _atom_site_fract_z
 _atom_site_occupancy
  Tm  Tm0  1  0.475466  0.737962  0.049065  1
  Tm  Tm1  1  0.827049  0.257522  0.345903  1
  Tm  Tm2  1  0.172950  0.757523  0.654097  1
  Tm  Tm3  1  0.524533  0.237963  0.950935  1
  Sn  Sn4  1  0.952449  0.396217  0.095101  1
  Sn  Sn5  1  0.403693  0.116665  0.192611  1
  Sn  Sn6  1  0.881334  0.730232  0.237332  1
  Sn  Sn7  1  0.295235  0.549557  0.409526  1
  Sn  Sn8  1  0.290952  0.978664  0.418094  1
  Sn  Sn9  1  0.709047  0.478664  0.581906  1
  Sn  Sn10  1  0.704764  0.049557  0.590474  1
  Sn  Sn11  1  0.118665  0.230231  0.762669  1
  Sn  Sn12  1  0.596306  0.616665  0.807389  1
  Sn  Sn13  1  0.047550  0.896218  0.904899  1
  Rh  Rh14  1  0.950208  0.017575  0.099585  1
  Rh  Rh15  1  0.393864  0.482781  0.212269  1
  Rh  Rh16  1  0.776656  0.764725  0.446687  1
  Rh  Rh17  1  0.223343  0.264724  0.553314  1
  Rh  Rh18  1  0.606135  0.982782  0.787731  1
  Rh  Rh19  1  0.049791  0.517575  0.900415  1
