# generated using pymatgen
data_Sm3PaGa2Ru3
_symmetry_space_group_name_H-M   'P 1'
_cell_length_a   7.37265900
_cell_length_b   7.37265662
_cell_length_c   4.17629900
_cell_angle_alpha   90.00000000
_cell_angle_beta   90.00000000
_cell_angle_gamma   120.80935353
_symmetry_Int_Tables_number   1
_chemical_formula_structural   Sm3PaGa2Ru3
_chemical_formula_sum   'Sm3 Pa1 Ga2 Ru3'
_cell_volume   194.97115077
_cell_formula_units_Z   1
loop_
 _symmetry_equiv_pos_site_id
 _symmetry_equiv_pos_as_xyz
  1  'x, y, z'
loop_
 _atom_site_type_symbol
 _atom_site_label
 _atom_site_symmetry_multiplicity
 _atom_site_fract_x
 _atom_site_fract_y
 _atom_site_fract_z
 _atom_site_occupancy
  Sm  Sm0  1  0.967534  0.414840  0.500000  1
  Sm  Sm1  1  0.632513  0.632513  0.500000  1
  Sm  Sm2  1  0.414840  0.967534  0.500000  1
  Pa  Pa3  1  0.266149  0.266149  0.000000  1
  Ga  Ga4  1  0.013926  0.758627  0.000000  1
  Ga  Ga5  1  0.758627  0.013926  0.000000  1
  Ru  Ru6  1  0.316457  0.621683  0.000000  1
  Ru  Ru7  1  0.008270  0.008270  0.500000  1
  Ru  Ru8  1  0.621683  0.316457  0.000000  1
