# generated using pymatgen
data_Y2Ti3Co9P7
_symmetry_space_group_name_H-M   'P 1'
_cell_length_a   3.63984200
_cell_length_b   9.18866671
_cell_length_c   9.18866700
_cell_angle_alpha   119.99999745
_cell_angle_beta   90.00000000
_cell_angle_gamma   90.00000000
_symmetry_Int_Tables_number   1
_chemical_formula_structural   Y2Ti3Co9P7
_chemical_formula_sum   'Y2 Ti3 Co9 P7'
_cell_volume   266.14492347
_cell_formula_units_Z   1
loop_
 _symmetry_equiv_pos_site_id
 _symmetry_equiv_pos_as_xyz
  1  'x, y, z'
loop_
 _atom_site_type_symbol
 _atom_site_label
 _atom_site_symmetry_multiplicity
 _atom_site_fract_x
 _atom_site_fract_y
 _atom_site_fract_z
 _atom_site_occupancy
  Y  Y0  1  0.000000  0.666667  0.333333  1
  Y  Y1  1  0.500000  0.333333  0.666667  1
  Ti  Ti2  1  0.500000  0.777197  0.892928  1
  Ti  Ti3  1  0.500000  0.115731  0.222803  1
  Ti  Ti4  1  0.500000  0.107072  0.884269  1
  Co  Co5  1  0.000000  0.571438  0.938975  1
  Co  Co6  1  0.000000  0.367537  0.428562  1
  Co  Co7  1  0.000000  0.061025  0.632463  1
  Co  Co8  1  0.000000  0.880261  0.160258  1
  Co  Co9  1  0.000000  0.279998  0.119739  1
  Co  Co10  1  0.000000  0.839742  0.720002  1
  Co  Co11  1  0.500000  0.949380  0.388394  1
  Co  Co12  1  0.500000  0.439014  0.050620  1
  Co  Co13  1  0.500000  0.611606  0.560986  1
  P  P14  1  0.000000  0.000000  0.000000  1
  P  P15  1  0.500000  0.711169  0.123127  1
  P  P16  1  0.500000  0.411958  0.288831  1
  P  P17  1  0.500000  0.876873  0.588042  1
  P  P18  1  0.000000  0.582448  0.692214  1
  P  P19  1  0.000000  0.109766  0.417552  1
  P  P20  1  0.000000  0.307786  0.890234  1
