# generated using pymatgen
data_Tb2Dy2Sc3AlPt4
_symmetry_space_group_name_H-M   'P 1'
_cell_length_a   4.52610300
_cell_length_b   7.04224192
_cell_length_c   8.30541132
_cell_angle_alpha   86.88092919
_cell_angle_beta   90.00000000
_cell_angle_gamma   90.00000000
_symmetry_Int_Tables_number   1
_chemical_formula_structural   Tb2Dy2Sc3AlPt4
_chemical_formula_sum   'Tb2 Dy2 Sc3 Al1 Pt4'
_cell_volume   264.33379101
_cell_formula_units_Z   1
loop_
 _symmetry_equiv_pos_site_id
 _symmetry_equiv_pos_as_xyz
  1  'x, y, z'
loop_
 _atom_site_type_symbol
 _atom_site_label
 _atom_site_symmetry_multiplicity
 _atom_site_fract_x
 _atom_site_fract_y
 _atom_site_fract_z
 _atom_site_occupancy
  Tb  Tb0  1  0.750000  0.522443  0.815118  1
  Tb  Tb1  1  0.750000  0.040464  0.672196  1
  Dy  Dy2  1  0.250000  0.468552  0.183853  1
  Dy  Dy3  1  0.250000  0.987045  0.340649  1
  Sc  Sc4  1  0.250000  0.864814  0.928631  1
  Sc  Sc5  1  0.750000  0.132885  0.070371  1
  Sc  Sc6  1  0.750000  0.637369  0.435467  1
  Al  Al7  1  0.250000  0.360023  0.567836  1
  Pt  Pt8  1  0.250000  0.729127  0.614051  1
  Pt  Pt9  1  0.750000  0.263355  0.383060  1
  Pt  Pt10  1  0.750000  0.748655  0.100268  1
  Pt  Pt11  1  0.250000  0.245267  0.888500  1
