# generated using pymatgen
data_Ho8Hf11Si16Os
_symmetry_space_group_name_H-M   'P 1'
_cell_length_a   7.22953144
_cell_length_b   7.22953117
_cell_length_c   13.22384701
_cell_angle_alpha   89.90130549
_cell_angle_beta   90.09869314
_cell_angle_gamma   90.02541523
_symmetry_Int_Tables_number   1
_chemical_formula_structural   Ho8Hf11Si16Os
_chemical_formula_sum   'Ho8 Hf11 Si16 Os1'
_cell_volume   691.15709512
_cell_formula_units_Z   1
loop_
 _symmetry_equiv_pos_site_id
 _symmetry_equiv_pos_as_xyz
  1  'x, y, z'
loop_
 _atom_site_type_symbol
 _atom_site_label
 _atom_site_symmetry_multiplicity
 _atom_site_fract_x
 _atom_site_fract_y
 _atom_site_fract_z
 _atom_site_occupancy
  Ho  Ho0  1  0.998698  0.343977  0.211651  1
  Ho  Ho1  1  0.005214  0.654562  0.717477  1
  Ho  Ho2  1  0.155599  0.494770  0.465131  1
  Ho  Ho3  1  0.501771  0.846653  0.032777  1
  Ho  Ho4  1  0.846653  0.501771  0.967223  1
  Ho  Ho5  1  0.494770  0.155599  0.534869  1
  Ho  Ho6  1  0.343977  0.998698  0.788349  1
  Ho  Ho7  1  0.654562  0.005214  0.282523  1
  Hf  Hf8  1  0.824729  0.824729  0.500000  1
  Hf  Hf9  1  0.324344  0.675180  0.247823  1
  Hf  Hf10  1  0.675180  0.324344  0.752177  1
  Hf  Hf11  1  0.146545  0.998085  0.371899  1
  Hf  Hf12  1  0.852999  0.004330  0.878456  1
  Hf  Hf13  1  0.502550  0.646988  0.625477  1
  Hf  Hf14  1  0.352041  0.496972  0.876968  1
  Hf  Hf15  1  0.496972  0.352041  0.123032  1
  Hf  Hf16  1  0.646988  0.502550  0.374523  1
  Hf  Hf17  1  0.998085  0.146545  0.628101  1
  Hf  Hf18  1  0.004330  0.852999  0.121544  1
  Si  Si19  1  0.359648  0.295039  0.315492  1
  Si  Si20  1  0.640276  0.705015  0.818700  1
  Si  Si21  1  0.205498  0.860568  0.567186  1
  Si  Si22  1  0.137391  0.794215  0.930882  1
  Si  Si23  1  0.794215  0.137391  0.069118  1
  Si  Si24  1  0.860568  0.205498  0.432814  1
  Si  Si25  1  0.295039  0.359648  0.684508  1
  Si  Si26  1  0.705015  0.640276  0.181300  1
  Si  Si27  1  0.293371  0.054541  0.180068  1
  Si  Si28  1  0.703275  0.950596  0.686198  1
  Si  Si29  1  0.449396  0.797260  0.434721  1
  Si  Si30  1  0.205469  0.547552  0.064156  1
  Si  Si31  1  0.547552  0.205469  0.935844  1
  Si  Si32  1  0.797260  0.449396  0.565279  1
  Si  Si33  1  0.054541  0.293371  0.819932  1
  Si  Si34  1  0.950596  0.703275  0.313802  1
  Os  Os35  1  0.174886  0.174886  0.000000  1
