# generated using pymatgen
data_Ca12SmV7(GeO4)12
_symmetry_space_group_name_H-M   'P 1'
_cell_length_a   10.90032403
_cell_length_b   10.90032355
_cell_length_c   10.88271200
_cell_angle_alpha   109.43849099
_cell_angle_beta   109.43849009
_cell_angle_gamma   109.50393044
_symmetry_Int_Tables_number   1
_chemical_formula_structural   Ca12SmV7(GeO4)12
_chemical_formula_sum   'Ca12 Sm1 V7 Ge12 O48'
_cell_volume   995.79355656
_cell_formula_units_Z   1
loop_
 _symmetry_equiv_pos_site_id
 _symmetry_equiv_pos_as_xyz
  1  'x, y, z'
loop_
 _atom_site_type_symbol
 _atom_site_label
 _atom_site_symmetry_multiplicity
 _atom_site_fract_x
 _atom_site_fract_y
 _atom_site_fract_z
 _atom_site_occupancy
  Ca  Ca0  1  0.245581  0.876325  0.616188  1
  Ca  Ca1  1  0.748678  0.623920  0.872971  1
  Ca  Ca2  1  0.623675  0.869256  0.739864  1
  Ca  Ca3  1  0.876080  0.624758  0.249051  1
  Ca  Ca4  1  0.630744  0.254419  0.870607  1
  Ca  Ca5  1  0.875242  0.751322  0.624294  1
  Ca  Ca6  1  0.754419  0.123675  0.383812  1
  Ca  Ca7  1  0.251322  0.376080  0.127029  1
  Ca  Ca8  1  0.376325  0.130744  0.260136  1
  Ca  Ca9  1  0.123920  0.375242  0.750949  1
  Ca  Ca10  1  0.369256  0.745581  0.129393  1
  Ca  Ca11  1  0.124758  0.248678  0.375706  1
  Sm  Sm12  1  0.500000  0.000000  0.000000  1
  V  V13  1  0.500000  0.500000  0.500000  1
  V  V14  1  0.500000  0.000000  0.500000  1
  V  V15  1  0.000000  0.500000  0.500000  1
  V  V16  1  0.500000  0.500000  0.000000  1
  V  V17  1  0.000000  0.000000  0.500000  1
  V  V18  1  0.000000  0.500000  0.000000  1
  V  V19  1  0.000000  0.000000  0.000000  1
  Ge  Ge20  1  0.114637  0.742301  0.873674  1
  Ge  Ge21  1  0.885363  0.257699  0.126326  1
  Ge  Ge22  1  0.627663  0.385363  0.259037  1
  Ge  Ge23  1  0.757699  0.872337  0.131374  1
  Ge  Ge24  1  0.873994  0.125464  0.750466  1
  Ge  Ge25  1  0.251469  0.626006  0.376472  1
  Ge  Ge26  1  0.748531  0.373994  0.623528  1
  Ge  Ge27  1  0.242301  0.127663  0.868626  1
  Ge  Ge28  1  0.126006  0.874536  0.249534  1
  Ge  Ge29  1  0.372337  0.614637  0.740963  1
  Ge  Ge30  1  0.625464  0.751469  0.374997  1
  Ge  Ge31  1  0.374536  0.248531  0.625003  1
  O  O32  1  0.405846  0.796525  0.773896  1
  O  O33  1  0.884654  0.405228  0.087767  1
  O  O34  1  0.094772  0.979426  0.682539  1
  O  O35  1  0.520574  0.615346  0.703113  1
  O  O36  1  0.685175  0.082755  0.700508  1
  O  O37  1  0.621535  0.705437  0.517442  1
  O  O38  1  0.617226  0.417973  0.105022  1
  O  O39  1  0.699447  0.513472  0.614523  1
  O  O40  1  0.816923  0.526613  0.401583  1
  O  O41  1  0.973387  0.790310  0.874970  1
  O  O42  1  0.800747  0.882774  0.987796  1
  O  O43  1  0.709690  0.683077  0.084660  1
  O  O44  1  0.417245  0.102420  0.617753  1
  O  O45  1  0.397580  0.814825  0.515333  1
  O  O46  1  0.082027  0.699253  0.687049  1
  O  O47  1  0.103315  0.619229  0.416358  1
  O  O48  1  0.515914  0.396685  0.813043  1
  O  O49  1  0.083902  0.878465  0.395907  1
  O  O50  1  0.986528  0.685975  0.101051  1
  O  O51  1  0.183077  0.473387  0.598417  1
  O  O52  1  0.703475  0.109321  0.977371  1
  O  O53  1  0.794563  0.416098  0.812005  1
  O  O54  1  0.390679  0.094154  0.868050  1
  O  O55  1  0.880771  0.984086  0.797128  1
  O  O56  1  0.594154  0.203475  0.226104  1
  O  O57  1  0.115346  0.594772  0.912233  1
  O  O58  1  0.905228  0.020574  0.317461  1
  O  O59  1  0.479426  0.384654  0.296887  1
  O  O60  1  0.314825  0.917245  0.299492  1
  O  O61  1  0.378465  0.294563  0.482558  1
  O  O62  1  0.382774  0.582027  0.894978  1
  O  O63  1  0.300553  0.486528  0.385477  1
  O  O64  1  0.119229  0.015914  0.202872  1
  O  O65  1  0.609321  0.905846  0.131950  1
  O  O66  1  0.205437  0.583902  0.187995  1
  O  O67  1  0.185975  0.199447  0.584923  1
  O  O68  1  0.296525  0.890679  0.022629  1
  O  O69  1  0.013472  0.314025  0.898949  1
  O  O70  1  0.916098  0.121535  0.604093  1
  O  O71  1  0.484086  0.603315  0.186957  1
  O  O72  1  0.896685  0.380771  0.583642  1
  O  O73  1  0.917973  0.300747  0.312951  1
  O  O74  1  0.602420  0.185175  0.484667  1
  O  O75  1  0.582755  0.897580  0.382247  1
  O  O76  1  0.290310  0.316923  0.915340  1
  O  O77  1  0.199253  0.117226  0.012204  1
  O  O78  1  0.026613  0.209690  0.125030  1
  O  O79  1  0.814025  0.800553  0.415077  1
