# generated using pymatgen
data_Y4Lu5Sc11Bi12
_symmetry_space_group_name_H-M   'P 1'
_cell_length_a   7.91408049
_cell_length_b   9.16427200
_cell_length_c   11.70223500
_cell_angle_alpha   90.05822565
_cell_angle_beta   90.06747427
_cell_angle_gamma   89.96980892
_symmetry_Int_Tables_number   1
_chemical_formula_structural   Y4Lu5Sc11Bi12
_chemical_formula_sum   'Y4 Lu5 Sc11 Bi12'
_cell_volume   848.72435194
_cell_formula_units_Z   1
loop_
 _symmetry_equiv_pos_site_id
 _symmetry_equiv_pos_as_xyz
  1  'x, y, z'
loop_
 _atom_site_type_symbol
 _atom_site_label
 _atom_site_symmetry_multiplicity
 _atom_site_fract_x
 _atom_site_fract_y
 _atom_site_fract_z
 _atom_site_occupancy
  Y  Y0  1  0.184076  0.249467  0.780540  1
  Y  Y1  1  0.815535  0.750566  0.218585  1
  Y  Y2  1  0.315697  0.750454  0.280330  1
  Y  Y3  1  0.683606  0.250198  0.719959  1
  Lu  Lu4  1  0.351140  0.251035  0.279661  1
  Lu  Lu5  1  0.648600  0.750041  0.720282  1
  Lu  Lu6  1  0.146757  0.751745  0.781347  1
  Lu  Lu7  1  0.850478  0.250065  0.219499  1
  Lu  Lu8  1  0.309818  0.565140  0.560259  1
  Sc  Sc9  1  0.018219  0.249661  0.509434  1
  Sc  Sc10  1  0.980826  0.751579  0.489789  1
  Sc  Sc11  1  0.482054  0.750249  0.009912  1
  Sc  Sc12  1  0.518000  0.250004  0.991181  1
  Sc  Sc13  1  0.192026  0.066855  0.059123  1
  Sc  Sc14  1  0.807647  0.933379  0.940758  1
  Sc  Sc15  1  0.308065  0.931331  0.559795  1
  Sc  Sc16  1  0.807722  0.567147  0.940820  1
  Sc  Sc17  1  0.694126  0.067285  0.439684  1
  Sc  Sc18  1  0.191674  0.433062  0.059252  1
  Sc  Sc19  1  0.692580  0.432609  0.440517  1
  Bi  Bi20  1  0.403255  0.243556  0.537081  1
  Bi  Bi21  1  0.602443  0.752221  0.460527  1
  Bi  Bi22  1  0.098891  0.749954  0.038287  1
  Bi  Bi23  1  0.901247  0.250302  0.962070  1
  Bi  Bi24  1  0.065355  0.006431  0.331128  1
  Bi  Bi25  1  0.934506  0.995000  0.667968  1
  Bi  Bi26  1  0.434972  0.994348  0.832378  1
  Bi  Bi27  1  0.932715  0.505654  0.668787  1
  Bi  Bi28  1  0.564710  0.006195  0.168198  1
  Bi  Bi29  1  0.063551  0.494344  0.330635  1
  Bi  Bi30  1  0.564962  0.494643  0.168544  1
  Bi  Bi31  1  0.434746  0.505478  0.833672  1
