# generated using pymatgen
data_CaAc(Co3Si2)2
_symmetry_space_group_name_H-M   'P 1'
_cell_length_a   6.38621371
_cell_length_b   6.38621302
_cell_length_c   6.38621233
_cell_angle_alpha   129.90681675
_cell_angle_beta   115.50052170
_cell_angle_gamma   85.86768160
_symmetry_Int_Tables_number   1
_chemical_formula_structural   CaAc(Co3Si2)2
_chemical_formula_sum   'Ca1 Ac1 Co6 Si4'
_cell_volume   172.31141982
_cell_formula_units_Z   1
loop_
 _symmetry_equiv_pos_site_id
 _symmetry_equiv_pos_as_xyz
  1  'x, y, z'
loop_
 _atom_site_type_symbol
 _atom_site_label
 _atom_site_symmetry_multiplicity
 _atom_site_fract_x
 _atom_site_fract_y
 _atom_site_fract_z
 _atom_site_occupancy
  Ca  Ca0  1  0.250000  0.536700  0.286700  1
  Ac  Ac1  1  0.750000  0.468811  0.718811  1
  Co  Co2  1  0.985476  0.000308  0.485784  1
  Co  Co3  1  0.514524  0.000308  0.014831  1
  Co  Co4  1  0.718049  0.998352  0.719465  1
  Co  Co5  1  0.221113  0.501416  0.719465  1
  Co  Co6  1  0.278887  0.998352  0.280303  1
  Co  Co7  1  0.781951  0.501416  0.280303  1
  Si  Si8  1  0.092282  0.887201  0.794920  1
  Si  Si9  1  0.932939  0.135189  0.202249  1
  Si  Si10  1  0.567061  0.769311  0.202249  1
  Si  Si11  1  0.407718  0.202637  0.794920  1
