# generated using pymatgen
data_Yb12DyLu7Si16
_symmetry_space_group_name_H-M   'P 1'
_cell_length_a   7.32254769
_cell_length_b   7.76623161
_cell_length_c   14.96837859
_cell_angle_alpha   89.98241218
_cell_angle_beta   90.02695544
_cell_angle_gamma   90.04182692
_symmetry_Int_Tables_number   1
_chemical_formula_structural   Yb12DyLu7Si16
_chemical_formula_sum   'Yb12 Dy1 Lu7 Si16'
_cell_volume   851.23039355
_cell_formula_units_Z   1
loop_
 _symmetry_equiv_pos_site_id
 _symmetry_equiv_pos_as_xyz
  1  'x, y, z'
loop_
 _atom_site_type_symbol
 _atom_site_label
 _atom_site_symmetry_multiplicity
 _atom_site_fract_x
 _atom_site_fract_y
 _atom_site_fract_z
 _atom_site_occupancy
  Yb  Yb0  1  0.974738  0.816835  0.404643  1
  Yb  Yb1  1  0.475561  0.682708  0.095622  1
  Yb  Yb2  1  0.524795  0.317230  0.595662  1
  Yb  Yb3  1  0.024582  0.182923  0.904068  1
  Yb  Yb4  1  0.024928  0.182871  0.595705  1
  Yb  Yb5  1  0.525299  0.317170  0.903904  1
  Yb  Yb6  1  0.475108  0.682840  0.404534  1
  Yb  Yb7  1  0.974583  0.816732  0.095686  1
  Yb  Yb8  1  0.351132  0.020049  0.749878  1
  Yb  Yb9  1  0.850980  0.479883  0.749988  1
  Yb  Yb10  1  0.148892  0.520443  0.250363  1
  Yb  Yb11  1  0.649018  0.979602  0.250209  1
  Dy  Dy12  1  0.314924  0.177131  0.120967  1
  Lu  Lu13  1  0.815194  0.323623  0.379007  1
  Lu  Lu14  1  0.184909  0.676487  0.878702  1
  Lu  Lu15  1  0.684975  0.823474  0.621130  1
  Lu  Lu16  1  0.315022  0.176405  0.379083  1
  Lu  Lu17  1  0.815035  0.323836  0.121077  1
  Lu  Lu18  1  0.184964  0.676541  0.621136  1
  Lu  Lu19  1  0.685216  0.823336  0.878545  1
  Si  Si20  1  0.855652  0.534112  0.538302  1
  Si  Si21  1  0.357350  0.964693  0.960600  1
  Si  Si22  1  0.644216  0.033971  0.461752  1
  Si  Si23  1  0.142036  0.467289  0.037581  1
  Si  Si24  1  0.144520  0.465842  0.461866  1
  Si  Si25  1  0.646511  0.033110  0.037414  1
  Si  Si26  1  0.355575  0.965910  0.538352  1
  Si  Si27  1  0.854526  0.534857  0.961406  1
  Si  Si28  1  0.976857  0.877258  0.749869  1
  Si  Si29  1  0.476708  0.622652  0.749825  1
  Si  Si30  1  0.524331  0.378844  0.250601  1
  Si  Si31  1  0.022168  0.121869  0.251165  1
  Si  Si32  1  0.248120  0.397490  0.749943  1
  Si  Si33  1  0.748368  0.102377  0.749896  1
  Si  Si34  1  0.250490  0.896460  0.251206  1
  Si  Si35  1  0.752717  0.603146  0.250308  1
