# generated using pymatgen
data_La4Si4NiIr3
_symmetry_space_group_name_H-M   'P 1'
_cell_length_a   6.37564469
_cell_length_b   6.37564469
_cell_length_c   6.37564469
_cell_angle_alpha   90.63004604
_cell_angle_beta   89.36995396
_cell_angle_gamma   90.63004604
_symmetry_Int_Tables_number   1
_chemical_formula_structural   La4Si4NiIr3
_chemical_formula_sum   'La4 Si4 Ni1 Ir3'
_cell_volume   259.11592943
_cell_formula_units_Z   1
loop_
 _symmetry_equiv_pos_site_id
 _symmetry_equiv_pos_as_xyz
  1  'x, y, z'
loop_
 _atom_site_type_symbol
 _atom_site_label
 _atom_site_symmetry_multiplicity
 _atom_site_fract_x
 _atom_site_fract_y
 _atom_site_fract_z
 _atom_site_occupancy
  La  La0  1  0.135384  0.865277  0.365977  1
  La  La1  1  0.865977  0.364616  0.134723  1
  La  La2  1  0.634723  0.634023  0.635384  1
  La  La3  1  0.372039  0.127961  0.872039  1
  Si  Si4  1  0.661609  0.838391  0.161609  1
  Si  Si5  1  0.156929  0.653371  0.830996  1
  Si  Si6  1  0.846629  0.169004  0.656929  1
  Si  Si7  1  0.330996  0.343071  0.346629  1
  Ni  Ni8  1  0.077362  0.422638  0.577362  1
  Ir  Ir9  1  0.573312  0.082884  0.427924  1
  Ir  Ir10  1  0.927924  0.926688  0.917116  1
  Ir  Ir11  1  0.417116  0.572076  0.073312  1
