# generated using pymatgen
data_Tb3LuTcPt3F28
_symmetry_space_group_name_H-M   'P 1'
_cell_length_a   5.55276804
_cell_length_b   8.89367728
_cell_length_c   11.99475868
_cell_angle_alpha   62.45650899
_cell_angle_beta   90.14253895
_cell_angle_gamma   90.02334223
_symmetry_Int_Tables_number   1
_chemical_formula_structural   Tb3LuTcPt3F28
_chemical_formula_sum   'Tb3 Lu1 Tc1 Pt3 F28'
_cell_volume   525.21615248
_cell_formula_units_Z   1
loop_
 _symmetry_equiv_pos_site_id
 _symmetry_equiv_pos_as_xyz
  1  'x, y, z'
loop_
 _atom_site_type_symbol
 _atom_site_label
 _atom_site_symmetry_multiplicity
 _atom_site_fract_x
 _atom_site_fract_y
 _atom_site_fract_z
 _atom_site_occupancy
  Tb  Tb0  1  0.739592  0.186564  0.735689  1
  Tb  Tb1  1  0.760319  0.181680  0.236681  1
  Tb  Tb2  1  0.239621  0.813097  0.763875  1
  Lu  Lu3  1  0.260623  0.812577  0.265216  1
  Tc  Tc4  1  0.758294  0.726538  0.045856  1
  Pt  Pt5  1  0.242062  0.271163  0.958484  1
  Pt  Pt6  1  0.258806  0.275173  0.455876  1
  Pt  Pt7  1  0.740815  0.727417  0.540864  1
  F  F8  1  0.938429  0.704412  0.413413  1
  F  F9  1  0.064017  0.297110  0.584289  1
  F  F10  1  0.437463  0.295650  0.086066  1
  F  F11  1  0.553944  0.708271  0.919664  1
  F  F12  1  0.474735  0.731551  0.142430  1
  F  F13  1  0.534400  0.273318  0.865907  1
  F  F14  1  0.966107  0.274052  0.363624  1
  F  F15  1  0.033459  0.725612  0.634097  1
  F  F16  1  0.963221  0.747787  0.173108  1
  F  F17  1  0.052800  0.255228  0.825425  1
  F  F18  1  0.448665  0.257387  0.323835  1
  F  F19  1  0.552467  0.743524  0.674195  1
  F  F20  1  0.771284  0.478493  0.142221  1
  F  F21  1  0.228850  0.519832  0.858658  1
  F  F22  1  0.269941  0.524763  0.357295  1
  F  F23  1  0.728277  0.479188  0.640749  1
  F  F24  1  0.942133  0.278987  0.043693  1
  F  F25  1  0.050624  0.720260  0.955228  1
  F  F26  1  0.439744  0.721474  0.454180  1
  F  F27  1  0.558958  0.281743  0.541517  1
  F  F28  1  0.743597  0.976097  0.448798  1
  F  F29  1  0.257967  0.026315  0.548951  1
  F  F30  1  0.243003  0.022231  0.053108  1
  F  F31  1  0.758984  0.973599  0.947726  1
  F  F32  1  0.576281  0.965344  0.233650  1
  F  F33  1  0.411904  0.031867  0.767507  1
  F  F34  1  0.086623  0.022451  0.268082  1
  F  F35  1  0.911991  0.969249  0.730043  1
