# generated using pymatgen
data_Li3NdSm2AgSn4
_symmetry_space_group_name_H-M   'P 1'
_cell_length_a   8.81792474
_cell_length_b   8.82665442
_cell_length_c   8.82665535
_cell_angle_alpha   149.28987793
_cell_angle_beta   131.95255472
_cell_angle_gamma   58.12025339
_symmetry_Int_Tables_number   1
_chemical_formula_structural   Li3NdSm2AgSn4
_chemical_formula_sum   'Li3 Nd1 Sm2 Ag1 Sn4'
_cell_volume   258.95223484
_cell_formula_units_Z   1
loop_
 _symmetry_equiv_pos_site_id
 _symmetry_equiv_pos_as_xyz
  1  'x, y, z'
loop_
 _atom_site_type_symbol
 _atom_site_label
 _atom_site_symmetry_multiplicity
 _atom_site_fract_x
 _atom_site_fract_y
 _atom_site_fract_z
 _atom_site_occupancy
  Li  Li0  1  0.639997  0.328155  0.311843  1
  Li  Li1  1  0.359925  0.669755  0.690168  1
  Li  Li2  1  0.017934  0.327160  0.690774  1
  Nd  Nd3  1  0.366411  0.870151  0.496259  1
  Sm  Sm4  1  0.629616  0.129935  0.499681  1
  Sm  Sm5  1  0.001663  0.002259  0.999403  1
  Ag  Ag6  1  0.980417  0.672369  0.308049  1
  Sn  Sn7  1  0.225324  0.214400  0.010924  1
  Sn  Sn8  1  0.783936  0.788387  0.995549  1
  Sn  Sn9  1  0.695304  0.497906  0.197398  1
  Sn  Sn10  1  0.299475  0.499523  0.799952  1
