# generated using pymatgen
data_La8Pr9Sm3Si16
_symmetry_space_group_name_H-M   'P 1'
_cell_length_a   7.95195910
_cell_length_b   7.95195910
_cell_length_c   15.41812619
_cell_angle_alpha   89.98734082
_cell_angle_beta   90.01265918
_cell_angle_gamma   90.01259546
_symmetry_Int_Tables_number   1
_chemical_formula_structural   La8Pr9Sm3Si16
_chemical_formula_sum   'La8 Pr9 Sm3 Si16'
_cell_volume   974.94437745
_cell_formula_units_Z   1
loop_
 _symmetry_equiv_pos_site_id
 _symmetry_equiv_pos_as_xyz
  1  'x, y, z'
loop_
 _atom_site_type_symbol
 _atom_site_label
 _atom_site_symmetry_multiplicity
 _atom_site_fract_x
 _atom_site_fract_y
 _atom_site_fract_z
 _atom_site_occupancy
  La  La0  1  0.375588  0.011821  0.448589  1
  La  La1  1  0.487533  0.876319  0.698942  1
  La  La2  1  0.512296  0.124718  0.198430  1
  La  La3  1  0.876319  0.487533  0.301058  1
  La  La4  1  0.124718  0.512296  0.801570  1
  La  La5  1  0.623872  0.987491  0.948639  1
  La  La6  1  0.011821  0.375588  0.551411  1
  La  La7  1  0.987491  0.623872  0.051361  1
  Pr  Pr8  1  0.690497  0.690497  0.500000  1
  Pr  Pr9  1  0.128240  0.981298  0.876965  1
  Pr  Pr10  1  0.518603  0.628024  0.126313  1
  Pr  Pr11  1  0.481277  0.372368  0.627091  1
  Pr  Pr12  1  0.628024  0.518603  0.873687  1
  Pr  Pr13  1  0.372368  0.481277  0.372909  1
  Pr  Pr14  1  0.872112  0.018456  0.376462  1
  Pr  Pr15  1  0.981298  0.128240  0.123035  1
  Pr  Pr16  1  0.018456  0.872112  0.623538  1
  Sm  Sm17  1  0.310419  0.310419  0.000000  1
  Sm  Sm18  1  0.189569  0.810506  0.250022  1
  Sm  Sm19  1  0.810506  0.189569  0.749978  1
  Si  Si20  1  0.194804  0.168919  0.704530  1
  Si  Si21  1  0.330450  0.694413  0.954420  1
  Si  Si22  1  0.667699  0.303138  0.453438  1
  Si  Si23  1  0.694413  0.330450  0.045580  1
  Si  Si24  1  0.303138  0.667699  0.546562  1
  Si  Si25  1  0.805384  0.831349  0.203581  1
  Si  Si26  1  0.168919  0.194804  0.295470  1
  Si  Si27  1  0.831349  0.805384  0.796419  1
  Si  Si28  1  0.287169  0.921969  0.061528  1
  Si  Si29  1  0.576093  0.788455  0.309456  1
  Si  Si30  1  0.422070  0.212633  0.811767  1
  Si  Si31  1  0.788455  0.576093  0.690544  1
  Si  Si32  1  0.212633  0.422070  0.188233  1
  Si  Si33  1  0.713869  0.080576  0.562211  1
  Si  Si34  1  0.921969  0.287169  0.938472  1
  Si  Si35  1  0.080576  0.713869  0.437789  1
