# generated using pymatgen
data_Nb12Al7Co2Si(NiC2)2
_symmetry_space_group_name_H-M   'P 1'
_cell_length_a   8.23202179
_cell_length_b   8.23202159
_cell_length_c   8.23202200
_cell_angle_alpha   60.09771046
_cell_angle_beta   60.09771126
_cell_angle_gamma   60.09770506
_symmetry_Int_Tables_number   1
_chemical_formula_structural   Nb12Al7Co2Si(NiC2)2
_chemical_formula_sum   'Nb12 Al7 Co2 Si1 Ni2 C4'
_cell_volume   395.33473545
_cell_formula_units_Z   1
loop_
 _symmetry_equiv_pos_site_id
 _symmetry_equiv_pos_as_xyz
  1  'x, y, z'
loop_
 _atom_site_type_symbol
 _atom_site_label
 _atom_site_symmetry_multiplicity
 _atom_site_fract_x
 _atom_site_fract_y
 _atom_site_fract_z
 _atom_site_occupancy
  Nb  Nb0  1  0.688019  0.314178  0.685210  1
  Nb  Nb1  1  0.939457  0.560511  0.560511  1
  Nb  Nb2  1  0.563698  0.936300  0.936300  1
  Nb  Nb3  1  0.937687  0.563854  0.937164  1
  Nb  Nb4  1  0.560168  0.562747  0.938271  1
  Nb  Nb5  1  0.937687  0.937164  0.563854  1
  Nb  Nb6  1  0.688019  0.685210  0.314178  1
  Nb  Nb7  1  0.312767  0.687721  0.687721  1
  Nb  Nb8  1  0.682477  0.313588  0.313588  1
  Nb  Nb9  1  0.312286  0.312835  0.682723  1
  Nb  Nb10  1  0.560168  0.938271  0.562747  1
  Nb  Nb11  1  0.312286  0.682723  0.312835  1
  Al  Al12  1  0.246221  0.917278  0.917278  1
  Al  Al13  1  0.918354  0.247488  0.916181  1
  Al  Al14  1  0.918354  0.916181  0.247488  1
  Al  Al15  1  0.331310  0.002131  0.333271  1
  Al  Al16  1  0.331310  0.333271  0.002131  1
  Al  Al17  1  0.003376  0.332233  0.332233  1
  Al  Al18  1  0.920014  0.917572  0.917572  1
  Co  Co19  1  0.130447  0.619095  0.130365  1
  Co  Co20  1  0.130447  0.130365  0.619095  1
  Si  Si21  1  0.329973  0.333492  0.333492  1
  Ni  Ni22  1  0.125229  0.125210  0.125210  1
  Ni  Ni23  1  0.619745  0.129745  0.129745  1
  C  C24  1  0.625679  0.625787  0.625787  1
  C  C25  1  0.124563  0.625171  0.625171  1
  C  C26  1  0.625132  0.124678  0.625206  1
  C  C27  1  0.625132  0.625206  0.124678  1
