# generated using pymatgen
data_KLa2Nd(SbAu)4
_symmetry_space_group_name_H-M   'P 1'
_cell_length_a   4.70772600
_cell_length_b   4.70772573
_cell_length_c   17.81363800
_cell_angle_alpha   90.00000000
_cell_angle_beta   90.00000000
_cell_angle_gamma   120.00000189
_symmetry_Int_Tables_number   1
_chemical_formula_structural   KLa2Nd(SbAu)4
_chemical_formula_sum   'K1 La2 Nd1 Sb4 Au4'
_cell_volume   341.90509865
_cell_formula_units_Z   1
loop_
 _symmetry_equiv_pos_site_id
 _symmetry_equiv_pos_as_xyz
  1  'x, y, z'
loop_
 _atom_site_type_symbol
 _atom_site_label
 _atom_site_symmetry_multiplicity
 _atom_site_fract_x
 _atom_site_fract_y
 _atom_site_fract_z
 _atom_site_occupancy
  K  K0  1  0.000000  0.000000  0.250000  1
  La  La1  1  0.000000  0.000000  0.512321  1
  La  La2  1  0.000000  0.000000  0.987679  1
  Nd  Nd3  1  0.000000  0.000000  0.750000  1
  Sb  Sb4  1  0.333333  0.666667  0.391724  1
  Sb  Sb5  1  0.666667  0.333333  0.619524  1
  Sb  Sb6  1  0.666667  0.333333  0.880476  1
  Sb  Sb7  1  0.333333  0.666667  0.108276  1
  Au  Au8  1  0.666667  0.333333  0.414870  1
  Au  Au9  1  0.333333  0.666667  0.666177  1
  Au  Au10  1  0.333333  0.666667  0.833823  1
  Au  Au11  1  0.666667  0.333333  0.085130  1
