# generated using pymatgen
data_ThNp7F30
_symmetry_space_group_name_H-M   'P 1'
_cell_length_a   8.69896254
_cell_length_b   8.69896178
_cell_length_c   8.72535200
_cell_angle_alpha   79.21699669
_cell_angle_beta   79.21699093
_cell_angle_gamma   99.84216484
_symmetry_Int_Tables_number   1
_chemical_formula_structural   ThNp7F30
_chemical_formula_sum   'Th1 Np7 F30'
_cell_volume   622.47546161
_cell_formula_units_Z   1
loop_
 _symmetry_equiv_pos_site_id
 _symmetry_equiv_pos_as_xyz
  1  'x, y, z'
loop_
 _atom_site_type_symbol
 _atom_site_label
 _atom_site_symmetry_multiplicity
 _atom_site_fract_x
 _atom_site_fract_y
 _atom_site_fract_z
 _atom_site_occupancy
  Th  Th0  1  0.179132  0.820868  0.250000  1
  Np  Np1  1  0.822567  0.177433  0.750000  1
  Np  Np2  1  0.752640  0.247360  0.250000  1
  Np  Np3  1  0.247860  0.752140  0.750000  1
  Np  Np4  1  0.746524  0.677503  0.681132  1
  Np  Np5  1  0.322497  0.253476  0.818868  1
  Np  Np6  1  0.251599  0.322363  0.321186  1
  Np  Np7  1  0.677637  0.748401  0.178814  1
  F  F8  1  0.325074  0.338013  0.052547  1
  F  F9  1  0.948722  0.818536  0.155643  1
  F  F10  1  0.841825  0.448134  0.678040  1
  F  F11  1  0.453972  0.856375  0.173925  1
  F  F12  1  0.819507  0.946765  0.660522  1
  F  F13  1  0.341424  0.327836  0.550365  1
  F  F14  1  0.672164  0.658576  0.949634  1
  F  F15  1  0.053235  0.180493  0.839478  1
  F  F16  1  0.143625  0.546028  0.326075  1
  F  F17  1  0.551866  0.158175  0.821960  1
  F  F18  1  0.181464  0.051278  0.344357  1
  F  F19  1  0.661987  0.674926  0.447453  1
  F  F20  1  0.780213  0.279900  0.988868  1
  F  F21  1  0.014065  0.277923  0.216508  1
  F  F22  1  0.780137  0.509683  0.216552  1
  F  F23  1  0.509708  0.783107  0.717017  1
  F  F24  1  0.281657  0.014003  0.715546  1
  F  F25  1  0.286066  0.776159  0.487592  1
  F  F26  1  0.223841  0.713934  0.012408  1
  F  F27  1  0.985997  0.718343  0.784454  1
  F  F28  1  0.216893  0.490292  0.782983  1
  F  F29  1  0.490317  0.219863  0.283448  1
  F  F30  1  0.722077  0.985935  0.283492  1
  F  F31  1  0.720100  0.219787  0.511132  1
  F  F32  1  0.459203  0.540797  0.250000  1
  F  F33  1  0.755553  0.966568  0.967184  1
  F  F34  1  0.033432  0.244447  0.532816  1
  F  F35  1  0.246146  0.032981  0.029964  1
  F  F36  1  0.967019  0.753854  0.470036  1
  F  F37  1  0.532255  0.467745  0.750000  1
