# generated using pymatgen
data_NaTbY5PtI12
_symmetry_space_group_name_H-M   'P 1'
_cell_length_a   9.84995492
_cell_length_b   9.76370265
_cell_length_c   9.83890334
_cell_angle_alpha   107.17117957
_cell_angle_beta   106.73568549
_cell_angle_gamma   106.99763169
_symmetry_Int_Tables_number   1
_chemical_formula_structural   NaTbY5PtI12
_chemical_formula_sum   'Na1 Tb1 Y5 Pt1 I12'
_cell_volume   788.70155797
_cell_formula_units_Z   1
loop_
 _symmetry_equiv_pos_site_id
 _symmetry_equiv_pos_as_xyz
  1  'x, y, z'
loop_
 _atom_site_type_symbol
 _atom_site_label
 _atom_site_symmetry_multiplicity
 _atom_site_fract_x
 _atom_site_fract_y
 _atom_site_fract_z
 _atom_site_occupancy
  Na  Na0  1  0.499985  0.500025  0.499986  1
  Tb  Tb1  1  0.973168  0.699185  0.901813  1
  Y  Y2  1  0.101784  0.027848  0.309069  1
  Y  Y3  1  0.309239  0.100922  0.029047  1
  Y  Y4  1  0.026951  0.300883  0.098113  1
  Y  Y5  1  0.898218  0.972453  0.691058  1
  Y  Y6  1  0.690864  0.899451  0.971061  1
  Pt  Pt7  1  0.000018  0.999340  0.999866  1
  I  I8  1  0.075416  0.678665  0.222910  1
  I  I9  1  0.223460  0.075837  0.679136  1
  I  I10  1  0.679836  0.224770  0.076190  1
  I  I11  1  0.924704  0.320849  0.777658  1
  I  I12  1  0.776542  0.924206  0.320848  1
  I  I13  1  0.320449  0.775468  0.923893  1
  I  I14  1  0.450815  0.142173  0.372352  1
  I  I15  1  0.371479  0.450728  0.142113  1
  I  I16  1  0.141851  0.372487  0.449875  1
  I  I17  1  0.549126  0.857835  0.627637  1
  I  I18  1  0.628216  0.549314  0.857922  1
  I  I19  1  0.857879  0.627562  0.549454  1
