# generated using pymatgen
data_Cs12YScSe8
_symmetry_space_group_name_H-M   'P 1'
_cell_length_a   11.61478700
_cell_length_b   11.61478846
_cell_length_c   8.78857500
_cell_angle_alpha   90.00000000
_cell_angle_beta   90.00000000
_cell_angle_gamma   119.99999869
_symmetry_Int_Tables_number   1
_chemical_formula_structural   Cs12YScSe8
_chemical_formula_sum   'Cs12 Y1 Sc1 Se8'
_cell_volume   1026.76641568
_cell_formula_units_Z   1
loop_
 _symmetry_equiv_pos_site_id
 _symmetry_equiv_pos_as_xyz
  1  'x, y, z'
loop_
 _atom_site_type_symbol
 _atom_site_label
 _atom_site_symmetry_multiplicity
 _atom_site_fract_x
 _atom_site_fract_y
 _atom_site_fract_z
 _atom_site_occupancy
  Cs  Cs0  1  0.134596  0.865404  0.547190  1
  Cs  Cs1  1  0.270592  0.135296  0.045086  1
  Cs  Cs2  1  0.864704  0.729408  0.045086  1
  Cs  Cs3  1  0.134596  0.269193  0.547190  1
  Cs  Cs4  1  0.730807  0.865404  0.547190  1
  Cs  Cs5  1  0.864704  0.135296  0.045086  1
  Cs  Cs6  1  0.533202  0.466798  0.360816  1
  Cs  Cs7  1  0.061266  0.530633  0.859128  1
  Cs  Cs8  1  0.469367  0.938734  0.859128  1
  Cs  Cs9  1  0.533202  0.066404  0.360816  1
  Cs  Cs10  1  0.933596  0.466798  0.360816  1
  Cs  Cs11  1  0.469367  0.530633  0.859128  1
  Y  Y12  1  0.333333  0.666667  0.257598  1
  Sc  Sc13  1  0.666667  0.333333  0.757996  1
  Se  Se14  1  0.333333  0.666667  0.569603  1
  Se  Se15  1  0.666667  0.333333  0.055102  1
  Se  Se16  1  0.204429  0.795571  0.155116  1
  Se  Se17  1  0.421628  0.210814  0.659034  1
  Se  Se18  1  0.789186  0.578372  0.659034  1
  Se  Se19  1  0.204429  0.408859  0.155116  1
  Se  Se20  1  0.591141  0.795571  0.155116  1
  Se  Se21  1  0.789186  0.210814  0.659034  1
