# generated using pymatgen
data_ZrSc11(Zn3N)4
_symmetry_space_group_name_H-M   'P 1'
_cell_length_a   8.54644538
_cell_length_b   8.54644544
_cell_length_c   8.55937100
_cell_angle_alpha   59.94996178
_cell_angle_beta   59.94996153
_cell_angle_gamma   59.95883375
_symmetry_Int_Tables_number   1
_chemical_formula_structural   ZrSc11(Zn3N)4
_chemical_formula_sum   'Zr1 Sc11 Zn12 N4'
_cell_volume   441.60493918
_cell_formula_units_Z   1
loop_
 _symmetry_equiv_pos_site_id
 _symmetry_equiv_pos_as_xyz
  1  'x, y, z'
loop_
 _atom_site_type_symbol
 _atom_site_label
 _atom_site_symmetry_multiplicity
 _atom_site_fract_x
 _atom_site_fract_y
 _atom_site_fract_z
 _atom_site_occupancy
  Zr  Zr0  1  0.063258  0.063258  0.436742  1
  Sc  Sc1  1  0.813377  0.185953  0.185425  1
  Sc  Sc2  1  0.185953  0.813377  0.185425  1
  Sc  Sc3  1  0.814271  0.814271  0.185729  1
  Sc  Sc4  1  0.185953  0.813377  0.815246  1
  Sc  Sc5  1  0.813377  0.185953  0.815246  1
  Sc  Sc6  1  0.186080  0.186080  0.813920  1
  Sc  Sc7  1  0.435796  0.063926  0.064364  1
  Sc  Sc8  1  0.063926  0.435796  0.064364  1
  Sc  Sc9  1  0.436060  0.436060  0.063940  1
  Sc  Sc10  1  0.063926  0.435796  0.435913  1
  Sc  Sc11  1  0.435796  0.063926  0.435913  1
  Zn  Zn12  1  0.418873  0.418873  0.743023  1
  Zn  Zn13  1  0.418873  0.418873  0.419230  1
  Zn  Zn14  1  0.743397  0.418628  0.418987  1
  Zn  Zn15  1  0.418628  0.743397  0.418987  1
  Zn  Zn16  1  0.831434  0.831434  0.506597  1
  Zn  Zn17  1  0.831434  0.831434  0.830536  1
  Zn  Zn18  1  0.506811  0.831193  0.830998  1
  Zn  Zn19  1  0.831193  0.506811  0.830998  1
  Zn  Zn20  1  0.625413  0.625413  0.124181  1
  Zn  Zn21  1  0.625413  0.625413  0.624993  1
  Zn  Zn22  1  0.124799  0.626162  0.624520  1
  Zn  Zn23  1  0.626162  0.124799  0.624520  1
  N  N24  1  0.125369  0.125369  0.625505  1
  N  N25  1  0.125369  0.125369  0.123756  1
  N  N26  1  0.624402  0.124654  0.125472  1
  N  N27  1  0.124654  0.624402  0.125472  1
