# generated using pymatgen
data_K8Hf6BCl20
_symmetry_space_group_name_H-M   'P 1'
_cell_length_a   11.11232547
_cell_length_b   11.11232579
_cell_length_c   11.11232500
_cell_angle_alpha   59.99999937
_cell_angle_beta   59.99999842
_cell_angle_gamma   59.99999990
_symmetry_Int_Tables_number   1
_chemical_formula_structural   K8Hf6BCl20
_chemical_formula_sum   'K8 Hf6 B1 Cl20'
_cell_volume   970.28618478
_cell_formula_units_Z   1
loop_
 _symmetry_equiv_pos_site_id
 _symmetry_equiv_pos_as_xyz
  1  'x, y, z'
loop_
 _atom_site_type_symbol
 _atom_site_label
 _atom_site_symmetry_multiplicity
 _atom_site_fract_x
 _atom_site_fract_y
 _atom_site_fract_z
 _atom_site_occupancy
  K  K0  1  0.078986  0.640338  0.640338  1
  K  K1  1  0.640338  0.078986  0.640338  1
  K  K2  1  0.640338  0.640338  0.078986  1
  K  K3  1  0.640338  0.640338  0.640338  1
  K  K4  1  0.359662  0.921014  0.359662  1
  K  K5  1  0.921014  0.359662  0.359662  1
  K  K6  1  0.359662  0.359662  0.921014  1
  K  K7  1  0.359662  0.359662  0.359662  1
  Hf  Hf8  1  0.856677  0.856677  0.143323  1
  Hf  Hf9  1  0.856677  0.143323  0.856677  1
  Hf  Hf10  1  0.143323  0.143323  0.856677  1
  Hf  Hf11  1  0.143323  0.856677  0.143323  1
  Hf  Hf12  1  0.143323  0.856677  0.856677  1
  Hf  Hf13  1  0.856677  0.143323  0.143323  1
  B  B14  1  0.000000  0.000000  0.000000  1
  Cl  Cl15  1  0.674393  0.325607  0.000000  1
  Cl  Cl16  1  0.000000  0.674393  0.000000  1
  Cl  Cl17  1  0.000000  0.000000  0.674393  1
  Cl  Cl18  1  0.674393  0.000000  0.325607  1
  Cl  Cl19  1  0.325607  0.674393  0.000000  1
  Cl  Cl20  1  0.325607  0.000000  0.674393  1
  Cl  Cl21  1  0.000000  0.000000  0.325607  1
  Cl  Cl22  1  0.000000  0.325607  0.000000  1
  Cl  Cl23  1  0.000000  0.674393  0.325607  1
  Cl  Cl24  1  0.674393  0.000000  0.000000  1
  Cl  Cl25  1  0.000000  0.325607  0.674393  1
  Cl  Cl26  1  0.325607  0.000000  0.000000  1
  Cl  Cl27  1  0.685858  0.685858  0.314142  1
  Cl  Cl28  1  0.685858  0.314142  0.685858  1
  Cl  Cl29  1  0.314142  0.314142  0.685858  1
  Cl  Cl30  1  0.314142  0.685858  0.314142  1
  Cl  Cl31  1  0.314142  0.685858  0.685858  1
  Cl  Cl32  1  0.685858  0.314142  0.314142  1
  Cl  Cl33  1  0.750000  0.750000  0.750000  1
  Cl  Cl34  1  0.250000  0.250000  0.250000  1
