# generated using pymatgen
data_Tm16Lu4(SiSb3)3
_symmetry_space_group_name_H-M   'P 1'
_cell_length_a   7.89436105
_cell_length_b   9.00501600
_cell_length_c   11.69785905
_cell_angle_alpha   90.00000000
_cell_angle_beta   89.90793777
_cell_angle_gamma   90.00000000
_symmetry_Int_Tables_number   1
_chemical_formula_structural   Tm16Lu4(SiSb3)3
_chemical_formula_sum   'Tm16 Lu4 Si3 Sb9'
_cell_volume   831.58624498
_cell_formula_units_Z   1
loop_
 _symmetry_equiv_pos_site_id
 _symmetry_equiv_pos_as_xyz
  1  'x, y, z'
loop_
 _atom_site_type_symbol
 _atom_site_label
 _atom_site_symmetry_multiplicity
 _atom_site_fract_x
 _atom_site_fract_y
 _atom_site_fract_z
 _atom_site_occupancy
  Tm  Tm0  1  0.815381  0.946430  0.063778  1
  Tm  Tm1  1  0.310566  0.043854  0.431378  1
  Tm  Tm2  1  0.180941  0.447244  0.938689  1
  Tm  Tm3  1  0.687167  0.564945  0.565717  1
  Tm  Tm4  1  0.180941  0.052756  0.938689  1
  Tm  Tm5  1  0.687167  0.935055  0.565717  1
  Tm  Tm6  1  0.815381  0.553570  0.063778  1
  Tm  Tm7  1  0.310566  0.456146  0.431378  1
  Tm  Tm8  1  0.165881  0.750000  0.213616  1
  Tm  Tm9  1  0.677272  0.250000  0.272050  1
  Tm  Tm10  1  0.835652  0.250000  0.786294  1
  Tm  Tm11  1  0.334682  0.750000  0.716117  1
  Tm  Tm12  1  0.640622  0.750000  0.293438  1
  Tm  Tm13  1  0.141462  0.250000  0.207275  1
  Tm  Tm14  1  0.343869  0.250000  0.713952  1
  Tm  Tm15  1  0.858401  0.750000  0.794915  1
  Lu  Lu16  1  0.535826  0.250000  0.996146  1
  Lu  Lu17  1  0.041063  0.750000  0.502064  1
  Lu  Lu18  1  0.461031  0.750000  0.001599  1
  Lu  Lu19  1  0.974672  0.250000  0.497446  1
  Si  Si20  1  0.908933  0.250000  0.024726  1
  Si  Si21  1  0.416320  0.750000  0.480574  1
  Si  Si22  1  0.087905  0.750000  0.977981  1
  Sb  Sb23  1  0.932711  0.988284  0.326696  1
  Sb  Sb24  1  0.433014  0.010814  0.172662  1
  Sb  Sb25  1  0.066445  0.491523  0.674001  1
  Sb  Sb26  1  0.566817  0.509866  0.826190  1
  Sb  Sb27  1  0.066445  0.008477  0.674001  1
  Sb  Sb28  1  0.566817  0.990134  0.826190  1
  Sb  Sb29  1  0.932711  0.511716  0.326696  1
  Sb  Sb30  1  0.433014  0.489186  0.172662  1
  Sb  Sb31  1  0.590323  0.250000  0.523586  1
