# generated using pymatgen
data_Dy4CuOs7
_symmetry_space_group_name_H-M   'P 1'
_cell_length_a   5.32709385
_cell_length_b   5.32709415
_cell_length_c   8.82721200
_cell_angle_alpha   90.00000000
_cell_angle_beta   90.00000000
_cell_angle_gamma   120.82776378
_symmetry_Int_Tables_number   1
_chemical_formula_structural   Dy4CuOs7
_chemical_formula_sum   'Dy4 Cu1 Os7'
_cell_volume   215.10556464
_cell_formula_units_Z   1
loop_
 _symmetry_equiv_pos_site_id
 _symmetry_equiv_pos_as_xyz
  1  'x, y, z'
loop_
 _atom_site_type_symbol
 _atom_site_label
 _atom_site_symmetry_multiplicity
 _atom_site_fract_x
 _atom_site_fract_y
 _atom_site_fract_z
 _atom_site_occupancy
  Dy  Dy0  1  0.334998  0.665002  0.435596  1
  Dy  Dy1  1  0.669199  0.330801  0.563040  1
  Dy  Dy2  1  0.669199  0.330801  0.936960  1
  Dy  Dy3  1  0.334998  0.665002  0.064404  1
  Cu  Cu4  1  0.828732  0.171268  0.250000  1
  Os  Os5  1  0.010298  0.989702  0.498695  1
  Os  Os6  1  0.010298  0.989702  0.001305  1
  Os  Os7  1  0.820737  0.663029  0.250000  1
  Os  Os8  1  0.336971  0.179263  0.250000  1
  Os  Os9  1  0.161943  0.838057  0.750000  1
  Os  Os10  1  0.173009  0.350383  0.750000  1
  Os  Os11  1  0.649617  0.826991  0.750000  1
