# generated using pymatgen
data_YbTm2Ni19B10
_symmetry_space_group_name_H-M   'P 1'
_cell_length_a   7.85451174
_cell_length_b   7.85451232
_cell_length_c   5.74032616
_cell_angle_alpha   88.90551131
_cell_angle_beta   88.90551350
_cell_angle_gamma   67.12593050
_symmetry_Int_Tables_number   1
_chemical_formula_structural   YbTm2Ni19B10
_chemical_formula_sum   'Yb1 Tm2 Ni19 B10'
_cell_volume   326.20519796
_cell_formula_units_Z   1
loop_
 _symmetry_equiv_pos_site_id
 _symmetry_equiv_pos_as_xyz
  1  'x, y, z'
loop_
 _atom_site_type_symbol
 _atom_site_label
 _atom_site_symmetry_multiplicity
 _atom_site_fract_x
 _atom_site_fract_y
 _atom_site_fract_z
 _atom_site_occupancy
  Yb  Yb0  1  0.000000  0.000000  0.000000  1
  Tm  Tm1  1  0.626091  0.626091  0.615105  1
  Tm  Tm2  1  0.373909  0.373909  0.384895  1
  Ni  Ni3  1  0.622299  0.622299  0.128753  1
  Ni  Ni4  1  0.377701  0.377701  0.871247  1
  Ni  Ni5  1  0.837680  0.837680  0.705526  1
  Ni  Ni6  1  0.162320  0.162320  0.294474  1
  Ni  Ni7  1  0.818740  0.818740  0.270879  1
  Ni  Ni8  1  0.181260  0.181260  0.729121  1
  Ni  Ni9  1  0.000000  0.000000  0.500000  1
  Ni  Ni10  1  0.623950  0.121759  0.073920  1
  Ni  Ni11  1  0.376050  0.878241  0.926080  1
  Ni  Ni12  1  0.878241  0.376050  0.926080  1
  Ni  Ni13  1  0.121759  0.623950  0.073920  1
  Ni  Ni14  1  0.289824  0.768847  0.301393  1
  Ni  Ni15  1  0.710176  0.231153  0.698607  1
  Ni  Ni16  1  0.231153  0.710176  0.698607  1
  Ni  Ni17  1  0.768847  0.289824  0.301393  1
  Ni  Ni18  1  0.482994  0.953745  0.302567  1
  Ni  Ni19  1  0.517006  0.046255  0.697433  1
  Ni  Ni20  1  0.046255  0.517006  0.697433  1
  Ni  Ni21  1  0.953745  0.482994  0.302567  1
  B  B22  1  0.699675  0.065892  0.430238  1
  B  B23  1  0.300325  0.934108  0.569762  1
  B  B24  1  0.934108  0.300325  0.569762  1
  B  B25  1  0.065892  0.699675  0.430238  1
  B  B26  1  0.349863  0.142212  0.025854  1
  B  B27  1  0.650137  0.857788  0.974146  1
  B  B28  1  0.857788  0.650137  0.974146  1
  B  B29  1  0.142212  0.349863  0.025854  1
  B  B30  1  0.615433  0.384567  0.000000  1
  B  B31  1  0.384567  0.615433  0.000000  1
