# generated using pymatgen
data_Cu3Sn3PdRh5
_symmetry_space_group_name_H-M   'P 1'
_cell_length_a   4.40281022
_cell_length_b   6.24617300
_cell_length_c   13.25917941
_cell_angle_alpha   90.00000000
_cell_angle_beta   89.91619928
_cell_angle_gamma   90.00000000
_symmetry_Int_Tables_number   1
_chemical_formula_structural   Cu3Sn3PdRh5
_chemical_formula_sum   'Cu6 Sn6 Pd2 Rh10'
_cell_volume   364.63651533
_cell_formula_units_Z   2
loop_
 _symmetry_equiv_pos_site_id
 _symmetry_equiv_pos_as_xyz
  1  'x, y, z'
loop_
 _atom_site_type_symbol
 _atom_site_label
 _atom_site_symmetry_multiplicity
 _atom_site_fract_x
 _atom_site_fract_y
 _atom_site_fract_z
 _atom_site_occupancy
  Cu  Cu0  1  0.000000  0.499999  0.000000  1
  Cu  Cu1  1  0.500869  0.000000  0.167515  1
  Cu  Cu2  1  0.001338  0.499999  0.333628  1
  Cu  Cu3  1  0.499999  0.000000  0.500000  1
  Cu  Cu4  1  0.998661  0.499999  0.666371  1
  Cu  Cu5  1  0.499130  0.000000  0.832485  1
  Sn  Sn6  1  0.000000  0.000000  0.000000  1
  Sn  Sn7  1  0.501327  0.499999  0.172462  1
  Sn  Sn8  1  0.001165  0.000000  0.333445  1
  Sn  Sn9  1  0.499999  0.499999  0.500000  1
  Sn  Sn10  1  0.998834  0.000000  0.666555  1
  Sn  Sn11  1  0.498672  0.499999  0.827538  1
  Pd  Pd12  1  0.499999  0.253923  0.000000  1
  Pd  Pd13  1  0.499999  0.746076  0.000000  1
  Rh  Rh14  1  0.000935  0.251496  0.164314  1
  Rh  Rh15  1  0.000935  0.748504  0.164314  1
  Rh  Rh16  1  0.500956  0.247246  0.333961  1
  Rh  Rh17  1  0.500956  0.752753  0.333961  1
  Rh  Rh18  1  0.000000  0.251276  0.500000  1
  Rh  Rh19  1  0.000000  0.748724  0.500000  1
  Rh  Rh20  1  0.499043  0.247246  0.666039  1
  Rh  Rh21  1  0.499043  0.752753  0.666039  1
  Rh  Rh22  1  0.999063  0.251496  0.835686  1
  Rh  Rh23  1  0.999063  0.748504  0.835686  1
