# generated using pymatgen
data_Li2NdAgP2
_symmetry_space_group_name_H-M   'P 1'
_cell_length_a   4.24403400
_cell_length_b   4.24403428
_cell_length_c   6.84435900
_cell_angle_alpha   90.00000000
_cell_angle_beta   90.00000000
_cell_angle_gamma   120.00001344
_symmetry_Int_Tables_number   1
_chemical_formula_structural   Li2NdAgP2
_chemical_formula_sum   'Li2 Nd1 Ag1 P2'
_cell_volume   106.76307925
_cell_formula_units_Z   1
loop_
 _symmetry_equiv_pos_site_id
 _symmetry_equiv_pos_as_xyz
  1  'x, y, z'
loop_
 _atom_site_type_symbol
 _atom_site_label
 _atom_site_symmetry_multiplicity
 _atom_site_fract_x
 _atom_site_fract_y
 _atom_site_fract_z
 _atom_site_occupancy
  Li  Li0  1  0.000000  0.000000  0.514898  1
  Li  Li1  1  0.333333  0.666667  0.647493  1
  Nd  Nd2  1  0.000000  0.000000  0.003771  1
  Ag  Ag3  1  0.666667  0.333333  0.353601  1
  P  P4  1  0.333333  0.666667  0.238967  1
  P  P5  1  0.666667  0.333333  0.741270  1
