# generated using pymatgen
data_Rb2PHO4
_symmetry_space_group_name_H-M   'P 1'
_cell_length_a   8.05616600
_cell_length_b   6.44245746
_cell_length_c   6.19771771
_cell_angle_alpha   60.02478130
_cell_angle_beta   90.00000000
_cell_angle_gamma   90.00000000
_symmetry_Int_Tables_number   1
_chemical_formula_structural   Rb2PHO4
_chemical_formula_sum   'Rb4 P2 H2 O8'
_cell_volume   278.64469792
_cell_formula_units_Z   2
loop_
 _symmetry_equiv_pos_site_id
 _symmetry_equiv_pos_as_xyz
  1  'x, y, z'
loop_
 _atom_site_type_symbol
 _atom_site_label
 _atom_site_symmetry_multiplicity
 _atom_site_fract_x
 _atom_site_fract_y
 _atom_site_fract_z
 _atom_site_occupancy
  Rb  Rb0  1  0.257362  0.726120  0.632114  1
  Rb  Rb1  1  0.757362  0.273880  0.367886  1
  Rb  Rb2  1  0.005140  0.003167  0.007814  1
  Rb  Rb3  1  0.505140  0.996833  0.992186  1
  P  P4  1  0.238469  0.386616  0.295434  1
  P  P5  1  0.738469  0.613384  0.704566  1
  H  H6  1  0.470674  0.453594  0.053274  1
  H  H7  1  0.970674  0.546406  0.946726  1
  O  O8  1  0.405303  0.314728  0.190919  1
  O  O9  1  0.905303  0.685272  0.809081  1
  O  O10  1  0.589686  0.654020  0.839596  1
  O  O11  1  0.089686  0.345980  0.160404  1
  O  O12  1  0.256853  0.651884  0.218320  1
  O  O13  1  0.756853  0.348116  0.781680  1
  O  O14  1  0.237715  0.211872  0.576395  1
  O  O15  1  0.737715  0.788128  0.423605  1
