# generated using pymatgen
data_Dy2Al2PdRu
_symmetry_space_group_name_H-M   'P 1'
_cell_length_a   4.23693000
_cell_length_b   6.95978900
_cell_length_c   7.97444700
_cell_angle_alpha   90.00000000
_cell_angle_beta   90.00000000
_cell_angle_gamma   90.00000000
_symmetry_Int_Tables_number   1
_chemical_formula_structural   Dy2Al2PdRu
_chemical_formula_sum   'Dy4 Al4 Pd2 Ru2'
_cell_volume   235.15160005
_cell_formula_units_Z   2
loop_
 _symmetry_equiv_pos_site_id
 _symmetry_equiv_pos_as_xyz
  1  'x, y, z'
loop_
 _atom_site_type_symbol
 _atom_site_label
 _atom_site_symmetry_multiplicity
 _atom_site_fract_x
 _atom_site_fract_y
 _atom_site_fract_z
 _atom_site_occupancy
  Dy  Dy0  1  0.250000  0.035523  0.323774  1
  Dy  Dy1  1  0.250000  0.535523  0.176226  1
  Dy  Dy2  1  0.750000  0.971953  0.685105  1
  Dy  Dy3  1  0.750000  0.471953  0.814895  1
  Al  Al4  1  0.250000  0.138400  0.935689  1
  Al  Al5  1  0.250000  0.638400  0.564311  1
  Al  Al6  1  0.750000  0.856222  0.057203  1
  Al  Al7  1  0.750000  0.356222  0.442797  1
  Pd  Pd8  1  0.750000  0.729842  0.377948  1
  Pd  Pd9  1  0.750000  0.229842  0.122052  1
  Ru  Ru10  1  0.250000  0.268060  0.618211  1
  Ru  Ru11  1  0.250000  0.768060  0.881789  1
