# generated using pymatgen
data_Nd4Zn3HgRh4
_symmetry_space_group_name_H-M   'P 1'
_cell_length_a   7.40687000
_cell_length_b   4.04591300
_cell_length_c   16.80870300
_cell_angle_alpha   90.00000000
_cell_angle_beta   90.00000000
_cell_angle_gamma   90.00000000
_symmetry_Int_Tables_number   1
_chemical_formula_structural   Nd4Zn3HgRh4
_chemical_formula_sum   'Nd8 Zn6 Hg2 Rh8'
_cell_volume   503.71567486
_cell_formula_units_Z   2
loop_
 _symmetry_equiv_pos_site_id
 _symmetry_equiv_pos_as_xyz
  1  'x, y, z'
loop_
 _atom_site_type_symbol
 _atom_site_label
 _atom_site_symmetry_multiplicity
 _atom_site_fract_x
 _atom_site_fract_y
 _atom_site_fract_z
 _atom_site_occupancy
  Nd  Nd0  1  0.049378  0.249999  0.283433  1
  Nd  Nd1  1  0.450621  0.750000  0.783433  1
  Nd  Nd2  1  0.553579  0.249999  0.213835  1
  Nd  Nd3  1  0.946420  0.750000  0.713835  1
  Nd  Nd4  1  0.168671  0.249999  0.060599  1
  Nd  Nd5  1  0.331327  0.750000  0.560599  1
  Nd  Nd6  1  0.672525  0.249999  0.440851  1
  Nd  Nd7  1  0.827475  0.750000  0.940851  1
  Zn  Zn8  1  0.623007  0.249999  0.650274  1
  Zn  Zn9  1  0.876993  0.750000  0.150274  1
  Zn  Zn10  1  0.995130  0.249999  0.562192  1
  Zn  Zn11  1  0.504871  0.750000  0.062192  1
  Zn  Zn12  1  0.502731  0.249999  0.940872  1
  Zn  Zn13  1  0.997268  0.750000  0.440872  1
  Hg  Hg14  1  0.117864  0.249999  0.847757  1
  Hg  Hg15  1  0.382137  0.750000  0.347757  1
  Rh  Rh16  1  0.228448  0.249999  0.442674  1
  Rh  Rh17  1  0.271553  0.750000  0.942674  1
  Rh  Rh18  1  0.746449  0.249999  0.064897  1
  Rh  Rh19  1  0.753552  0.750000  0.564896  1
  Rh  Rh20  1  0.246660  0.249999  0.681319  1
  Rh  Rh21  1  0.253341  0.750000  0.181319  1
  Rh  Rh22  1  0.729986  0.249999  0.811295  1
  Rh  Rh23  1  0.770013  0.750000  0.311295  1
