# generated using pymatgen
data_Lu2B8RuRh
_symmetry_space_group_name_H-M   'P 1'
_cell_length_a   3.52206300
_cell_length_b   5.91349868
_cell_length_c   11.45006325
_cell_angle_alpha   89.91363321
_cell_angle_beta   90.00000000
_cell_angle_gamma   90.00000000
_symmetry_Int_Tables_number   1
_chemical_formula_structural   Lu2B8RuRh
_chemical_formula_sum   'Lu4 B16 Ru2 Rh2'
_cell_volume   238.47838206
_cell_formula_units_Z   2
loop_
 _symmetry_equiv_pos_site_id
 _symmetry_equiv_pos_as_xyz
  1  'x, y, z'
loop_
 _atom_site_type_symbol
 _atom_site_label
 _atom_site_symmetry_multiplicity
 _atom_site_fract_x
 _atom_site_fract_y
 _atom_site_fract_z
 _atom_site_occupancy
  Lu  Lu0  1  0.000000  0.631255  0.352016  1
  Lu  Lu1  1  0.000000  0.368745  0.647984  1
  Lu  Lu2  1  0.000000  0.131172  0.150005  1
  Lu  Lu3  1  0.000000  0.868828  0.849995  1
  B  B4  1  0.500000  0.791709  0.188037  1
  B  B5  1  0.500000  0.208291  0.811963  1
  B  B6  1  0.500000  0.292074  0.313474  1
  B  B7  1  0.500000  0.707926  0.686526  1
  B  B8  1  0.500000  0.864416  0.028765  1
  B  B9  1  0.500000  0.135584  0.971235  1
  B  B10  1  0.500000  0.364945  0.470243  1
  B  B11  1  0.500000  0.635055  0.529757  1
  B  B12  1  0.500000  0.887186  0.452842  1
  B  B13  1  0.500000  0.112814  0.547158  1
  B  B14  1  0.500000  0.386665  0.048379  1
  B  B15  1  0.500000  0.613335  0.951621  1
  B  B16  1  0.500000  0.975540  0.307194  1
  B  B17  1  0.500000  0.024460  0.692806  1
  B  B18  1  0.500000  0.478512  0.194563  1
  B  B19  1  0.500000  0.521488  0.805437  1
  Ru  Ru20  1  0.000000  0.142292  0.406550  1
  Ru  Ru21  1  0.000000  0.857708  0.593450  1
  Rh  Rh22  1  0.000000  0.643192  0.095334  1
  Rh  Rh23  1  0.000000  0.356808  0.904666  1
