# generated using pymatgen
data_Eu6Ag16Pt
_symmetry_space_group_name_H-M   'P 1'
_cell_length_a   8.95098550
_cell_length_b   8.95098550
_cell_length_c   8.95098500
_cell_angle_alpha   109.47122178
_cell_angle_beta   109.47122177
_cell_angle_gamma   109.47121951
_symmetry_Int_Tables_number   1
_chemical_formula_structural   Eu6Ag16Pt
_chemical_formula_sum   'Eu6 Ag16 Pt1'
_cell_volume   552.06554005
_cell_formula_units_Z   1
loop_
 _symmetry_equiv_pos_site_id
 _symmetry_equiv_pos_as_xyz
  1  'x, y, z'
loop_
 _atom_site_type_symbol
 _atom_site_label
 _atom_site_symmetry_multiplicity
 _atom_site_fract_x
 _atom_site_fract_y
 _atom_site_fract_z
 _atom_site_occupancy
  Eu  Eu0  1  0.283065  0.283065  0.000000  1
  Eu  Eu1  1  0.716935  0.716935  0.000000  1
  Eu  Eu2  1  0.283065  0.000000  0.283065  1
  Eu  Eu3  1  0.000000  0.283065  0.283065  1
  Eu  Eu4  1  0.716935  0.000000  0.716935  1
  Eu  Eu5  1  0.000000  0.716935  0.716935  1
  Ag  Ag6  1  0.500000  0.000000  0.000000  1
  Ag  Ag7  1  0.663764  0.336236  0.000000  1
  Ag  Ag8  1  0.000000  0.500000  0.000000  1
  Ag  Ag9  1  0.336236  0.663764  0.000000  1
  Ag  Ag10  1  0.663764  0.663764  0.327527  1
  Ag  Ag11  1  0.672471  0.336235  0.336235  1
  Ag  Ag12  1  0.336235  0.672471  0.336235  1
  Ag  Ag13  1  0.663764  0.000000  0.336236  1
  Ag  Ag14  1  0.000000  0.663764  0.336236  1
  Ag  Ag15  1  0.000000  0.000000  0.500000  1
  Ag  Ag16  1  0.500000  0.500000  0.500000  1
  Ag  Ag17  1  0.336236  0.000000  0.663764  1
  Ag  Ag18  1  0.663764  0.327527  0.663764  1
  Ag  Ag19  1  0.000000  0.336236  0.663764  1
  Ag  Ag20  1  0.327527  0.663764  0.663764  1
  Ag  Ag21  1  0.336235  0.336235  0.672471  1
  Pt  Pt22  1  0.000000  0.000000  0.000000  1
