# generated using pymatgen
data_Lu2ThCo2
_symmetry_space_group_name_H-M   'P 1'
_cell_length_a   5.91287099
_cell_length_b   5.91287175
_cell_length_c   5.91287117
_cell_angle_alpha   143.40570660
_cell_angle_beta   117.93108245
_cell_angle_gamma   74.25919384
_symmetry_Int_Tables_number   1
_chemical_formula_structural   Lu2ThCo2
_chemical_formula_sum   'Lu2 Th1 Co2'
_cell_volume   106.70615150
_cell_formula_units_Z   1
loop_
 _symmetry_equiv_pos_site_id
 _symmetry_equiv_pos_as_xyz
  1  'x, y, z'
loop_
 _atom_site_type_symbol
 _atom_site_label
 _atom_site_symmetry_multiplicity
 _atom_site_fract_x
 _atom_site_fract_y
 _atom_site_fract_z
 _atom_site_occupancy
  Lu  Lu0  1  0.687745  0.187745  0.500000  1
  Lu  Lu1  1  0.312255  0.812254  0.500000  1
  Th  Th2  1  0.000000  0.000000  0.000000  1
  Co  Co3  1  0.695434  0.500000  0.195435  1
  Co  Co4  1  0.304565  0.500000  0.804565  1
