# generated using pymatgen
data_Y(SbO3)3
_symmetry_space_group_name_H-M   'P 1'
_cell_length_a   7.50504100
_cell_length_b   5.38857371
_cell_length_c   8.18163445
_cell_angle_alpha   86.14841378
_cell_angle_beta   90.00000000
_cell_angle_gamma   90.00000000
_symmetry_Int_Tables_number   1
_chemical_formula_structural   Y(SbO3)3
_chemical_formula_sum   'Y2 Sb6 O18'
_cell_volume   330.12997538
_cell_formula_units_Z   2
loop_
 _symmetry_equiv_pos_site_id
 _symmetry_equiv_pos_as_xyz
  1  'x, y, z'
loop_
 _atom_site_type_symbol
 _atom_site_label
 _atom_site_symmetry_multiplicity
 _atom_site_fract_x
 _atom_site_fract_y
 _atom_site_fract_z
 _atom_site_occupancy
  Y  Y0  1  0.250000  0.965342  0.434948  1
  Y  Y1  1  0.750000  0.034658  0.565052  1
  Sb  Sb2  1  0.000000  0.000000  0.000000  1
  Sb  Sb3  1  0.500000  0.000000  0.000000  1
  Sb  Sb4  1  0.495026  0.529878  0.697790  1
  Sb  Sb5  1  0.004974  0.529878  0.697790  1
  Sb  Sb6  1  0.995026  0.470122  0.302210  1
  Sb  Sb7  1  0.504974  0.470122  0.302210  1
  O  O8  1  0.250000  0.881718  0.983563  1
  O  O9  1  0.937747  0.856609  0.778801  1
  O  O10  1  0.562253  0.856609  0.778801  1
  O  O11  1  0.959680  0.737714  0.472428  1
  O  O12  1  0.540320  0.737714  0.472428  1
  O  O13  1  0.250000  0.664538  0.655817  1
  O  O14  1  0.932358  0.675426  0.112151  1
  O  O15  1  0.567642  0.675426  0.112151  1
  O  O16  1  0.250000  0.593523  0.310155  1
  O  O17  1  0.750000  0.406477  0.689845  1
  O  O18  1  0.067642  0.324574  0.887849  1
  O  O19  1  0.432358  0.324574  0.887849  1
  O  O20  1  0.750000  0.335462  0.344183  1
  O  O21  1  0.040320  0.262286  0.527572  1
  O  O22  1  0.459680  0.262286  0.527572  1
  O  O23  1  0.062253  0.143391  0.221199  1
  O  O24  1  0.437747  0.143391  0.221199  1
  O  O25  1  0.750000  0.118282  0.016437  1
