# generated using pymatgen
data_Tm2ScB2Ir2Rh3
_symmetry_space_group_name_H-M   'P 1'
_cell_length_a   3.19000300
_cell_length_b   9.68311300
_cell_length_c   9.65359600
_cell_angle_alpha   90.00363271
_cell_angle_beta   90.00000000
_cell_angle_gamma   90.00000000
_symmetry_Int_Tables_number   1
_chemical_formula_structural   Tm2ScB2Ir2Rh3
_chemical_formula_sum   'Tm4 Sc2 B4 Ir4 Rh6'
_cell_volume   298.19146648
_cell_formula_units_Z   2
loop_
 _symmetry_equiv_pos_site_id
 _symmetry_equiv_pos_as_xyz
  1  'x, y, z'
loop_
 _atom_site_type_symbol
 _atom_site_label
 _atom_site_symmetry_multiplicity
 _atom_site_fract_x
 _atom_site_fract_y
 _atom_site_fract_z
 _atom_site_occupancy
  Tm  Tm0  1  0.000000  0.175240  0.675903  1
  Tm  Tm1  1  0.000000  0.824142  0.324591  1
  Tm  Tm2  1  0.000000  0.323974  0.175739  1
  Tm  Tm3  1  0.000000  0.675660  0.824507  1
  Sc  Sc4  1  0.000000  0.999026  0.000332  1
  Sc  Sc5  1  0.000000  0.499555  0.501245  1
  B  B6  1  0.000000  0.618885  0.121488  1
  B  B7  1  0.000000  0.378434  0.881394  1
  B  B8  1  0.000000  0.879165  0.618945  1
  B  B9  1  0.000000  0.121395  0.380801  1
  Ir  Ir10  1  0.500000  0.225921  0.928454  1
  Ir  Ir11  1  0.500000  0.570436  0.274815  1
  Ir  Ir12  1  0.500000  0.726257  0.570770  1
  Ir  Ir13  1  0.500000  0.274578  0.428916  1
  Rh  Rh14  1  0.500000  0.069918  0.223952  1
  Rh  Rh15  1  0.500000  0.930388  0.775089  1
  Rh  Rh16  1  0.500000  0.774823  0.070234  1
  Rh  Rh17  1  0.500000  0.430838  0.724365  1
  Rh  Rh18  1  0.500000  0.000577  0.499326  1
  Rh  Rh19  1  0.500000  0.500787  0.999133  1
