# generated using pymatgen
data_Ba16Li4Mo5W3N28
_symmetry_space_group_name_H-M   'P 1'
_cell_length_a   6.56066004
_cell_length_b   10.46532031
_cell_length_c   15.73326592
_cell_angle_alpha   98.97932037
_cell_angle_beta   90.01190165
_cell_angle_gamma   89.99724543
_symmetry_Int_Tables_number   1
_chemical_formula_structural   Ba16Li4Mo5W3N28
_chemical_formula_sum   'Ba16 Li4 Mo5 W3 N28'
_cell_volume   1066.99812756
_cell_formula_units_Z   1
loop_
 _symmetry_equiv_pos_site_id
 _symmetry_equiv_pos_as_xyz
  1  'x, y, z'
loop_
 _atom_site_type_symbol
 _atom_site_label
 _atom_site_symmetry_multiplicity
 _atom_site_fract_x
 _atom_site_fract_y
 _atom_site_fract_z
 _atom_site_occupancy
  Ba  Ba0  1  0.685850  0.250021  0.250127  1
  Ba  Ba1  1  0.144264  0.075307  0.380203  1
  Ba  Ba2  1  0.144316  0.424690  0.119915  1
  Ba  Ba3  1  0.855612  0.924133  0.620436  1
  Ba  Ba4  1  0.855389  0.576174  0.879566  1
  Ba  Ba5  1  0.719344  0.255361  0.515847  1
  Ba  Ba6  1  0.719278  0.244937  0.984377  1
  Ba  Ba7  1  0.280687  0.744740  0.484419  1
  Ba  Ba8  1  0.280482  0.754896  0.015969  1
  Ba  Ba9  1  0.228579  0.420900  0.572301  1
  Ba  Ba10  1  0.227898  0.079549  0.927530  1
  Ba  Ba11  1  0.771378  0.579429  0.427928  1
  Ba  Ba12  1  0.771437  0.920574  0.072021  1
  Ba  Ba13  1  0.023700  0.250242  0.749858  1
  Ba  Ba14  1  0.976115  0.750032  0.250138  1
  Ba  Ba15  1  0.315765  0.750092  0.749774  1
  Li  Li16  1  0.456434  0.871867  0.239294  1
  Li  Li17  1  0.543885  0.371900  0.739221  1
  Li  Li18  1  0.543062  0.128024  0.760666  1
  Li  Li19  1  0.456325  0.628152  0.260778  1
  Mo  Mo20  1  0.670749  0.578965  0.097138  1
  Mo  Mo21  1  0.670606  0.921125  0.402825  1
  Mo  Mo22  1  0.329295  0.421007  0.902777  1
  Mo  Mo23  1  0.329328  0.078927  0.597244  1
  Mo  Mo24  1  0.774967  0.894672  0.845193  1
  W  W25  1  0.774811  0.605786  0.655300  1
  W  W26  1  0.225231  0.105666  0.155122  1
  W  W27  1  0.225187  0.394195  0.344739  1
  N  N28  1  0.465366  0.107735  0.091645  1
  N  N29  1  0.816886  0.051763  0.805081  1
  N  N30  1  0.816991  0.447416  0.695411  1
  N  N31  1  0.183225  0.947444  0.195110  1
  N  N32  1  0.183285  0.552429  0.304694  1
  N  N33  1  0.469290  0.220937  0.653478  1
  N  N34  1  0.469391  0.278898  0.846658  1
  N  N35  1  0.530751  0.779092  0.346555  1
  N  N36  1  0.530596  0.720977  0.153281  1
  N  N37  1  0.535907  0.892271  0.907938  1
  N  N38  1  0.534317  0.607951  0.591851  1
  N  N39  1  0.921447  0.859250  0.435327  1
  N  N40  1  0.724771  0.037179  0.328775  1
  N  N41  1  0.724827  0.462822  0.171096  1
  N  N42  1  0.275216  0.962957  0.671352  1
  N  N43  1  0.275164  0.537283  0.828913  1
  N  N44  1  0.499827  0.500070  0.000009  1
  N  N45  1  0.499872  0.000035  0.500019  1
  N  N46  1  0.240173  0.249925  0.249903  1
  N  N47  1  0.759435  0.749257  0.749841  1
  N  N48  1  0.988224  0.861842  0.916451  1
  N  N49  1  0.989263  0.638583  0.583398  1
  N  N50  1  0.010792  0.138249  0.083279  1
  N  N51  1  0.010772  0.361580  0.416519  1
  N  N52  1  0.078567  0.358970  0.935290  1
  N  N53  1  0.921639  0.640914  0.064665  1
  N  N54  1  0.078552  0.140823  0.564702  1
  N  N55  1  0.465484  0.391981  0.408055  1
