# generated using pymatgen
data_LiLa8ZnRu2
_symmetry_space_group_name_H-M   'P 1'
_cell_length_a   10.04412636
_cell_length_b   10.01860687
_cell_length_c   10.04412594
_cell_angle_alpha   60.08401520
_cell_angle_beta   60.11726281
_cell_angle_gamma   60.08401817
_symmetry_Int_Tables_number   1
_chemical_formula_structural   LiLa8ZnRu2
_chemical_formula_sum   'Li2 La16 Zn2 Ru4'
_cell_volume   716.22814179
_cell_formula_units_Z   2
loop_
 _symmetry_equiv_pos_site_id
 _symmetry_equiv_pos_as_xyz
  1  'x, y, z'
loop_
 _atom_site_type_symbol
 _atom_site_label
 _atom_site_symmetry_multiplicity
 _atom_site_fract_x
 _atom_site_fract_y
 _atom_site_fract_z
 _atom_site_occupancy
  Li  Li0  1  0.673339  0.682880  0.960900  1
  Li  Li1  1  0.960900  0.682880  0.673339  1
  La  La2  1  0.904679  0.905835  0.904679  1
  La  La3  1  0.439599  0.438046  0.060201  1
  La  La4  1  0.060201  0.062154  0.439599  1
  La  La5  1  0.439599  0.062154  0.060201  1
  La  La6  1  0.309006  0.690994  0.309006  1
  La  La7  1  0.690471  0.691703  0.316039  1
  La  La8  1  0.690471  0.301787  0.316039  1
  La  La9  1  0.291070  0.902677  0.903578  1
  La  La10  1  0.904679  0.284809  0.904679  1
  La  La11  1  0.316039  0.691703  0.690471  1
  La  La12  1  0.903578  0.902677  0.291070  1
  La  La13  1  0.064959  0.435041  0.064959  1
  La  La14  1  0.316039  0.301787  0.690471  1
  La  La15  1  0.060201  0.438046  0.439599  1
  La  La16  1  0.440907  0.059093  0.440907  1
  La  La17  1  0.687419  0.312581  0.687419  1
  Zn  Zn18  1  0.667572  0.997569  0.667572  1
  Zn  Zn19  1  0.667572  0.667287  0.667572  1
  Ru  Ru20  1  0.115331  0.109428  0.665812  1
  Ru  Ru21  1  0.115279  0.110699  0.115279  1
  Ru  Ru22  1  0.115279  0.658741  0.115279  1
  Ru  Ru23  1  0.665812  0.109428  0.115331  1
