# generated using pymatgen
data_RbNa3FeO4
_symmetry_space_group_name_H-M   'P 1'
_cell_length_a   6.36971802
_cell_length_b   8.61912016
_cell_length_c   11.50778383
_cell_angle_alpha   79.19980931
_cell_angle_beta   74.66571354
_cell_angle_gamma   77.97144346
_symmetry_Int_Tables_number   1
_chemical_formula_structural   RbNa3FeO4
_chemical_formula_sum   'Rb4 Na12 Fe4 O16'
_cell_volume   590.03411073
_cell_formula_units_Z   4
loop_
 _symmetry_equiv_pos_site_id
 _symmetry_equiv_pos_as_xyz
  1  'x, y, z'
loop_
 _atom_site_type_symbol
 _atom_site_label
 _atom_site_symmetry_multiplicity
 _atom_site_fract_x
 _atom_site_fract_y
 _atom_site_fract_z
 _atom_site_occupancy
  Rb  Rb0  1  0.007370  0.123515  0.624710  1
  Rb  Rb1  1  0.992630  0.876485  0.375290  1
  Rb  Rb2  1  0.033729  0.378287  0.862808  1
  Rb  Rb3  1  0.966271  0.621713  0.137192  1
  Na  Na4  1  0.217007  0.157504  0.144412  1
  Na  Na5  1  0.782993  0.842496  0.855588  1
  Na  Na6  1  0.495622  0.658594  0.398806  1
  Na  Na7  1  0.504378  0.341406  0.601194  1
  Na  Na8  1  0.190828  0.431204  0.401864  1
  Na  Na9  1  0.539034  0.425631  0.129129  1
  Na  Na10  1  0.206288  0.946160  0.895659  1
  Na  Na11  1  0.793712  0.053840  0.104341  1
  Na  Na12  1  0.558615  0.959106  0.625681  1
  Na  Na13  1  0.441385  0.040894  0.374319  1
  Na  Na14  1  0.460966  0.574369  0.870871  1
  Na  Na15  1  0.809172  0.568796  0.598136  1
  Fe  Fe16  1  0.163879  0.717628  0.646516  1
  Fe  Fe17  1  0.836121  0.282372  0.353484  1
  Fe  Fe18  1  0.582253  0.217995  0.860962  1
  Fe  Fe19  1  0.417747  0.782005  0.139038  1
  O  O20  1  0.366424  0.834253  0.542169  1
  O  O21  1  0.633576  0.165747  0.457831  1
  O  O22  1  0.452738  0.117262  0.777779  1
  O  O23  1  0.547262  0.882738  0.222221  1
  O  O24  1  0.173134  0.732855  0.801018  1
  O  O25  1  0.826866  0.267145  0.198982  1
  O  O26  1  0.826191  0.081030  0.899517  1
  O  O27  1  0.173809  0.918970  0.100483  1
  O  O28  1  0.663121  0.388656  0.747862  1
  O  O29  1  0.336879  0.611344  0.252138  1
  O  O30  1  0.573378  0.683244  0.007104  1
  O  O31  1  0.426622  0.316756  0.992896  1
  O  O32  1  0.871117  0.795485  0.652267  1
  O  O33  1  0.798903  0.463895  0.424300  1
  O  O34  1  0.128883  0.204515  0.347733  1
  O  O35  1  0.201097  0.536105  0.575700  1
