# generated using pymatgen
data_Tb5YGa7Co16
_symmetry_space_group_name_H-M   'P 1'
_cell_length_a   8.48438128
_cell_length_b   8.48438194
_cell_length_c   8.47584800
_cell_angle_alpha   60.03327518
_cell_angle_beta   60.03327262
_cell_angle_gamma   59.93346804
_symmetry_Int_Tables_number   1
_chemical_formula_structural   Tb5YGa7Co16
_chemical_formula_sum   'Tb5 Y1 Ga7 Co16'
_cell_volume   431.42740040
_cell_formula_units_Z   1
loop_
 _symmetry_equiv_pos_site_id
 _symmetry_equiv_pos_as_xyz
  1  'x, y, z'
loop_
 _atom_site_type_symbol
 _atom_site_label
 _atom_site_symmetry_multiplicity
 _atom_site_fract_x
 _atom_site_fract_y
 _atom_site_fract_z
 _atom_site_occupancy
  Tb  Tb0  1  0.719644  0.280409  0.280356  1
  Tb  Tb1  1  0.280409  0.719644  0.719591  1
  Tb  Tb2  1  0.280409  0.719644  0.280356  1
  Tb  Tb3  1  0.279944  0.279944  0.720056  1
  Tb  Tb4  1  0.719644  0.280409  0.719591  1
  Y  Y5  1  0.720188  0.720188  0.279812  1
  Ga  Ga6  1  0.500352  0.999812  0.000188  1
  Ga  Ga7  1  0.999812  0.500352  0.499648  1
  Ga  Ga8  1  0.999812  0.500352  0.000188  1
  Ga  Ga9  1  0.999810  0.999810  0.500190  1
  Ga  Ga10  1  0.500352  0.999812  0.499648  1
  Ga  Ga11  1  0.499810  0.499810  0.000190  1
  Ga  Ga12  1  0.000094  0.000094  0.999906  1
  Co  Co13  1  0.320821  0.320821  0.321028  1
  Co  Co14  1  0.320821  0.320821  0.037331  1
  Co  Co15  1  0.037229  0.320628  0.321073  1
  Co  Co16  1  0.320628  0.037229  0.321073  1
  Co  Co17  1  0.678927  0.678927  0.679372  1
  Co  Co18  1  0.678927  0.678927  0.962771  1
  Co  Co19  1  0.678972  0.962669  0.679179  1
  Co  Co20  1  0.962669  0.678972  0.679179  1
  Co  Co21  1  0.126394  0.126394  0.126352  1
  Co  Co22  1  0.126394  0.126394  0.620861  1
  Co  Co23  1  0.620824  0.126752  0.126212  1
  Co  Co24  1  0.126752  0.620824  0.126212  1
  Co  Co25  1  0.873788  0.873788  0.873248  1
  Co  Co26  1  0.873788  0.873788  0.379176  1
  Co  Co27  1  0.873648  0.379139  0.873606  1
  Co  Co28  1  0.379139  0.873648  0.873606  1
