# generated using pymatgen
data_Ho8Tm12Si15Se
_symmetry_space_group_name_H-M   'P 1'
_cell_length_a   7.41195787
_cell_length_b   7.57653875
_cell_length_c   14.44250920
_cell_angle_alpha   89.68368650
_cell_angle_beta   86.44961985
_cell_angle_gamma   89.85082442
_symmetry_Int_Tables_number   1
_chemical_formula_structural   Ho8Tm12Si15Se
_chemical_formula_sum   'Ho8 Tm12 Si15 Se1'
_cell_volume   809.47675567
_cell_formula_units_Z   1
loop_
 _symmetry_equiv_pos_site_id
 _symmetry_equiv_pos_as_xyz
  1  'x, y, z'
loop_
 _atom_site_type_symbol
 _atom_site_label
 _atom_site_symmetry_multiplicity
 _atom_site_fract_x
 _atom_site_fract_y
 _atom_site_fract_z
 _atom_site_occupancy
  Ho  Ho0  1  0.018673  0.181742  0.099530  1
  Ho  Ho1  1  0.981521  0.820255  0.900061  1
  Ho  Ho2  1  0.482060  0.681995  0.900809  1
  Ho  Ho3  1  0.005278  0.827769  0.600411  1
  Ho  Ho4  1  0.518121  0.319049  0.099576  1
  Ho  Ho5  1  0.986465  0.169279  0.397057  1
  Ho  Ho6  1  0.497767  0.313187  0.398060  1
  Ho  Ho7  1  0.514676  0.685637  0.601414  1
  Tm  Tm8  1  0.172562  0.507278  0.752488  1
  Tm  Tm9  1  0.827141  0.493323  0.253757  1
  Tm  Tm10  1  0.325228  0.004790  0.252893  1
  Tm  Tm11  1  0.674910  0.995201  0.747609  1
  Tm  Tm12  1  0.360944  0.162374  0.621664  1
  Tm  Tm13  1  0.640751  0.831865  0.378935  1
  Tm  Tm14  1  0.140042  0.665671  0.380102  1
  Tm  Tm15  1  0.668725  0.821066  0.123176  1
  Tm  Tm16  1  0.855599  0.334181  0.619174  1
  Tm  Tm17  1  0.330478  0.178881  0.876005  1
  Tm  Tm18  1  0.829997  0.323466  0.875851  1
  Tm  Tm19  1  0.169504  0.677197  0.123378  1
  Si  Si20  1  0.047423  0.113220  0.749201  1
  Si  Si21  1  0.952044  0.887051  0.248639  1
  Si  Si22  1  0.452014  0.609125  0.250242  1
  Si  Si23  1  0.546262  0.390871  0.748567  1
  Si  Si24  1  0.293082  0.869591  0.751361  1
  Si  Si25  1  0.707741  0.128294  0.247211  1
  Si  Si26  1  0.208285  0.369680  0.248912  1
  Si  Si27  1  0.793978  0.631330  0.750501  1
  Si  Si28  1  0.790181  0.531590  0.456693  1
  Si  Si29  1  0.292429  0.964791  0.458691  1
  Si  Si30  1  0.849023  0.530316  0.040017  1
  Si  Si31  1  0.703447  0.035934  0.542135  1
  Si  Si32  1  0.149858  0.471421  0.959071  1
  Si  Si33  1  0.650070  0.031295  0.959321  1
  Si  Si34  1  0.348740  0.970324  0.040572  1
  Se  Se35  1  0.214982  0.470961  0.546915  1
