# generated using pymatgen
data_Yb6Pr2Si12HgPd3
_symmetry_space_group_name_H-M   'P 1'
_cell_length_a   8.28868300
_cell_length_b   8.28867902
_cell_length_c   8.42930300
_cell_angle_alpha   90.00001280
_cell_angle_beta   90.00000000
_cell_angle_gamma   120.00005659
_symmetry_Int_Tables_number   1
_chemical_formula_structural   Yb6Pr2Si12HgPd3
_chemical_formula_sum   'Yb6 Pr2 Si12 Hg1 Pd3'
_cell_volume   501.52536362
_cell_formula_units_Z   1
loop_
 _symmetry_equiv_pos_site_id
 _symmetry_equiv_pos_as_xyz
  1  'x, y, z'
loop_
 _atom_site_type_symbol
 _atom_site_label
 _atom_site_symmetry_multiplicity
 _atom_site_fract_x
 _atom_site_fract_y
 _atom_site_fract_z
 _atom_site_occupancy
  Yb  Yb0  1  0.496380  0.503620  0.741761  1
  Yb  Yb1  1  0.497368  0.502632  0.257882  1
  Yb  Yb2  1  0.007240  0.503620  0.741762  1
  Yb  Yb3  1  0.005264  0.502632  0.257882  1
  Yb  Yb4  1  0.496380  0.992760  0.741762  1
  Yb  Yb5  1  0.497368  0.994736  0.257882  1
  Pr  Pr6  1  0.000000  0.000000  0.745725  1
  Pr  Pr7  1  0.000000  0.000000  0.255140  1
  Si  Si8  1  0.842674  0.157326  0.001645  1
  Si  Si9  1  0.167836  0.832164  0.999202  1
  Si  Si10  1  0.314653  0.157326  0.001645  1
  Si  Si11  1  0.164618  0.835382  0.499877  1
  Si  Si12  1  0.664328  0.832164  0.999202  1
  Si  Si13  1  0.834324  0.165676  0.500243  1
  Si  Si14  1  0.842674  0.685347  0.001645  1
  Si  Si15  1  0.670764  0.835382  0.499877  1
  Si  Si16  1  0.167836  0.335672  0.999202  1
  Si  Si17  1  0.331352  0.165676  0.500243  1
  Si  Si18  1  0.164618  0.329236  0.499877  1
  Si  Si19  1  0.834324  0.668648  0.500243  1
  Hg  Hg20  1  0.666667  0.333333  0.995067  1
  Pd  Pd21  1  0.333333  0.666667  0.001647  1
  Pd  Pd22  1  0.333333  0.666667  0.498916  1
  Pd  Pd23  1  0.666667  0.333333  0.501673  1
