# generated using pymatgen
data_HoTh3(Al8Pd3)3
_symmetry_space_group_name_H-M   'P 1'
_cell_length_a   7.61367716
_cell_length_b   7.63552372
_cell_length_c   13.28089379
_cell_angle_alpha   84.56590759
_cell_angle_beta   79.12131522
_cell_angle_gamma   59.94734109
_symmetry_Int_Tables_number   1
_chemical_formula_structural   HoTh3(Al8Pd3)3
_chemical_formula_sum   'Ho1 Th3 Al24 Pd9'
_cell_volume   656.27344221
_cell_formula_units_Z   1
loop_
 _symmetry_equiv_pos_site_id
 _symmetry_equiv_pos_as_xyz
  1  'x, y, z'
loop_
 _atom_site_type_symbol
 _atom_site_label
 _atom_site_symmetry_multiplicity
 _atom_site_fract_x
 _atom_site_fract_y
 _atom_site_fract_z
 _atom_site_occupancy
  Ho  Ho0  1  0.265276  0.502078  0.193917  1
  Th  Th1  1  0.394337  0.168086  0.807455  1
  Th  Th2  1  0.604481  0.832221  0.193282  1
  Th  Th3  1  0.734416  0.497412  0.807468  1
  Al  Al4  1  0.688032  0.833870  0.946907  1
  Al  Al5  1  0.311811  0.170177  0.056830  1
  Al  Al6  1  0.144360  0.834196  0.558999  1
  Al  Al7  1  0.856317  0.165045  0.437884  1
  Al  Al8  1  0.479978  0.167510  0.557267  1
  Al  Al9  1  0.520104  0.833188  0.441117  1
  Al  Al10  1  0.214101  0.167935  0.332765  1
  Al  Al11  1  0.787592  0.834663  0.663394  1
  Al  Al12  1  0.435249  0.509952  0.663802  1
  Al  Al13  1  0.562931  0.489990  0.333009  1
  Al  Al14  1  0.111593  0.155815  0.661923  1
  Al  Al15  1  0.892836  0.840557  0.334131  1
  Al  Al16  1  0.347008  0.503626  0.949754  1
  Al  Al17  1  0.646885  0.497205  0.056362  1
  Al  Al18  1  0.014208  0.164474  0.958884  1
  Al  Al19  1  0.985634  0.832950  0.047824  1
  Al  Al20  1  0.187813  0.500747  0.439542  1
  Al  Al21  1  0.813942  0.498349  0.557372  1
  Al  Al22  1  0.732918  0.166936  0.184902  1
  Al  Al23  1  0.263309  0.835457  0.815996  1
  Al  Al24  1  0.063064  0.634798  0.814308  1
  Al  Al25  1  0.939969  0.366377  0.185917  1
  Al  Al26  1  0.862238  0.036856  0.815518  1
  Al  Al27  1  0.139215  0.959041  0.184759  1
  Pd  Pd28  1  0.119898  0.493188  0.637486  1
  Pd  Pd29  1  0.880684  0.506870  0.361915  1
  Pd  Pd30  1  0.656614  0.171362  0.999801  1
  Pd  Pd31  1  0.342989  0.829376  0.000511  1
  Pd  Pd32  1  0.538916  0.167027  0.362171  1
  Pd  Pd33  1  0.460906  0.833195  0.637329  1
  Pd  Pd34  1  0.779071  0.173891  0.637516  1
  Pd  Pd35  1  0.221613  0.824979  0.361740  1
  Pd  Pd36  1  0.999691  0.500601  0.000244  1
