# generated using pymatgen
data_Tb16In6NiOs
_symmetry_space_group_name_H-M   'P 1'
_cell_length_a   10.44949400
_cell_length_b   10.44949601
_cell_length_c   7.09863500
_cell_angle_alpha   90.00000000
_cell_angle_beta   90.00000000
_cell_angle_gamma   119.99999998
_symmetry_Int_Tables_number   1
_chemical_formula_structural   Tb16In6NiOs
_chemical_formula_sum   'Tb16 In6 Ni1 Os1'
_cell_volume   671.26821432
_cell_formula_units_Z   1
loop_
 _symmetry_equiv_pos_site_id
 _symmetry_equiv_pos_as_xyz
  1  'x, y, z'
loop_
 _atom_site_type_symbol
 _atom_site_label
 _atom_site_symmetry_multiplicity
 _atom_site_fract_x
 _atom_site_fract_y
 _atom_site_fract_z
 _atom_site_occupancy
  Tb  Tb0  1  0.465182  0.534818  0.482269  1
  Tb  Tb1  1  0.069635  0.534818  0.482269  1
  Tb  Tb2  1  0.465182  0.930365  0.482269  1
  Tb  Tb3  1  0.533359  0.466641  0.980458  1
  Tb  Tb4  1  0.933285  0.466641  0.980458  1
  Tb  Tb5  1  0.533359  0.066715  0.980458  1
  Tb  Tb6  1  0.822755  0.177245  0.275515  1
  Tb  Tb7  1  0.354491  0.177245  0.275515  1
  Tb  Tb8  1  0.822755  0.645509  0.275515  1
  Tb  Tb9  1  0.176003  0.823997  0.775013  1
  Tb  Tb10  1  0.647993  0.823997  0.775013  1
  Tb  Tb11  1  0.176003  0.352007  0.775013  1
  Tb  Tb12  1  0.333333  0.666667  0.103287  1
  Tb  Tb13  1  0.666667  0.333333  0.594082  1
  Tb  Tb14  1  0.000000  0.000000  0.491891  1
  Tb  Tb15  1  0.000000  0.000000  0.998809  1
  In  In16  1  0.161950  0.838050  0.234146  1
  In  In17  1  0.676100  0.838050  0.234146  1
  In  In18  1  0.161950  0.323900  0.234146  1
  In  In19  1  0.835969  0.164031  0.733234  1
  In  In20  1  0.328062  0.164031  0.733234  1
  In  In21  1  0.835969  0.671938  0.733234  1
  Ni  Ni22  1  0.666667  0.333333  0.205164  1
  Os  Os23  1  0.333333  0.666667  0.709417  1
