# generated using pymatgen
data_La2NdSn3Hg2
_symmetry_space_group_name_H-M   'P 1'
_cell_length_a   6.67915920
_cell_length_b   6.67915957
_cell_length_c   10.53300800
_cell_angle_alpha   90.00000000
_cell_angle_beta   90.00000000
_cell_angle_gamma   103.15262512
_symmetry_Int_Tables_number   1
_chemical_formula_structural   La2NdSn3Hg2
_chemical_formula_sum   'La4 Nd2 Sn6 Hg4'
_cell_volume   457.56337122
_cell_formula_units_Z   2
loop_
 _symmetry_equiv_pos_site_id
 _symmetry_equiv_pos_as_xyz
  1  'x, y, z'
loop_
 _atom_site_type_symbol
 _atom_site_label
 _atom_site_symmetry_multiplicity
 _atom_site_fract_x
 _atom_site_fract_y
 _atom_site_fract_z
 _atom_site_occupancy
  La  La0  1  0.204051  0.795949  0.500000  1
  La  La1  1  0.204051  0.795949  0.000000  1
  La  La2  1  0.795949  0.204051  0.500000  1
  La  La3  1  0.795949  0.204051  0.000000  1
  Nd  Nd4  1  0.630897  0.630897  0.250000  1
  Nd  Nd5  1  0.369103  0.369103  0.750000  1
  Sn  Sn6  1  0.020764  0.020764  0.250000  1
  Sn  Sn7  1  0.979236  0.979236  0.750000  1
  Sn  Sn8  1  0.490719  0.068618  0.250000  1
  Sn  Sn9  1  0.931382  0.509281  0.750000  1
  Sn  Sn10  1  0.509281  0.931382  0.750000  1
  Sn  Sn11  1  0.068618  0.490719  0.250000  1
  Hg  Hg12  1  0.314221  0.314221  0.045292  1
  Hg  Hg13  1  0.685779  0.685779  0.954708  1
  Hg  Hg14  1  0.314221  0.314221  0.454708  1
  Hg  Hg15  1  0.685779  0.685779  0.545292  1
