# generated using pymatgen
data_HoTm5Co16(P6Os)2
_symmetry_space_group_name_H-M   'P 1'
_cell_length_a   3.69380900
_cell_length_b   10.45514400
_cell_length_c   12.18379700
_cell_angle_alpha   90.00000000
_cell_angle_beta   90.00000000
_cell_angle_gamma   90.00000000
_symmetry_Int_Tables_number   1
_chemical_formula_structural   HoTm5Co16(P6Os)2
_chemical_formula_sum   'Ho1 Tm5 Co16 P12 Os2'
_cell_volume   470.52977244
_cell_formula_units_Z   1
loop_
 _symmetry_equiv_pos_site_id
 _symmetry_equiv_pos_as_xyz
  1  'x, y, z'
loop_
 _atom_site_type_symbol
 _atom_site_label
 _atom_site_symmetry_multiplicity
 _atom_site_fract_x
 _atom_site_fract_y
 _atom_site_fract_z
 _atom_site_occupancy
  Ho  Ho0  1  0.000000  0.500000  0.525191  1
  Tm  Tm1  1  0.500000  0.000000  0.474643  1
  Tm  Tm2  1  0.500000  0.817936  0.207333  1
  Tm  Tm3  1  0.500000  0.182064  0.207333  1
  Tm  Tm4  1  0.000000  0.682291  0.792876  1
  Tm  Tm5  1  0.000000  0.317709  0.792876  1
  Co  Co6  1  0.500000  0.500000  0.703944  1
  Co  Co7  1  0.000000  0.000000  0.296634  1
  Co  Co8  1  0.000000  0.500000  0.986841  1
  Co  Co9  1  0.500000  0.000000  0.013251  1
  Co  Co10  1  0.500000  0.332539  0.989540  1
  Co  Co11  1  0.500000  0.667461  0.989540  1
  Co  Co12  1  0.000000  0.167326  0.010490  1
  Co  Co13  1  0.000000  0.832674  0.010490  1
  Co  Co14  1  0.500000  0.296970  0.431244  1
  Co  Co15  1  0.500000  0.703030  0.431244  1
  Co  Co16  1  0.000000  0.202084  0.568612  1
  Co  Co17  1  0.000000  0.797916  0.568612  1
  Co  Co18  1  0.500000  0.878648  0.708196  1
  Co  Co19  1  0.500000  0.121352  0.708196  1
  Co  Co20  1  0.000000  0.621597  0.291614  1
  Co  Co21  1  0.000000  0.378403  0.291614  1
  P  P22  1  0.500000  0.500000  0.880169  1
  P  P23  1  0.000000  0.000000  0.120046  1
  P  P24  1  0.500000  0.500000  0.351399  1
  P  P25  1  0.000000  0.000000  0.647913  1
  P  P26  1  0.500000  0.312312  0.616796  1
  P  P27  1  0.500000  0.687688  0.616796  1
  P  P28  1  0.000000  0.187039  0.383470  1
  P  P29  1  0.000000  0.812961  0.383470  1
  P  P30  1  0.500000  0.845963  0.892100  1
  P  P31  1  0.500000  0.154037  0.892100  1
  P  P32  1  0.000000  0.654234  0.107889  1
  P  P33  1  0.000000  0.345766  0.107889  1
  Os  Os34  1  0.500000  0.500000  0.159051  1
  Os  Os35  1  0.000000  0.000000  0.840599  1
