# generated using pymatgen
data_Zr8Ti2Sn3Bi3B2
_symmetry_space_group_name_H-M   'P 1'
_cell_length_a   8.56700500
_cell_length_b   8.56700441
_cell_length_c   5.76558200
_cell_angle_alpha   90.00000000
_cell_angle_beta   90.00000000
_cell_angle_gamma   120.00000612
_symmetry_Int_Tables_number   1
_chemical_formula_structural   Zr8Ti2Sn3Bi3B2
_chemical_formula_sum   'Zr8 Ti2 Sn3 Bi3 B2'
_cell_volume   366.46438099
_cell_formula_units_Z   1
loop_
 _symmetry_equiv_pos_site_id
 _symmetry_equiv_pos_as_xyz
  1  'x, y, z'
loop_
 _atom_site_type_symbol
 _atom_site_label
 _atom_site_symmetry_multiplicity
 _atom_site_fract_x
 _atom_site_fract_y
 _atom_site_fract_z
 _atom_site_occupancy
  Zr  Zr0  1  0.333333  0.666667  0.493290  1
  Zr  Zr1  1  0.666667  0.333333  0.493290  1
  Zr  Zr2  1  0.770879  0.770879  0.748335  1
  Zr  Zr3  1  0.229121  0.000000  0.748335  1
  Zr  Zr4  1  0.000000  0.229121  0.748335  1
  Zr  Zr5  1  0.231716  0.231716  0.251336  1
  Zr  Zr6  1  0.768284  0.000000  0.251336  1
  Zr  Zr7  1  0.000000  0.768284  0.251336  1
  Ti  Ti8  1  0.666667  0.333333  0.006313  1
  Ti  Ti9  1  0.333333  0.666667  0.006313  1
  Sn  Sn10  1  0.600438  0.600438  0.242107  1
  Sn  Sn11  1  0.399562  0.000000  0.242107  1
  Sn  Sn12  1  0.000000  0.399562  0.242107  1
  Bi  Bi13  1  0.404547  0.404547  0.758440  1
  Bi  Bi14  1  0.595453  0.000000  0.758440  1
  Bi  Bi15  1  0.000000  0.595453  0.758440  1
  B  B16  1  0.000000  0.000000  0.001057  1
  B  B17  1  0.000000  0.000000  0.499083  1
