# generated using pymatgen
data_HoThHgPd2
_symmetry_space_group_name_H-M   'P 1'
_cell_length_a   7.87122000
_cell_length_b   7.80427100
_cell_length_c   3.76595600
_cell_angle_alpha   90.00000000
_cell_angle_beta   90.00000000
_cell_angle_gamma   90.00000000
_symmetry_Int_Tables_number   1
_chemical_formula_structural   HoThHgPd2
_chemical_formula_sum   'Ho2 Th2 Hg2 Pd4'
_cell_volume   231.33941569
_cell_formula_units_Z   2
loop_
 _symmetry_equiv_pos_site_id
 _symmetry_equiv_pos_as_xyz
  1  'x, y, z'
loop_
 _atom_site_type_symbol
 _atom_site_label
 _atom_site_symmetry_multiplicity
 _atom_site_fract_x
 _atom_site_fract_y
 _atom_site_fract_z
 _atom_site_occupancy
  Ho  Ho0  1  0.172770  0.323603  0.500000  1
  Ho  Ho1  1  0.672770  0.176397  0.500000  1
  Th  Th2  1  0.325554  0.832293  0.500000  1
  Th  Th3  1  0.825554  0.667707  0.500000  1
  Hg  Hg4  1  0.997027  0.008227  0.000000  1
  Hg  Hg5  1  0.497027  0.491773  0.000000  1
  Pd  Pd6  1  0.374461  0.124793  0.000000  1
  Pd  Pd7  1  0.874461  0.375207  0.000000  1
  Pd  Pd8  1  0.130189  0.628593  0.000000  1
  Pd  Pd9  1  0.630189  0.871407  0.000000  1
