# generated using pymatgen
data_Tm16Sc4HgBi11
_symmetry_space_group_name_H-M   'P 1'
_cell_length_a   8.04689756
_cell_length_b   9.35806900
_cell_length_c   11.79873317
_cell_angle_alpha   90.00000000
_cell_angle_beta   89.70388654
_cell_angle_gamma   90.00000000
_symmetry_Int_Tables_number   1
_chemical_formula_structural   Tm16Sc4HgBi11
_chemical_formula_sum   'Tm16 Sc4 Hg1 Bi11'
_cell_volume   888.47312476
_cell_formula_units_Z   1
loop_
 _symmetry_equiv_pos_site_id
 _symmetry_equiv_pos_as_xyz
  1  'x, y, z'
loop_
 _atom_site_type_symbol
 _atom_site_label
 _atom_site_symmetry_multiplicity
 _atom_site_fract_x
 _atom_site_fract_y
 _atom_site_fract_z
 _atom_site_occupancy
  Tm  Tm0  1  0.354293  0.250000  0.290526  1
  Tm  Tm1  1  0.648271  0.750000  0.716604  1
  Tm  Tm2  1  0.149463  0.750000  0.783613  1
  Tm  Tm3  1  0.852994  0.250000  0.215061  1
  Tm  Tm4  1  0.191267  0.250000  0.778389  1
  Tm  Tm5  1  0.810160  0.750000  0.218013  1
  Tm  Tm6  1  0.313141  0.750000  0.280917  1
  Tm  Tm7  1  0.679547  0.250000  0.714142  1
  Tm  Tm8  1  0.196177  0.066146  0.059924  1
  Tm  Tm9  1  0.803741  0.933936  0.941365  1
  Tm  Tm10  1  0.303854  0.945389  0.559092  1
  Tm  Tm11  1  0.803741  0.566064  0.941365  1
  Tm  Tm12  1  0.691580  0.069794  0.444249  1
  Tm  Tm13  1  0.196177  0.433854  0.059924  1
  Tm  Tm14  1  0.691580  0.430206  0.444249  1
  Tm  Tm15  1  0.303854  0.554611  0.559092  1
  Sc  Sc16  1  0.033129  0.250000  0.509044  1
  Sc  Sc17  1  0.978928  0.750000  0.488818  1
  Sc  Sc18  1  0.475858  0.750000  0.011166  1
  Sc  Sc19  1  0.524884  0.250000  0.989279  1
  Hg  Hg20  1  0.402253  0.250000  0.541128  1
  Bi  Bi21  1  0.597869  0.750000  0.457501  1
  Bi  Bi22  1  0.098929  0.750000  0.042709  1
  Bi  Bi23  1  0.901770  0.250000  0.954810  1
  Bi  Bi24  1  0.061538  0.002359  0.327154  1
  Bi  Bi25  1  0.936516  0.996958  0.672180  1
  Bi  Bi26  1  0.436879  0.996898  0.828999  1
  Bi  Bi27  1  0.936516  0.503042  0.672180  1
  Bi  Bi28  1  0.563338  0.003718  0.171178  1
  Bi  Bi29  1  0.061538  0.497641  0.327154  1
  Bi  Bi30  1  0.563338  0.496282  0.171178  1
  Bi  Bi31  1  0.436879  0.503102  0.828999  1
