# generated using pymatgen
data_Cs3Na2TiAs3
_symmetry_space_group_name_H-M   'P 1'
_cell_length_a   10.95414522
_cell_length_b   10.95414431
_cell_length_c   16.77426400
_cell_angle_alpha   90.00000000
_cell_angle_beta   90.00000000
_cell_angle_gamma   142.58527144
_symmetry_Int_Tables_number   1
_chemical_formula_structural   Cs3Na2TiAs3
_chemical_formula_sum   'Cs12 Na8 Ti4 As12'
_cell_volume   1222.93653340
_cell_formula_units_Z   4
loop_
 _symmetry_equiv_pos_site_id
 _symmetry_equiv_pos_as_xyz
  1  'x, y, z'
loop_
 _atom_site_type_symbol
 _atom_site_label
 _atom_site_symmetry_multiplicity
 _atom_site_fract_x
 _atom_site_fract_y
 _atom_site_fract_z
 _atom_site_occupancy
  Cs  Cs0  1  0.943610  0.607791  0.826082  1
  Cs  Cs1  1  0.556390  0.892209  0.326082  1
  Cs  Cs2  1  0.392209  0.056390  0.173918  1
  Cs  Cs3  1  0.056390  0.392209  0.173918  1
  Cs  Cs4  1  0.892209  0.556390  0.326082  1
  Cs  Cs5  1  0.443610  0.107791  0.673918  1
  Cs  Cs6  1  0.607791  0.943610  0.826082  1
  Cs  Cs7  1  0.274140  0.274140  0.318012  1
  Cs  Cs8  1  0.774140  0.774140  0.181988  1
  Cs  Cs9  1  0.225860  0.225860  0.818012  1
  Cs  Cs10  1  0.725860  0.725860  0.681988  1
  Cs  Cs11  1  0.107791  0.443610  0.673918  1
  Na  Na12  1  0.920122  0.079878  0.000000  1
  Na  Na13  1  0.579878  0.420122  0.500000  1
  Na  Na14  1  0.079878  0.920122  0.000000  1
  Na  Na15  1  0.420122  0.579878  0.500000  1
  Na  Na16  1  0.754486  0.245514  0.000000  1
  Na  Na17  1  0.745514  0.254486  0.500000  1
  Na  Na18  1  0.245514  0.754486  0.000000  1
  Na  Na19  1  0.254486  0.745514  0.500000  1
  Ti  Ti20  1  0.584572  0.415428  0.000000  1
  Ti  Ti21  1  0.915428  0.084572  0.500000  1
  Ti  Ti22  1  0.415428  0.584572  0.000000  1
  Ti  Ti23  1  0.084572  0.915428  0.500000  1
  As  As24  1  0.860023  0.553168  0.087760  1
  As  As25  1  0.446832  0.139977  0.912240  1
  As  As26  1  0.639977  0.946832  0.587760  1
  As  As27  1  0.946832  0.639977  0.587760  1
  As  As28  1  0.139977  0.446832  0.912240  1
  As  As29  1  0.553168  0.860023  0.087760  1
  As  As30  1  0.360023  0.053168  0.412240  1
  As  As31  1  0.188957  0.188957  0.578632  1
  As  As32  1  0.688957  0.688957  0.921368  1
  As  As33  1  0.311043  0.311043  0.078632  1
  As  As34  1  0.053168  0.360023  0.412240  1
  As  As35  1  0.811043  0.811043  0.421368  1
