# generated using pymatgen
data_Y24Tc7Ru
_symmetry_space_group_name_H-M   'P 1'
_cell_length_a   6.31245735
_cell_length_b   9.23837600
_cell_length_c   14.86431341
_cell_angle_alpha   90.00000000
_cell_angle_beta   90.02631038
_cell_angle_gamma   90.00000000
_symmetry_Int_Tables_number   1
_chemical_formula_structural   Y24Tc7Ru
_chemical_formula_sum   'Y24 Tc7 Ru1'
_cell_volume   866.83991004
_cell_formula_units_Z   1
loop_
 _symmetry_equiv_pos_site_id
 _symmetry_equiv_pos_as_xyz
  1  'x, y, z'
loop_
 _atom_site_type_symbol
 _atom_site_label
 _atom_site_symmetry_multiplicity
 _atom_site_fract_x
 _atom_site_fract_y
 _atom_site_fract_z
 _atom_site_occupancy
  Y  Y0  1  0.538574  0.750000  0.354980  1
  Y  Y1  1  0.035746  0.250000  0.145678  1
  Y  Y2  1  0.465147  0.250000  0.645957  1
  Y  Y3  1  0.963849  0.750000  0.853538  1
  Y  Y4  1  0.775310  0.750000  0.105647  1
  Y  Y5  1  0.275735  0.250000  0.393767  1
  Y  Y6  1  0.222086  0.250000  0.892595  1
  Y  Y7  1  0.727223  0.750000  0.606679  1
  Y  Y8  1  0.433182  0.934752  0.787013  1
  Y  Y9  1  0.930936  0.066109  0.712659  1
  Y  Y10  1  0.564764  0.434545  0.211472  1
  Y  Y11  1  0.064575  0.565879  0.287454  1
  Y  Y12  1  0.564764  0.065455  0.211472  1
  Y  Y13  1  0.064575  0.934121  0.287454  1
  Y  Y14  1  0.433182  0.565248  0.787013  1
  Y  Y15  1  0.930936  0.433891  0.712659  1
  Y  Y16  1  0.240748  0.936107  0.537258  1
  Y  Y17  1  0.739344  0.063966  0.963843  1
  Y  Y18  1  0.761646  0.435725  0.464327  1
  Y  Y19  1  0.259722  0.564552  0.035707  1
  Y  Y20  1  0.761646  0.064275  0.464327  1
  Y  Y21  1  0.259722  0.935448  0.035707  1
  Y  Y22  1  0.240748  0.563893  0.537258  1
  Y  Y23  1  0.739344  0.436034  0.963843  1
  Tc  Tc24  1  0.935299  0.750000  0.440086  1
  Tc  Tc25  1  0.431068  0.250000  0.060498  1
  Tc  Tc26  1  0.068844  0.250000  0.563397  1
  Tc  Tc27  1  0.567709  0.750000  0.936865  1
  Tc  Tc28  1  0.359838  0.750000  0.184010  1
  Tc  Tc29  1  0.858174  0.250000  0.316388  1
  Tc  Tc30  1  0.643715  0.250000  0.816310  1
  Ru  Ru31  1  0.141851  0.750000  0.684136  1
