# generated using pymatgen
data_LaHoSn5Pt3
_symmetry_space_group_name_H-M   'P 1'
_cell_length_a   13.64792300
_cell_length_b   13.64792214
_cell_length_c   7.47951600
_cell_angle_alpha   90.00000000
_cell_angle_beta   90.00000000
_cell_angle_gamma   160.81598661
_symmetry_Int_Tables_number   1
_chemical_formula_structural   LaHoSn5Pt3
_chemical_formula_sum   'La2 Ho2 Sn10 Pt6'
_cell_volume   457.80264516
_cell_formula_units_Z   2
loop_
 _symmetry_equiv_pos_site_id
 _symmetry_equiv_pos_as_xyz
  1  'x, y, z'
loop_
 _atom_site_type_symbol
 _atom_site_label
 _atom_site_symmetry_multiplicity
 _atom_site_fract_x
 _atom_site_fract_y
 _atom_site_fract_z
 _atom_site_occupancy
  La  La0  1  0.172571  0.827429  0.753974  1
  La  La1  1  0.827429  0.172571  0.253974  1
  Ho  Ho2  1  0.477215  0.522785  0.738788  1
  Ho  Ho3  1  0.522785  0.477215  0.238788  1
  Sn  Sn4  1  0.880782  0.119218  0.735369  1
  Sn  Sn5  1  0.119218  0.880782  0.235369  1
  Sn  Sn6  1  0.701957  0.298043  0.049763  1
  Sn  Sn7  1  0.298043  0.701957  0.549763  1
  Sn  Sn8  1  0.597165  0.402835  0.607596  1
  Sn  Sn9  1  0.402835  0.597165  0.107596  1
  Sn  Sn10  1  0.953663  0.046337  0.393904  1
  Sn  Sn11  1  0.046337  0.953663  0.893904  1
  Sn  Sn12  1  0.289521  0.710479  0.977013  1
  Sn  Sn13  1  0.710479  0.289521  0.477013  1
  Pt  Pt14  1  0.049359  0.950641  0.514543  1
  Pt  Pt15  1  0.950641  0.049359  0.014543  1
  Pt  Pt16  1  0.777311  0.222689  0.770393  1
  Pt  Pt17  1  0.222689  0.777311  0.270393  1
  Pt  Pt18  1  0.399578  0.600422  0.486657  1
  Pt  Pt19  1  0.600422  0.399578  0.986657  1
