# generated using pymatgen
data_DyEr2In3RhAu2
_symmetry_space_group_name_H-M   'P 1'
_cell_length_a   7.73029100
_cell_length_b   7.74623558
_cell_length_c   3.87514400
_cell_angle_alpha   90.00000000
_cell_angle_beta   90.00000000
_cell_angle_gamma   119.93193743
_symmetry_Int_Tables_number   1
_chemical_formula_structural   DyEr2In3RhAu2
_chemical_formula_sum   'Dy1 Er2 In3 Rh1 Au2'
_cell_volume   201.09555470
_cell_formula_units_Z   1
loop_
 _symmetry_equiv_pos_site_id
 _symmetry_equiv_pos_as_xyz
  1  'x, y, z'
loop_
 _atom_site_type_symbol
 _atom_site_label
 _atom_site_symmetry_multiplicity
 _atom_site_fract_x
 _atom_site_fract_y
 _atom_site_fract_z
 _atom_site_occupancy
  Dy  Dy0  1  0.601259  0.000000  0.500000  1
  Er  Er1  1  0.398456  0.398362  0.500000  1
  Er  Er2  1  0.000094  0.601638  0.500000  1
  In  In3  1  0.000624  0.255838  0.000000  1
  In  In4  1  0.744786  0.744162  0.000000  1
  In  In5  1  0.255098  0.000000  0.000000  1
  Rh  Rh6  1  0.000272  0.000000  0.500000  1
  Au  Au7  1  0.667286  0.335159  0.000000  1
  Au  Au8  1  0.332126  0.664841  0.000000  1
