# generated using pymatgen
data_Dy4Fe10P12RuRh9
_symmetry_space_group_name_H-M   'P 1'
_cell_length_a   3.78801200
_cell_length_b   10.44880397
_cell_length_c   12.23683873
_cell_angle_alpha   90.24468252
_cell_angle_beta   90.00000000
_cell_angle_gamma   90.00000000
_symmetry_Int_Tables_number   1
_chemical_formula_structural   Dy4Fe10P12RuRh9
_chemical_formula_sum   'Dy4 Fe10 P12 Ru1 Rh9'
_cell_volume   484.33204409
_cell_formula_units_Z   1
loop_
 _symmetry_equiv_pos_site_id
 _symmetry_equiv_pos_as_xyz
  1  'x, y, z'
loop_
 _atom_site_type_symbol
 _atom_site_label
 _atom_site_symmetry_multiplicity
 _atom_site_fract_x
 _atom_site_fract_y
 _atom_site_fract_z
 _atom_site_occupancy
  Dy  Dy0  1  0.250000  0.583783  0.713240  1
  Dy  Dy1  1  0.250000  0.916539  0.211264  1
  Dy  Dy2  1  0.750000  0.423762  0.290452  1
  Dy  Dy3  1  0.750000  0.075248  0.791152  1
  Fe  Fe4  1  0.750000  0.773842  0.828565  1
  Fe  Fe5  1  0.750000  0.726577  0.327609  1
  Fe  Fe6  1  0.250000  0.874622  0.697084  1
  Fe  Fe7  1  0.250000  0.625960  0.197110  1
  Fe  Fe8  1  0.750000  0.120791  0.301555  1
  Fe  Fe9  1  0.750000  0.381267  0.802099  1
  Fe  Fe10  1  0.250000  0.459763  0.936160  1
  Fe  Fe11  1  0.250000  0.040323  0.434745  1
  Fe  Fe12  1  0.750000  0.539179  0.064665  1
  Fe  Fe13  1  0.750000  0.958771  0.564323  1
  P  P14  1  0.250000  0.439524  0.112729  1
  P  P15  1  0.250000  0.059966  0.611820  1
  P  P16  1  0.750000  0.572701  0.888837  1
  P  P17  1  0.750000  0.930667  0.386618  1
  P  P18  1  0.250000  0.272327  0.862750  1
  P  P19  1  0.250000  0.227701  0.363327  1
  P  P20  1  0.750000  0.725687  0.144092  1
  P  P21  1  0.750000  0.774170  0.646746  1
  P  P22  1  0.250000  0.610232  0.376863  1
  P  P23  1  0.250000  0.887161  0.878441  1
  P  P24  1  0.750000  0.403323  0.618394  1
  P  P25  1  0.750000  0.096895  0.117562  1
  Ru  Ru26  1  0.250000  0.704692  0.984907  1
  Rh  Rh27  1  0.250000  0.792797  0.484485  1
  Rh  Rh28  1  0.750000  0.288202  0.009432  1
  Rh  Rh29  1  0.750000  0.212723  0.509077  1
  Rh  Rh30  1  0.250000  0.411723  0.478803  1
  Rh  Rh31  1  0.250000  0.088832  0.978518  1
  Rh  Rh32  1  0.750000  0.599692  0.519856  1
  Rh  Rh33  1  0.750000  0.900008  0.019516  1
  Rh  Rh34  1  0.250000  0.229849  0.173708  1
  Rh  Rh35  1  0.250000  0.270705  0.673498  1
