# generated using pymatgen
data_Ca3Hg(Ru2O7)2
_symmetry_space_group_name_H-M   'P 1'
_cell_length_a   7.34572435
_cell_length_b   7.21540932
_cell_length_c   7.34572400
_cell_angle_alpha   59.40073964
_cell_angle_beta   60.00000159
_cell_angle_gamma   59.40073909
_symmetry_Int_Tables_number   1
_chemical_formula_structural   Ca3Hg(Ru2O7)2
_chemical_formula_sum   'Ca3 Hg1 Ru4 O14'
_cell_volume   272.78562720
_cell_formula_units_Z   1
loop_
 _symmetry_equiv_pos_site_id
 _symmetry_equiv_pos_as_xyz
  1  'x, y, z'
loop_
 _atom_site_type_symbol
 _atom_site_label
 _atom_site_symmetry_multiplicity
 _atom_site_fract_x
 _atom_site_fract_y
 _atom_site_fract_z
 _atom_site_occupancy
  Ca  Ca0  1  0.625000  0.625000  0.125000  1
  Ca  Ca1  1  0.125000  0.625000  0.625000  1
  Ca  Ca2  1  0.625000  0.625000  0.625000  1
  Hg  Hg3  1  0.625000  0.125000  0.625000  1
  Ru  Ru4  1  0.625000  0.125000  0.125000  1
  Ru  Ru5  1  0.125000  0.625000  0.125000  1
  Ru  Ru6  1  0.125000  0.125000  0.625000  1
  Ru  Ru7  1  0.125000  0.125000  0.125000  1
  O  O8  1  0.186387  0.195139  0.809237  1
  O  O9  1  0.196758  0.801499  0.196758  1
  O  O10  1  0.440763  0.054861  0.063613  1
  O  O11  1  0.196758  0.801499  0.804986  1
  O  O12  1  0.053242  0.448501  0.445014  1
  O  O13  1  0.804986  0.801499  0.196758  1
  O  O14  1  0.445014  0.448501  0.053242  1
  O  O15  1  0.506785  0.479644  0.506785  1
  O  O16  1  0.063613  0.054861  0.440763  1
  O  O17  1  0.440763  0.054861  0.440763  1
  O  O18  1  0.053242  0.448501  0.053242  1
  O  O19  1  0.743215  0.770356  0.743215  1
  O  O20  1  0.809237  0.195139  0.809237  1
  O  O21  1  0.809237  0.195139  0.186387  1
