# generated using pymatgen
data_Ir2OsRu3
_symmetry_space_group_name_H-M   'P 1'
_cell_length_a   4.76154117
_cell_length_b   4.75879934
_cell_length_c   4.34976800
_cell_angle_alpha   90.00000000
_cell_angle_beta   90.00000000
_cell_angle_gamma   120.04977351
_symmetry_Int_Tables_number   1
_chemical_formula_structural   Ir2OsRu3
_chemical_formula_sum   'Ir2 Os1 Ru3'
_cell_volume   85.31465191
_cell_formula_units_Z   1
loop_
 _symmetry_equiv_pos_site_id
 _symmetry_equiv_pos_as_xyz
  1  'x, y, z'
loop_
 _atom_site_type_symbol
 _atom_site_label
 _atom_site_symmetry_multiplicity
 _atom_site_fract_x
 _atom_site_fract_y
 _atom_site_fract_z
 _atom_site_occupancy
  Ir  Ir0  1  0.666466  0.333506  0.000000  1
  Ir  Ir1  1  0.666921  0.999662  0.500000  1
  Os  Os2  1  0.000203  0.999915  0.000000  1
  Ru  Ru3  1  0.333193  0.666573  0.000000  1
  Ru  Ru4  1  0.332585  0.332713  0.500000  1
  Ru  Ru5  1  0.000633  0.667631  0.500000  1
