# generated using pymatgen
data_GdY2Si5
_symmetry_space_group_name_H-M   'P 1'
_cell_length_a   6.69702300
_cell_length_b   6.69236686
_cell_length_c   8.33693800
_cell_angle_alpha   90.00000000
_cell_angle_beta   90.00000000
_cell_angle_gamma   120.02295725
_symmetry_Int_Tables_number   1
_chemical_formula_structural   GdY2Si5
_chemical_formula_sum   'Gd2 Y4 Si10'
_cell_volume   323.51783008
_cell_formula_units_Z   2
loop_
 _symmetry_equiv_pos_site_id
 _symmetry_equiv_pos_as_xyz
  1  'x, y, z'
loop_
 _atom_site_type_symbol
 _atom_site_label
 _atom_site_symmetry_multiplicity
 _atom_site_fract_x
 _atom_site_fract_y
 _atom_site_fract_z
 _atom_site_occupancy
  Gd  Gd0  1  0.330807  0.000001  0.000001  1
  Gd  Gd1  1  0.330807  0.000001  0.499999  1
  Y  Y2  1  0.999913  0.330642  0.499999  1
  Y  Y3  1  0.999913  0.330642  0.000001  1
  Y  Y4  1  0.669270  0.669357  0.999998  1
  Y  Y5  1  0.669270  0.669357  0.500002  1
  Si  Si6  1  0.380151  0.331559  0.250000  1
  Si  Si7  1  0.669232  0.049001  0.250000  1
  Si  Si8  1  0.951162  0.619884  0.250000  1
  Si  Si9  1  0.620233  0.951000  0.750000  1
  Si  Si10  1  0.999738  0.999951  0.250000  1
  Si  Si11  1  0.666637  0.333428  0.750000  1
  Si  Si12  1  0.048593  0.668441  0.750000  1
  Si  Si13  1  0.331280  0.380118  0.750000  1
  Si  Si14  1  0.333208  0.666571  0.250000  1
  Si  Si15  1  0.999785  0.000047  0.750000  1
