# generated using pymatgen
data_EuGaBO4
_symmetry_space_group_name_H-M   'P 1'
_cell_length_a   9.13065794
_cell_length_b   9.13065731
_cell_length_c   6.03680100
_cell_angle_alpha   90.00000000
_cell_angle_beta   90.00000000
_cell_angle_gamma   122.95259853
_symmetry_Int_Tables_number   1
_chemical_formula_structural   EuGaBO4
_chemical_formula_sum   'Eu4 Ga4 B4 O16'
_cell_volume   422.31401779
_cell_formula_units_Z   4
loop_
 _symmetry_equiv_pos_site_id
 _symmetry_equiv_pos_as_xyz
  1  'x, y, z'
loop_
 _atom_site_type_symbol
 _atom_site_label
 _atom_site_symmetry_multiplicity
 _atom_site_fract_x
 _atom_site_fract_y
 _atom_site_fract_z
 _atom_site_occupancy
  Eu  Eu0  1  0.262646  0.450403  0.892091  1
  Eu  Eu1  1  0.549597  0.737354  0.392091  1
  Eu  Eu2  1  0.737354  0.549597  0.892091  1
  Eu  Eu3  1  0.450403  0.262646  0.392091  1
  Ga  Ga4  1  0.811763  0.213547  0.624168  1
  Ga  Ga5  1  0.213547  0.811763  0.124168  1
  Ga  Ga6  1  0.786453  0.188237  0.124168  1
  Ga  Ga7  1  0.188237  0.786453  0.624168  1
  B  B8  1  0.658180  0.873398  0.861874  1
  B  B9  1  0.126602  0.341820  0.361874  1
  B  B10  1  0.341820  0.126602  0.861874  1
  B  B11  1  0.873398  0.658180  0.361874  1
  O  O12  1  0.025458  0.280324  0.170314  1
  O  O13  1  0.304637  0.425804  0.335645  1
  O  O14  1  0.225022  0.698798  0.877791  1
  O  O15  1  0.425804  0.304637  0.835645  1
  O  O16  1  0.695363  0.574196  0.335645  1
  O  O17  1  0.680050  0.946343  0.072117  1
  O  O18  1  0.301202  0.774978  0.377791  1
  O  O19  1  0.698798  0.225022  0.377791  1
  O  O20  1  0.053657  0.319950  0.572117  1
  O  O21  1  0.719676  0.974542  0.670314  1
  O  O22  1  0.319950  0.053657  0.072117  1
  O  O23  1  0.774978  0.301202  0.877791  1
  O  O24  1  0.280324  0.025458  0.670314  1
  O  O25  1  0.974542  0.719676  0.170314  1
  O  O26  1  0.574196  0.695363  0.835645  1
  O  O27  1  0.946343  0.680050  0.572117  1
