# generated using pymatgen
data_Hf8FeSi16Ni11
_symmetry_space_group_name_H-M   'P 1'
_cell_length_a   5.18942300
_cell_length_b   6.87651913
_cell_length_c   13.65436712
_cell_angle_alpha   90.23763410
_cell_angle_beta   90.00000000
_cell_angle_gamma   90.00000000
_symmetry_Int_Tables_number   1
_chemical_formula_structural   Hf8FeSi16Ni11
_chemical_formula_sum   'Hf8 Fe1 Si16 Ni11'
_cell_volume   487.25417359
_cell_formula_units_Z   1
loop_
 _symmetry_equiv_pos_site_id
 _symmetry_equiv_pos_as_xyz
  1  'x, y, z'
loop_
 _atom_site_type_symbol
 _atom_site_label
 _atom_site_symmetry_multiplicity
 _atom_site_fract_x
 _atom_site_fract_y
 _atom_site_fract_z
 _atom_site_occupancy
  Hf  Hf0  1  0.248015  0.401656  0.145471  1
  Hf  Hf1  1  0.747877  0.095976  0.145938  1
  Hf  Hf2  1  0.252169  0.098912  0.646033  1
  Hf  Hf3  1  0.752150  0.404262  0.646020  1
  Hf  Hf4  1  0.248015  0.598344  0.354529  1
  Hf  Hf5  1  0.747877  0.904024  0.354062  1
  Hf  Hf6  1  0.252169  0.901088  0.853967  1
  Hf  Hf7  1  0.752150  0.595738  0.853980  1
  Fe  Fe8  1  0.253105  0.500000  0.750000  1
  Si  Si9  1  0.247476  0.021363  0.068655  1
  Si  Si10  1  0.747547  0.524910  0.431976  1
  Si  Si11  1  0.752390  0.025945  0.568762  1
  Si  Si12  1  0.497342  0.749911  0.188923  1
  Si  Si13  1  0.004773  0.251684  0.810926  1
  Si  Si14  1  0.500605  0.251043  0.810937  1
  Si  Si15  1  0.247476  0.978637  0.431345  1
  Si  Si16  1  0.252374  0.520455  0.927948  1
  Si  Si17  1  0.997704  0.749328  0.188908  1
  Si  Si18  1  0.747547  0.475090  0.068024  1
  Si  Si19  1  0.252374  0.479545  0.572052  1
  Si  Si20  1  0.497342  0.250089  0.311077  1
  Si  Si21  1  0.004773  0.748316  0.689074  1
  Si  Si22  1  0.752390  0.974055  0.931238  1
  Si  Si23  1  0.500605  0.748957  0.689063  1
  Si  Si24  1  0.997704  0.250672  0.311092  1
  Ni  Ni25  1  0.999177  0.248749  0.979369  1
  Ni  Ni26  1  0.500145  0.251420  0.479342  1
  Ni  Ni27  1  0.753005  0.000000  0.750000  1
  Ni  Ni28  1  0.499737  0.245608  0.979394  1
  Ni  Ni29  1  0.747184  0.500000  0.250000  1
  Ni  Ni30  1  0.499737  0.754392  0.520606  1
  Ni  Ni31  1  0.000291  0.254103  0.479291  1
  Ni  Ni32  1  0.000291  0.745897  0.020709  1
  Ni  Ni33  1  0.247161  0.000000  0.250000  1
  Ni  Ni34  1  0.500145  0.748580  0.020658  1
  Ni  Ni35  1  0.999177  0.751251  0.520631  1
