# generated using pymatgen
data_Rb8Na4Ho3LuSb8
_symmetry_space_group_name_H-M   'P 1'
_cell_length_a   11.31805663
_cell_length_b   11.31805569
_cell_length_c   7.46694668
_cell_angle_alpha   90.03730091
_cell_angle_beta   89.96269879
_cell_angle_gamma   98.68153229
_symmetry_Int_Tables_number   1
_chemical_formula_structural   Rb8Na4Ho3LuSb8
_chemical_formula_sum   'Rb8 Na4 Ho3 Lu1 Sb8'
_cell_volume   945.54448224
_cell_formula_units_Z   1
loop_
 _symmetry_equiv_pos_site_id
 _symmetry_equiv_pos_as_xyz
  1  'x, y, z'
loop_
 _atom_site_type_symbol
 _atom_site_label
 _atom_site_symmetry_multiplicity
 _atom_site_fract_x
 _atom_site_fract_y
 _atom_site_fract_z
 _atom_site_occupancy
  Rb  Rb0  1  0.071336  0.428751  0.250186  1
  Rb  Rb1  1  0.428751  0.071336  0.749814  1
  Rb  Rb2  1  0.928199  0.571359  0.749684  1
  Rb  Rb3  1  0.571359  0.928199  0.250316  1
  Rb  Rb4  1  0.676126  0.324241  0.215974  1
  Rb  Rb5  1  0.823862  0.176191  0.715698  1
  Rb  Rb6  1  0.324241  0.676126  0.784026  1
  Rb  Rb7  1  0.176191  0.823862  0.284302  1
  Na  Na8  1  0.382648  0.382648  0.000000  1
  Na  Na9  1  0.117525  0.117525  0.500000  1
  Na  Na10  1  0.617518  0.617518  0.000000  1
  Na  Na11  1  0.882142  0.882142  0.500000  1
  Ho  Ho12  1  0.130873  0.130873  0.000000  1
  Ho  Ho13  1  0.370015  0.370015  0.500000  1
  Ho  Ho14  1  0.868764  0.868764  0.000000  1
  Lu  Lu15  1  0.630243  0.630243  0.500000  1
  Sb  Sb16  1  0.844562  0.652949  0.252636  1
  Sb  Sb17  1  0.652949  0.844562  0.747364  1
  Sb  Sb18  1  0.153177  0.346968  0.750090  1
  Sb  Sb19  1  0.346968  0.153177  0.249910  1
  Sb  Sb20  1  0.898942  0.100825  0.211347  1
  Sb  Sb21  1  0.601587  0.401196  0.709895  1
  Sb  Sb22  1  0.100825  0.898942  0.788653  1
  Sb  Sb23  1  0.401196  0.601587  0.290105  1
