# generated using pymatgen
data_Ho(TaS2)5
_symmetry_space_group_name_H-M   'P 1'
_cell_length_a   5.81752856
_cell_length_b   7.77704023
_cell_length_c   8.51228325
_cell_angle_alpha   113.93270290
_cell_angle_beta   96.71035456
_cell_angle_gamma   104.24816608
_symmetry_Int_Tables_number   1
_chemical_formula_structural   Ho(TaS2)5
_chemical_formula_sum   'Ho1 Ta5 S10'
_cell_volume   330.81864602
_cell_formula_units_Z   1
loop_
 _symmetry_equiv_pos_site_id
 _symmetry_equiv_pos_as_xyz
  1  'x, y, z'
loop_
 _atom_site_type_symbol
 _atom_site_label
 _atom_site_symmetry_multiplicity
 _atom_site_fract_x
 _atom_site_fract_y
 _atom_site_fract_z
 _atom_site_occupancy
  Ho  Ho0  1  0.667581  0.508994  0.993264  1
  Ta  Ta1  1  0.002987  0.997293  0.000460  1
  Ta  Ta2  1  0.599331  0.202526  0.202703  1
  Ta  Ta3  1  0.197816  0.399226  0.398559  1
  Ta  Ta4  1  0.799406  0.600627  0.602539  1
  Ta  Ta5  1  0.401627  0.797103  0.798767  1
  S  S6  1  0.236264  0.062889  0.292100  1
  S  S7  1  0.046975  0.657457  0.893602  1
  S  S8  1  0.835311  0.262225  0.490522  1
  S  S9  1  0.635839  0.868236  0.099877  1
  S  S10  1  0.426968  0.450034  0.684644  1
  S  S11  1  0.897713  0.544147  0.310732  1
  S  S12  1  0.698460  0.136123  0.907412  1
  S  S13  1  0.496050  0.736472  0.509925  1
  S  S14  1  0.292682  0.338901  0.105893  1
  S  S15  1  0.097790  0.935345  0.710599  1
