# generated using pymatgen
data_DyTa8MnSe16
_symmetry_space_group_name_H-M   'P 1'
_cell_length_a   7.00725700
_cell_length_b   7.00725539
_cell_length_c   13.76781800
_cell_angle_alpha   90.00000000
_cell_angle_beta   90.00000000
_cell_angle_gamma   120.00000289
_symmetry_Int_Tables_number   1
_chemical_formula_structural   DyTa8MnSe16
_chemical_formula_sum   'Dy1 Ta8 Mn1 Se16'
_cell_volume   585.45258460
_cell_formula_units_Z   1
loop_
 _symmetry_equiv_pos_site_id
 _symmetry_equiv_pos_as_xyz
  1  'x, y, z'
loop_
 _atom_site_type_symbol
 _atom_site_label
 _atom_site_symmetry_multiplicity
 _atom_site_fract_x
 _atom_site_fract_y
 _atom_site_fract_z
 _atom_site_occupancy
  Dy  Dy0  1  0.000000  0.000000  0.500000  1
  Ta  Ta1  1  0.508152  0.491848  0.763422  1
  Ta  Ta2  1  0.016303  0.508152  0.236578  1
  Ta  Ta3  1  0.491848  0.983697  0.236578  1
  Ta  Ta4  1  0.508152  0.016303  0.763422  1
  Ta  Ta5  1  0.983697  0.491848  0.763422  1
  Ta  Ta6  1  0.491848  0.508152  0.236578  1
  Ta  Ta7  1  0.000000  0.000000  0.762469  1
  Ta  Ta8  1  0.000000  0.000000  0.237531  1
  Mn  Mn9  1  0.000000  0.000000  0.000000  1
  Se  Se10  1  0.830401  0.169599  0.357097  1
  Se  Se11  1  0.830401  0.660800  0.357097  1
  Se  Se12  1  0.339200  0.169599  0.357097  1
  Se  Se13  1  0.661193  0.830596  0.882377  1
  Se  Se14  1  0.169599  0.339200  0.642903  1
  Se  Se15  1  0.169404  0.830596  0.882377  1
  Se  Se16  1  0.169404  0.338807  0.882377  1
  Se  Se17  1  0.830596  0.169404  0.117623  1
  Se  Se18  1  0.338807  0.169404  0.117623  1
  Se  Se19  1  0.660800  0.830401  0.642903  1
  Se  Se20  1  0.333333  0.666667  0.111683  1
  Se  Se21  1  0.666667  0.333333  0.636713  1
  Se  Se22  1  0.666667  0.333333  0.888317  1
  Se  Se23  1  0.333333  0.666667  0.363287  1
  Se  Se24  1  0.830596  0.661193  0.117623  1
  Se  Se25  1  0.169599  0.830401  0.642903  1
