# generated using pymatgen
data_Tb3HoHf3O12
_symmetry_space_group_name_H-M   'P 1'
_cell_length_a   6.33326487
_cell_length_b   6.38521460
_cell_length_c   6.60921428
_cell_angle_alpha   99.96857346
_cell_angle_beta   98.01221664
_cell_angle_gamma   99.84298837
_symmetry_Int_Tables_number   1
_chemical_formula_structural   Tb3HoHf3O12
_chemical_formula_sum   'Tb3 Ho1 Hf3 O12'
_cell_volume   255.39943120
_cell_formula_units_Z   1
loop_
 _symmetry_equiv_pos_site_id
 _symmetry_equiv_pos_as_xyz
  1  'x, y, z'
loop_
 _atom_site_type_symbol
 _atom_site_label
 _atom_site_symmetry_multiplicity
 _atom_site_fract_x
 _atom_site_fract_y
 _atom_site_fract_z
 _atom_site_occupancy
  Tb  Tb0  1  0.384500  0.698961  0.866277  1
  Tb  Tb1  1  0.697643  0.865563  0.389924  1
  Tb  Tb2  1  0.614698  0.300060  0.133059  1
  Ho  Ho3  1  0.303353  0.134890  0.610328  1
  Hf  Hf4  1  0.000742  0.000551  0.000304  1
  Hf  Hf5  1  0.847975  0.397609  0.667604  1
  Hf  Hf6  1  0.152162  0.601978  0.333471  1
  O  O7  1  0.016192  0.679528  0.876923  1
  O  O8  1  0.687366  0.934811  0.059059  1
  O  O9  1  0.920782  0.091301  0.701341  1
  O  O10  1  0.983384  0.320390  0.122889  1
  O  O11  1  0.312541  0.065534  0.938320  1
  O  O12  1  0.081155  0.910439  0.299290  1
  O  O13  1  0.591000  0.191045  0.437528  1
  O  O14  1  0.169569  0.427122  0.572405  1
  O  O15  1  0.412480  0.583546  0.181737  1
  O  O16  1  0.405649  0.810859  0.563668  1
  O  O17  1  0.832271  0.570567  0.427715  1
  O  O18  1  0.586537  0.415244  0.818157  1
