# generated using pymatgen
data_ErTm11Co4BiRh
_symmetry_space_group_name_H-M   'P 1'
_cell_length_a   8.20996295
_cell_length_b   8.20996528
_cell_length_c   8.20912557
_cell_angle_alpha   110.86986691
_cell_angle_beta   111.10858248
_cell_angle_gamma   106.48050066
_symmetry_Int_Tables_number   1
_chemical_formula_structural   ErTm11Co4BiRh
_chemical_formula_sum   'Er1 Tm11 Co4 Bi1 Rh1'
_cell_volume   425.05842216
_cell_formula_units_Z   1
loop_
 _symmetry_equiv_pos_site_id
 _symmetry_equiv_pos_as_xyz
  1  'x, y, z'
loop_
 _atom_site_type_symbol
 _atom_site_label
 _atom_site_symmetry_multiplicity
 _atom_site_fract_x
 _atom_site_fract_y
 _atom_site_fract_z
 _atom_site_occupancy
  Er  Er0  1  0.286329  0.184087  0.470415  1
  Tm  Tm1  1  0.713798  0.816154  0.529952  1
  Tm  Tm2  1  0.286178  0.815990  0.102167  1
  Tm  Tm3  1  0.713845  0.183864  0.897710  1
  Tm  Tm4  1  0.619940  0.311514  0.308330  1
  Tm  Tm5  1  0.380145  0.688622  0.691645  1
  Tm  Tm6  1  0.003023  0.311500  0.691646  1
  Tm  Tm7  1  0.996815  0.688389  0.308330  1
  Tm  Tm8  1  0.212733  0.411012  0.198071  1
  Tm  Tm9  1  0.787335  0.589116  0.801889  1
  Tm  Tm10  1  0.212774  0.014554  0.801888  1
  Tm  Tm11  1  0.787058  0.985339  0.198071  1
  Co  Co12  1  0.999916  0.374990  0.374907  1
  Co  Co13  1  0.000004  0.625043  0.625046  1
  Co  Co14  1  0.388310  0.888131  0.500041  1
  Co  Co15  1  0.611910  0.111731  0.500040  1
  Bi  Bi16  1  0.499995  0.500003  0.999999  1
  Rh  Rh17  1  0.999892  0.999961  0.999853  1
