# generated using pymatgen
data_Ho4Tm6IrRh5
_symmetry_space_group_name_H-M   'P 1'
_cell_length_a   10.80208362
_cell_length_b   10.80411900
_cell_length_c   6.30747125
_cell_angle_alpha   90.00000000
_cell_angle_beta   90.00334167
_cell_angle_gamma   90.00000000
_symmetry_Int_Tables_number   1
_chemical_formula_structural   Ho4Tm6IrRh5
_chemical_formula_sum   'Ho8 Tm12 Ir2 Rh10'
_cell_volume   736.12602615
_cell_formula_units_Z   2
loop_
 _symmetry_equiv_pos_site_id
 _symmetry_equiv_pos_as_xyz
  1  'x, y, z'
loop_
 _atom_site_type_symbol
 _atom_site_label
 _atom_site_symmetry_multiplicity
 _atom_site_fract_x
 _atom_site_fract_y
 _atom_site_fract_z
 _atom_site_occupancy
  Ho  Ho0  1  0.289929  0.090087  0.377652  1
  Ho  Ho1  1  0.289929  0.909913  0.877652  1
  Ho  Ho2  1  0.709743  0.088653  0.876787  1
  Ho  Ho3  1  0.709743  0.911347  0.376787  1
  Ho  Ho4  1  0.587050  0.789320  0.877293  1
  Ho  Ho5  1  0.587050  0.210680  0.377293  1
  Ho  Ho6  1  0.410488  0.789671  0.377705  1
  Ho  Ho7  1  0.410488  0.210329  0.877705  1
  Tm  Tm8  1  0.209939  0.413880  0.621026  1
  Tm  Tm9  1  0.209939  0.586120  0.121026  1
  Tm  Tm10  1  0.791763  0.411972  0.121900  1
  Tm  Tm11  1  0.791763  0.588028  0.621900  1
  Tm  Tm12  1  0.912859  0.708662  0.121723  1
  Tm  Tm13  1  0.912859  0.291338  0.621723  1
  Tm  Tm14  1  0.089371  0.708250  0.621971  1
  Tm  Tm15  1  0.089371  0.291750  0.121971  1
  Tm  Tm16  1  0.999732  0.999645  0.500782  1
  Tm  Tm17  1  0.999732  0.000355  0.000782  1
  Tm  Tm18  1  0.500027  0.499571  0.000699  1
  Tm  Tm19  1  0.500027  0.500429  0.500699  1
  Ir  Ir20  1  0.345643  0.346847  0.250465  1
  Ir  Ir21  1  0.345643  0.653153  0.750465  1
  Rh  Rh22  1  0.846960  0.154369  0.250737  1
  Rh  Rh23  1  0.846960  0.845631  0.750737  1
  Rh  Rh24  1  0.151504  0.154213  0.750212  1
  Rh  Rh25  1  0.151504  0.845787  0.250212  1
  Rh  Rh26  1  0.655760  0.347340  0.750389  1
  Rh  Rh27  1  0.655760  0.652660  0.250389  1
  Rh  Rh28  1  0.500327  0.999864  0.124008  1
  Rh  Rh29  1  0.500327  0.000136  0.624008  1
  Rh  Rh30  1  0.998903  0.499858  0.876652  1
  Rh  Rh31  1  0.998903  0.500142  0.376652  1
