# generated using pymatgen
data_TbYbDy5NiI12
_symmetry_space_group_name_H-M   'P 1'
_cell_length_a   9.77830899
_cell_length_b   9.78149235
_cell_length_c   9.78006812
_cell_angle_alpha   106.84942154
_cell_angle_beta   106.83354319
_cell_angle_gamma   106.84834567
_symmetry_Int_Tables_number   1
_chemical_formula_structural   TbYbDy5NiI12
_chemical_formula_sum   'Tb1 Yb1 Dy5 Ni1 I12'
_cell_volume   782.33040077
_cell_formula_units_Z   1
loop_
 _symmetry_equiv_pos_site_id
 _symmetry_equiv_pos_as_xyz
  1  'x, y, z'
loop_
 _atom_site_type_symbol
 _atom_site_label
 _atom_site_symmetry_multiplicity
 _atom_site_fract_x
 _atom_site_fract_y
 _atom_site_fract_z
 _atom_site_occupancy
  Tb  Tb0  1  0.024195  0.293318  0.095360  1
  Yb  Yb1  1  0.499998  0.499989  0.500001  1
  Dy  Dy2  1  0.904982  0.975638  0.707499  1
  Dy  Dy3  1  0.707504  0.904772  0.975745  1
  Dy  Dy4  1  0.975823  0.707613  0.905013  1
  Dy  Dy5  1  0.095009  0.024024  0.292389  1
  Dy  Dy6  1  0.292445  0.094858  0.024142  1
  Ni  Ni7  1  0.999973  0.999673  0.999892  1
  I  I8  1  0.926935  0.321057  0.776682  1
  I  I9  1  0.777265  0.927099  0.321099  1
  I  I10  1  0.321136  0.777261  0.927096  1
  I  I11  1  0.072937  0.679179  0.222814  1
  I  I12  1  0.222732  0.072904  0.678902  1
  I  I13  1  0.678450  0.222536  0.072836  1
  I  I14  1  0.543746  0.848365  0.621071  1
  I  I15  1  0.621051  0.543726  0.848357  1
  I  I16  1  0.848368  0.621059  0.543737  1
  I  I17  1  0.456254  0.151636  0.378931  1
  I  I18  1  0.379362  0.456343  0.151674  1
  I  I19  1  0.151835  0.378952  0.456760  1
