# generated using pymatgen
data_Y2Er6Mn(B8Ru)3
_symmetry_space_group_name_H-M   'P 1'
_cell_length_a   3.61991700
_cell_length_b   9.09707127
_cell_length_c   11.47940200
_cell_angle_alpha   89.98489400
_cell_angle_beta   90.00000000
_cell_angle_gamma   90.00000000
_symmetry_Int_Tables_number   1
_chemical_formula_structural   Y2Er6Mn(B8Ru)3
_chemical_formula_sum   'Y2 Er6 Mn1 B24 Ru3'
_cell_volume   378.02407534
_cell_formula_units_Z   1
loop_
 _symmetry_equiv_pos_site_id
 _symmetry_equiv_pos_as_xyz
  1  'x, y, z'
loop_
 _atom_site_type_symbol
 _atom_site_label
 _atom_site_symmetry_multiplicity
 _atom_site_fract_x
 _atom_site_fract_y
 _atom_site_fract_z
 _atom_site_occupancy
  Y  Y0  1  0.000000  0.325436  0.412693  1
  Y  Y1  1  0.000000  0.676618  0.582076  1
  Er  Er2  1  0.000000  0.820237  0.088445  1
  Er  Er3  1  0.000000  0.177454  0.915319  1
  Er  Er4  1  0.000000  0.940550  0.371109  1
  Er  Er5  1  0.000000  0.056801  0.627985  1
  Er  Er6  1  0.000000  0.445810  0.130124  1
  Er  Er7  1  0.000000  0.556744  0.872023  1
  Mn  Mn8  1  0.000000  0.638316  0.319910  1
  B  B9  1  0.500000  0.554497  0.431197  1
  B  B10  1  0.500000  0.446359  0.566905  1
  B  B11  1  0.500000  0.053564  0.067076  1
  B  B12  1  0.500000  0.946490  0.933562  1
  B  B13  1  0.500000  0.746687  0.417085  1
  B  B14  1  0.500000  0.251460  0.580557  1
  B  B15  1  0.500000  0.248975  0.080543  1
  B  B16  1  0.500000  0.751743  0.920247  1
  B  B17  1  0.500000  0.789855  0.266039  1
  B  B18  1  0.500000  0.208521  0.734508  1
  B  B19  1  0.500000  0.291533  0.233710  1
  B  B20  1  0.500000  0.709078  0.766257  1
  B  B21  1  0.500000  0.631957  0.186511  1
  B  B22  1  0.500000  0.368203  0.815450  1
  B  B23  1  0.500000  0.130809  0.314408  1
  B  B24  1  0.500000  0.868742  0.685126  1
  B  B25  1  0.500000  0.982239  0.212519  1
  B  B26  1  0.500000  0.017256  0.787868  1
  B  B27  1  0.500000  0.485830  0.287809  1
  B  B28  1  0.500000  0.516686  0.712809  1
  B  B29  1  0.500000  0.607050  0.029808  1
  B  B30  1  0.500000  0.393316  0.970944  1
  B  B31  1  0.500000  0.105593  0.470456  1
  B  B32  1  0.500000  0.894068  0.528919  1
  Ru  Ru33  1  0.000000  0.361299  0.680167  1
  Ru  Ru34  1  0.000000  0.137513  0.178474  1
  Ru  Ru35  1  0.000000  0.862711  0.821365  1
