# generated using pymatgen
data_Tb5Dy3Hf7Si16Mo5
_symmetry_space_group_name_H-M   'P 1'
_cell_length_a   7.14050488
_cell_length_b   7.13652399
_cell_length_c   13.08683565
_cell_angle_alpha   89.77062090
_cell_angle_beta   89.95615277
_cell_angle_gamma   90.10782790
_symmetry_Int_Tables_number   1
_chemical_formula_structural   Tb5Dy3Hf7Si16Mo5
_chemical_formula_sum   'Tb5 Dy3 Hf7 Si16 Mo5'
_cell_volume   666.87727712
_cell_formula_units_Z   1
loop_
 _symmetry_equiv_pos_site_id
 _symmetry_equiv_pos_as_xyz
  1  'x, y, z'
loop_
 _atom_site_type_symbol
 _atom_site_label
 _atom_site_symmetry_multiplicity
 _atom_site_fract_x
 _atom_site_fract_y
 _atom_site_fract_z
 _atom_site_occupancy
  Tb  Tb0  1  0.499476  0.845201  0.036055  1
  Tb  Tb1  1  0.844382  0.501823  0.965657  1
  Tb  Tb2  1  0.499333  0.154804  0.532131  1
  Tb  Tb3  1  0.345138  0.999381  0.784134  1
  Tb  Tb4  1  0.655762  0.001125  0.284269  1
  Dy  Dy5  1  0.999192  0.344906  0.218716  1
  Dy  Dy6  1  0.001491  0.656848  0.713842  1
  Dy  Dy7  1  0.154723  0.500347  0.465614  1
  Hf  Hf8  1  0.852913  0.006381  0.874454  1
  Hf  Hf9  1  0.504627  0.648453  0.620932  1
  Hf  Hf10  1  0.353083  0.492957  0.875996  1
  Hf  Hf11  1  0.491553  0.349294  0.125856  1
  Hf  Hf12  1  0.647493  0.510416  0.377059  1
  Hf  Hf13  1  0.994158  0.147420  0.625884  1
  Hf  Hf14  1  0.004091  0.852102  0.124464  1
  Si  Si15  1  0.360905  0.289376  0.320671  1
  Si  Si16  1  0.639067  0.702032  0.815173  1
  Si  Si17  1  0.199289  0.863530  0.560954  1
  Si  Si18  1  0.139312  0.796548  0.932790  1
  Si  Si19  1  0.797946  0.140487  0.067138  1
  Si  Si20  1  0.870740  0.197206  0.430372  1
  Si  Si21  1  0.299371  0.360480  0.682732  1
  Si  Si22  1  0.703001  0.638123  0.183732  1
  Si  Si23  1  0.293347  0.046282  0.189459  1
  Si  Si24  1  0.705504  0.948781  0.683581  1
  Si  Si25  1  0.438683  0.797383  0.430628  1
  Si  Si26  1  0.204144  0.549966  0.066600  1
  Si  Si27  1  0.550645  0.204042  0.934558  1
  Si  Si28  1  0.794977  0.446538  0.566497  1
  Si  Si29  1  0.050669  0.296422  0.816364  1
  Si  Si30  1  0.956577  0.714413  0.317799  1
  Mo  Mo31  1  0.173819  0.174143  0.002100  1
  Mo  Mo32  1  0.827378  0.827037  0.499169  1
  Mo  Mo33  1  0.322939  0.674469  0.250264  1
  Mo  Mo34  1  0.676652  0.325288  0.750018  1
  Mo  Mo35  1  0.147621  0.995996  0.374333  1
