# generated using pymatgen
data_Ho10(PdRu)3
_symmetry_space_group_name_H-M   'P 1'
_cell_length_a   10.91469892
_cell_length_b   10.91412400
_cell_length_c   6.41226803
_cell_angle_alpha   90.00000000
_cell_angle_beta   89.92980706
_cell_angle_gamma   90.00000000
_symmetry_Int_Tables_number   1
_chemical_formula_structural   Ho10(PdRu)3
_chemical_formula_sum   'Ho20 Pd6 Ru6'
_cell_volume   763.85686386
_cell_formula_units_Z   2
loop_
 _symmetry_equiv_pos_site_id
 _symmetry_equiv_pos_as_xyz
  1  'x, y, z'
loop_
 _atom_site_type_symbol
 _atom_site_label
 _atom_site_symmetry_multiplicity
 _atom_site_fract_x
 _atom_site_fract_y
 _atom_site_fract_z
 _atom_site_occupancy
  Ho  Ho0  1  0.297785  0.085189  0.374318  1
  Ho  Ho1  1  0.297785  0.914811  0.874318  1
  Ho  Ho2  1  0.709337  0.083255  0.876897  1
  Ho  Ho3  1  0.709337  0.916745  0.376897  1
  Ho  Ho4  1  0.592163  0.797947  0.872546  1
  Ho  Ho5  1  0.592163  0.202053  0.372546  1
  Ho  Ho6  1  0.416099  0.797959  0.372509  1
  Ho  Ho7  1  0.416099  0.202041  0.872509  1
  Ho  Ho8  1  0.201702  0.416010  0.627669  1
  Ho  Ho9  1  0.201702  0.583990  0.127669  1
  Ho  Ho10  1  0.797037  0.408980  0.127318  1
  Ho  Ho11  1  0.797037  0.591020  0.627318  1
  Ho  Ho12  1  0.911868  0.705199  0.120600  1
  Ho  Ho13  1  0.911868  0.294801  0.620600  1
  Ho  Ho14  1  0.079873  0.707138  0.628328  1
  Ho  Ho15  1  0.079873  0.292862  0.128328  1
  Ho  Ho16  1  0.994091  0.001175  0.500213  1
  Ho  Ho17  1  0.994091  0.998825  0.000213  1
  Ho  Ho18  1  0.500024  0.500540  0.999976  1
  Ho  Ho19  1  0.500024  0.499460  0.499976  1
  Pd  Pd20  1  0.154994  0.153685  0.749890  1
  Pd  Pd21  1  0.154994  0.846315  0.249890  1
  Pd  Pd22  1  0.652249  0.347614  0.750162  1
  Pd  Pd23  1  0.652249  0.652386  0.250162  1
  Pd  Pd24  1  0.346176  0.346559  0.250055  1
  Pd  Pd25  1  0.346176  0.653441  0.750055  1
  Ru  Ru26  1  0.847963  0.154371  0.249398  1
  Ru  Ru27  1  0.847963  0.845629  0.749398  1
  Ru  Ru28  1  0.498073  0.000270  0.124562  1
  Ru  Ru29  1  0.498073  0.999730  0.624562  1
  Ru  Ru30  1  0.000562  0.500261  0.875558  1
  Ru  Ru31  1  0.000562  0.499739  0.375558  1
