# generated using pymatgen
data_Li2Lu2As6Ir7
_symmetry_space_group_name_H-M   'P 1'
_cell_length_a   7.15403677
_cell_length_b   7.15403741
_cell_length_c   7.08079793
_cell_angle_alpha   109.31555758
_cell_angle_beta   109.31556734
_cell_angle_gamma   110.19589722
_symmetry_Int_Tables_number   1
_chemical_formula_structural   Li2Lu2As6Ir7
_chemical_formula_sum   'Li2 Lu2 As6 Ir7'
_cell_volume   277.52465675
_cell_formula_units_Z   1
loop_
 _symmetry_equiv_pos_site_id
 _symmetry_equiv_pos_as_xyz
  1  'x, y, z'
loop_
 _atom_site_type_symbol
 _atom_site_label
 _atom_site_symmetry_multiplicity
 _atom_site_fract_x
 _atom_site_fract_y
 _atom_site_fract_z
 _atom_site_occupancy
  Li  Li0  1  0.500000  0.000000  0.000000  1
  Li  Li1  1  0.000000  0.500000  0.000000  1
  Lu  Lu2  1  0.000000  0.000000  0.500000  1
  Lu  Lu3  1  0.500000  0.500000  0.500000  1
  As  As4  1  0.685976  0.685976  0.000000  1
  As  As5  1  0.314024  0.314024  0.000000  1
  As  As6  1  0.012905  0.685693  0.698598  1
  As  As7  1  0.987095  0.314307  0.301402  1
  As  As8  1  0.685693  0.012905  0.698598  1
  As  As9  1  0.314307  0.987095  0.301402  1
  Ir  Ir10  1  0.000000  0.000000  0.000000  1
  Ir  Ir11  1  0.250561  0.499709  0.750270  1
  Ir  Ir12  1  0.750000  0.250000  0.500000  1
  Ir  Ir13  1  0.499709  0.250561  0.750270  1
  Ir  Ir14  1  0.500291  0.749439  0.249730  1
  Ir  Ir15  1  0.749439  0.500291  0.249730  1
  Ir  Ir16  1  0.250000  0.750000  0.500000  1
