# generated using pymatgen
data_Dy3Tm4Co2Sn23Rh4
_symmetry_space_group_name_H-M   'P 1'
_cell_length_a   9.77166070
_cell_length_b   9.79171011
_cell_length_c   10.06922429
_cell_angle_alpha   89.99999861
_cell_angle_beta   90.04708718
_cell_angle_gamma   120.06788328
_symmetry_Int_Tables_number   1
_chemical_formula_structural   Dy3Tm4Co2Sn23Rh4
_chemical_formula_sum   'Dy3 Tm4 Co2 Sn23 Rh4'
_cell_volume   833.78849152
_cell_formula_units_Z   1
loop_
 _symmetry_equiv_pos_site_id
 _symmetry_equiv_pos_as_xyz
  1  'x, y, z'
loop_
 _atom_site_type_symbol
 _atom_site_label
 _atom_site_symmetry_multiplicity
 _atom_site_fract_x
 _atom_site_fract_y
 _atom_site_fract_z
 _atom_site_occupancy
  Dy  Dy0  1  0.000000  0.000000  0.000000  1
  Dy  Dy1  1  0.042685  0.521343  0.307030  1
  Dy  Dy2  1  0.957315  0.478657  0.692970  1
  Tm  Tm3  1  0.479205  0.520646  0.307381  1
  Tm  Tm4  1  0.520795  0.479354  0.692619  1
  Tm  Tm5  1  0.479205  0.958559  0.307381  1
  Tm  Tm6  1  0.520795  0.041441  0.692619  1
  Co  Co7  1  0.337862  0.168930  0.198705  1
  Co  Co8  1  0.662138  0.831070  0.801295  1
  Sn  Sn9  1  0.351423  0.004814  0.005017  1
  Sn  Sn10  1  0.648577  0.995186  0.994983  1
  Sn  Sn11  1  0.000000  0.351034  0.000000  1
  Sn  Sn12  1  0.000000  0.648966  0.000000  1
  Sn  Sn13  1  0.648577  0.653391  0.994983  1
  Sn  Sn14  1  0.351423  0.346609  0.005017  1
  Sn  Sn15  1  0.339087  0.669544  0.818343  1
  Sn  Sn16  1  0.660913  0.330456  0.181657  1
  Sn  Sn17  1  0.000000  0.000000  0.500000  1
  Sn  Sn18  1  0.777141  0.220429  0.456257  1
  Sn  Sn19  1  0.222859  0.779571  0.543743  1
  Sn  Sn20  1  0.777141  0.556711  0.456257  1
  Sn  Sn21  1  0.222859  0.443289  0.543743  1
  Sn  Sn22  1  0.439572  0.219785  0.450630  1
  Sn  Sn23  1  0.560428  0.780215  0.549370  1
  Sn  Sn24  1  0.334859  0.667430  0.121167  1
  Sn  Sn25  1  0.665141  0.332570  0.878833  1
  Sn  Sn26  1  0.124334  0.886879  0.277074  1
  Sn  Sn27  1  0.875666  0.113121  0.722926  1
  Sn  Sn28  1  0.124334  0.237456  0.277074  1
  Sn  Sn29  1  0.875666  0.762544  0.722926  1
  Sn  Sn30  1  0.757930  0.878964  0.282317  1
  Sn  Sn31  1  0.242070  0.121036  0.717683  1
  Rh  Rh32  1  0.829799  0.166768  0.197640  1
  Rh  Rh33  1  0.170201  0.833232  0.802360  1
  Rh  Rh34  1  0.829799  0.663031  0.197640  1
  Rh  Rh35  1  0.170201  0.336969  0.802360  1
