# generated using pymatgen
data_La2Tb9(Yb3Ir4)3
_symmetry_space_group_name_H-M   'P 1'
_cell_length_a   10.93759333
_cell_length_b   11.02798425
_cell_length_c   6.30846736
_cell_angle_alpha   90.11677907
_cell_angle_beta   89.87339367
_cell_angle_gamma   89.78326703
_symmetry_Int_Tables_number   1
_chemical_formula_structural   La2Tb9(Yb3Ir4)3
_chemical_formula_sum   'La2 Tb9 Yb9 Ir12'
_cell_volume   760.91595784
_cell_formula_units_Z   1
loop_
 _symmetry_equiv_pos_site_id
 _symmetry_equiv_pos_as_xyz
  1  'x, y, z'
loop_
 _atom_site_type_symbol
 _atom_site_label
 _atom_site_symmetry_multiplicity
 _atom_site_fract_x
 _atom_site_fract_y
 _atom_site_fract_z
 _atom_site_occupancy
  La  La0  1  0.589660  0.207141  0.377895  1
  La  La1  1  0.411468  0.793082  0.378534  1
  Tb  Tb2  1  0.408084  0.204914  0.881367  1
  Tb  Tb3  1  0.210578  0.412452  0.623735  1
  Tb  Tb4  1  0.208749  0.585414  0.122439  1
  Tb  Tb5  1  0.790031  0.415148  0.124071  1
  Tb  Tb6  1  0.788239  0.588432  0.626124  1
  Tb  Tb7  1  0.911924  0.711023  0.128169  1
  Tb  Tb8  1  0.911797  0.289778  0.627930  1
  Tb  Tb9  1  0.086506  0.710494  0.626423  1
  Tb  Tb10  1  0.087596  0.289496  0.126409  1
  Yb  Yb11  1  0.288224  0.088639  0.377154  1
  Yb  Yb12  1  0.289879  0.912991  0.877019  1
  Yb  Yb13  1  0.711903  0.082241  0.877022  1
  Yb  Yb14  1  0.712109  0.911839  0.378302  1
  Yb  Yb15  1  0.591646  0.794402  0.876538  1
  Yb  Yb16  1  0.000844  0.000196  0.495524  1
  Yb  Yb17  1  0.001210  0.999327  0.993815  1
  Yb  Yb18  1  0.500146  0.503268  0.988432  1
  Yb  Yb19  1  0.500525  0.499053  0.490543  1
  Ir  Ir20  1  0.853925  0.165974  0.247252  1
  Ir  Ir21  1  0.857046  0.833022  0.747978  1
  Ir  Ir22  1  0.149629  0.166618  0.751292  1
  Ir  Ir23  1  0.147907  0.833541  0.247268  1
  Ir  Ir24  1  0.657669  0.347460  0.752408  1
  Ir  Ir25  1  0.663337  0.649580  0.247946  1
  Ir  Ir26  1  0.337902  0.351001  0.238933  1
  Ir  Ir27  1  0.335823  0.648040  0.743543  1
  Ir  Ir28  1  0.498746  0.003157  0.119220  1
  Ir  Ir29  1  0.498869  0.003012  0.629103  1
  Ir  Ir30  1  0.999073  0.499698  0.889211  1
  Ir  Ir31  1  0.998953  0.499572  0.388400  1
