# generated using pymatgen
data_PaAsO5
_symmetry_space_group_name_H-M   'P 1'
_cell_length_a   5.91824600
_cell_length_b   12.67583300
_cell_length_c   7.41602400
_cell_angle_alpha   90.00000000
_cell_angle_beta   90.00000000
_cell_angle_gamma   90.00000000
_symmetry_Int_Tables_number   1
_chemical_formula_structural   PaAsO5
_chemical_formula_sum   'Pa4 As4 O20'
_cell_volume   556.34046444
_cell_formula_units_Z   4
loop_
 _symmetry_equiv_pos_site_id
 _symmetry_equiv_pos_as_xyz
  1  'x, y, z'
loop_
 _atom_site_type_symbol
 _atom_site_label
 _atom_site_symmetry_multiplicity
 _atom_site_fract_x
 _atom_site_fract_y
 _atom_site_fract_z
 _atom_site_occupancy
  Pa  Pa0  1  0.750000  0.937973  0.829430  1
  Pa  Pa1  1  0.250000  0.062027  0.170570  1
  Pa  Pa2  1  0.250000  0.562027  0.329430  1
  Pa  Pa3  1  0.750000  0.437973  0.670570  1
  As  As4  1  0.750000  0.156262  0.472503  1
  As  As5  1  0.250000  0.843738  0.527497  1
  As  As6  1  0.250000  0.343738  0.972503  1
  As  As7  1  0.750000  0.656262  0.027497  1
  O  O8  1  0.750000  0.788512  0.985322  1
  O  O9  1  0.250000  0.211488  0.014678  1
  O  O10  1  0.250000  0.711488  0.485322  1
  O  O11  1  0.750000  0.288512  0.514678  1
  O  O12  1  0.487489  0.875200  0.648996  1
  O  O13  1  0.512511  0.124800  0.351004  1
  O  O14  1  0.512511  0.624800  0.148996  1
  O  O15  1  0.987489  0.124800  0.351004  1
  O  O16  1  0.487489  0.375200  0.851004  1
  O  O17  1  0.012511  0.875200  0.648996  1
  O  O18  1  0.012511  0.375200  0.851004  1
  O  O19  1  0.987489  0.624800  0.148996  1
  O  O20  1  0.750000  0.586641  0.830144  1
  O  O21  1  0.250000  0.413359  0.169856  1
  O  O22  1  0.250000  0.913359  0.330144  1
  O  O23  1  0.750000  0.086641  0.669856  1
  O  O24  1  0.000000  0.000000  0.000000  1
  O  O25  1  0.000000  0.500000  0.500000  1
  O  O26  1  0.500000  0.000000  0.000000  1
  O  O27  1  0.500000  0.500000  0.500000  1
