# generated using pymatgen
data_Y4Ho4Cd2OsPt
_symmetry_space_group_name_H-M   'P 1'
_cell_length_a   9.67964707
_cell_length_b   9.67965217
_cell_length_c   9.74548188
_cell_angle_alpha   59.55619969
_cell_angle_beta   59.55631366
_cell_angle_gamma   59.63500739
_symmetry_Int_Tables_number   1
_chemical_formula_structural   Y4Ho4Cd2OsPt
_chemical_formula_sum   'Y8 Ho8 Cd4 Os2 Pt2'
_cell_volume   639.53724333
_cell_formula_units_Z   2
loop_
 _symmetry_equiv_pos_site_id
 _symmetry_equiv_pos_as_xyz
  1  'x, y, z'
loop_
 _atom_site_type_symbol
 _atom_site_label
 _atom_site_symmetry_multiplicity
 _atom_site_fract_x
 _atom_site_fract_y
 _atom_site_fract_z
 _atom_site_occupancy
  Y  Y0  1  0.188299  0.188298  0.810922  1
  Y  Y1  1  0.808080  0.808082  0.190746  1
  Y  Y2  1  0.939239  0.556132  0.566341  1
  Y  Y3  1  0.556658  0.938028  0.939566  1
  Y  Y4  1  0.556131  0.939238  0.566343  1
  Y  Y5  1  0.938029  0.556658  0.939564  1
  Y  Y6  1  0.562241  0.562240  0.939863  1
  Y  Y7  1  0.940881  0.940880  0.558911  1
  Ho  Ho8  1  0.348736  0.348735  0.352404  1
  Ho  Ho9  1  0.350176  0.350174  0.948847  1
  Ho  Ho10  1  0.346418  0.955767  0.349618  1
  Ho  Ho11  1  0.955769  0.346417  0.349619  1
  Ho  Ho12  1  0.813778  0.188698  0.190260  1
  Ho  Ho13  1  0.186764  0.814487  0.806047  1
  Ho  Ho14  1  0.188697  0.813779  0.190259  1
  Ho  Ho15  1  0.814486  0.186764  0.806048  1
  Cd  Cd16  1  0.579727  0.579727  0.579769  1
  Cd  Cd17  1  0.580294  0.580296  0.257667  1
  Cd  Cd18  1  0.580709  0.256114  0.580896  1
  Cd  Cd19  1  0.256114  0.580709  0.580896  1
  Os  Os20  1  0.143324  0.143324  0.140866  1
  Os  Os21  1  0.144354  0.144354  0.573643  1
  Pt  Pt22  1  0.147066  0.574034  0.140452  1
  Pt  Pt23  1  0.574032  0.147066  0.140453  1
