# generated using pymatgen
data_Mg5Si16Pd2(Pt3Rh)2
_symmetry_space_group_name_H-M   'P 1'
_cell_length_a   8.92967402
_cell_length_b   8.94286883
_cell_length_c   8.94246400
_cell_angle_alpha   59.88502303
_cell_angle_beta   60.04730233
_cell_angle_gamma   60.04879839
_symmetry_Int_Tables_number   1
_chemical_formula_structural   Mg5Si16Pd2(Pt3Rh)2
_chemical_formula_sum   'Mg5 Si16 Pd2 Pt6 Rh2'
_cell_volume   504.88255426
_cell_formula_units_Z   1
loop_
 _symmetry_equiv_pos_site_id
 _symmetry_equiv_pos_as_xyz
  1  'x, y, z'
loop_
 _atom_site_type_symbol
 _atom_site_label
 _atom_site_symmetry_multiplicity
 _atom_site_fract_x
 _atom_site_fract_y
 _atom_site_fract_z
 _atom_site_occupancy
  Mg  Mg0  1  0.199297  0.600865  0.599937  1
  Mg  Mg1  1  0.600036  0.598000  0.201927  1
  Mg  Mg2  1  0.599902  0.600865  0.599937  1
  Mg  Mg3  1  0.599735  0.201997  0.598534  1
  Mg  Mg4  1  0.250742  0.241963  0.256553  1
  Si  Si5  1  0.204728  0.663824  0.204102  1
  Si  Si6  1  0.927348  0.663824  0.204102  1
  Si  Si7  1  0.209031  0.199335  0.663043  1
  Si  Si8  1  0.659901  0.203127  0.212302  1
  Si  Si9  1  0.928590  0.199335  0.663043  1
  Si  Si10  1  0.205903  0.661901  0.926294  1
  Si  Si11  1  0.924671  0.203127  0.212302  1
  Si  Si12  1  0.661906  0.927830  0.209823  1
  Si  Si13  1  0.200440  0.927830  0.209823  1
  Si  Si14  1  0.208234  0.925528  0.658004  1
  Si  Si15  1  0.534161  0.827399  0.813982  1
  Si  Si16  1  0.824456  0.827399  0.813982  1
  Si  Si17  1  0.664305  0.203755  0.929542  1
  Si  Si18  1  0.820653  0.831485  0.527207  1
  Si  Si19  1  0.822494  0.534887  0.820125  1
  Si  Si20  1  0.202397  0.203755  0.929542  1
  Pd  Pd21  1  0.382290  0.859004  0.376414  1
  Pd  Pd22  1  0.514868  0.983091  0.987174  1
  Pt  Pt23  1  0.982480  0.517241  0.982570  1
  Pt  Pt24  1  0.378079  0.374106  0.869738  1
  Pt  Pt25  1  0.375423  0.379935  0.378503  1
  Pt  Pt26  1  0.866139  0.379935  0.378503  1
  Pt  Pt27  1  0.982741  0.517543  0.516976  1
  Pt  Pt28  1  0.517710  0.517241  0.982570  1
  Rh  Rh29  1  0.989429  0.986939  0.511722  1
  Rh  Rh30  1  0.511910  0.986939  0.511722  1
