# generated using pymatgen
data_TmLu(Co3P2)2
_symmetry_space_group_name_H-M   'P 1'
_cell_length_a   3.66348200
_cell_length_b   10.45337338
_cell_length_c   12.09546907
_cell_angle_alpha   90.00937709
_cell_angle_beta   90.00000000
_cell_angle_gamma   90.00000000
_symmetry_Int_Tables_number   1
_chemical_formula_structural   TmLu(Co3P2)2
_chemical_formula_sum   'Tm3 Lu3 Co18 P12'
_cell_volume   463.20499569
_cell_formula_units_Z   3
loop_
 _symmetry_equiv_pos_site_id
 _symmetry_equiv_pos_as_xyz
  1  'x, y, z'
loop_
 _atom_site_type_symbol
 _atom_site_label
 _atom_site_symmetry_multiplicity
 _atom_site_fract_x
 _atom_site_fract_y
 _atom_site_fract_z
 _atom_site_occupancy
  Tm  Tm0  1  0.000000  0.500105  0.522523  1
  Tm  Tm1  1  0.500000  0.000093  0.477148  1
  Tm  Tm2  1  0.000000  0.317999  0.794042  1
  Lu  Lu3  1  0.500000  0.818312  0.206381  1
  Lu  Lu4  1  0.500000  0.181540  0.205713  1
  Lu  Lu5  1  0.000000  0.681823  0.794112  1
  Co  Co6  1  0.500000  0.500360  0.159242  1
  Co  Co7  1  0.000000  0.999952  0.840721  1
  Co  Co8  1  0.500000  0.500556  0.703388  1
  Co  Co9  1  0.000000  0.999784  0.296590  1
  Co  Co10  1  0.000000  0.500365  0.986535  1
  Co  Co11  1  0.500000  0.999600  0.014488  1
  Co  Co12  1  0.500000  0.333116  0.994622  1
  Co  Co13  1  0.500000  0.667060  0.994593  1
  Co  Co14  1  0.000000  0.166296  0.006099  1
  Co  Co15  1  0.000000  0.833144  0.005907  1
  Co  Co16  1  0.500000  0.297631  0.429940  1
  Co  Co17  1  0.500000  0.702590  0.430760  1
  Co  Co18  1  0.000000  0.202576  0.568579  1
  Co  Co19  1  0.000000  0.797731  0.569422  1
  Co  Co20  1  0.500000  0.878052  0.709782  1
  Co  Co21  1  0.500000  0.121439  0.709095  1
  Co  Co22  1  0.000000  0.621908  0.290517  1
  Co  Co23  1  0.000000  0.378154  0.289885  1
  P  P24  1  0.500000  0.500467  0.882068  1
  P  P25  1  0.000000  0.999689  0.118740  1
  P  P26  1  0.500000  0.500050  0.344919  1
  P  P27  1  0.000000  0.000137  0.654802  1
  P  P28  1  0.500000  0.312068  0.616179  1
  P  P29  1  0.500000  0.688231  0.617072  1
  P  P30  1  0.000000  0.188029  0.382442  1
  P  P31  1  0.000000  0.811961  0.383136  1
  P  P32  1  0.500000  0.846627  0.892153  1
  P  P33  1  0.500000  0.152568  0.892375  1
  P  P34  1  0.000000  0.653689  0.108281  1
  P  P35  1  0.000000  0.346300  0.107753  1
