# generated using pymatgen
data_Li8La7SmBi3Pb5
_symmetry_space_group_name_H-M   'P 1'
_cell_length_a   9.80961400
_cell_length_b   9.80961183
_cell_length_c   7.84679700
_cell_angle_alpha   90.00000000
_cell_angle_beta   90.00000000
_cell_angle_gamma   120.00000056
_symmetry_Int_Tables_number   1
_chemical_formula_structural   Li8La7SmBi3Pb5
_chemical_formula_sum   'Li8 La7 Sm1 Bi3 Pb5'
_cell_volume   653.92326358
_cell_formula_units_Z   1
loop_
 _symmetry_equiv_pos_site_id
 _symmetry_equiv_pos_as_xyz
  1  'x, y, z'
loop_
 _atom_site_type_symbol
 _atom_site_label
 _atom_site_symmetry_multiplicity
 _atom_site_fract_x
 _atom_site_fract_y
 _atom_site_fract_z
 _atom_site_occupancy
  Li  Li0  1  0.833600  0.166400  0.725768  1
  Li  Li1  1  0.833600  0.667200  0.725768  1
  Li  Li2  1  0.332800  0.166400  0.725768  1
  Li  Li3  1  0.166272  0.833728  0.210331  1
  Li  Li4  1  0.166272  0.332545  0.210331  1
  Li  Li5  1  0.667455  0.833728  0.210331  1
  Li  Li6  1  0.666667  0.333333  0.326103  1
  Li  Li7  1  0.333333  0.666667  0.821468  1
  La  La8  1  0.487729  0.512271  0.508363  1
  La  La9  1  0.487729  0.975459  0.508363  1
  La  La10  1  0.024541  0.512271  0.508363  1
  La  La11  1  0.509294  0.490706  0.001918  1
  La  La12  1  0.509294  0.018586  0.001918  1
  La  La13  1  0.981414  0.490706  0.001918  1
  La  La14  1  0.000000  0.000000  0.505188  1
  Sm  Sm15  1  0.000000  0.000000  0.993417  1
  Bi  Bi16  1  0.834263  0.165737  0.263211  1
  Bi  Bi17  1  0.834263  0.668524  0.263211  1
  Bi  Bi18  1  0.331476  0.165737  0.263211  1
  Pb  Pb19  1  0.165244  0.834756  0.771096  1
  Pb  Pb20  1  0.165244  0.330488  0.771096  1
  Pb  Pb21  1  0.669512  0.834756  0.771096  1
  Pb  Pb22  1  0.666667  0.333333  0.734089  1
  Pb  Pb23  1  0.333333  0.666667  0.235693  1
