# generated using pymatgen
data_Li5Ti6MnIr12
_symmetry_space_group_name_H-M   'P 1'
_cell_length_a   4.29912300
_cell_length_b   6.04733500
_cell_length_c   12.85362400
_cell_angle_alpha   90.00005963
_cell_angle_beta   90.00029370
_cell_angle_gamma   89.99960112
_symmetry_Int_Tables_number   1
_chemical_formula_structural   Li5Ti6MnIr12
_chemical_formula_sum   'Li5 Ti6 Mn1 Ir12'
_cell_volume   334.17156289
_cell_formula_units_Z   1
loop_
 _symmetry_equiv_pos_site_id
 _symmetry_equiv_pos_as_xyz
  1  'x, y, z'
loop_
 _atom_site_type_symbol
 _atom_site_label
 _atom_site_symmetry_multiplicity
 _atom_site_fract_x
 _atom_site_fract_y
 _atom_site_fract_z
 _atom_site_occupancy
  Li  Li0  1  0.499839  0.000001  0.166981  1
  Li  Li1  1  0.999834  0.499999  0.333673  1
  Li  Li2  1  0.500001  0.000000  0.500000  1
  Li  Li3  1  0.000165  0.500001  0.666327  1
  Li  Li4  1  0.500160  0.999999  0.833018  1
  Ti  Ti5  1  0.000000  0.000000  0.000000  1
  Ti  Ti6  1  0.499831  0.500000  0.170170  1
  Ti  Ti7  1  0.999834  0.000000  0.336251  1
  Ti  Ti8  1  0.500001  0.500000  0.500000  1
  Ti  Ti9  1  0.000165  0.000000  0.663750  1
  Ti  Ti10  1  0.500168  0.500000  0.829830  1
  Mn  Mn11  1  0.000000  0.500000  0.000000  1
  Ir  Ir12  1  0.500003  0.249590  0.000000  1
  Ir  Ir13  1  0.499999  0.750411  0.000000  1
  Ir  Ir14  1  0.999829  0.248914  0.167101  1
  Ir  Ir15  1  0.999826  0.751088  0.167101  1
  Ir  Ir16  1  0.499834  0.249010  0.333173  1
  Ir  Ir17  1  0.499832  0.750991  0.333174  1
  Ir  Ir18  1  0.000000  0.251492  0.500001  1
  Ir  Ir19  1  0.000000  0.748508  0.499999  1
  Ir  Ir20  1  0.500168  0.249009  0.666827  1
  Ir  Ir21  1  0.500166  0.750990  0.666828  1
  Ir  Ir22  1  0.000176  0.248912  0.832899  1
  Ir  Ir23  1  0.000173  0.751086  0.832899  1
