# generated using pymatgen
data_Ho3TmFe12(P3Rh2)4
_symmetry_space_group_name_H-M   'P 1'
_cell_length_a   3.76304300
_cell_length_b   10.32496530
_cell_length_c   12.18316235
_cell_angle_alpha   89.97251660
_cell_angle_beta   90.00000000
_cell_angle_gamma   90.00000000
_symmetry_Int_Tables_number   1
_chemical_formula_structural   Ho3TmFe12(P3Rh2)4
_chemical_formula_sum   'Ho3 Tm1 Fe12 P12 Rh8'
_cell_volume   473.35586580
_cell_formula_units_Z   1
loop_
 _symmetry_equiv_pos_site_id
 _symmetry_equiv_pos_as_xyz
  1  'x, y, z'
loop_
 _atom_site_type_symbol
 _atom_site_label
 _atom_site_symmetry_multiplicity
 _atom_site_fract_x
 _atom_site_fract_y
 _atom_site_fract_z
 _atom_site_occupancy
  Ho  Ho0  1  0.250000  0.919477  0.211462  1
  Ho  Ho1  1  0.750000  0.419199  0.288542  1
  Ho  Ho2  1  0.750000  0.080781  0.788491  1
  Tm  Tm3  1  0.250000  0.580504  0.711474  1
  Fe  Fe4  1  0.250000  0.224040  0.170754  1
  Fe  Fe5  1  0.250000  0.276131  0.670807  1
  Fe  Fe6  1  0.750000  0.775546  0.829135  1
  Fe  Fe7  1  0.750000  0.724027  0.329260  1
  Fe  Fe8  1  0.250000  0.877046  0.697176  1
  Fe  Fe9  1  0.250000  0.622638  0.197105  1
  Fe  Fe10  1  0.750000  0.122706  0.302875  1
  Fe  Fe11  1  0.750000  0.377693  0.802673  1
  Fe  Fe12  1  0.250000  0.459245  0.934963  1
  Fe  Fe13  1  0.250000  0.040898  0.435315  1
  Fe  Fe14  1  0.750000  0.540904  0.064520  1
  Fe  Fe15  1  0.750000  0.958962  0.564779  1
  P  P16  1  0.250000  0.429605  0.112770  1
  P  P17  1  0.250000  0.070395  0.612885  1
  P  P18  1  0.750000  0.570418  0.886579  1
  P  P19  1  0.750000  0.929618  0.387134  1
  P  P20  1  0.250000  0.273342  0.852749  1
  P  P21  1  0.250000  0.226749  0.352751  1
  P  P22  1  0.750000  0.726691  0.147209  1
  P  P23  1  0.750000  0.772722  0.647380  1
  P  P24  1  0.250000  0.605660  0.377539  1
  P  P25  1  0.250000  0.894328  0.877579  1
  P  P26  1  0.750000  0.394765  0.622615  1
  P  P27  1  0.750000  0.105696  0.122491  1
  Rh  Rh28  1  0.250000  0.707634  0.985218  1
  Rh  Rh29  1  0.250000  0.792325  0.485276  1
  Rh  Rh30  1  0.750000  0.292426  0.014828  1
  Rh  Rh31  1  0.750000  0.207720  0.514893  1
  Rh  Rh32  1  0.250000  0.404991  0.478514  1
  Rh  Rh33  1  0.250000  0.095103  0.978452  1
  Rh  Rh34  1  0.750000  0.595042  0.522282  1
  Rh  Rh35  1  0.750000  0.904972  0.021525  1
