# generated using pymatgen
data_Tb9Pr9(YPb8)2
_symmetry_space_group_name_H-M   'P 1'
_cell_length_a   8.34897325
_cell_length_b   8.42573041
_cell_length_c   15.96525500
_cell_angle_alpha   90.02964842
_cell_angle_beta   90.15676288
_cell_angle_gamma   90.19588371
_symmetry_Int_Tables_number   1
_chemical_formula_structural   Tb9Pr9(YPb8)2
_chemical_formula_sum   'Tb9 Pr9 Y2 Pb16'
_cell_volume   1123.08406322
_cell_formula_units_Z   1
loop_
 _symmetry_equiv_pos_site_id
 _symmetry_equiv_pos_as_xyz
  1  'x, y, z'
loop_
 _atom_site_type_symbol
 _atom_site_label
 _atom_site_symmetry_multiplicity
 _atom_site_fract_x
 _atom_site_fract_y
 _atom_site_fract_z
 _atom_site_occupancy
  Tb  Tb0  1  0.630046  0.159865  0.622297  1
  Tb  Tb1  1  0.130577  0.340792  0.879051  1
  Tb  Tb2  1  0.369237  0.841335  0.121773  1
  Tb  Tb3  1  0.870168  0.657948  0.378494  1
  Tb  Tb4  1  0.372337  0.841452  0.376176  1
  Tb  Tb5  1  0.869737  0.659437  0.121804  1
  Tb  Tb6  1  0.629827  0.159158  0.879854  1
  Tb  Tb7  1  0.795915  0.495146  0.750931  1
  Tb  Tb8  1  0.297319  0.004213  0.750683  1
  Pr  Pr9  1  0.127169  0.338754  0.618757  1
  Pr  Pr10  1  0.470480  0.678683  0.598994  1
  Pr  Pr11  1  0.971974  0.822356  0.902854  1
  Pr  Pr12  1  0.528009  0.322403  0.098493  1
  Pr  Pr13  1  0.029954  0.176693  0.399108  1
  Pr  Pr14  1  0.527765  0.322724  0.400488  1
  Pr  Pr15  1  0.027888  0.177453  0.098750  1
  Pr  Pr16  1  0.472962  0.678285  0.902216  1
  Pr  Pr17  1  0.971254  0.822888  0.599104  1
  Y  Y18  1  0.203750  0.505733  0.248997  1
  Y  Y19  1  0.704228  0.995376  0.250048  1
  Pb  Pb20  1  0.710679  0.962866  0.456252  1
  Pb  Pb21  1  0.208557  0.537951  0.043780  1
  Pb  Pb22  1  0.291109  0.038183  0.957162  1
  Pb  Pb23  1  0.782427  0.465520  0.543062  1
  Pb  Pb24  1  0.294671  0.031945  0.542286  1
  Pb  Pb25  1  0.792361  0.462014  0.956971  1
  Pb  Pb26  1  0.708802  0.961626  0.044521  1
  Pb  Pb27  1  0.210737  0.540738  0.452872  1
  Pb  Pb28  1  0.434819  0.370913  0.751937  1
  Pb  Pb29  1  0.932043  0.125726  0.752034  1
  Pb  Pb30  1  0.566388  0.628552  0.249144  1
  Pb  Pb31  1  0.065367  0.870877  0.249956  1
  Pb  Pb32  1  0.662044  0.851808  0.750783  1
  Pb  Pb33  1  0.161856  0.650114  0.751740  1
  Pb  Pb34  1  0.338619  0.149514  0.249187  1
  Pb  Pb35  1  0.838925  0.350959  0.249446  1
