# generated using pymatgen
data_Bi4MoSe5O24
_symmetry_space_group_name_H-M   'P 1'
_cell_length_a   10.18983569
_cell_length_b   10.24618816
_cell_length_c   10.18815326
_cell_angle_alpha   55.74700630
_cell_angle_beta   56.43386168
_cell_angle_gamma   56.09945803
_symmetry_Int_Tables_number   1
_chemical_formula_structural   Bi4MoSe5O24
_chemical_formula_sum   'Bi4 Mo1 Se5 O24'
_cell_volume   684.05976128
_cell_formula_units_Z   1
loop_
 _symmetry_equiv_pos_site_id
 _symmetry_equiv_pos_as_xyz
  1  'x, y, z'
loop_
 _atom_site_type_symbol
 _atom_site_label
 _atom_site_symmetry_multiplicity
 _atom_site_fract_x
 _atom_site_fract_y
 _atom_site_fract_z
 _atom_site_occupancy
  Bi  Bi0  1  0.867419  0.844681  0.852224  1
  Bi  Bi1  1  0.135225  0.141989  0.144100  1
  Bi  Bi2  1  0.653879  0.661078  0.641519  1
  Bi  Bi3  1  0.347480  0.348679  0.357795  1
  Mo  Mo4  1  0.539492  0.244096  0.968017  1
  Se  Se5  1  0.972146  0.533150  0.243961  1
  Se  Se6  1  0.245906  0.970829  0.536698  1
  Se  Se7  1  0.463546  0.755175  0.028413  1
  Se  Se8  1  0.028032  0.455925  0.759710  1
  Se  Se9  1  0.750456  0.040957  0.464103  1
  O  O10  1  0.373235  0.210959  0.987807  1
  O  O11  1  0.975520  0.391868  0.205994  1
  O  O12  1  0.204850  0.982138  0.391842  1
  O  O13  1  0.607852  0.796843  0.017358  1
  O  O14  1  0.033421  0.586904  0.803923  1
  O  O15  1  0.802258  0.032720  0.599486  1
  O  O16  1  0.511439  0.213370  0.173080  1
  O  O17  1  0.169824  0.503843  0.201971  1
  O  O18  1  0.200229  0.165301  0.516699  1
  O  O19  1  0.486059  0.798652  0.832166  1
  O  O20  1  0.828137  0.490839  0.803897  1
  O  O21  1  0.801645  0.843550  0.488408  1
  O  O22  1  0.738577  0.092533  0.893434  1
  O  O23  1  0.892258  0.729860  0.114668  1
  O  O24  1  0.127261  0.878317  0.731505  1
  O  O25  1  0.269879  0.880612  0.111851  1
  O  O26  1  0.110437  0.255715  0.881333  1
  O  O27  1  0.860313  0.134695  0.264502  1
  O  O28  1  0.533188  0.454518  0.822605  1
  O  O29  1  0.850347  0.515650  0.444801  1
  O  O30  1  0.450515  0.855631  0.508552  1
  O  O31  1  0.484938  0.552501  0.149891  1
  O  O32  1  0.140589  0.485532  0.555455  1
  O  O33  1  0.543649  0.150893  0.502231  1
