# generated using pymatgen
data_TaFeI8
_symmetry_space_group_name_H-M   'P 1'
_cell_length_a   11.16789132
_cell_length_b   11.16789147
_cell_length_c   9.90146900
_cell_angle_alpha   90.00000000
_cell_angle_beta   90.00000000
_cell_angle_gamma   128.11791548
_symmetry_Int_Tables_number   1
_chemical_formula_structural   TaFeI8
_chemical_formula_sum   'Ta2 Fe2 I16'
_cell_volume   971.57058265
_cell_formula_units_Z   2
loop_
 _symmetry_equiv_pos_site_id
 _symmetry_equiv_pos_as_xyz
  1  'x, y, z'
loop_
 _atom_site_type_symbol
 _atom_site_label
 _atom_site_symmetry_multiplicity
 _atom_site_fract_x
 _atom_site_fract_y
 _atom_site_fract_z
 _atom_site_occupancy
  Ta  Ta0  1  0.613771  0.386229  0.250000  1
  Ta  Ta1  1  0.386229  0.613771  0.750000  1
  Fe  Fe2  1  0.811698  0.188302  0.250000  1
  Fe  Fe3  1  0.188302  0.811698  0.750000  1
  I  I4  1  0.523465  0.069285  0.250000  1
  I  I5  1  0.069285  0.523465  0.750000  1
  I  I6  1  0.476535  0.930715  0.750000  1
  I  I7  1  0.930715  0.476535  0.250000  1
  I  I8  1  0.630967  0.369033  0.978539  1
  I  I9  1  0.369033  0.630967  0.021461  1
  I  I10  1  0.630967  0.369033  0.521461  1
  I  I11  1  0.369033  0.630967  0.478539  1
  I  I12  1  0.321183  0.262026  0.250000  1
  I  I13  1  0.262026  0.321183  0.750000  1
  I  I14  1  0.678817  0.737974  0.750000  1
  I  I15  1  0.737974  0.678817  0.250000  1
  I  I16  1  0.881405  0.118595  0.459903  1
  I  I17  1  0.118595  0.881405  0.540097  1
  I  I18  1  0.881405  0.118595  0.040097  1
  I  I19  1  0.118595  0.881405  0.959903  1
