# generated using pymatgen
data_Al3Fe4Re
_symmetry_space_group_name_H-M   'P 1'
_cell_length_a   5.00059115
_cell_length_b   5.00059070
_cell_length_c   4.06846300
_cell_angle_alpha   90.00000000
_cell_angle_beta   90.00000000
_cell_angle_gamma   109.55067105
_symmetry_Int_Tables_number   1
_chemical_formula_structural   Al3Fe4Re
_chemical_formula_sum   'Al3 Fe4 Re1'
_cell_volume   95.87014368
_cell_formula_units_Z   1
loop_
 _symmetry_equiv_pos_site_id
 _symmetry_equiv_pos_as_xyz
  1  'x, y, z'
loop_
 _atom_site_type_symbol
 _atom_site_label
 _atom_site_symmetry_multiplicity
 _atom_site_fract_x
 _atom_site_fract_y
 _atom_site_fract_z
 _atom_site_occupancy
  Al  Al0  1  0.125016  0.874985  0.250001  1
  Al  Al1  1  0.878711  0.121290  0.750000  1
  Al  Al2  1  0.371281  0.628720  0.750000  1
  Fe  Fe3  1  0.124975  0.374935  0.250001  1
  Fe  Fe4  1  0.625066  0.875026  0.250001  1
  Fe  Fe5  1  0.380722  0.130768  0.750000  1
  Fe  Fe6  1  0.869233  0.619279  0.750000  1
  Re  Re7  1  0.624998  0.375003  0.250001  1
