# generated using pymatgen
data_Th3AlIn2PdPt2
_symmetry_space_group_name_H-M   'P 1'
_cell_length_a   7.57041398
_cell_length_b   7.47419257
_cell_length_c   4.19580500
_cell_angle_alpha   90.00000000
_cell_angle_beta   90.00000000
_cell_angle_gamma   119.58044278
_symmetry_Int_Tables_number   1
_chemical_formula_structural   Th3AlIn2PdPt2
_chemical_formula_sum   'Th3 Al1 In2 Pd1 Pt2'
_cell_volume   206.46690191
_cell_formula_units_Z   1
loop_
 _symmetry_equiv_pos_site_id
 _symmetry_equiv_pos_as_xyz
  1  'x, y, z'
loop_
 _atom_site_type_symbol
 _atom_site_label
 _atom_site_symmetry_multiplicity
 _atom_site_fract_x
 _atom_site_fract_y
 _atom_site_fract_z
 _atom_site_occupancy
  Th  Th0  1  0.413313  0.417951  0.500000  1
  Th  Th1  1  0.586687  0.004639  0.500000  1
  Th  Th2  1  0.000000  0.574172  0.500000  1
  Al  Al3  1  0.000000  0.242483  0.000000  1
  In  In4  1  0.757456  0.757603  0.000000  1
  In  In5  1  0.242544  0.000147  0.000000  1
  Pd  Pd6  1  0.000000  0.028212  0.500000  1
  Pt  Pt7  1  0.679305  0.327048  0.000000  1
  Pt  Pt8  1  0.320695  0.647743  0.000000  1
