# generated using pymatgen
data_TbTmAl20(FeRh)2
_symmetry_space_group_name_H-M   'P 1'
_cell_length_a   6.80204365
_cell_length_b   6.80172963
_cell_length_c   9.08422448
_cell_angle_alpha   90.26889261
_cell_angle_beta   90.26680283
_cell_angle_gamma   97.15032453
_symmetry_Int_Tables_number   1
_chemical_formula_structural   TbTmAl20(FeRh)2
_chemical_formula_sum   'Tb1 Tm1 Al20 Fe2 Rh2'
_cell_volume   417.00866820
_cell_formula_units_Z   1
loop_
 _symmetry_equiv_pos_site_id
 _symmetry_equiv_pos_as_xyz
  1  'x, y, z'
loop_
 _atom_site_type_symbol
 _atom_site_label
 _atom_site_symmetry_multiplicity
 _atom_site_fract_x
 _atom_site_fract_y
 _atom_site_fract_z
 _atom_site_occupancy
  Tb  Tb0  1  0.872708  0.127214  0.750025  1
  Tm  Tm1  1  0.128262  0.871830  0.249985  1
  Al  Al2  1  0.620165  0.372565  0.549134  1
  Al  Al3  1  0.379405  0.627757  0.450261  1
  Al  Al4  1  0.372214  0.620563  0.049708  1
  Al  Al5  1  0.627460  0.379860  0.950897  1
  Al  Al6  1  0.228504  0.220726  0.495453  1
  Al  Al7  1  0.771535  0.778813  0.503260  1
  Al  Al8  1  0.779296  0.771490  0.004558  1
  Al  Al9  1  0.221171  0.228471  0.996728  1
  Al  Al10  1  0.848807  0.159776  0.100242  1
  Al  Al11  1  0.151871  0.839744  0.900575  1
  Al  Al12  1  0.160234  0.848112  0.599454  1
  Al  Al13  1  0.840240  0.151208  0.399734  1
  Al  Al14  1  0.860528  0.587265  0.754008  1
  Al  Al15  1  0.139852  0.414352  0.246023  1
  Al  Al16  1  0.412707  0.139504  0.746054  1
  Al  Al17  1  0.585677  0.860125  0.253912  1
  Al  Al18  1  0.223012  0.480319  0.754885  1
  Al  Al19  1  0.777581  0.520407  0.245215  1
  Al  Al20  1  0.519692  0.776923  0.745223  1
  Al  Al21  1  0.479588  0.222488  0.254684  1
  Fe  Fe22  1  0.000019  0.500286  0.000526  1
  Fe  Fe23  1  0.499705  0.999976  0.499459  1
  Rh  Rh24  1  0.999960  0.500187  0.499467  1
  Rh  Rh25  1  0.499809  0.000037  0.000531  1
