# generated using pymatgen
data_Tb12Al3Zn9C4
_symmetry_space_group_name_H-M   'P 1'
_cell_length_a   9.23899097
_cell_length_b   9.19866731
_cell_length_c   9.19866500
_cell_angle_alpha   60.00000473
_cell_angle_beta   60.14427675
_cell_angle_gamma   60.14427844
_symmetry_Int_Tables_number   1
_chemical_formula_structural   Tb12Al3Zn9C4
_chemical_formula_sum   'Tb12 Al3 Zn9 C4'
_cell_volume   553.99128248
_cell_formula_units_Z   1
loop_
 _symmetry_equiv_pos_site_id
 _symmetry_equiv_pos_as_xyz
  1  'x, y, z'
loop_
 _atom_site_type_symbol
 _atom_site_label
 _atom_site_symmetry_multiplicity
 _atom_site_fract_x
 _atom_site_fract_y
 _atom_site_fract_z
 _atom_site_occupancy
  Tb  Tb0  1  0.446523  0.446997  0.053240  1
  Tb  Tb1  1  0.053554  0.446702  0.053041  1
  Tb  Tb2  1  0.446523  0.053240  0.053240  1
  Tb  Tb3  1  0.053554  0.053041  0.446702  1
  Tb  Tb4  1  0.446523  0.053240  0.446997  1
  Tb  Tb5  1  0.053554  0.446702  0.446702  1
  Tb  Tb6  1  0.803477  0.803003  0.196760  1
  Tb  Tb7  1  0.196446  0.803298  0.196959  1
  Tb  Tb8  1  0.803477  0.196760  0.196760  1
  Tb  Tb9  1  0.196446  0.196959  0.803298  1
  Tb  Tb10  1  0.803477  0.196760  0.803003  1
  Tb  Tb11  1  0.196446  0.803298  0.803298  1
  Al  Al12  1  0.625000  0.625000  0.125000  1
  Al  Al13  1  0.625000  0.125000  0.625000  1
  Al  Al14  1  0.625000  0.625000  0.625000  1
  Zn  Zn15  1  0.827503  0.825997  0.520504  1
  Zn  Zn16  1  0.827503  0.520504  0.825997  1
  Zn  Zn17  1  0.519747  0.826751  0.826751  1
  Zn  Zn18  1  0.827503  0.825997  0.825997  1
  Zn  Zn19  1  0.422497  0.424003  0.729496  1
  Zn  Zn20  1  0.422497  0.729496  0.424003  1
  Zn  Zn21  1  0.730253  0.423249  0.423249  1
  Zn  Zn22  1  0.422497  0.424003  0.424003  1
  Zn  Zn23  1  0.125000  0.625000  0.625000  1
  C  C24  1  0.125000  0.125000  0.625000  1
  C  C25  1  0.125000  0.625000  0.125000  1
  C  C26  1  0.625000  0.125000  0.125000  1
  C  C27  1  0.125000  0.125000  0.125000  1
