# generated using pymatgen
data_CaTm2Ni2Ir7
_symmetry_space_group_name_H-M   'P 1'
_cell_length_a   5.27542813
_cell_length_b   5.27542865
_cell_length_c   8.96741100
_cell_angle_alpha   72.89374734
_cell_angle_beta   72.89374562
_cell_angle_gamma   59.99999919
_symmetry_Int_Tables_number   1
_chemical_formula_structural   CaTm2Ni2Ir7
_chemical_formula_sum   'Ca1 Tm2 Ni2 Ir7'
_cell_volume   203.28067925
_cell_formula_units_Z   1
loop_
 _symmetry_equiv_pos_site_id
 _symmetry_equiv_pos_as_xyz
  1  'x, y, z'
loop_
 _atom_site_type_symbol
 _atom_site_label
 _atom_site_symmetry_multiplicity
 _atom_site_fract_x
 _atom_site_fract_y
 _atom_site_fract_z
 _atom_site_occupancy
  Ca  Ca0  1  0.000000  0.000000  0.000000  1
  Tm  Tm1  1  0.139342  0.139342  0.581978  1
  Tm  Tm2  1  0.860658  0.860658  0.418022  1
  Ni  Ni3  1  0.333344  0.333344  0.999966  1
  Ni  Ni4  1  0.666656  0.666656  0.000034  1
  Ir  Ir5  1  0.077898  0.582327  0.757449  1
  Ir  Ir6  1  0.582327  0.582327  0.757449  1
  Ir  Ir7  1  0.582327  0.077898  0.757449  1
  Ir  Ir8  1  0.922102  0.417673  0.242551  1
  Ir  Ir9  1  0.417673  0.417673  0.242551  1
  Ir  Ir10  1  0.417673  0.922102  0.242551  1
  Ir  Ir11  1  0.500000  0.500000  0.500000  1
