# generated using pymatgen
data_Tb3NiRh8
_symmetry_space_group_name_H-M   'P 1'
_cell_length_a   5.26040623
_cell_length_b   5.26040620
_cell_length_c   9.19616739
_cell_angle_alpha   73.38072089
_cell_angle_beta   73.38071899
_cell_angle_gamma   60.00000264
_symmetry_Int_Tables_number   1
_chemical_formula_structural   Tb3NiRh8
_chemical_formula_sum   'Tb3 Ni1 Rh8'
_cell_volume   208.01658680
_cell_formula_units_Z   1
loop_
 _symmetry_equiv_pos_site_id
 _symmetry_equiv_pos_as_xyz
  1  'x, y, z'
loop_
 _atom_site_type_symbol
 _atom_site_label
 _atom_site_symmetry_multiplicity
 _atom_site_fract_x
 _atom_site_fract_y
 _atom_site_fract_z
 _atom_site_occupancy
  Tb  Tb0  1  0.139382  0.139382  0.581856  1
  Tb  Tb1  1  0.861316  0.861316  0.416051  1
  Tb  Tb2  1  0.999907  0.999907  0.000279  1
  Ni  Ni3  1  0.666799  0.666799  0.999604  1
  Rh  Rh4  1  0.077681  0.583543  0.755232  1
  Rh  Rh5  1  0.583543  0.583543  0.755232  1
  Rh  Rh6  1  0.583543  0.077681  0.755232  1
  Rh  Rh7  1  0.916917  0.419247  0.244590  1
  Rh  Rh8  1  0.419247  0.419247  0.244590  1
  Rh  Rh9  1  0.419247  0.916917  0.244590  1
  Rh  Rh10  1  0.333130  0.333130  0.000608  1
  Rh  Rh11  1  0.499288  0.499288  0.502135  1
