# generated using pymatgen
data_NaDy3(Ga2Ag)4
_symmetry_space_group_name_H-M   'P 1'
_cell_length_a   4.34696200
_cell_length_b   6.97877223
_cell_length_c   10.36543635
_cell_angle_alpha   90.25269899
_cell_angle_beta   90.00000000
_cell_angle_gamma   90.00000000
_symmetry_Int_Tables_number   1
_chemical_formula_structural   NaDy3(Ga2Ag)4
_chemical_formula_sum   'Na1 Dy3 Ga8 Ag4'
_cell_volume   314.44756280
_cell_formula_units_Z   1
loop_
 _symmetry_equiv_pos_site_id
 _symmetry_equiv_pos_as_xyz
  1  'x, y, z'
loop_
 _atom_site_type_symbol
 _atom_site_label
 _atom_site_symmetry_multiplicity
 _atom_site_fract_x
 _atom_site_fract_y
 _atom_site_fract_z
 _atom_site_occupancy
  Na  Na0  1  0.250000  0.271273  0.674087  1
  Dy  Dy1  1  0.250000  0.779688  0.826120  1
  Dy  Dy2  1  0.750000  0.223717  0.171493  1
  Dy  Dy3  1  0.750000  0.718216  0.329612  1
  Ga  Ga4  1  0.250000  0.703034  0.535054  1
  Ga  Ga5  1  0.750000  0.301112  0.466264  1
  Ga  Ga6  1  0.750000  0.792755  0.036952  1
  Ga  Ga7  1  0.250000  0.203084  0.963398  1
  Ga  Ga8  1  0.250000  0.925846  0.153688  1
  Ga  Ga9  1  0.750000  0.073072  0.849579  1
  Ga  Ga10  1  0.750000  0.571402  0.651306  1
  Ga  Ga11  1  0.250000  0.427821  0.342904  1
  Ag  Ag12  1  0.250000  0.544455  0.097299  1
  Ag  Ag13  1  0.750000  0.457157  0.901857  1
  Ag  Ag14  1  0.750000  0.961521  0.598251  1
  Ag  Ag15  1  0.250000  0.045846  0.402135  1
