# generated using pymatgen
data_CaPr8DyIr6
_symmetry_space_group_name_H-M   'P 1'
_cell_length_a   11.32257100
_cell_length_b   11.32257100
_cell_length_c   6.54855900
_cell_angle_alpha   90.00000000
_cell_angle_beta   90.00000000
_cell_angle_gamma   90.00000000
_symmetry_Int_Tables_number   1
_chemical_formula_structural   CaPr8DyIr6
_chemical_formula_sum   'Ca2 Pr16 Dy2 Ir12'
_cell_volume   839.52928494
_cell_formula_units_Z   2
loop_
 _symmetry_equiv_pos_site_id
 _symmetry_equiv_pos_as_xyz
  1  'x, y, z'
loop_
 _atom_site_type_symbol
 _atom_site_label
 _atom_site_symmetry_multiplicity
 _atom_site_fract_x
 _atom_site_fract_y
 _atom_site_fract_z
 _atom_site_occupancy
  Ca  Ca0  1  0.000000  0.000000  0.500000  1
  Ca  Ca1  1  0.000000  0.000000  0.000000  1
  Pr  Pr2  1  0.288562  0.087657  0.386181  1
  Pr  Pr3  1  0.288562  0.912343  0.886181  1
  Pr  Pr4  1  0.711438  0.087657  0.886181  1
  Pr  Pr5  1  0.711438  0.912343  0.386181  1
  Pr  Pr6  1  0.588078  0.788917  0.885445  1
  Pr  Pr7  1  0.588078  0.211083  0.385445  1
  Pr  Pr8  1  0.411922  0.788917  0.385445  1
  Pr  Pr9  1  0.411922  0.211083  0.885445  1
  Pr  Pr10  1  0.211083  0.411922  0.614555  1
  Pr  Pr11  1  0.211083  0.588078  0.114555  1
  Pr  Pr12  1  0.788917  0.411922  0.114555  1
  Pr  Pr13  1  0.788917  0.588078  0.614555  1
  Pr  Pr14  1  0.912343  0.711438  0.113819  1
  Pr  Pr15  1  0.912343  0.288562  0.613819  1
  Pr  Pr16  1  0.087657  0.711438  0.613819  1
  Pr  Pr17  1  0.087657  0.288562  0.113819  1
  Dy  Dy18  1  0.500000  0.500000  0.000000  1
  Dy  Dy19  1  0.500000  0.500000  0.500000  1
  Ir  Ir20  1  0.842477  0.157523  0.250000  1
  Ir  Ir21  1  0.842477  0.842477  0.750000  1
  Ir  Ir22  1  0.157523  0.157523  0.750000  1
  Ir  Ir23  1  0.157523  0.842477  0.250000  1
  Ir  Ir24  1  0.648183  0.351817  0.750000  1
  Ir  Ir25  1  0.648183  0.648183  0.250000  1
  Ir  Ir26  1  0.351817  0.351817  0.250000  1
  Ir  Ir27  1  0.351817  0.648183  0.750000  1
  Ir  Ir28  1  0.500000  0.000000  0.117459  1
  Ir  Ir29  1  0.500000  0.000000  0.617459  1
  Ir  Ir30  1  0.000000  0.500000  0.882541  1
  Ir  Ir31  1  0.000000  0.500000  0.382541  1
