# generated using pymatgen
data_DyY3Al8
_symmetry_space_group_name_H-M   'P 1'
_cell_length_a   9.65318063
_cell_length_b   9.65318056
_cell_length_c   9.65318009
_cell_angle_alpha   33.54365244
_cell_angle_beta   33.54365241
_cell_angle_gamma   33.54365133
_symmetry_Int_Tables_number   1
_chemical_formula_structural   DyY3Al8
_chemical_formula_sum   'Dy1 Y3 Al8'
_cell_volume   244.63715541
_cell_formula_units_Z   1
loop_
 _symmetry_equiv_pos_site_id
 _symmetry_equiv_pos_as_xyz
  1  'x, y, z'
loop_
 _atom_site_type_symbol
 _atom_site_label
 _atom_site_symmetry_multiplicity
 _atom_site_fract_x
 _atom_site_fract_y
 _atom_site_fract_z
 _atom_site_occupancy
  Dy  Dy0  1  0.687415  0.687415  0.687415  1
  Y  Y1  1  0.187429  0.187429  0.187429  1
  Y  Y2  1  0.812584  0.812584  0.812584  1
  Y  Y3  1  0.312574  0.312574  0.312574  1
  Al  Al4  1  0.000029  0.000029  0.000029  1
  Al  Al5  1  0.500011  0.500011  0.500011  1
  Al  Al6  1  0.750005  0.249916  0.249916  1
  Al  Al7  1  0.250197  0.749962  0.749962  1
  Al  Al8  1  0.249916  0.750005  0.249916  1
  Al  Al9  1  0.749962  0.250197  0.749962  1
  Al  Al10  1  0.249916  0.249916  0.750005  1
  Al  Al11  1  0.749962  0.749962  0.250197  1
