# generated using pymatgen
data_Li3TbY2Si2Ge
_symmetry_space_group_name_H-M   'P 1'
_cell_length_a   7.04159146
_cell_length_b   7.03719593
_cell_length_c   4.24766900
_cell_angle_alpha   90.00000000
_cell_angle_beta   90.00000000
_cell_angle_gamma   119.97933983
_symmetry_Int_Tables_number   1
_chemical_formula_structural   Li3TbY2Si2Ge
_chemical_formula_sum   'Li3 Tb1 Y2 Si2 Ge1'
_cell_volume   182.32328698
_cell_formula_units_Z   1
loop_
 _symmetry_equiv_pos_site_id
 _symmetry_equiv_pos_as_xyz
  1  'x, y, z'
loop_
 _atom_site_type_symbol
 _atom_site_label
 _atom_site_symmetry_multiplicity
 _atom_site_fract_x
 _atom_site_fract_y
 _atom_site_fract_z
 _atom_site_occupancy
  Li  Li0  1  0.233681  0.000039  0.500000  1
  Li  Li1  1  0.766319  0.766358  0.500000  1
  Li  Li2  1  0.000000  0.233624  0.500000  1
  Tb  Tb3  1  0.000000  0.575045  0.000000  1
  Y  Y4  1  0.574986  0.999987  0.000000  1
  Y  Y5  1  0.425014  0.425001  0.000000  1
  Si  Si6  1  0.333462  0.666710  0.500000  1
  Si  Si7  1  0.666538  0.333247  0.500000  1
  Ge  Ge8  1  0.000000  0.999990  0.000000  1
