# generated using pymatgen
data_Y4HoP12Ru19
_symmetry_space_group_name_H-M   'P 1'
_cell_length_a   12.55530800
_cell_length_b   12.55132564
_cell_length_c   3.98500200
_cell_angle_alpha   90.00000000
_cell_angle_beta   90.00000000
_cell_angle_gamma   120.01049630
_symmetry_Int_Tables_number   1
_chemical_formula_structural   Y4HoP12Ru19
_chemical_formula_sum   'Y4 Ho1 P12 Ru19'
_cell_volume   543.78872628
_cell_formula_units_Z   1
loop_
 _symmetry_equiv_pos_site_id
 _symmetry_equiv_pos_as_xyz
  1  'x, y, z'
loop_
 _atom_site_type_symbol
 _atom_site_label
 _atom_site_symmetry_multiplicity
 _atom_site_fract_x
 _atom_site_fract_y
 _atom_site_fract_z
 _atom_site_occupancy
  Y  Y0  1  0.999949  0.183388  0.500000  1
  Y  Y1  1  0.816561  0.816612  0.500000  1
  Y  Y2  1  0.666584  0.333350  0.000000  1
  Y  Y3  1  0.333233  0.666650  0.000000  1
  Ho  Ho4  1  0.183263  0.000000  0.500000  1
  P  P5  1  0.000526  0.815674  0.000000  1
  P  P6  1  0.184852  0.184326  0.000000  1
  P  P7  1  0.815539  0.000000  0.000000  1
  P  P8  1  0.693630  0.171421  0.500000  1
  P  P9  1  0.828524  0.522429  0.500000  1
  P  P10  1  0.477466  0.306082  0.500000  1
  P  P11  1  0.171384  0.693918  0.500000  1
  P  P12  1  0.522210  0.828579  0.500000  1
  P  P13  1  0.306094  0.477571  0.500000  1
  P  P14  1  0.000086  0.372915  0.000000  1
  P  P15  1  0.627171  0.627085  0.000000  1
  P  P16  1  0.372635  0.000000  0.000000  1
  Ru  Ru17  1  0.000077  0.554715  0.000000  1
  Ru  Ru18  1  0.445362  0.445285  0.000000  1
  Ru  Ru19  1  0.554504  0.000000  0.000000  1
  Ru  Ru20  1  0.000246  0.716983  0.500000  1
  Ru  Ru21  1  0.283262  0.283017  0.500000  1
  Ru  Ru22  1  0.716555  0.000000  0.500000  1
  Ru  Ru23  1  0.807387  0.184872  0.000000  1
  Ru  Ru24  1  0.815217  0.622697  0.000000  1
  Ru  Ru25  1  0.377078  0.192057  0.000000  1
  Ru  Ru26  1  0.185021  0.807943  0.000000  1
  Ru  Ru27  1  0.622515  0.815128  0.000000  1
  Ru  Ru28  1  0.192520  0.377303  0.000000  1
  Ru  Ru29  1  0.874281  0.366328  0.500000  1
  Ru  Ru30  1  0.633733  0.508013  0.500000  1
  Ru  Ru31  1  0.491974  0.125735  0.500000  1
  Ru  Ru32  1  0.366240  0.874265  0.500000  1
  Ru  Ru33  1  0.507953  0.633672  0.500000  1
  Ru  Ru34  1  0.125719  0.491987  0.500000  1
  Ru  Ru35  1  0.000647  0.000000  0.000000  1
