# generated using pymatgen
data_Li2ZnPd3O8
_symmetry_space_group_name_H-M   'P 1'
_cell_length_a   8.50267000
_cell_length_b   8.50267000
_cell_length_c   8.50267000
_cell_angle_alpha   90.00000000
_cell_angle_beta   90.00000000
_cell_angle_gamma   90.00000000
_symmetry_Int_Tables_number   1
_chemical_formula_structural   Li2ZnPd3O8
_chemical_formula_sum   'Li8 Zn4 Pd12 O32'
_cell_volume   614.70390431
_cell_formula_units_Z   4
loop_
 _symmetry_equiv_pos_site_id
 _symmetry_equiv_pos_as_xyz
  1  'x, y, z'
loop_
 _atom_site_type_symbol
 _atom_site_label
 _atom_site_symmetry_multiplicity
 _atom_site_fract_x
 _atom_site_fract_y
 _atom_site_fract_z
 _atom_site_occupancy
  Li  Li0  1  0.123422  0.876578  0.376578  1
  Li  Li1  1  0.248008  0.248008  0.248008  1
  Li  Li2  1  0.751992  0.748008  0.251992  1
  Li  Li3  1  0.876578  0.376578  0.123422  1
  Li  Li4  1  0.376578  0.123422  0.876578  1
  Li  Li5  1  0.251992  0.751992  0.748008  1
  Li  Li6  1  0.748008  0.251992  0.751992  1
  Li  Li7  1  0.623422  0.623422  0.623422  1
  Zn  Zn8  1  0.498523  0.998523  0.501477  1
  Zn  Zn9  1  0.001477  0.001477  0.001477  1
  Zn  Zn10  1  0.998523  0.501477  0.498523  1
  Zn  Zn11  1  0.501477  0.498523  0.998523  1
  Pd  Pd12  1  0.373100  0.879264  0.124269  1
  Pd  Pd13  1  0.120736  0.624269  0.126900  1
  Pd  Pd14  1  0.124269  0.373100  0.879264  1
  Pd  Pd15  1  0.126900  0.120736  0.624269  1
  Pd  Pd16  1  0.375731  0.626900  0.379264  1
  Pd  Pd17  1  0.620736  0.875731  0.873100  1
  Pd  Pd18  1  0.626900  0.379264  0.375731  1
  Pd  Pd19  1  0.379264  0.375731  0.626900  1
  Pd  Pd20  1  0.624269  0.126900  0.120736  1
  Pd  Pd21  1  0.873100  0.620736  0.875731  1
  Pd  Pd22  1  0.875731  0.873100  0.620736  1
  Pd  Pd23  1  0.879264  0.124269  0.373100  1
  O  O24  1  0.611746  0.613408  0.379935  1
  O  O25  1  0.386660  0.386660  0.386660  1
  O  O26  1  0.111746  0.886592  0.620065  1
  O  O27  1  0.620065  0.111746  0.886592  1
  O  O28  1  0.867701  0.636013  0.634806  1
  O  O29  1  0.636013  0.634806  0.867701  1
  O  O30  1  0.120065  0.388254  0.113408  1
  O  O31  1  0.613408  0.379935  0.611746  1
  O  O32  1  0.888254  0.386592  0.879935  1
  O  O33  1  0.136013  0.865194  0.132299  1
  O  O34  1  0.634806  0.867701  0.636013  1
  O  O35  1  0.379935  0.611746  0.613408  1
  O  O36  1  0.113408  0.120065  0.388254  1
  O  O37  1  0.886660  0.113340  0.613340  1
  O  O38  1  0.367701  0.863987  0.365194  1
  O  O39  1  0.386592  0.879935  0.888254  1
  O  O40  1  0.365194  0.367701  0.863987  1
  O  O41  1  0.363987  0.134806  0.632299  1
  O  O42  1  0.613340  0.886660  0.113340  1
  O  O43  1  0.863841  0.863841  0.863841  1
  O  O44  1  0.113340  0.613340  0.886660  1
  O  O45  1  0.363841  0.636159  0.136159  1
  O  O46  1  0.132299  0.136013  0.865194  1
  O  O47  1  0.886592  0.620065  0.111746  1
  O  O48  1  0.636159  0.136159  0.363841  1
  O  O49  1  0.863987  0.365194  0.367701  1
  O  O50  1  0.134806  0.632299  0.363987  1
  O  O51  1  0.388254  0.113408  0.120065  1
  O  O52  1  0.879935  0.888254  0.386592  1
  O  O53  1  0.136159  0.363841  0.636159  1
  O  O54  1  0.632299  0.363987  0.134806  1
  O  O55  1  0.865194  0.132299  0.136013  1
