# generated using pymatgen
data_Tm3Lu5(ScBi3)2
_symmetry_space_group_name_H-M   'P 1'
_cell_length_a   8.06472200
_cell_length_b   9.30423400
_cell_length_c   11.87725300
_cell_angle_alpha   90.00000000
_cell_angle_beta   90.00000000
_cell_angle_gamma   90.00000000
_symmetry_Int_Tables_number   1
_chemical_formula_structural   Tm3Lu5(ScBi3)2
_chemical_formula_sum   'Tm6 Lu10 Sc4 Bi12'
_cell_volume   891.22227626
_cell_formula_units_Z   2
loop_
 _symmetry_equiv_pos_site_id
 _symmetry_equiv_pos_as_xyz
  1  'x, y, z'
loop_
 _atom_site_type_symbol
 _atom_site_label
 _atom_site_symmetry_multiplicity
 _atom_site_fract_x
 _atom_site_fract_y
 _atom_site_fract_z
 _atom_site_occupancy
  Tm  Tm0  1  0.184183  0.750000  0.718369  1
  Tm  Tm1  1  0.684183  0.750000  0.781631  1
  Tm  Tm2  1  0.816294  0.250000  0.281838  1
  Tm  Tm3  1  0.316294  0.250000  0.218162  1
  Tm  Tm4  1  0.856199  0.750000  0.283154  1
  Tm  Tm5  1  0.356199  0.750000  0.216846  1
  Lu  Lu6  1  0.195195  0.567870  0.440425  1
  Lu  Lu7  1  0.695195  0.932130  0.059575  1
  Lu  Lu8  1  0.804854  0.067725  0.560294  1
  Lu  Lu9  1  0.304854  0.432275  0.939706  1
  Lu  Lu10  1  0.804854  0.432275  0.560294  1
  Lu  Lu11  1  0.304854  0.067725  0.939706  1
  Lu  Lu12  1  0.195195  0.932130  0.440425  1
  Lu  Lu13  1  0.695195  0.567870  0.059575  1
  Lu  Lu14  1  0.143273  0.250000  0.717336  1
  Lu  Lu15  1  0.643273  0.250000  0.782664  1
  Sc  Sc16  1  0.022647  0.750000  0.987680  1
  Sc  Sc17  1  0.522647  0.750000  0.512320  1
  Sc  Sc18  1  0.977483  0.250000  0.011486  1
  Sc  Sc19  1  0.477483  0.250000  0.488514  1
  Bi  Bi20  1  0.932469  0.495489  0.830413  1
  Bi  Bi21  1  0.432469  0.004511  0.669587  1
  Bi  Bi22  1  0.067369  0.996094  0.169121  1
  Bi  Bi23  1  0.567369  0.503906  0.330879  1
  Bi  Bi24  1  0.067369  0.503906  0.169121  1
  Bi  Bi25  1  0.567369  0.996094  0.330879  1
  Bi  Bi26  1  0.932469  0.004511  0.830413  1
  Bi  Bi27  1  0.432469  0.495489  0.669587  1
  Bi  Bi28  1  0.899799  0.750000  0.542947  1
  Bi  Bi29  1  0.399799  0.750000  0.957053  1
  Bi  Bi30  1  0.100352  0.250000  0.458020  1
  Bi  Bi31  1  0.600352  0.250000  0.041980  1
