# generated using pymatgen
data_Ce5Er3(Ni2Sn)4
_symmetry_space_group_name_H-M   'P 1'
_cell_length_a   7.47457000
_cell_length_b   7.47456986
_cell_length_c   7.35796100
_cell_angle_alpha   90.00000000
_cell_angle_beta   90.00000000
_cell_angle_gamma   90.75379397
_symmetry_Int_Tables_number   1
_chemical_formula_structural   Ce5Er3(Ni2Sn)4
_chemical_formula_sum   'Ce5 Er3 Ni8 Sn4'
_cell_volume   411.04778687
_cell_formula_units_Z   1
loop_
 _symmetry_equiv_pos_site_id
 _symmetry_equiv_pos_as_xyz
  1  'x, y, z'
loop_
 _atom_site_type_symbol
 _atom_site_label
 _atom_site_symmetry_multiplicity
 _atom_site_fract_x
 _atom_site_fract_y
 _atom_site_fract_z
 _atom_site_occupancy
  Ce  Ce0  1  0.177263  0.177263  0.000000  1
  Ce  Ce1  1  0.676027  0.325841  0.000000  1
  Ce  Ce2  1  0.825325  0.825325  0.500000  1
  Ce  Ce3  1  0.172287  0.172287  0.500000  1
  Ce  Ce4  1  0.325841  0.676027  0.000000  1
  Er  Er5  1  0.672484  0.325488  0.500000  1
  Er  Er6  1  0.325488  0.672484  0.500000  1
  Er  Er7  1  0.823720  0.823720  0.000000  1
  Ni  Ni8  1  0.374128  0.374128  0.252679  1
  Ni  Ni9  1  0.879776  0.124801  0.756623  1
  Ni  Ni10  1  0.124801  0.879776  0.756623  1
  Ni  Ni11  1  0.621782  0.621782  0.255095  1
  Ni  Ni12  1  0.124801  0.879776  0.243377  1
  Ni  Ni13  1  0.879776  0.124801  0.243377  1
  Ni  Ni14  1  0.374128  0.374128  0.747321  1
  Ni  Ni15  1  0.621782  0.621782  0.744905  1
  Sn  Sn16  1  0.502897  0.997398  0.254485  1
  Sn  Sn17  1  0.502897  0.997398  0.745515  1
  Sn  Sn18  1  0.997398  0.502897  0.254485  1
  Sn  Sn19  1  0.997398  0.502897  0.745515  1
