# generated using pymatgen
data_Lu2Ga7Ni2Ag
_symmetry_space_group_name_H-M   'P 1'
_cell_length_a   4.12611786
_cell_length_b   6.44711027
_cell_length_c   7.90490494
_cell_angle_alpha   90.73364476
_cell_angle_beta   105.12850142
_cell_angle_gamma   90.00000442
_symmetry_Int_Tables_number   1
_chemical_formula_structural   Lu2Ga7Ni2Ag
_chemical_formula_sum   'Lu2 Ga7 Ni2 Ag1'
_cell_volume   202.97698234
_cell_formula_units_Z   1
loop_
 _symmetry_equiv_pos_site_id
 _symmetry_equiv_pos_as_xyz
  1  'x, y, z'
loop_
 _atom_site_type_symbol
 _atom_site_label
 _atom_site_symmetry_multiplicity
 _atom_site_fract_x
 _atom_site_fract_y
 _atom_site_fract_z
 _atom_site_occupancy
  Lu  Lu0  1  0.874709  0.261496  0.749418  1
  Lu  Lu1  1  0.125291  0.738504  0.250582  1
  Ga  Ga2  1  0.500000  0.500000  0.000000  1
  Ga  Ga3  1  0.067097  0.241767  0.134194  1
  Ga  Ga4  1  0.932903  0.758233  0.865806  1
  Ga  Ga5  1  0.683537  0.043189  0.367072  1
  Ga  Ga6  1  0.316463  0.956811  0.632928  1
  Ga  Ga7  1  0.683535  0.446394  0.367070  1
  Ga  Ga8  1  0.316465  0.553606  0.632930  1
  Ni  Ni9  1  0.221813  0.252878  0.443627  1
  Ni  Ni10  1  0.778187  0.747122  0.556373  1
  Ag  Ag11  1  0.500000  0.000000  0.000000  1
