# generated using pymatgen
data_Dy6Tm4Si5Ge
_symmetry_space_group_name_H-M   'P 1'
_cell_length_a   8.42570900
_cell_length_b   8.42702981
_cell_length_c   6.32582300
_cell_angle_alpha   90.00000000
_cell_angle_beta   90.00000000
_cell_angle_gamma   119.99480363
_symmetry_Int_Tables_number   1
_chemical_formula_structural   Dy6Tm4Si5Ge
_chemical_formula_sum   'Dy6 Tm4 Si5 Ge1'
_cell_volume   389.00160355
_cell_formula_units_Z   1
loop_
 _symmetry_equiv_pos_site_id
 _symmetry_equiv_pos_as_xyz
  1  'x, y, z'
loop_
 _atom_site_type_symbol
 _atom_site_label
 _atom_site_symmetry_multiplicity
 _atom_site_fract_x
 _atom_site_fract_y
 _atom_site_fract_z
 _atom_site_occupancy
  Dy  Dy0  1  0.998702  0.755367  0.750000  1
  Dy  Dy1  1  0.999900  0.243627  0.250000  1
  Dy  Dy2  1  0.756272  0.756373  0.250000  1
  Dy  Dy3  1  0.757336  0.000000  0.750000  1
  Dy  Dy4  1  0.243335  0.244633  0.750000  1
  Dy  Dy5  1  0.243231  0.000000  0.250000  1
  Tm  Tm6  1  0.333165  0.665670  0.499276  1
  Tm  Tm7  1  0.667495  0.334330  0.000724  1
  Tm  Tm8  1  0.667495  0.334330  0.499276  1
  Tm  Tm9  1  0.333165  0.665670  0.000724  1
  Si  Si10  1  0.394930  0.394902  0.250000  1
  Si  Si11  1  0.000027  0.605098  0.250000  1
  Si  Si12  1  0.999966  0.394980  0.750000  1
  Si  Si13  1  0.604986  0.605020  0.750000  1
  Si  Si14  1  0.605209  0.000000  0.250000  1
  Ge  Ge15  1  0.394788  0.000000  0.750000  1
