# generated using pymatgen
data_TbMgB6Ir
_symmetry_space_group_name_H-M   'P 1'
_cell_length_a   3.56489900
_cell_length_b   8.92940900
_cell_length_c   11.33965100
_cell_angle_alpha   90.00000000
_cell_angle_beta   90.00000000
_cell_angle_gamma   90.00000000
_symmetry_Int_Tables_number   1
_chemical_formula_structural   TbMgB6Ir
_chemical_formula_sum   'Tb4 Mg4 B24 Ir4'
_cell_volume   360.96877385
_cell_formula_units_Z   4
loop_
 _symmetry_equiv_pos_site_id
 _symmetry_equiv_pos_as_xyz
  1  'x, y, z'
loop_
 _atom_site_type_symbol
 _atom_site_label
 _atom_site_symmetry_multiplicity
 _atom_site_fract_x
 _atom_site_fract_y
 _atom_site_fract_z
 _atom_site_occupancy
  Tb  Tb0  1  0.500000  0.318809  0.414294  1
  Tb  Tb1  1  0.500000  0.681191  0.585706  1
  Tb  Tb2  1  0.500000  0.181191  0.914294  1
  Tb  Tb3  1  0.500000  0.818809  0.085706  1
  Mg  Mg4  1  0.500000  0.448108  0.118534  1
  Mg  Mg5  1  0.500000  0.551892  0.881466  1
  Mg  Mg6  1  0.500000  0.051892  0.618534  1
  Mg  Mg7  1  0.500000  0.948108  0.381466  1
  B  B8  1  0.000000  0.099941  0.473094  1
  B  B9  1  0.000000  0.900059  0.526906  1
  B  B10  1  0.000000  0.400059  0.973094  1
  B  B11  1  0.000000  0.599941  0.026906  1
  B  B12  1  0.000000  0.127587  0.318916  1
  B  B13  1  0.000000  0.872413  0.681084  1
  B  B14  1  0.000000  0.372413  0.818916  1
  B  B15  1  0.000000  0.627587  0.181084  1
  B  B16  1  0.000000  0.056161  0.067404  1
  B  B17  1  0.000000  0.943839  0.932596  1
  B  B18  1  0.000000  0.443839  0.567404  1
  B  B19  1  0.000000  0.556161  0.432596  1
  B  B20  1  0.000000  0.481695  0.284686  1
  B  B21  1  0.000000  0.518305  0.715314  1
  B  B22  1  0.000000  0.018305  0.784686  1
  B  B23  1  0.000000  0.981695  0.215314  1
  B  B24  1  0.000000  0.255757  0.080185  1
  B  B25  1  0.000000  0.744243  0.919815  1
  B  B26  1  0.000000  0.244243  0.580185  1
  B  B27  1  0.000000  0.755757  0.419815  1
  B  B28  1  0.000000  0.293903  0.234710  1
  B  B29  1  0.000000  0.706097  0.765290  1
  B  B30  1  0.000000  0.206097  0.734710  1
  B  B31  1  0.000000  0.793903  0.265290  1
  Ir  Ir32  1  0.500000  0.141050  0.182214  1
  Ir  Ir33  1  0.500000  0.858950  0.817786  1
  Ir  Ir34  1  0.500000  0.358950  0.682214  1
  Ir  Ir35  1  0.500000  0.641050  0.317786  1
