# generated using pymatgen
data_Lu5Co18ReP12
_symmetry_space_group_name_H-M   'P 1'
_cell_length_a   11.90496917
_cell_length_b   11.90497064
_cell_length_c   3.65366200
_cell_angle_alpha   90.00000000
_cell_angle_beta   90.00000000
_cell_angle_gamma   119.69332838
_symmetry_Int_Tables_number   1
_chemical_formula_structural   Lu5Co18ReP12
_chemical_formula_sum   'Lu5 Co18 Re1 P12'
_cell_volume   449.83101341
_cell_formula_units_Z   1
loop_
 _symmetry_equiv_pos_site_id
 _symmetry_equiv_pos_as_xyz
  1  'x, y, z'
loop_
 _atom_site_type_symbol
 _atom_site_label
 _atom_site_symmetry_multiplicity
 _atom_site_fract_x
 _atom_site_fract_y
 _atom_site_fract_z
 _atom_site_occupancy
  Lu  Lu0  1  0.666528  0.334952  0.000000  1
  Lu  Lu1  1  0.334952  0.666528  0.000000  1
  Lu  Lu2  1  0.816418  0.816418  0.500000  1
  Lu  Lu3  1  0.186744  0.999988  0.500000  1
  Lu  Lu4  1  0.999988  0.186744  0.500000  1
  Co  Co5  1  0.874776  0.358179  0.500000  1
  Co  Co6  1  0.643163  0.517058  0.500000  1
  Co  Co7  1  0.485531  0.128349  0.500000  1
  Co  Co8  1  0.358179  0.874776  0.500000  1
  Co  Co9  1  0.517058  0.643163  0.500000  1
  Co  Co10  1  0.128349  0.485531  0.500000  1
  Co  Co11  1  0.551986  0.001108  0.000000  1
  Co  Co12  1  0.001108  0.551986  0.000000  1
  Co  Co13  1  0.800809  0.178693  0.000000  1
  Co  Co14  1  0.822685  0.623027  0.000000  1
  Co  Co15  1  0.373571  0.194993  0.000000  1
  Co  Co16  1  0.178693  0.800809  0.000000  1
  Co  Co17  1  0.623027  0.822685  0.000000  1
  Co  Co18  1  0.194993  0.373571  0.000000  1
  Co  Co19  1  0.280620  0.280620  0.500000  1
  Co  Co20  1  0.714997  0.000421  0.500000  1
  Co  Co21  1  0.000421  0.714997  0.500000  1
  Co  Co22  1  0.997265  0.997265  0.000000  1
  Re  Re23  1  0.446311  0.446311  0.000000  1
  P  P24  1  0.685919  0.167879  0.500000  1
  P  P25  1  0.834405  0.518911  0.500000  1
  P  P26  1  0.480637  0.314222  0.500000  1
  P  P27  1  0.167879  0.685919  0.500000  1
  P  P28  1  0.518911  0.834405  0.500000  1
  P  P29  1  0.314222  0.480637  0.500000  1
  P  P30  1  0.174783  0.174783  0.000000  1
  P  P31  1  0.820345  0.000245  0.000000  1
  P  P32  1  0.000245  0.820345  0.000000  1
  P  P33  1  0.639835  0.639835  0.000000  1
  P  P34  1  0.365692  0.998953  0.000000  1
  P  P35  1  0.998953  0.365692  0.000000  1
