# generated using pymatgen
data_LaMn(As4Ru)3
_symmetry_space_group_name_H-M   'P 1'
_cell_length_a   7.45650120
_cell_length_b   7.45649972
_cell_length_c   7.46359000
_cell_angle_alpha   109.49048128
_cell_angle_beta   109.49047724
_cell_angle_gamma   109.45194968
_symmetry_Int_Tables_number   1
_chemical_formula_structural   LaMn(As4Ru)3
_chemical_formula_sum   'La1 Mn1 As12 Ru3'
_cell_volume   319.36898157
_cell_formula_units_Z   1
loop_
 _symmetry_equiv_pos_site_id
 _symmetry_equiv_pos_as_xyz
  1  'x, y, z'
loop_
 _atom_site_type_symbol
 _atom_site_label
 _atom_site_symmetry_multiplicity
 _atom_site_fract_x
 _atom_site_fract_y
 _atom_site_fract_z
 _atom_site_occupancy
  La  La0  1  0.000000  0.000000  0.000000  1
  Mn  Mn1  1  0.000000  0.000000  0.500000  1
  As  As2  1  0.850315  0.652894  0.502124  1
  As  As3  1  0.149685  0.347106  0.497876  1
  As  As4  1  0.150178  0.652403  0.802280  1
  As  As5  1  0.849822  0.347597  0.197720  1
  As  As6  1  0.652403  0.502224  0.850124  1
  As  As7  1  0.347597  0.497776  0.149876  1
  As  As8  1  0.652894  0.802580  0.150771  1
  As  As9  1  0.347106  0.197420  0.849229  1
  As  As10  1  0.502224  0.849822  0.652101  1
  As  As11  1  0.497776  0.150178  0.347899  1
  As  As12  1  0.197420  0.850315  0.348191  1
  As  As13  1  0.802580  0.149685  0.651809  1
  Ru  Ru14  1  0.500000  0.500000  0.500000  1
  Ru  Ru15  1  0.500000  0.000000  0.000000  1
  Ru  Ru16  1  0.000000  0.500000  0.000000  1
