# generated using pymatgen
data_SmTm9(Si3Pt)2
_symmetry_space_group_name_H-M   'P 1'
_cell_length_a   7.24859300
_cell_length_b   7.85746566
_cell_length_c   14.46342200
_cell_angle_alpha   89.83480928
_cell_angle_beta   90.00000000
_cell_angle_gamma   90.00000000
_symmetry_Int_Tables_number   1
_chemical_formula_structural   SmTm9(Si3Pt)2
_chemical_formula_sum   'Sm2 Tm18 Si12 Pt4'
_cell_volume   823.76902850
_cell_formula_units_Z   2
loop_
 _symmetry_equiv_pos_site_id
 _symmetry_equiv_pos_as_xyz
  1  'x, y, z'
loop_
 _atom_site_type_symbol
 _atom_site_label
 _atom_site_symmetry_multiplicity
 _atom_site_fract_x
 _atom_site_fract_y
 _atom_site_fract_z
 _atom_site_occupancy
  Sm  Sm0  1  0.513998  0.569861  0.338606  1
  Sm  Sm1  1  0.013998  0.430139  0.661394  1
  Tm  Tm2  1  0.812814  0.577717  0.877996  1
  Tm  Tm3  1  0.312814  0.422283  0.122004  1
  Tm  Tm4  1  0.185088  0.924422  0.377000  1
  Tm  Tm5  1  0.685088  0.075578  0.623000  1
  Tm  Tm6  1  0.185406  0.924611  0.624208  1
  Tm  Tm7  1  0.685406  0.075389  0.375792  1
  Tm  Tm8  1  0.815896  0.575203  0.123213  1
  Tm  Tm9  1  0.315896  0.424797  0.876787  1
  Tm  Tm10  1  0.662761  0.233964  0.999472  1
  Tm  Tm11  1  0.162761  0.766036  0.000528  1
  Tm  Tm12  1  0.337956  0.266624  0.499774  1
  Tm  Tm13  1  0.837956  0.733376  0.500226  1
  Tm  Tm14  1  0.483871  0.933934  0.843555  1
  Tm  Tm15  1  0.983871  0.066066  0.156445  1
  Tm  Tm16  1  0.481344  0.936477  0.154789  1
  Tm  Tm17  1  0.981344  0.063523  0.845211  1
  Tm  Tm18  1  0.516514  0.567133  0.656988  1
  Tm  Tm19  1  0.016514  0.432867  0.343012  1
  Si  Si20  1  0.653659  0.276325  0.790165  1
  Si  Si21  1  0.153659  0.723675  0.209835  1
  Si  Si22  1  0.346604  0.219300  0.287623  1
  Si  Si23  1  0.846604  0.780700  0.712377  1
  Si  Si24  1  0.353252  0.221399  0.711452  1
  Si  Si25  1  0.853252  0.778601  0.288548  1
  Si  Si26  1  0.651483  0.274362  0.208718  1
  Si  Si27  1  0.151483  0.725638  0.791282  1
  Si  Si28  1  0.769517  0.883218  0.000786  1
  Si  Si29  1  0.269517  0.116782  0.999214  1
  Si  Si30  1  0.229421  0.618450  0.501266  1
  Si  Si31  1  0.729421  0.381550  0.498734  1
  Pt  Pt32  1  0.518731  0.653736  0.001214  1
  Pt  Pt33  1  0.018731  0.346264  0.998786  1
  Pt  Pt34  1  0.481689  0.847516  0.501869  1
  Pt  Pt35  1  0.981689  0.152484  0.498131  1
