# generated using pymatgen
data_Ho8Er8Cd4Ir3Os
_symmetry_space_group_name_H-M   'P 1'
_cell_length_a   9.61085606
_cell_length_b   9.61085665
_cell_length_c   9.61237618
_cell_angle_alpha   59.56394375
_cell_angle_beta   59.56394168
_cell_angle_gamma   59.58674861
_symmetry_Int_Tables_number   1
_chemical_formula_structural   Ho8Er8Cd4Ir3Os
_chemical_formula_sum   'Ho8 Er8 Cd4 Ir3 Os1'
_cell_volume   621.71182896
_cell_formula_units_Z   1
loop_
 _symmetry_equiv_pos_site_id
 _symmetry_equiv_pos_as_xyz
  1  'x, y, z'
loop_
 _atom_site_type_symbol
 _atom_site_label
 _atom_site_symmetry_multiplicity
 _atom_site_fract_x
 _atom_site_fract_y
 _atom_site_fract_z
 _atom_site_occupancy
  Ho  Ho0  1  0.438765  0.438765  0.061973  1
  Ho  Ho1  1  0.060098  0.060098  0.437947  1
  Ho  Ho2  1  0.188346  0.811701  0.811732  1
  Ho  Ho3  1  0.807428  0.189266  0.189260  1
  Ho  Ho4  1  0.811701  0.188346  0.811732  1
  Ho  Ho5  1  0.189266  0.807428  0.189260  1
  Ho  Ho6  1  0.811687  0.811687  0.188342  1
  Ho  Ho7  1  0.189312  0.189312  0.807379  1
  Er  Er8  1  0.599401  0.599401  0.599193  1
  Er  Er9  1  0.598828  0.598828  0.205683  1
  Er  Er10  1  0.598560  0.205726  0.598812  1
  Er  Er11  1  0.205726  0.598560  0.598812  1
  Er  Er12  1  0.061655  0.438924  0.438926  1
  Er  Er13  1  0.438060  0.059985  0.059949  1
  Er  Er14  1  0.438924  0.061655  0.438926  1
  Er  Er15  1  0.059985  0.438060  0.059949  1
  Cd  Cd16  1  0.830010  0.830010  0.830114  1
  Cd  Cd17  1  0.830491  0.830491  0.507091  1
  Cd  Cd18  1  0.830585  0.507095  0.830489  1
  Cd  Cd19  1  0.507095  0.830585  0.830489  1
  Ir  Ir20  1  0.392971  0.392971  0.826034  1
  Ir  Ir21  1  0.393414  0.826001  0.392957  1
  Ir  Ir22  1  0.826001  0.393414  0.392957  1
  Os  Os23  1  0.391691  0.391691  0.391992  1
