# generated using pymatgen
data_KFe(As4Ir)3
_symmetry_space_group_name_H-M   'P 1'
_cell_length_a   7.44230885
_cell_length_b   7.44230762
_cell_length_c   7.45814100
_cell_angle_alpha   109.51432305
_cell_angle_beta   109.51431969
_cell_angle_gamma   109.42808286
_symmetry_Int_Tables_number   1
_chemical_formula_structural   KFe(As4Ir)3
_chemical_formula_sum   'K1 Fe1 As12 Ir3'
_cell_volume   317.82842227
_cell_formula_units_Z   1
loop_
 _symmetry_equiv_pos_site_id
 _symmetry_equiv_pos_as_xyz
  1  'x, y, z'
loop_
 _atom_site_type_symbol
 _atom_site_label
 _atom_site_symmetry_multiplicity
 _atom_site_fract_x
 _atom_site_fract_y
 _atom_site_fract_z
 _atom_site_occupancy
  K  K0  1  0.000000  0.000000  0.000000  1
  Fe  Fe1  1  0.000000  0.000000  0.500000  1
  As  As2  1  0.856355  0.662917  0.502782  1
  As  As3  1  0.143645  0.337083  0.497218  1
  As  As4  1  0.146661  0.648007  0.794586  1
  As  As5  1  0.853339  0.351993  0.205414  1
  As  As6  1  0.648007  0.501345  0.853423  1
  As  As7  1  0.351993  0.498655  0.146577  1
  As  As8  1  0.662917  0.806563  0.160136  1
  As  As9  1  0.337083  0.193437  0.839864  1
  As  As10  1  0.501345  0.853339  0.647924  1
  As  As11  1  0.498655  0.146661  0.352076  1
  As  As12  1  0.193437  0.856355  0.353574  1
  As  As13  1  0.806563  0.143645  0.646426  1
  Ir  Ir14  1  0.500000  0.500000  0.500000  1
  Ir  Ir15  1  0.500000  0.000000  0.000000  1
  Ir  Ir16  1  0.000000  0.500000  0.000000  1
