# generated using pymatgen
data_Dy12Y4MgZn(Co2Hg)2
_symmetry_space_group_name_H-M   'P 1'
_cell_length_a   9.49473114
_cell_length_b   9.47379607
_cell_length_c   9.47379700
_cell_angle_alpha   60.01206686
_cell_angle_beta   60.08619580
_cell_angle_gamma   60.08619111
_symmetry_Int_Tables_number   1
_chemical_formula_structural   Dy12Y4MgZn(Co2Hg)2
_chemical_formula_sum   'Dy12 Y4 Mg1 Zn1 Co4 Hg2'
_cell_volume   603.42048697
_cell_formula_units_Z   1
loop_
 _symmetry_equiv_pos_site_id
 _symmetry_equiv_pos_as_xyz
  1  'x, y, z'
loop_
 _atom_site_type_symbol
 _atom_site_label
 _atom_site_symmetry_multiplicity
 _atom_site_fract_x
 _atom_site_fract_y
 _atom_site_fract_z
 _atom_site_occupancy
  Dy  Dy0  1  0.346384  0.344678  0.344678  1
  Dy  Dy1  1  0.348513  0.346798  0.961276  1
  Dy  Dy2  1  0.348513  0.961276  0.346798  1
  Dy  Dy3  1  0.951176  0.350442  0.350442  1
  Dy  Dy4  1  0.808077  0.190129  0.190129  1
  Dy  Dy5  1  0.185299  0.812577  0.812577  1
  Dy  Dy6  1  0.186223  0.811759  0.187718  1
  Dy  Dy7  1  0.808338  0.189499  0.810429  1
  Dy  Dy8  1  0.186223  0.187718  0.811759  1
  Dy  Dy9  1  0.808338  0.810429  0.189499  1
  Dy  Dy10  1  0.935684  0.561318  0.561318  1
  Dy  Dy11  1  0.559937  0.938915  0.938915  1
  Y  Y12  1  0.561932  0.935905  0.563264  1
  Y  Y13  1  0.937741  0.561120  0.939055  1
  Y  Y14  1  0.561932  0.563264  0.935905  1
  Y  Y15  1  0.937741  0.939055  0.561120  1
  Mg  Mg16  1  0.286783  0.571537  0.571537  1
  Zn  Zn17  1  0.582819  0.582486  0.582486  1
  Co  Co18  1  0.138408  0.142958  0.142958  1
  Co  Co19  1  0.138543  0.143372  0.577800  1
  Co  Co20  1  0.138543  0.577800  0.143372  1
  Co  Co21  1  0.576957  0.141668  0.141668  1
  Hg  Hg22  1  0.582946  0.586488  0.248810  1
  Hg  Hg23  1  0.582946  0.248810  0.586488  1
