# generated using pymatgen
data_Pr6ZnSnI6
_symmetry_space_group_name_H-M   'P 1'
_cell_length_a   11.01142609
_cell_length_b   11.01142576
_cell_length_c   11.08304139
_cell_angle_alpha   109.44743688
_cell_angle_beta   109.44743412
_cell_angle_gamma   109.25574589
_symmetry_Int_Tables_number   1
_chemical_formula_structural   Pr6ZnSnI6
_chemical_formula_sum   'Pr12 Zn2 Sn2 I12'
_cell_volume   1037.82676302
_cell_formula_units_Z   2
loop_
 _symmetry_equiv_pos_site_id
 _symmetry_equiv_pos_as_xyz
  1  'x, y, z'
loop_
 _atom_site_type_symbol
 _atom_site_label
 _atom_site_symmetry_multiplicity
 _atom_site_fract_x
 _atom_site_fract_y
 _atom_site_fract_z
 _atom_site_occupancy
  Pr  Pr0  1  0.476908  0.482141  0.242666  1
  Pr  Pr1  1  0.739474  0.234240  0.257334  1
  Pr  Pr2  1  0.738592  0.005260  0.481367  1
  Pr  Pr3  1  0.242775  0.476107  0.481367  1
  Pr  Pr4  1  0.265760  0.760526  0.242666  1
  Pr  Pr5  1  0.023893  0.257225  0.018633  1
  Pr  Pr6  1  0.017859  0.023092  0.257334  1
  Pr  Pr7  1  0.494740  0.761408  0.018633  1
  Pr  Pr8  1  0.483714  0.233714  0.467428  1
  Pr  Pr9  1  0.008009  0.491991  0.750000  1
  Pr  Pr10  1  0.266286  0.016286  0.032572  1
  Pr  Pr11  1  0.241991  0.258009  0.750000  1
  Zn  Zn12  1  0.249428  0.250572  0.250000  1
  Zn  Zn13  1  0.500572  0.999428  0.250000  1
  Sn  Sn14  1  0.999762  0.249762  0.499523  1
  Sn  Sn15  1  0.250238  0.500238  0.000477  1
  I  I16  1  0.249908  0.755452  0.743878  1
  I  I17  1  0.511572  0.506030  0.756122  1
  I  I18  1  0.985983  0.743107  0.992696  1
  I  I19  1  0.744548  0.250092  0.756122  1
  I  I20  1  0.993970  0.988428  0.743878  1
  I  I21  1  0.250412  0.993286  0.507304  1
  I  I22  1  0.756893  0.514017  0.507304  1
  I  I23  1  0.506714  0.249588  0.992696  1
  I  I24  1  0.756221  0.743779  0.250000  1
  I  I25  1  0.743507  0.993507  0.987015  1
  I  I26  1  0.993779  0.506221  0.250000  1
  I  I27  1  0.506493  0.756493  0.512985  1
