# generated using pymatgen
data_La(Nd2Os)2
_symmetry_space_group_name_H-M   'P 1'
_cell_length_a   8.91393655
_cell_length_b   8.91393683
_cell_length_c   7.44736262
_cell_angle_alpha   83.66426175
_cell_angle_beta   83.66426002
_cell_angle_gamma   44.04196296
_symmetry_Int_Tables_number   1
_chemical_formula_structural   La(Nd2Os)2
_chemical_formula_sum   'La2 Nd8 Os4'
_cell_volume   408.45383121
_cell_formula_units_Z   2
loop_
 _symmetry_equiv_pos_site_id
 _symmetry_equiv_pos_as_xyz
  1  'x, y, z'
loop_
 _atom_site_type_symbol
 _atom_site_label
 _atom_site_symmetry_multiplicity
 _atom_site_fract_x
 _atom_site_fract_y
 _atom_site_fract_z
 _atom_site_occupancy
  La  La0  1  0.015807  0.797282  0.910140  1
  La  La1  1  0.202718  0.984193  0.589860  1
  Nd  Nd2  1  0.978972  0.204945  0.085858  1
  Nd  Nd3  1  0.795055  0.021028  0.414142  1
  Nd  Nd4  1  0.361425  0.205383  0.816439  1
  Nd  Nd5  1  0.794617  0.638575  0.683561  1
  Nd  Nd6  1  0.641635  0.790156  0.185230  1
  Nd  Nd7  1  0.209844  0.358365  0.314770  1
  Nd  Nd8  1  0.570588  0.429412  0.750000  1
  Nd  Nd9  1  0.428067  0.571933  0.250000  1
  Os  Os10  1  0.172321  0.605657  0.579100  1
  Os  Os11  1  0.394343  0.827679  0.920900  1
  Os  Os12  1  0.827237  0.392629  0.426508  1
  Os  Os13  1  0.607371  0.172763  0.073492  1
