# generated using pymatgen
data_Y3Tm3Ni12(B2Ru)2
_symmetry_space_group_name_H-M   'P 1'
_cell_length_a   5.01866900
_cell_length_b   5.16133887
_cell_length_c   14.42373668
_cell_angle_alpha   89.91944250
_cell_angle_beta   90.00000000
_cell_angle_gamma   119.08975162
_symmetry_Int_Tables_number   1
_chemical_formula_structural   Y3Tm3Ni12(B2Ru)2
_chemical_formula_sum   'Y3 Tm3 Ni12 B4 Ru2'
_cell_volume   326.48979641
_cell_formula_units_Z   1
loop_
 _symmetry_equiv_pos_site_id
 _symmetry_equiv_pos_as_xyz
  1  'x, y, z'
loop_
 _atom_site_type_symbol
 _atom_site_label
 _atom_site_symmetry_multiplicity
 _atom_site_fract_x
 _atom_site_fract_y
 _atom_site_fract_z
 _atom_site_occupancy
  Y  Y0  1  0.332497  0.664997  0.534826  1
  Y  Y1  1  0.667882  0.335762  0.033241  1
  Y  Y2  1  0.662716  0.325430  0.465778  1
  Tm  Tm3  1  0.338174  0.676351  0.966910  1
  Tm  Tm4  1  0.331913  0.663825  0.751655  1
  Tm  Tm5  1  0.667897  0.335794  0.249554  1
  Ni  Ni6  1  0.996102  0.992203  0.997841  1
  Ni  Ni7  1  0.002877  0.005754  0.497972  1
  Ni  Ni8  1  0.668020  0.834456  0.148761  1
  Ni  Ni9  1  0.166436  0.834456  0.148761  1
  Ni  Ni10  1  0.834142  0.166054  0.650414  1
  Ni  Ni11  1  0.331913  0.166054  0.650414  1
  Ni  Ni12  1  0.833176  0.666351  0.850409  1
  Ni  Ni13  1  0.832125  0.162283  0.851641  1
  Ni  Ni14  1  0.330158  0.162283  0.851641  1
  Ni  Ni15  1  0.669429  0.836818  0.350054  1
  Ni  Ni16  1  0.167389  0.836818  0.350054  1
  Ni  Ni17  1  0.166308  0.332616  0.348790  1
  B  B18  1  0.336002  0.672006  0.250879  1
  B  B19  1  0.664130  0.328259  0.752012  1
  B  B20  1  0.000558  0.001115  0.250285  1
  B  B21  1  0.999441  0.998883  0.751893  1
  Ru  Ru22  1  0.165811  0.331620  0.147327  1
  Ru  Ru23  1  0.834906  0.669812  0.648889  1
