# generated using pymatgen
data_Sm4Hg2Rh3Au
_symmetry_space_group_name_H-M   'P 1'
_cell_length_a   7.75556913
_cell_length_b   7.75556913
_cell_length_c   3.82790200
_cell_angle_alpha   90.00000000
_cell_angle_beta   90.00000000
_cell_angle_gamma   89.72015383
_symmetry_Int_Tables_number   1
_chemical_formula_structural   Sm4Hg2Rh3Au
_chemical_formula_sum   'Sm4 Hg2 Rh3 Au1'
_cell_volume   230.24116639
_cell_formula_units_Z   1
loop_
 _symmetry_equiv_pos_site_id
 _symmetry_equiv_pos_as_xyz
  1  'x, y, z'
loop_
 _atom_site_type_symbol
 _atom_site_label
 _atom_site_symmetry_multiplicity
 _atom_site_fract_x
 _atom_site_fract_y
 _atom_site_fract_z
 _atom_site_occupancy
  Sm  Sm0  1  0.333924  0.188208  0.499999  1
  Sm  Sm1  1  0.825528  0.325529  0.499999  1
  Sm  Sm2  1  0.155331  0.655330  0.499999  1
  Sm  Sm3  1  0.688207  0.833923  0.499999  1
  Hg  Hg4  1  0.998380  0.002461  0.000000  1
  Hg  Hg5  1  0.502462  0.498381  0.000000  1
  Rh  Rh6  1  0.629611  0.129611  0.000000  1
  Rh  Rh7  1  0.128896  0.366087  0.000000  1
  Rh  Rh8  1  0.866087  0.628896  0.000000  1
  Au  Au9  1  0.371575  0.871575  0.000000  1
