# generated using pymatgen
data_Tb4Pr6B2Cl15
_symmetry_space_group_name_H-M   'P 1'
_cell_length_a   9.03085446
_cell_length_b   9.71465332
_cell_length_c   10.50364871
_cell_angle_alpha   90.96545033
_cell_angle_beta   113.84012959
_cell_angle_gamma   111.36339061
_symmetry_Int_Tables_number   1
_chemical_formula_structural   Tb4Pr6B2Cl15
_chemical_formula_sum   'Tb4 Pr6 B2 Cl15'
_cell_volume   770.26044095
_cell_formula_units_Z   1
loop_
 _symmetry_equiv_pos_site_id
 _symmetry_equiv_pos_as_xyz
  1  'x, y, z'
loop_
 _atom_site_type_symbol
 _atom_site_label
 _atom_site_symmetry_multiplicity
 _atom_site_fract_x
 _atom_site_fract_y
 _atom_site_fract_z
 _atom_site_occupancy
  Tb  Tb0  1  0.589556  0.040069  0.330601  1
  Tb  Tb1  1  0.410444  0.959931  0.669399  1
  Tb  Tb2  1  0.726622  0.076668  0.045988  1
  Tb  Tb3  1  0.273378  0.923332  0.954012  1
  Pr  Pr4  1  0.810033  0.424211  0.279147  1
  Pr  Pr5  1  0.189967  0.575789  0.720853  1
  Pr  Pr6  1  0.677915  0.741283  0.812161  1
  Pr  Pr7  1  0.322085  0.258717  0.187839  1
  Pr  Pr8  1  0.526511  0.691418  0.102506  1
  Pr  Pr9  1  0.473489  0.308582  0.897494  1
  B  B10  1  0.466218  0.823200  0.875423  1
  B  B11  1  0.533782  0.176800  0.124577  1
  Cl  Cl12  1  0.000000  0.000000  0.000000  1
  Cl  Cl13  1  0.624688  0.889723  0.577341  1
  Cl  Cl14  1  0.375312  0.110277  0.422659  1
  Cl  Cl15  1  0.875136  0.289233  0.520393  1
  Cl  Cl16  1  0.124864  0.710767  0.479607  1
  Cl  Cl17  1  0.298548  0.776096  0.182463  1
  Cl  Cl18  1  0.701452  0.223904  0.817537  1
  Cl  Cl19  1  0.040614  0.333602  0.216034  1
  Cl  Cl20  1  0.173922  0.047031  0.709219  1
  Cl  Cl21  1  0.826078  0.952969  0.290781  1
  Cl  Cl22  1  0.223114  0.403645  0.945858  1
  Cl  Cl23  1  0.776886  0.596355  0.054142  1
  Cl  Cl24  1  0.401143  0.462383  0.644310  1
  Cl  Cl25  1  0.598857  0.537617  0.355690  1
  Cl  Cl26  1  0.959386  0.666398  0.783966  1
