# generated using pymatgen
data_V24P3S5
_symmetry_space_group_name_H-M   'P 1'
_cell_length_a   9.42476900
_cell_length_b   9.20832401
_cell_length_c   4.68675433
_cell_angle_alpha   90.20480801
_cell_angle_beta   90.00000000
_cell_angle_gamma   90.00000000
_symmetry_Int_Tables_number   1
_chemical_formula_structural   V24P3S5
_chemical_formula_sum   'V24 P3 S5'
_cell_volume   406.74359399
_cell_formula_units_Z   1
loop_
 _symmetry_equiv_pos_site_id
 _symmetry_equiv_pos_as_xyz
  1  'x, y, z'
loop_
 _atom_site_type_symbol
 _atom_site_label
 _atom_site_symmetry_multiplicity
 _atom_site_fract_x
 _atom_site_fract_y
 _atom_site_fract_z
 _atom_site_occupancy
  V  V0  1  0.588213  0.089074  0.999474  1
  V  V1  1  0.299323  0.208943  0.004877  1
  V  V2  1  0.798129  0.291988  0.005984  1
  V  V3  1  0.087648  0.412185  0.997378  1
  V  V4  1  0.909648  0.589084  0.998480  1
  V  V5  1  0.200972  0.708201  0.003916  1
  V  V6  1  0.701688  0.795579  0.997079  1
  V  V7  1  0.411682  0.911309  0.997011  1
  V  V8  1  0.999778  0.149233  0.249376  1
  V  V9  1  0.502273  0.352206  0.250762  1
  V  V10  1  0.502273  0.647795  0.249236  1
  V  V11  1  0.999778  0.850767  0.250622  1
  V  V12  1  0.411682  0.088691  0.502989  1
  V  V13  1  0.701688  0.204421  0.502921  1
  V  V14  1  0.200972  0.291799  0.496084  1
  V  V15  1  0.909648  0.410916  0.501520  1
  V  V16  1  0.087648  0.587815  0.502622  1
  V  V17  1  0.798129  0.708012  0.494016  1
  V  V18  1  0.299323  0.791057  0.495123  1
  V  V19  1  0.588213  0.910926  0.500526  1
  V  V20  1  0.147410  0.000000  0.749999  1
  V  V21  1  0.851960  0.000000  0.749999  1
  V  V22  1  0.352565  0.500000  0.749999  1
  V  V23  1  0.648464  0.500000  0.749999  1
  P  P24  1  0.208809  0.000000  0.249999  1
  P  P25  1  0.791503  0.000000  0.249999  1
  P  P26  1  0.291339  0.500000  0.249999  1
  S  S27  1  0.710181  0.500000  0.249999  1
  S  S28  1  0.999343  0.208180  0.749783  1
  S  S29  1  0.500186  0.292666  0.749836  1
  S  S30  1  0.500186  0.707334  0.750162  1
  S  S31  1  0.999343  0.791819  0.750215  1
