# generated using pymatgen
data_Rb2BaTa6Cl18
_symmetry_space_group_name_H-M   'P 1'
_cell_length_a   10.59690685
_cell_length_b   10.59783042
_cell_length_c   10.59769618
_cell_angle_alpha   54.86574589
_cell_angle_beta   54.86951095
_cell_angle_gamma   54.86476874
_symmetry_Int_Tables_number   1
_chemical_formula_structural   Rb2BaTa6Cl18
_chemical_formula_sum   'Rb2 Ba1 Ta6 Cl18'
_cell_volume   741.00482508
_cell_formula_units_Z   1
loop_
 _symmetry_equiv_pos_site_id
 _symmetry_equiv_pos_as_xyz
  1  'x, y, z'
loop_
 _atom_site_type_symbol
 _atom_site_label
 _atom_site_symmetry_multiplicity
 _atom_site_fract_x
 _atom_site_fract_y
 _atom_site_fract_z
 _atom_site_occupancy
  Rb  Rb0  1  0.275990  0.275989  0.275988  1
  Rb  Rb1  1  0.724010  0.724011  0.724012  1
  Ba  Ba2  1  0.000000  0.000000  0.000000  1
  Ta  Ta3  1  0.424952  0.302090  0.641359  1
  Ta  Ta4  1  0.358641  0.575049  0.697909  1
  Ta  Ta5  1  0.697910  0.358647  0.575049  1
  Ta  Ta6  1  0.641359  0.424951  0.302091  1
  Ta  Ta7  1  0.575048  0.697910  0.358641  1
  Ta  Ta8  1  0.302090  0.641353  0.424951  1
  Cl  Cl9  1  0.643790  0.097608  0.761179  1
  Cl  Cl10  1  0.761170  0.643779  0.097622  1
  Cl  Cl11  1  0.097603  0.761181  0.643782  1
  Cl  Cl12  1  0.817183  0.338315  0.042884  1
  Cl  Cl13  1  0.174413  0.431433  0.577996  1
  Cl  Cl14  1  0.661682  0.957114  0.182820  1
  Cl  Cl15  1  0.902397  0.238819  0.356218  1
  Cl  Cl16  1  0.568566  0.422007  0.825583  1
  Cl  Cl17  1  0.422009  0.825569  0.568560  1
  Cl  Cl18  1  0.957125  0.182812  0.661686  1
  Cl  Cl19  1  0.182817  0.661685  0.957116  1
  Cl  Cl20  1  0.042875  0.817188  0.338314  1
  Cl  Cl21  1  0.338318  0.042886  0.817180  1
  Cl  Cl22  1  0.238830  0.356221  0.902378  1
  Cl  Cl23  1  0.577991  0.174431  0.431440  1
  Cl  Cl24  1  0.431434  0.577993  0.174417  1
  Cl  Cl25  1  0.356210  0.902392  0.238821  1
  Cl  Cl26  1  0.825587  0.568567  0.422004  1
