# generated using pymatgen
data_Tm6BiAuO14
_symmetry_space_group_name_H-M   'P 1'
_cell_length_a   6.35212978
_cell_length_b   6.40181591
_cell_length_c   7.43890500
_cell_angle_alpha   106.57933043
_cell_angle_beta   90.15678466
_cell_angle_gamma   98.20305420
_symmetry_Int_Tables_number   1
_chemical_formula_structural   Tm6BiAuO14
_chemical_formula_sum   'Tm6 Bi1 Au1 O14'
_cell_volume   286.66033227
_cell_formula_units_Z   1
loop_
 _symmetry_equiv_pos_site_id
 _symmetry_equiv_pos_as_xyz
  1  'x, y, z'
loop_
 _atom_site_type_symbol
 _atom_site_label
 _atom_site_symmetry_multiplicity
 _atom_site_fract_x
 _atom_site_fract_y
 _atom_site_fract_z
 _atom_site_occupancy
  Tm  Tm0  1  0.732648  0.460175  0.115796  1
  Tm  Tm1  1  0.734622  0.476133  0.615424  1
  Tm  Tm2  1  0.538772  0.995594  0.752149  1
  Tm  Tm3  1  0.461228  0.004406  0.247851  1
  Tm  Tm4  1  0.265378  0.523867  0.384576  1
  Tm  Tm5  1  0.267352  0.539825  0.884204  1
  Bi  Bi6  1  0.000000  0.000000  0.500000  1
  Au  Au7  1  0.000000  0.000000  0.000000  1
  O  O8  1  0.696113  0.075568  0.492236  1
  O  O9  1  0.933809  0.666849  0.960421  1
  O  O10  1  0.702988  0.075721  0.047692  1
  O  O11  1  0.927548  0.645731  0.385527  1
  O  O12  1  0.876605  0.896107  0.735036  1
  O  O13  1  0.554774  0.350793  0.833667  1
  O  O14  1  0.545079  0.359702  0.343244  1
  O  O15  1  0.454921  0.640298  0.656756  1
  O  O16  1  0.445226  0.649207  0.166333  1
  O  O17  1  0.123395  0.103893  0.264964  1
  O  O18  1  0.072452  0.354269  0.614473  1
  O  O19  1  0.297012  0.924279  0.952308  1
  O  O20  1  0.066191  0.333151  0.039579  1
  O  O21  1  0.303887  0.924432  0.507764  1
