# generated using pymatgen
data_PrB2RuRh
_symmetry_space_group_name_H-M   'P 1'
_cell_length_a   6.94582847
_cell_length_b   6.06099176
_cell_length_c   5.59638234
_cell_angle_alpha   73.02091553
_cell_angle_beta   56.57142215
_cell_angle_gamma   50.58392775
_symmetry_Int_Tables_number   1
_chemical_formula_structural   PrB2RuRh
_chemical_formula_sum   'Pr2 B4 Ru2 Rh2'
_cell_volume   151.29306863
_cell_formula_units_Z   2
loop_
 _symmetry_equiv_pos_site_id
 _symmetry_equiv_pos_as_xyz
  1  'x, y, z'
loop_
 _atom_site_type_symbol
 _atom_site_label
 _atom_site_symmetry_multiplicity
 _atom_site_fract_x
 _atom_site_fract_y
 _atom_site_fract_z
 _atom_site_occupancy
  Pr  Pr0  1  0.001151  0.001151  0.998849  1
  Pr  Pr1  1  0.248849  0.248849  0.251151  1
  B  B2  1  0.665584  0.322782  0.690500  1
  B  B3  1  0.322782  0.665584  0.321135  1
  B  B4  1  0.927218  0.584416  0.928865  1
  B  B5  1  0.584416  0.927218  0.559500  1
  Ru  Ru6  1  0.364501  0.364502  0.635498  1
  Ru  Ru7  1  0.885499  0.885498  0.614501  1
  Rh  Rh8  1  0.617691  0.617691  0.882309  1
  Rh  Rh9  1  0.632309  0.632309  0.367690  1
