# generated using pymatgen
data_DyHo11Al(InFe)2
_symmetry_space_group_name_H-M   'P 1'
_cell_length_a   8.38469722
_cell_length_b   8.38496613
_cell_length_c   8.38496502
_cell_angle_alpha   109.99863793
_cell_angle_beta   109.99342202
_cell_angle_gamma   108.42789604
_symmetry_Int_Tables_number   1
_chemical_formula_structural   DyHo11Al(InFe)2
_chemical_formula_sum   'Dy1 Ho11 Al1 In2 Fe2'
_cell_volume   453.68386692
_cell_formula_units_Z   1
loop_
 _symmetry_equiv_pos_site_id
 _symmetry_equiv_pos_as_xyz
  1  'x, y, z'
loop_
 _atom_site_type_symbol
 _atom_site_label
 _atom_site_symmetry_multiplicity
 _atom_site_fract_x
 _atom_site_fract_y
 _atom_site_fract_z
 _atom_site_occupancy
  Dy  Dy0  1  0.449631  0.205031  0.244600  1
  Ho  Ho1  1  0.550386  0.794959  0.755426  1
  Ho  Ho2  1  0.960452  0.205028  0.755425  1
  Ho  Ho3  1  0.205017  0.960438  0.755391  1
  Ho  Ho4  1  0.039534  0.794950  0.244582  1
  Ho  Ho5  1  0.794982  0.039523  0.244566  1
  Ho  Ho6  1  0.205017  0.449626  0.244577  1
  Ho  Ho7  1  0.794982  0.550416  0.755460  1
  Ho  Ho8  1  0.303837  0.303845  0.607695  1
  Ho  Ho9  1  0.696184  0.696205  0.392338  1
  Ho  Ho10  1  0.303837  0.696143  0.999992  1
  Ho  Ho11  1  0.696184  0.303844  0.999978  1
  Al  Al12  1  0.999946  0.999982  0.999965  1
  In  In13  1  0.500005  0.999980  0.500025  1
  In  In14  1  0.000002  0.500002  0.500000  1
  Fe  Fe15  1  0.388761  0.388782  0.999979  1
  Fe  Fe16  1  0.611246  0.611246  0.000000  1
