# generated using pymatgen
data_Nd12CoSiBr17
_symmetry_space_group_name_H-M   'P 1'
_cell_length_a   9.53287647
_cell_length_b   11.39945190
_cell_length_c   11.32410200
_cell_angle_alpha   93.82859631
_cell_angle_beta   104.68680158
_cell_angle_gamma   114.68092838
_symmetry_Int_Tables_number   1
_chemical_formula_structural   Nd12CoSiBr17
_chemical_formula_sum   'Nd12 Co1 Si1 Br17'
_cell_volume   1060.56411484
_cell_formula_units_Z   1
loop_
 _symmetry_equiv_pos_site_id
 _symmetry_equiv_pos_as_xyz
  1  'x, y, z'
loop_
 _atom_site_type_symbol
 _atom_site_label
 _atom_site_symmetry_multiplicity
 _atom_site_fract_x
 _atom_site_fract_y
 _atom_site_fract_z
 _atom_site_occupancy
  Nd  Nd0  1  0.065725  0.525864  0.329176  1
  Nd  Nd1  1  0.982778  0.808638  0.573756  1
  Nd  Nd2  1  0.628195  0.238361  0.286685  1
  Nd  Nd3  1  0.018247  0.188328  0.429352  1
  Nd  Nd4  1  0.230925  0.671227  0.999412  1
  Nd  Nd5  1  0.265167  0.994835  0.897789  1
  Nd  Nd6  1  0.362692  0.760679  0.711990  1
  Nd  Nd7  1  0.938146  0.479070  0.675078  1
  Nd  Nd8  1  0.728971  0.999044  0.098117  1
  Nd  Nd9  1  0.162446  0.287801  0.143040  1
  Nd  Nd10  1  0.771183  0.332662  0.996092  1
  Nd  Nd11  1  0.843755  0.711996  0.856002  1
  Co  Co12  1  0.104981  0.738218  0.786708  1
  Si  Si13  1  0.894736  0.262045  0.214018  1
  Br  Br14  1  0.786122  0.524702  0.417877  1
  Br  Br15  1  0.640036  0.423342  0.751046  1
  Br  Br16  1  0.843982  0.900483  0.323156  1
  Br  Br17  1  0.319495  0.214136  0.367321  1
  Br  Br18  1  0.154562  0.098568  0.676011  1
  Br  Br19  1  0.585212  0.053157  0.844344  1
  Br  Br20  1  0.754128  0.179521  0.534742  1
  Br  Br21  1  0.539761  0.697525  0.948810  1
  Br  Br22  1  0.356282  0.576937  0.246442  1
  Br  Br23  1  0.212792  0.471569  0.579797  1
  Br  Br24  1  0.056827  0.370141  0.898109  1
  Br  Br25  1  0.461429  0.300368  0.048415  1
  Br  Br26  1  0.000097  0.000629  0.001933  1
  Br  Br27  1  0.247859  0.824588  0.465099  1
  Br  Br28  1  0.417181  0.950729  0.159229  1
  Br  Br29  1  0.680614  0.786282  0.635688  1
  Br  Br30  1  0.945669  0.628555  0.104765  1
