# generated using pymatgen
data_Dy16Tl2InRh4Au
_symmetry_space_group_name_H-M   'P 1'
_cell_length_a   9.61209508
_cell_length_b   9.61220215
_cell_length_c   9.61439860
_cell_angle_alpha   60.11342408
_cell_angle_beta   60.11273328
_cell_angle_gamma   60.10237927
_symmetry_Int_Tables_number   1
_chemical_formula_structural   Dy16Tl2InRh4Au
_chemical_formula_sum   'Dy16 Tl2 In1 Rh4 Au1'
_cell_volume   629.68638716
_cell_formula_units_Z   1
loop_
 _symmetry_equiv_pos_site_id
 _symmetry_equiv_pos_as_xyz
  1  'x, y, z'
loop_
 _atom_site_type_symbol
 _atom_site_label
 _atom_site_symmetry_multiplicity
 _atom_site_fract_x
 _atom_site_fract_y
 _atom_site_fract_z
 _atom_site_occupancy
  Dy  Dy0  1  0.689704  0.310920  0.309745  1
  Dy  Dy1  1  0.689792  0.689788  0.310321  1
  Dy  Dy2  1  0.310924  0.689697  0.309743  1
  Dy  Dy3  1  0.937391  0.937379  0.554953  1
  Dy  Dy4  1  0.148740  0.148731  0.551165  1
  Dy  Dy5  1  0.569134  0.938712  0.553097  1
  Dy  Dy6  1  0.150950  0.150943  0.149911  1
  Dy  Dy7  1  0.310440  0.310434  0.689648  1
  Dy  Dy8  1  0.938717  0.569116  0.553104  1
  Dy  Dy9  1  0.561871  0.561873  0.936226  1
  Dy  Dy10  1  0.564554  0.937416  0.934093  1
  Dy  Dy11  1  0.937432  0.564544  0.934095  1
  Dy  Dy12  1  0.147068  0.552315  0.149031  1
  Dy  Dy13  1  0.310322  0.690684  0.689875  1
  Dy  Dy14  1  0.690680  0.310317  0.689879  1
  Dy  Dy15  1  0.552291  0.147076  0.149036  1
  Tl  Tl16  1  0.252366  0.914309  0.919798  1
  Tl  Tl17  1  0.914303  0.252358  0.919818  1
  In  In18  1  0.916797  0.916872  0.921942  1
  Rh  Rh19  1  0.356696  0.356706  0.357322  1
  Rh  Rh20  1  0.926944  0.357360  0.358385  1
  Rh  Rh21  1  0.358126  0.358163  0.926765  1
  Rh  Rh22  1  0.357355  0.926936  0.358387  1
  Au  Au23  1  0.907402  0.907351  0.273658  1
