# generated using pymatgen
data_Dy2Er3Hf3(Co4P3)4
_symmetry_space_group_name_H-M   'P 1'
_cell_length_a   12.27738400
_cell_length_b   12.27738349
_cell_length_c   3.70472400
_cell_angle_alpha   90.00000000
_cell_angle_beta   90.00000000
_cell_angle_gamma   119.99999060
_symmetry_Int_Tables_number   1
_chemical_formula_structural   Dy2Er3Hf3(Co4P3)4
_chemical_formula_sum   'Dy2 Er3 Hf3 Co16 P12'
_cell_volume   483.61325157
_cell_formula_units_Z   1
loop_
 _symmetry_equiv_pos_site_id
 _symmetry_equiv_pos_as_xyz
  1  'x, y, z'
loop_
 _atom_site_type_symbol
 _atom_site_label
 _atom_site_symmetry_multiplicity
 _atom_site_fract_x
 _atom_site_fract_y
 _atom_site_fract_z
 _atom_site_occupancy
  Dy  Dy0  1  0.666667  0.333333  0.000000  1
  Dy  Dy1  1  0.333333  0.666667  0.000000  1
  Er  Er2  1  0.182408  0.182408  0.500000  1
  Er  Er3  1  0.817592  0.000000  0.500000  1
  Er  Er4  1  0.000000  0.817592  0.500000  1
  Hf  Hf5  1  0.558522  0.558522  0.000000  1
  Hf  Hf6  1  0.441478  0.000000  0.000000  1
  Hf  Hf7  1  0.000000  0.441478  0.000000  1
  Co  Co8  1  0.822144  0.195037  0.000000  1
  Co  Co9  1  0.804963  0.627107  0.000000  1
  Co  Co10  1  0.372893  0.177856  0.000000  1
  Co  Co11  1  0.195037  0.822144  0.000000  1
  Co  Co12  1  0.627107  0.804963  0.000000  1
  Co  Co13  1  0.177856  0.372893  0.000000  1
  Co  Co14  1  0.644314  0.124238  0.500000  1
  Co  Co15  1  0.875762  0.520075  0.500000  1
  Co  Co16  1  0.479925  0.355686  0.500000  1
  Co  Co17  1  0.124238  0.644314  0.500000  1
  Co  Co18  1  0.520075  0.875762  0.500000  1
  Co  Co19  1  0.355686  0.479925  0.500000  1
  Co  Co20  1  0.721937  0.721937  0.500000  1
  Co  Co21  1  0.278063  0.000000  0.500000  1
  Co  Co22  1  0.000000  0.278063  0.500000  1
  Co  Co23  1  0.000000  0.000000  0.000000  1
  P  P24  1  0.350889  0.350889  0.000000  1
  P  P25  1  0.649111  0.000000  0.000000  1
  P  P26  1  0.000000  0.649111  0.000000  1
  P  P27  1  0.828754  0.307317  0.500000  1
  P  P28  1  0.692683  0.521437  0.500000  1
  P  P29  1  0.478563  0.171246  0.500000  1
  P  P30  1  0.307317  0.828754  0.500000  1
  P  P31  1  0.521437  0.692683  0.500000  1
  P  P32  1  0.171246  0.478563  0.500000  1
  P  P33  1  0.822568  0.822568  0.000000  1
  P  P34  1  0.177432  0.000000  0.000000  1
  P  P35  1  0.000000  0.177432  0.000000  1
