# generated using pymatgen
data_KNd2Y(SbAu)4
_symmetry_space_group_name_H-M   'P 1'
_cell_length_a   4.66241400
_cell_length_b   4.66241403
_cell_length_c   17.52803100
_cell_angle_alpha   90.00000000
_cell_angle_beta   90.00000000
_cell_angle_gamma   119.99999980
_symmetry_Int_Tables_number   1
_chemical_formula_structural   KNd2Y(SbAu)4
_chemical_formula_sum   'K1 Nd2 Y1 Sb4 Au4'
_cell_volume   329.97834212
_cell_formula_units_Z   1
loop_
 _symmetry_equiv_pos_site_id
 _symmetry_equiv_pos_as_xyz
  1  'x, y, z'
loop_
 _atom_site_type_symbol
 _atom_site_label
 _atom_site_symmetry_multiplicity
 _atom_site_fract_x
 _atom_site_fract_y
 _atom_site_fract_z
 _atom_site_occupancy
  K  K0  1  0.000000  0.000000  0.250000  1
  Nd  Nd1  1  0.000000  0.000000  0.513292  1
  Nd  Nd2  1  0.000000  0.000000  0.986708  1
  Y  Y3  1  0.000000  0.000000  0.750000  1
  Sb  Sb4  1  0.333333  0.666667  0.390063  1
  Sb  Sb5  1  0.666667  0.333333  0.619656  1
  Sb  Sb6  1  0.666667  0.333333  0.880344  1
  Sb  Sb7  1  0.333333  0.666667  0.109937  1
  Au  Au8  1  0.666667  0.333333  0.418843  1
  Au  Au9  1  0.333333  0.666667  0.667398  1
  Au  Au10  1  0.333333  0.666667  0.832602  1
  Au  Au11  1  0.666667  0.333333  0.081157  1
