# generated using pymatgen
data_Na2Th2Ga24PdPt8
_symmetry_space_group_name_H-M   'P 1'
_cell_length_a   7.55756376
_cell_length_b   7.63050622
_cell_length_c   13.49381998
_cell_angle_alpha   84.73921075
_cell_angle_beta   100.65459903
_cell_angle_gamma   119.48030962
_symmetry_Int_Tables_number   1
_chemical_formula_structural   Na2Th2Ga24PdPt8
_chemical_formula_sum   'Na2 Th2 Ga24 Pd1 Pt8'
_cell_volume   665.73044698
_cell_formula_units_Z   1
loop_
 _symmetry_equiv_pos_site_id
 _symmetry_equiv_pos_as_xyz
  1  'x, y, z'
loop_
 _atom_site_type_symbol
 _atom_site_label
 _atom_site_symmetry_multiplicity
 _atom_site_fract_x
 _atom_site_fract_y
 _atom_site_fract_z
 _atom_site_occupancy
  Na  Na0  1  0.766896  0.501390  0.806256  1
  Na  Na1  1  0.233104  0.498610  0.193744  1
  Th  Th2  1  0.436307  0.832638  0.809812  1
  Th  Th3  1  0.563693  0.167362  0.190188  1
  Ga  Ga4  1  0.479645  0.173638  0.938003  1
  Ga  Ga5  1  0.520355  0.826362  0.061997  1
  Ga  Ga6  1  0.021006  0.167758  0.558268  1
  Ga  Ga7  1  0.978994  0.832242  0.441732  1
  Ga  Ga8  1  0.355380  0.834037  0.555956  1
  Ga  Ga9  1  0.644620  0.165963  0.444044  1
  Ga  Ga10  1  0.612363  0.825858  0.327205  1
  Ga  Ga11  1  0.387637  0.174142  0.672795  1
  Ga  Ga12  1  0.049650  0.490415  0.672983  1
  Ga  Ga13  1  0.950350  0.509585  0.327017  1
  Ga  Ga14  1  0.732743  0.832930  0.671421  1
  Ga  Ga15  1  0.267257  0.167070  0.328579  1
  Ga  Ga16  1  0.138312  0.496347  0.943787  1
  Ga  Ga17  1  0.861688  0.503653  0.056213  1
  Ga  Ga18  1  0.814619  0.828744  0.945324  1
  Ga  Ga19  1  0.185381  0.171256  0.054676  1
  Ga  Ga20  1  0.314732  0.501284  0.443011  1
  Ga  Ga21  1  0.685268  0.498716  0.556989  1
  Ga  Ga22  1  0.101979  0.836155  0.182249  1
  Ga  Ga23  1  0.898021  0.163845  0.817751  1
  Ga  Ga24  1  0.308369  0.373079  0.817262  1
  Ga  Ga25  1  0.691631  0.626921  0.182738  1
  Ga  Ga26  1  0.103065  0.962328  0.816758  1
  Ga  Ga27  1  0.896935  0.037672  0.183242  1
  Pd  Pd28  1  0.500000  0.500000  0.000000  1
  Pt  Pt29  1  0.382758  0.505969  0.636983  1
  Pt  Pt30  1  0.617242  0.494031  0.363017  1
  Pt  Pt31  1  0.173913  0.832756  0.999321  1
  Pt  Pt32  1  0.826087  0.167244  0.000679  1
  Pt  Pt33  1  0.294323  0.837185  0.362198  1
  Pt  Pt34  1  0.705677  0.162815  0.637802  1
  Pt  Pt35  1  0.052129  0.829305  0.637323  1
  Pt  Pt36  1  0.947871  0.170695  0.362677  1
