# generated using pymatgen
data_CeSc2Ni9
_symmetry_space_group_name_H-M   'P 1'
_cell_length_a   4.87039300
_cell_length_b   4.87039390
_cell_length_c   15.88500100
_cell_angle_alpha   89.99997297
_cell_angle_beta   90.00004156
_cell_angle_gamma   120.00047865
_symmetry_Int_Tables_number   1
_chemical_formula_structural   CeSc2Ni9
_chemical_formula_sum   'Ce2 Sc4 Ni18'
_cell_volume   326.32013867
_cell_formula_units_Z   2
loop_
 _symmetry_equiv_pos_site_id
 _symmetry_equiv_pos_as_xyz
  1  'x, y, z'
loop_
 _atom_site_type_symbol
 _atom_site_label
 _atom_site_symmetry_multiplicity
 _atom_site_fract_x
 _atom_site_fract_y
 _atom_site_fract_z
 _atom_site_occupancy
  Ce  Ce0  1  0.333327  0.666671  0.250141  1
  Ce  Ce1  1  0.666680  0.333328  0.750052  1
  Sc  Sc2  1  0.333331  0.666666  0.461868  1
  Sc  Sc3  1  0.666670  0.333335  0.962079  1
  Sc  Sc4  1  0.666672  0.333337  0.537741  1
  Sc  Sc5  1  0.333333  0.666666  0.037850  1
  Ni  Ni6  1  0.831959  0.168042  0.378222  1
  Ni  Ni7  1  0.168110  0.831892  0.878387  1
  Ni  Ni8  1  0.831952  0.663906  0.122039  1
  Ni  Ni9  1  0.168126  0.336254  0.621353  1
  Ni  Ni10  1  0.999996  0.999999  0.499737  1
  Ni  Ni11  1  0.663780  0.831890  0.878384  1
  Ni  Ni12  1  0.831955  0.663914  0.378223  1
  Ni  Ni13  1  0.168109  0.336218  0.878385  1
  Ni  Ni14  1  0.336092  0.168047  0.122040  1
  Ni  Ni15  1  0.666664  0.333317  0.250327  1
  Ni  Ni16  1  0.831953  0.168047  0.122039  1
  Ni  Ni17  1  0.000003  0.999994  0.749849  1
  Ni  Ni18  1  0.663741  0.831871  0.621355  1
  Ni  Ni19  1  0.336085  0.168043  0.378222  1
  Ni  Ni20  1  0.999998  0.000000  0.000195  1
  Ni  Ni21  1  0.168128  0.831874  0.621353  1
  Ni  Ni22  1  0.333334  0.666677  0.749834  1
  Ni  Ni23  1  0.000002  0.000010  0.250324  1
