# generated using pymatgen
data_La7Nd3(Si9Au)2
_symmetry_space_group_name_H-M   'P 1'
_cell_length_a   4.26042828
_cell_length_b   4.33542357
_cell_length_c   35.45824900
_cell_angle_alpha   86.49800436
_cell_angle_beta   86.52837372
_cell_angle_gamma   90.04228427
_symmetry_Int_Tables_number   1
_chemical_formula_structural   La7Nd3(Si9Au)2
_chemical_formula_sum   'La7 Nd3 Si18 Au2'
_cell_volume   652.51175640
_cell_formula_units_Z   1
loop_
 _symmetry_equiv_pos_site_id
 _symmetry_equiv_pos_as_xyz
  1  'x, y, z'
loop_
 _atom_site_type_symbol
 _atom_site_label
 _atom_site_symmetry_multiplicity
 _atom_site_fract_x
 _atom_site_fract_y
 _atom_site_fract_z
 _atom_site_occupancy
  La  La0  1  0.949505  0.450238  0.100692  1
  La  La1  1  0.349770  0.849333  0.300003  1
  La  La2  1  0.751716  0.251428  0.496450  1
  La  La3  1  0.149658  0.649594  0.700707  1
  La  La4  1  0.548084  0.048275  0.904252  1
  La  La5  1  0.999571  0.999933  0.001111  1
  La  La6  1  0.399846  0.400562  0.199771  1
  Nd  Nd7  1  0.800873  0.799872  0.398358  1
  Nd  Nd8  1  0.202523  0.202192  0.594978  1
  Nd  Nd9  1  0.601549  0.601766  0.797131  1
  Si  Si10  1  0.466696  0.967329  0.066415  1
  Si  Si11  1  0.866875  0.367334  0.265480  1
  Si  Si12  1  0.268157  0.767632  0.463516  1
  Si  Si13  1  0.667082  0.166803  0.665872  1
  Si  Si14  1  0.066048  0.565975  0.868740  1
  Si  Si15  1  0.916734  0.917425  0.166061  1
  Si  Si16  1  0.317256  0.316464  0.365207  1
  Si  Si17  1  0.718603  0.718469  0.562760  1
  Si  Si18  1  0.117189  0.117479  0.765616  1
  Si  Si19  1  0.516327  0.516626  0.967688  1
  Si  Si20  1  0.432823  0.933567  0.134102  1
  Si  Si21  1  0.833140  0.332457  0.333601  1
  Si  Si22  1  0.234228  0.733759  0.531583  1
  Si  Si23  1  0.633400  0.133394  0.733284  1
  Si  Si24  1  0.032649  0.532778  0.935183  1
  Si  Si25  1  0.482685  0.483107  0.034829  1
  Si  Si26  1  0.882871  0.883068  0.234028  1
  Si  Si27  1  0.284257  0.283347  0.431901  1
  Au  Au28  1  0.684415  0.683931  0.631400  1
  Au  Au29  1  0.082669  0.083065  0.834875  1
