# generated using pymatgen
data_Dy6TmScO12
_symmetry_space_group_name_H-M   'P 1'
_cell_length_a   6.64804792
_cell_length_b   6.64804820
_cell_length_c   6.64804771
_cell_angle_alpha   92.44067665
_cell_angle_beta   92.44066204
_cell_angle_gamma   92.44067360
_symmetry_Int_Tables_number   1
_chemical_formula_structural   Dy6TmScO12
_chemical_formula_sum   'Dy6 Tm1 Sc1 O12'
_cell_volume   292.99763023
_cell_formula_units_Z   1
loop_
 _symmetry_equiv_pos_site_id
 _symmetry_equiv_pos_as_xyz
  1  'x, y, z'
loop_
 _atom_site_type_symbol
 _atom_site_label
 _atom_site_symmetry_multiplicity
 _atom_site_fract_x
 _atom_site_fract_y
 _atom_site_fract_z
 _atom_site_occupancy
  Dy  Dy0  1  0.743562  0.930103  0.439272  1
  Dy  Dy1  1  0.930103  0.439272  0.743562  1
  Dy  Dy2  1  0.439272  0.743562  0.930103  1
  Dy  Dy3  1  0.256438  0.069897  0.560728  1
  Dy  Dy4  1  0.069897  0.560728  0.256438  1
  Dy  Dy5  1  0.560728  0.256438  0.069897  1
  Tm  Tm6  1  0.000000  0.000000  0.000000  1
  Sc  Sc7  1  0.500000  0.500000  0.500000  1
  O  O8  1  0.593026  0.464319  0.805781  1
  O  O9  1  0.464319  0.805781  0.593026  1
  O  O10  1  0.805781  0.593026  0.464319  1
  O  O11  1  0.406974  0.535681  0.194219  1
  O  O12  1  0.535681  0.194219  0.406974  1
  O  O13  1  0.194219  0.406974  0.535681  1
  O  O14  1  0.068906  0.908275  0.314702  1
  O  O15  1  0.908275  0.314702  0.068906  1
  O  O16  1  0.685298  0.931094  0.091725  1
  O  O17  1  0.091725  0.685298  0.931094  1
  O  O18  1  0.931094  0.091725  0.685298  1
  O  O19  1  0.314702  0.068906  0.908275  1
