# generated using pymatgen
data_Lu3Sc5Ga3Os
_symmetry_space_group_name_H-M   'P 1'
_cell_length_a   9.53625700
_cell_length_b   9.53625741
_cell_length_c   6.82170900
_cell_angle_alpha   90.00000000
_cell_angle_beta   90.00000000
_cell_angle_gamma   120.00000206
_symmetry_Int_Tables_number   1
_chemical_formula_structural   Lu3Sc5Ga3Os
_chemical_formula_sum   'Lu6 Sc10 Ga6 Os2'
_cell_volume   537.25408208
_cell_formula_units_Z   2
loop_
 _symmetry_equiv_pos_site_id
 _symmetry_equiv_pos_as_xyz
  1  'x, y, z'
loop_
 _atom_site_type_symbol
 _atom_site_label
 _atom_site_symmetry_multiplicity
 _atom_site_fract_x
 _atom_site_fract_y
 _atom_site_fract_z
 _atom_site_occupancy
  Lu  Lu0  1  0.469193  0.530807  0.292007  1
  Lu  Lu1  1  0.530807  0.469193  0.792007  1
  Lu  Lu2  1  0.469193  0.938386  0.292007  1
  Lu  Lu3  1  0.061614  0.530807  0.292007  1
  Lu  Lu4  1  0.938386  0.469193  0.792007  1
  Lu  Lu5  1  0.530807  0.061614  0.792007  1
  Sc  Sc6  1  0.000000  0.000000  0.266560  1
  Sc  Sc7  1  0.000000  0.000000  0.766560  1
  Sc  Sc8  1  0.169927  0.830073  0.991031  1
  Sc  Sc9  1  0.830073  0.169927  0.491031  1
  Sc  Sc10  1  0.169927  0.339855  0.991031  1
  Sc  Sc11  1  0.660145  0.830073  0.991031  1
  Sc  Sc12  1  0.339855  0.169927  0.491031  1
  Sc  Sc13  1  0.830073  0.660145  0.491031  1
  Sc  Sc14  1  0.333333  0.666667  0.659742  1
  Sc  Sc15  1  0.666667  0.333333  0.159742  1
  Ga  Ga16  1  0.163074  0.836926  0.551621  1
  Ga  Ga17  1  0.836926  0.163074  0.051621  1
  Ga  Ga18  1  0.163074  0.326146  0.551621  1
  Ga  Ga19  1  0.673854  0.836926  0.551621  1
  Ga  Ga20  1  0.326146  0.163074  0.051621  1
  Ga  Ga21  1  0.836926  0.673854  0.051621  1
  Os  Os22  1  0.333333  0.666667  0.042784  1
  Os  Os23  1  0.666667  0.333333  0.542784  1
