# generated using pymatgen
data_Er5Tm5In8(PtRh)2
_symmetry_space_group_name_H-M   'P 1'
_cell_length_a   3.59929900
_cell_length_b   8.07752551
_cell_length_c   18.07059237
_cell_angle_alpha   90.02411571
_cell_angle_beta   90.00000000
_cell_angle_gamma   90.00000000
_symmetry_Int_Tables_number   1
_chemical_formula_structural   Er5Tm5In8(PtRh)2
_chemical_formula_sum   'Er5 Tm5 In8 Pt2 Rh2'
_cell_volume   525.37404682
_cell_formula_units_Z   1
loop_
 _symmetry_equiv_pos_site_id
 _symmetry_equiv_pos_as_xyz
  1  'x, y, z'
loop_
 _atom_site_type_symbol
 _atom_site_label
 _atom_site_symmetry_multiplicity
 _atom_site_fract_x
 _atom_site_fract_y
 _atom_site_fract_z
 _atom_site_occupancy
  Er  Er0  1  0.000000  0.760837  0.778545  1
  Er  Er1  1  0.000000  0.252085  0.720663  1
  Er  Er2  1  0.000000  0.748099  0.279309  1
  Er  Er3  1  0.000000  0.000040  0.999998  1
  Er  Er4  1  0.000000  0.500017  0.500048  1
  Tm  Tm5  1  0.000000  0.115260  0.412415  1
  Tm  Tm6  1  0.000000  0.884805  0.587435  1
  Tm  Tm7  1  0.000000  0.383130  0.913301  1
  Tm  Tm8  1  0.000000  0.616680  0.086824  1
  Tm  Tm9  1  0.000000  0.239315  0.221570  1
  In  In10  1  0.500000  0.422368  0.351552  1
  In  In11  1  0.500000  0.577478  0.648320  1
  In  In12  1  0.500000  0.073308  0.850433  1
  In  In13  1  0.500000  0.927157  0.149606  1
  In  In14  1  0.500000  0.292635  0.066165  1
  In  In15  1  0.500000  0.707119  0.934033  1
  In  In16  1  0.500000  0.206227  0.567203  1
  In  In17  1  0.500000  0.793785  0.432779  1
  Pt  Pt18  1  0.500000  0.478132  0.804007  1
  Pt  Pt19  1  0.500000  0.520809  0.196075  1
  Rh  Rh20  1  0.500000  0.022927  0.304540  1
  Rh  Rh21  1  0.500000  0.977788  0.695178  1
