# generated using pymatgen
data_Hf2Sc6Ti9Si16Mo3
_symmetry_space_group_name_H-M   'P 1'
_cell_length_a   6.62157739
_cell_length_b   6.77247354
_cell_length_c   12.95184221
_cell_angle_alpha   89.95571824
_cell_angle_beta   89.87088605
_cell_angle_gamma   89.95432745
_symmetry_Int_Tables_number   1
_chemical_formula_structural   Hf2Sc6Ti9Si16Mo3
_chemical_formula_sum   'Hf2 Sc6 Ti9 Si16 Mo3'
_cell_volume   580.81650772
_cell_formula_units_Z   1
loop_
 _symmetry_equiv_pos_site_id
 _symmetry_equiv_pos_as_xyz
  1  'x, y, z'
loop_
 _atom_site_type_symbol
 _atom_site_label
 _atom_site_symmetry_multiplicity
 _atom_site_fract_x
 _atom_site_fract_y
 _atom_site_fract_z
 _atom_site_occupancy
  Hf  Hf0  1  0.499161  0.326193  0.404256  1
  Hf  Hf1  1  0.500851  0.675129  0.595124  1
  Sc  Sc2  1  0.999612  0.174147  0.096244  1
  Sc  Sc3  1  0.999296  0.826976  0.904649  1
  Sc  Sc4  1  0.500109  0.675121  0.904906  1
  Sc  Sc5  1  0.000681  0.826609  0.594596  1
  Sc  Sc6  1  0.499766  0.325805  0.096053  1
  Sc  Sc7  1  0.998155  0.174628  0.404346  1
  Ti  Ti8  1  0.162795  0.492020  0.749264  1
  Ti  Ti9  1  0.338904  0.172135  0.625925  1
  Ti  Ti10  1  0.662536  0.827202  0.374290  1
  Ti  Ti11  1  0.165796  0.670468  0.373667  1
  Ti  Ti12  1  0.665941  0.827931  0.127147  1
  Ti  Ti13  1  0.834995  0.327036  0.625923  1
  Ti  Ti14  1  0.337334  0.171336  0.872731  1
  Ti  Ti15  1  0.836046  0.326185  0.872879  1
  Ti  Ti16  1  0.165242  0.671802  0.127031  1
  Si  Si17  1  0.037236  0.116705  0.749182  1
  Si  Si18  1  0.963742  0.884550  0.250699  1
  Si  Si19  1  0.463258  0.615633  0.249728  1
  Si  Si20  1  0.537575  0.384378  0.750124  1
  Si  Si21  1  0.295312  0.861505  0.750016  1
  Si  Si22  1  0.703053  0.138152  0.249849  1
  Si  Si23  1  0.202126  0.361378  0.249886  1
  Si  Si24  1  0.797519  0.637796  0.749769  1
  Si  Si25  1  0.169506  0.463373  0.539394  1
  Si  Si26  1  0.830401  0.537084  0.460434  1
  Si  Si27  1  0.331130  0.963797  0.460184  1
  Si  Si28  1  0.833675  0.536517  0.040609  1
  Si  Si29  1  0.667408  0.036634  0.539984  1
  Si  Si30  1  0.166004  0.463691  0.960025  1
  Si  Si31  1  0.666239  0.036876  0.959416  1
  Si  Si32  1  0.332408  0.963164  0.040582  1
  Mo  Mo33  1  0.836618  0.508305  0.251140  1
  Mo  Mo34  1  0.338161  0.992785  0.251424  1
  Mo  Mo35  1  0.661411  0.006954  0.748524  1
