# generated using pymatgen
data_Zr10Si4Ge2O
_symmetry_space_group_name_H-M   'P 1'
_cell_length_a   8.01168704
_cell_length_b   8.00790609
_cell_length_c   5.59055503
_cell_angle_alpha   90.00587114
_cell_angle_beta   89.98825611
_cell_angle_gamma   120.01562406
_symmetry_Int_Tables_number   1
_chemical_formula_structural   Zr10Si4Ge2O
_chemical_formula_sum   'Zr10 Si4 Ge2 O1'
_cell_volume   310.57042801
_cell_formula_units_Z   1
loop_
 _symmetry_equiv_pos_site_id
 _symmetry_equiv_pos_as_xyz
  1  'x, y, z'
loop_
 _atom_site_type_symbol
 _atom_site_label
 _atom_site_symmetry_multiplicity
 _atom_site_fract_x
 _atom_site_fract_y
 _atom_site_fract_z
 _atom_site_occupancy
  Zr  Zr0  1  0.002994  0.757770  0.253732  1
  Zr  Zr1  1  0.245224  0.242230  0.253732  1
  Zr  Zr2  1  0.753339  0.000000  0.253868  1
  Zr  Zr3  1  0.000024  0.244399  0.746153  1
  Zr  Zr4  1  0.755625  0.755601  0.746153  1
  Zr  Zr5  1  0.245578  0.000000  0.746425  1
  Zr  Zr6  1  0.333736  0.668624  0.501410  1
  Zr  Zr7  1  0.665113  0.331376  0.501410  1
  Zr  Zr8  1  0.665179  0.331468  0.998544  1
  Zr  Zr9  1  0.333710  0.668532  0.998544  1
  Si  Si10  1  0.395628  0.000000  0.245339  1
  Si  Si11  1  0.999556  0.605368  0.754446  1
  Si  Si12  1  0.394188  0.394632  0.754446  1
  Si  Si13  1  0.605085  0.000000  0.754606  1
  Ge  Ge14  1  0.000366  0.395382  0.245724  1
  Ge  Ge15  1  0.604984  0.604618  0.245724  1
  O  O16  1  0.999670  0.000000  0.499741  1
