# generated using pymatgen
data_Lu12Mn2InFeBi
_symmetry_space_group_name_H-M   'P 1'
_cell_length_a   8.22035401
_cell_length_b   8.22035491
_cell_length_c   8.22035444
_cell_angle_alpha   108.96805148
_cell_angle_beta   108.17727086
_cell_angle_gamma   111.28460749
_symmetry_Int_Tables_number   1
_chemical_formula_structural   Lu12Mn2InFeBi
_chemical_formula_sum   'Lu12 Mn2 In1 Fe1 Bi1'
_cell_volume   427.26983350
_cell_formula_units_Z   1
loop_
 _symmetry_equiv_pos_site_id
 _symmetry_equiv_pos_as_xyz
  1  'x, y, z'
loop_
 _atom_site_type_symbol
 _atom_site_label
 _atom_site_symmetry_multiplicity
 _atom_site_fract_x
 _atom_site_fract_y
 _atom_site_fract_z
 _atom_site_occupancy
  Lu  Lu0  1  0.313649  0.304029  0.617678  1
  Lu  Lu1  1  0.686351  0.695971  0.382322  1
  Lu  Lu2  1  0.686351  0.304029  0.990381  1
  Lu  Lu3  1  0.313649  0.695971  0.009619  1
  Lu  Lu4  1  0.192355  0.423047  0.230692  1
  Lu  Lu5  1  0.807645  0.576953  0.769308  1
  Lu  Lu6  1  0.192355  0.961662  0.769308  1
  Lu  Lu7  1  0.953850  0.189328  0.764524  1
  Lu  Lu8  1  0.807645  0.038338  0.230692  1
  Lu  Lu9  1  0.046150  0.810672  0.235476  1
  Lu  Lu10  1  0.424804  0.189328  0.235476  1
  Lu  Lu11  1  0.575196  0.810672  0.764524  1
  Mn  Mn12  1  0.384429  0.384429  0.000000  1
  Mn  Mn13  1  0.615571  0.615571  0.000000  1
  In  In14  1  0.500000  0.000000  0.500000  1
  Fe  Fe15  1  0.000000  0.000000  0.000000  1
  Bi  Bi16  1  0.000000  0.500000  0.500000  1
