# generated using pymatgen
data_La6TbDy9(CdIr)4
_symmetry_space_group_name_H-M   'P 1'
_cell_length_a   9.83564900
_cell_length_b   9.83564944
_cell_length_c   9.83564902
_cell_angle_alpha   59.99380573
_cell_angle_beta   59.99380325
_cell_angle_gamma   59.99380136
_symmetry_Int_Tables_number   1
_chemical_formula_structural   La6TbDy9(CdIr)4
_chemical_formula_sum   'La6 Tb1 Dy9 Cd4 Ir4'
_cell_volume   672.71802867
_cell_formula_units_Z   1
loop_
 _symmetry_equiv_pos_site_id
 _symmetry_equiv_pos_as_xyz
  1  'x, y, z'
loop_
 _atom_site_type_symbol
 _atom_site_label
 _atom_site_symmetry_multiplicity
 _atom_site_fract_x
 _atom_site_fract_y
 _atom_site_fract_z
 _atom_site_occupancy
  La  La0  1  0.192781  0.807225  0.807225  1
  La  La1  1  0.807182  0.192797  0.192797  1
  La  La2  1  0.807225  0.192781  0.807225  1
  La  La3  1  0.192797  0.807182  0.192797  1
  La  La4  1  0.807225  0.807225  0.192781  1
  La  La5  1  0.192797  0.192797  0.807182  1
  Tb  Tb6  1  0.596559  0.596559  0.596559  1
  Dy  Dy7  1  0.596408  0.596408  0.210721  1
  Dy  Dy8  1  0.596408  0.210721  0.596408  1
  Dy  Dy9  1  0.210721  0.596408  0.596408  1
  Dy  Dy10  1  0.063341  0.436713  0.436713  1
  Dy  Dy11  1  0.436761  0.063258  0.063258  1
  Dy  Dy12  1  0.436713  0.063341  0.436713  1
  Dy  Dy13  1  0.063258  0.436761  0.063258  1
  Dy  Dy14  1  0.436713  0.436713  0.063341  1
  Dy  Dy15  1  0.063258  0.063258  0.436761  1
  Cd  Cd16  1  0.828720  0.828720  0.828720  1
  Cd  Cd17  1  0.828758  0.828758  0.513821  1
  Cd  Cd18  1  0.828758  0.513821  0.828758  1
  Cd  Cd19  1  0.513821  0.828758  0.828758  1
  Ir  Ir20  1  0.391072  0.391072  0.391072  1
  Ir  Ir21  1  0.390885  0.390885  0.826951  1
  Ir  Ir22  1  0.390885  0.826951  0.390885  1
  Ir  Ir23  1  0.826951  0.390885  0.390885  1
