# generated using pymatgen
data_Nd8Hf11Si16Mo
_symmetry_space_group_name_H-M   'P 1'
_cell_length_a   7.35819002
_cell_length_b   7.35818978
_cell_length_c   13.51934077
_cell_angle_alpha   89.89114316
_cell_angle_beta   90.10885520
_cell_angle_gamma   90.02636101
_symmetry_Int_Tables_number   1
_chemical_formula_structural   Nd8Hf11Si16Mo
_chemical_formula_sum   'Nd8 Hf11 Si16 Mo1'
_cell_volume   731.97438884
_cell_formula_units_Z   1
loop_
 _symmetry_equiv_pos_site_id
 _symmetry_equiv_pos_as_xyz
  1  'x, y, z'
loop_
 _atom_site_type_symbol
 _atom_site_label
 _atom_site_symmetry_multiplicity
 _atom_site_fract_x
 _atom_site_fract_y
 _atom_site_fract_z
 _atom_site_occupancy
  Nd  Nd0  1  0.997390  0.342350  0.212216  1
  Nd  Nd1  1  0.005894  0.657125  0.716734  1
  Nd  Nd2  1  0.158421  0.493132  0.465533  1
  Nd  Nd3  1  0.502996  0.844392  0.034005  1
  Nd  Nd4  1  0.844392  0.502996  0.965995  1
  Nd  Nd5  1  0.493132  0.158421  0.534467  1
  Nd  Nd6  1  0.342350  0.997390  0.787784  1
  Nd  Nd7  1  0.657125  0.005894  0.283266  1
  Hf  Hf8  1  0.825901  0.825901  0.500000  1
  Hf  Hf9  1  0.323706  0.674858  0.249045  1
  Hf  Hf10  1  0.674858  0.323706  0.750955  1
  Hf  Hf11  1  0.150112  0.995989  0.372749  1
  Hf  Hf12  1  0.851853  0.005534  0.876900  1
  Hf  Hf13  1  0.505576  0.650704  0.623975  1
  Hf  Hf14  1  0.346703  0.490463  0.879155  1
  Hf  Hf15  1  0.490463  0.346703  0.120845  1
  Hf  Hf16  1  0.650704  0.505576  0.376025  1
  Hf  Hf17  1  0.995989  0.150112  0.627251  1
  Hf  Hf18  1  0.005534  0.851853  0.123100  1
  Si  Si19  1  0.365903  0.297459  0.313158  1
  Si  Si20  1  0.633164  0.703047  0.815482  1
  Si  Si21  1  0.203475  0.865409  0.564642  1
  Si  Si22  1  0.134153  0.797599  0.935264  1
  Si  Si23  1  0.797599  0.134153  0.064736  1
  Si  Si24  1  0.865409  0.203475  0.435358  1
  Si  Si25  1  0.297459  0.365903  0.686842  1
  Si  Si26  1  0.703047  0.633164  0.184518  1
  Si  Si27  1  0.290924  0.051936  0.182528  1
  Si  Si28  1  0.707211  0.950800  0.686198  1
  Si  Si29  1  0.449749  0.792590  0.434873  1
  Si  Si30  1  0.206970  0.549631  0.064615  1
  Si  Si31  1  0.549631  0.206970  0.935385  1
  Si  Si32  1  0.792590  0.449749  0.565127  1
  Si  Si33  1  0.051936  0.290924  0.817472  1
  Si  Si34  1  0.950800  0.707211  0.313802  1
  Mo  Mo35  1  0.176880  0.176880  0.000000  1
