# generated using pymatgen
data_Y3HoAl24Pd7Au2
_symmetry_space_group_name_H-M   'P 1'
_cell_length_a   7.58099443
_cell_length_b   7.59965698
_cell_length_c   13.17337603
_cell_angle_alpha   84.53401882
_cell_angle_beta   78.98753850
_cell_angle_gamma   59.92815575
_symmetry_Int_Tables_number   1
_chemical_formula_structural   Y3HoAl24Pd7Au2
_chemical_formula_sum   'Y3 Ho1 Al24 Pd7 Au2'
_cell_volume   644.70518929
_cell_formula_units_Z   1
loop_
 _symmetry_equiv_pos_site_id
 _symmetry_equiv_pos_as_xyz
  1  'x, y, z'
loop_
 _atom_site_type_symbol
 _atom_site_label
 _atom_site_symmetry_multiplicity
 _atom_site_fract_x
 _atom_site_fract_y
 _atom_site_fract_z
 _atom_site_occupancy
  Y  Y0  1  0.392332  0.169565  0.809224  1
  Y  Y1  1  0.607689  0.830435  0.190772  1
  Y  Y2  1  0.733817  0.498608  0.809802  1
  Ho  Ho3  1  0.266173  0.501382  0.190261  1
  Al  Al4  1  0.682887  0.834550  0.944934  1
  Al  Al5  1  0.317086  0.165644  0.055192  1
  Al  Al6  1  0.145243  0.838848  0.562488  1
  Al  Al7  1  0.854767  0.161137  0.437504  1
  Al  Al8  1  0.487006  0.160121  0.559942  1
  Al  Al9  1  0.512983  0.839884  0.440049  1
  Al  Al10  1  0.223640  0.159954  0.325681  1
  Al  Al11  1  0.776403  0.840203  0.674219  1
  Al  Al12  1  0.439903  0.507144  0.674642  1
  Al  Al13  1  0.559936  0.492872  0.325250  1
  Al  Al14  1  0.108949  0.153649  0.672884  1
  Al  Al15  1  0.891243  0.846186  0.327013  1
  Al  Al16  1  0.353259  0.499079  0.944660  1
  Al  Al17  1  0.646436  0.500944  0.055593  1
  Al  Al18  1  0.015230  0.167269  0.954572  1
  Al  Al19  1  0.984904  0.832545  0.045554  1
  Al  Al20  1  0.195188  0.499736  0.436992  1
  Al  Al21  1  0.804846  0.500271  0.562902  1
  Al  Al22  1  0.731681  0.164320  0.183387  1
  Al  Al23  1  0.268065  0.835879  0.816618  1
  Al  Al24  1  0.060089  0.634880  0.818208  1
  Al  Al25  1  0.940100  0.365165  0.181796  1
  Al  Al26  1  0.853858  0.043190  0.816250  1
  Al  Al27  1  0.146185  0.956543  0.183754  1
  Pd  Pd28  1  0.656926  0.171795  0.999786  1
  Pd  Pd29  1  0.343058  0.828215  0.000243  1
  Pd  Pd30  1  0.537438  0.167118  0.362413  1
  Pd  Pd31  1  0.462497  0.832958  0.637524  1
  Pd  Pd32  1  0.779335  0.175435  0.636914  1
  Pd  Pd33  1  0.220705  0.824466  0.363015  1
  Pd  Pd34  1  0.999992  0.500010  0.000018  1
  Au  Au35  1  0.119803  0.491124  0.637833  1
  Au  Au36  1  0.880347  0.508880  0.362109  1
