# generated using pymatgen
data_Yb2FeSi14Ir5
_symmetry_space_group_name_H-M   'P 1'
_cell_length_a   7.95981166
_cell_length_b   7.95981126
_cell_length_c   7.95664929
_cell_angle_alpha   56.89280304
_cell_angle_beta   56.89279570
_cell_angle_gamma   57.01334899
_symmetry_Int_Tables_number   1
_chemical_formula_structural   Yb2FeSi14Ir5
_chemical_formula_sum   'Yb2 Fe1 Si14 Ir5'
_cell_volume   331.24992302
_cell_formula_units_Z   1
loop_
 _symmetry_equiv_pos_site_id
 _symmetry_equiv_pos_as_xyz
  1  'x, y, z'
loop_
 _atom_site_type_symbol
 _atom_site_label
 _atom_site_symmetry_multiplicity
 _atom_site_fract_x
 _atom_site_fract_y
 _atom_site_fract_z
 _atom_site_occupancy
  Yb  Yb0  1  0.500767  0.500529  0.498292  1
  Yb  Yb1  1  0.999471  0.999233  0.001708  1
  Fe  Fe2  1  0.928061  0.571939  0.250000  1
  Si  Si3  1  0.350781  0.171759  0.565660  1
  Si  Si4  1  0.567395  0.350219  0.172023  1
  Si  Si5  1  0.163252  0.566821  0.344369  1
  Si  Si6  1  0.063491  0.668950  0.862783  1
  Si  Si7  1  0.850683  0.067644  0.671956  1
  Si  Si8  1  0.680713  0.840250  0.074768  1
  Si  Si9  1  0.659750  0.819287  0.425232  1
  Si  Si10  1  0.432356  0.649317  0.828044  1
  Si  Si11  1  0.831050  0.436509  0.637217  1
  Si  Si12  1  0.933179  0.336748  0.155631  1
  Si  Si13  1  0.149781  0.932605  0.327977  1
  Si  Si14  1  0.328241  0.149219  0.934340  1
  Si  Si15  1  0.237479  0.262521  0.250000  1
  Si  Si16  1  0.750992  0.749008  0.750000  1
  Ir  Ir17  1  0.249676  0.928703  0.570728  1
  Ir  Ir18  1  0.571297  0.250324  0.929272  1
  Ir  Ir19  1  0.750869  0.070789  0.428275  1
  Ir  Ir20  1  0.429211  0.749131  0.071725  1
  Ir  Ir21  1  0.071506  0.428494  0.750000  1
