# generated using pymatgen
data_Y3Tm9Co5Pb
_symmetry_space_group_name_H-M   'P 1'
_cell_length_a   8.20269393
_cell_length_b   8.20269344
_cell_length_c   8.19918000
_cell_angle_alpha   110.96638420
_cell_angle_beta   110.71110423
_cell_angle_gamma   106.78782617
_symmetry_Int_Tables_number   1
_chemical_formula_structural   Y3Tm9Co5Pb
_chemical_formula_sum   'Y3 Tm9 Co5 Pb1'
_cell_volume   423.88274002
_cell_formula_units_Z   1
loop_
 _symmetry_equiv_pos_site_id
 _symmetry_equiv_pos_as_xyz
  1  'x, y, z'
loop_
 _atom_site_type_symbol
 _atom_site_label
 _atom_site_symmetry_multiplicity
 _atom_site_fract_x
 _atom_site_fract_y
 _atom_site_fract_z
 _atom_site_occupancy
  Y  Y0  1  0.288639  0.186423  0.475063  1
  Y  Y1  1  0.712022  0.814580  0.526603  1
  Y  Y2  1  0.288359  0.813127  0.101485  1
  Tm  Tm3  1  0.711833  0.185703  0.897538  1
  Tm  Tm4  1  0.621182  0.312794  0.306880  1
  Tm  Tm5  1  0.379294  0.687580  0.692533  1
  Tm  Tm6  1  0.004954  0.313238  0.692533  1
  Tm  Tm7  1  0.994086  0.685698  0.306880  1
  Tm  Tm8  1  0.208462  0.402331  0.192458  1
  Tm  Tm9  1  0.790122  0.595819  0.806439  1
  Tm  Tm10  1  0.210621  0.016317  0.806439  1
  Tm  Tm11  1  0.790125  0.983996  0.192458  1
  Co  Co12  1  0.999231  0.376198  0.375429  1
  Co  Co13  1  0.999772  0.623600  0.623372  1
  Co  Co14  1  0.388150  0.888601  0.502542  1
  Co  Co15  1  0.613941  0.114391  0.502542  1
  Co  Co16  1  0.998705  0.999891  0.998596  1
  Pb  Pb17  1  0.500500  0.499710  0.000210  1
