# generated using pymatgen
data_Ho2Al20RuRh3
_symmetry_space_group_name_H-M   'P 1'
_cell_length_a   6.84943896
_cell_length_b   6.84949015
_cell_length_c   9.15286978
_cell_angle_alpha   90.12212885
_cell_angle_beta   90.11077704
_cell_angle_gamma   97.21760394
_symmetry_Int_Tables_number   1
_chemical_formula_structural   Ho2Al20RuRh3
_chemical_formula_sum   'Ho2 Al20 Ru1 Rh3'
_cell_volume   426.00380667
_cell_formula_units_Z   1
loop_
 _symmetry_equiv_pos_site_id
 _symmetry_equiv_pos_as_xyz
  1  'x, y, z'
loop_
 _atom_site_type_symbol
 _atom_site_label
 _atom_site_symmetry_multiplicity
 _atom_site_fract_x
 _atom_site_fract_y
 _atom_site_fract_z
 _atom_site_occupancy
  Ho  Ho0  1  0.868752  0.128094  0.749927  1
  Ho  Ho1  1  0.131248  0.871906  0.250073  1
  Al  Al2  1  0.621524  0.375595  0.548385  1
  Al  Al3  1  0.378476  0.624405  0.451615  1
  Al  Al4  1  0.377851  0.622775  0.049857  1
  Al  Al5  1  0.622149  0.377225  0.950143  1
  Al  Al6  1  0.221947  0.220529  0.499166  1
  Al  Al7  1  0.778053  0.779471  0.500834  1
  Al  Al8  1  0.777211  0.777496  0.000053  1
  Al  Al9  1  0.222789  0.222504  0.999947  1
  Al  Al10  1  0.846134  0.154497  0.103275  1
  Al  Al11  1  0.153866  0.845503  0.896725  1
  Al  Al12  1  0.154926  0.846746  0.602101  1
  Al  Al13  1  0.845074  0.153254  0.397899  1
  Al  Al14  1  0.856831  0.589394  0.749442  1
  Al  Al15  1  0.143169  0.410606  0.250558  1
  Al  Al16  1  0.410870  0.142445  0.749055  1
  Al  Al17  1  0.589130  0.857555  0.250945  1
  Al  Al18  1  0.225668  0.480326  0.749972  1
  Al  Al19  1  0.774332  0.519674  0.250028  1
  Al  Al20  1  0.519189  0.775869  0.746979  1
  Al  Al21  1  0.480811  0.224131  0.253021  1
  Ru  Ru22  1  0.500000  0.000000  0.500000  1
  Rh  Rh23  1  0.000000  0.500000  0.500000  1
  Rh  Rh24  1  0.000000  0.500000  0.000000  1
  Rh  Rh25  1  0.500000  0.000000  0.000000  1
