# generated using pymatgen
data_Pr5GaOsO12
_symmetry_space_group_name_H-M   'P 1'
_cell_length_a   7.11068201
_cell_length_b   7.11068150
_cell_length_c   7.66397500
_cell_angle_alpha   74.48674590
_cell_angle_beta   74.48674703
_cell_angle_gamma   51.02437231
_symmetry_Int_Tables_number   1
_chemical_formula_structural   Pr5GaOsO12
_chemical_formula_sum   'Pr5 Ga1 Os1 O12'
_cell_volume   287.71800292
_cell_formula_units_Z   1
loop_
 _symmetry_equiv_pos_site_id
 _symmetry_equiv_pos_as_xyz
  1  'x, y, z'
loop_
 _atom_site_type_symbol
 _atom_site_label
 _atom_site_symmetry_multiplicity
 _atom_site_fract_x
 _atom_site_fract_y
 _atom_site_fract_z
 _atom_site_occupancy
  Pr  Pr0  1  0.314213  0.297779  0.357976  1
  Pr  Pr1  1  0.702221  0.685787  0.642024  1
  Pr  Pr2  1  0.693550  0.694974  0.165463  1
  Pr  Pr3  1  0.305026  0.306450  0.834537  1
  Pr  Pr4  1  0.006883  0.993117  0.500000  1
  Ga  Ga5  1  0.753853  0.246147  0.000000  1
  Os  Os6  1  0.239083  0.760917  0.000000  1
  O  O7  1  0.099072  0.593662  0.576522  1
  O  O8  1  0.008922  0.989460  0.173683  1
  O  O9  1  0.406338  0.900928  0.423478  1
  O  O10  1  0.482093  0.519992  0.173690  1
  O  O11  1  0.101782  0.585249  0.077785  1
  O  O12  1  0.909089  0.400924  0.420391  1
  O  O13  1  0.010540  0.991078  0.826317  1
  O  O14  1  0.599076  0.090910  0.579609  1
  O  O15  1  0.480008  0.517907  0.826310  1
  O  O16  1  0.578866  0.105366  0.077308  1
  O  O17  1  0.414751  0.898218  0.922215  1
  O  O18  1  0.894634  0.421134  0.922692  1
