# generated using pymatgen
data_Yb2VPO7
_symmetry_space_group_name_H-M   'P 1'
_cell_length_a   4.78157567
_cell_length_b   5.71995461
_cell_length_c   11.13610100
_cell_angle_alpha   90.00000000
_cell_angle_beta   90.00000000
_cell_angle_gamma   96.35811072
_symmetry_Int_Tables_number   1
_chemical_formula_structural   Yb2VPO7
_chemical_formula_sum   'Yb4 V2 P2 O14'
_cell_volume   302.70336370
_cell_formula_units_Z   2
loop_
 _symmetry_equiv_pos_site_id
 _symmetry_equiv_pos_as_xyz
  1  'x, y, z'
loop_
 _atom_site_type_symbol
 _atom_site_label
 _atom_site_symmetry_multiplicity
 _atom_site_fract_x
 _atom_site_fract_y
 _atom_site_fract_z
 _atom_site_occupancy
  Yb  Yb0  1  0.102208  0.910027  0.648369  1
  Yb  Yb1  1  0.897792  0.589973  0.148369  1
  Yb  Yb2  1  0.877090  0.095901  0.346113  1
  Yb  Yb3  1  0.122910  0.404099  0.846113  1
  V  V4  1  0.639755  0.856210  0.890464  1
  V  V5  1  0.360245  0.643790  0.390464  1
  P  P6  1  0.349032  0.154014  0.115758  1
  P  P7  1  0.650968  0.345986  0.615758  1
  O  O8  1  0.891597  0.039404  0.817273  1
  O  O9  1  0.108403  0.460596  0.317273  1
  O  O10  1  0.129274  0.978024  0.178648  1
  O  O11  1  0.870726  0.521976  0.678648  1
  O  O12  1  0.794712  0.622590  0.947624  1
  O  O13  1  0.205288  0.877410  0.447624  1
  O  O14  1  0.211731  0.354076  0.052970  1
  O  O15  1  0.788269  0.145924  0.552970  1
  O  O16  1  0.483960  0.010575  0.011307  1
  O  O17  1  0.516040  0.489425  0.511307  1
  O  O18  1  0.377501  0.751119  0.793945  1
  O  O19  1  0.622499  0.748881  0.293945  1
  O  O20  1  0.594636  0.250462  0.197527  1
  O  O21  1  0.405364  0.249538  0.697527  1
