# generated using pymatgen
data_Nd6EuZnBr12
_symmetry_space_group_name_H-M   'P 1'
_cell_length_a   9.53415881
_cell_length_b   9.53415791
_cell_length_c   9.53415900
_cell_angle_alpha   106.47093827
_cell_angle_beta   106.47093668
_cell_angle_gamma   106.47094590
_symmetry_Int_Tables_number   1
_chemical_formula_structural   Nd6EuZnBr12
_chemical_formula_sum   'Nd6 Eu1 Zn1 Br12'
_cell_volume   731.92680661
_cell_formula_units_Z   1
loop_
 _symmetry_equiv_pos_site_id
 _symmetry_equiv_pos_as_xyz
  1  'x, y, z'
loop_
 _atom_site_type_symbol
 _atom_site_label
 _atom_site_symmetry_multiplicity
 _atom_site_fract_x
 _atom_site_fract_y
 _atom_site_fract_z
 _atom_site_occupancy
  Nd  Nd0  1  0.896218  0.979531  0.679003  1
  Nd  Nd1  1  0.679003  0.896218  0.979531  1
  Nd  Nd2  1  0.979531  0.679003  0.896218  1
  Nd  Nd3  1  0.103782  0.020469  0.320997  1
  Nd  Nd4  1  0.320997  0.103782  0.020469  1
  Nd  Nd5  1  0.020469  0.320997  0.103782  1
  Eu  Eu6  1  0.500000  0.500000  0.500000  1
  Zn  Zn7  1  0.000000  0.000000  0.000000  1
  Br  Br8  1  0.925375  0.318024  0.775435  1
  Br  Br9  1  0.775435  0.925375  0.318024  1
  Br  Br10  1  0.318024  0.775435  0.925375  1
  Br  Br11  1  0.074625  0.681976  0.224565  1
  Br  Br12  1  0.224565  0.074625  0.681976  1
  Br  Br13  1  0.681976  0.224565  0.074625  1
  Br  Br14  1  0.549716  0.849149  0.631990  1
  Br  Br15  1  0.631990  0.549716  0.849149  1
  Br  Br16  1  0.849149  0.631990  0.549716  1
  Br  Br17  1  0.450284  0.150851  0.368010  1
  Br  Br18  1  0.368010  0.450284  0.150851  1
  Br  Br19  1  0.150851  0.368010  0.450284  1
