# generated using pymatgen
data_DyU2Sn3Ir2Rh
_symmetry_space_group_name_H-M   'P 1'
_cell_length_a   7.50235596
_cell_length_b   7.34960734
_cell_length_c   3.99349500
_cell_angle_alpha   90.00000000
_cell_angle_beta   90.00000000
_cell_angle_gamma   119.32874191
_symmetry_Int_Tables_number   1
_chemical_formula_structural   DyU2Sn3Ir2Rh
_chemical_formula_sum   'Dy1 U2 Sn3 Ir2 Rh1'
_cell_volume   191.97452578
_cell_formula_units_Z   1
loop_
 _symmetry_equiv_pos_site_id
 _symmetry_equiv_pos_as_xyz
  1  'x, y, z'
loop_
 _atom_site_type_symbol
 _atom_site_label
 _atom_site_symmetry_multiplicity
 _atom_site_fract_x
 _atom_site_fract_y
 _atom_site_fract_z
 _atom_site_occupancy
  Dy  Dy0  1  0.000000  0.589062  0.500000  1
  U  U1  1  0.418134  0.416961  0.500000  1
  U  U2  1  0.581866  0.998827  0.500000  1
  Sn  Sn3  1  0.754191  0.746740  0.000000  1
  Sn  Sn4  1  0.245809  0.992549  0.000000  1
  Sn  Sn5  1  0.000000  0.261701  0.000000  1
  Ir  Ir6  1  0.647118  0.316361  0.000000  1
  Ir  Ir7  1  0.352882  0.669244  0.000000  1
  Rh  Rh8  1  0.000000  0.008554  0.500000  1
