# generated using pymatgen
data_Dy3Ho2Co2Ag
_symmetry_space_group_name_H-M   'P 1'
_cell_length_a   8.50825237
_cell_length_b   8.50363805
_cell_length_c   8.50825336
_cell_angle_alpha   127.44897957
_cell_angle_beta   127.46449971
_cell_angle_gamma   77.51923015
_symmetry_Int_Tables_number   1
_chemical_formula_structural   Dy3Ho2Co2Ag
_chemical_formula_sum   'Dy6 Ho4 Co4 Ag2'
_cell_volume   376.17814291
_cell_formula_units_Z   2
loop_
 _symmetry_equiv_pos_site_id
 _symmetry_equiv_pos_as_xyz
  1  'x, y, z'
loop_
 _atom_site_type_symbol
 _atom_site_label
 _atom_site_symmetry_multiplicity
 _atom_site_fract_x
 _atom_site_fract_y
 _atom_site_fract_z
 _atom_site_occupancy
  Dy  Dy0  1  0.706282  0.528739  0.499981  1
  Dy  Dy1  1  0.471241  0.971261  0.177542  1
  Dy  Dy2  1  0.794042  0.294050  0.822679  1
  Dy  Dy3  1  0.528303  0.028355  0.821976  1
  Dy  Dy4  1  0.028630  0.205950  0.499992  1
  Dy  Dy5  1  0.293621  0.471645  0.499948  1
  Ho  Ho6  1  0.000091  0.999792  0.999877  1
  Ho  Ho7  1  0.206240  0.706330  0.177556  1
  Ho  Ho8  1  0.971225  0.793670  0.499910  1
  Ho  Ho9  1  0.500085  0.500208  0.000298  1
  Co  Co10  1  0.135768  0.635920  0.771599  1
  Co  Co11  1  0.864338  0.364483  0.228716  1
  Co  Co12  1  0.635680  0.864080  0.499848  1
  Co  Co13  1  0.364232  0.135517  0.499855  1
  Ag  Ag14  1  0.249811  0.250000  0.999811  1
  Ag  Ag15  1  0.750412  0.750000  0.000412  1
