# generated using pymatgen
data_CaCeAl20Fe3Ru
_symmetry_space_group_name_H-M   'P 1'
_cell_length_a   6.81113500
_cell_length_b   6.81799081
_cell_length_c   9.04321739
_cell_angle_alpha   89.81887833
_cell_angle_beta   90.02998971
_cell_angle_gamma   97.30755469
_symmetry_Int_Tables_number   1
_chemical_formula_structural   CaCeAl20Fe3Ru
_chemical_formula_sum   'Ca1 Ce1 Al20 Fe3 Ru1'
_cell_volume   416.53818052
_cell_formula_units_Z   1
loop_
 _symmetry_equiv_pos_site_id
 _symmetry_equiv_pos_as_xyz
  1  'x, y, z'
loop_
 _atom_site_type_symbol
 _atom_site_label
 _atom_site_symmetry_multiplicity
 _atom_site_fract_x
 _atom_site_fract_y
 _atom_site_fract_z
 _atom_site_occupancy
  Ca  Ca0  1  0.876112  0.123859  0.750798  1
  Ce  Ce1  1  0.124535  0.877195  0.248010  1
  Al  Al2  1  0.587248  0.866970  0.249279  1
  Al  Al3  1  0.778941  0.521307  0.246979  1
  Al  Al4  1  0.162211  0.838087  0.901843  1
  Al  Al5  1  0.414665  0.134524  0.750886  1
  Al  Al6  1  0.624045  0.374828  0.957266  1
  Al  Al7  1  0.839498  0.153810  0.401285  1
  Al  Al8  1  0.771523  0.774436  0.000078  1
  Al  Al9  1  0.863151  0.587771  0.754235  1
  Al  Al10  1  0.841963  0.158026  0.097222  1
  Al  Al11  1  0.219689  0.476402  0.753022  1
  Al  Al12  1  0.164827  0.842182  0.599474  1
  Al  Al13  1  0.769532  0.777305  0.502115  1
  Al  Al14  1  0.479434  0.219728  0.249341  1
  Al  Al15  1  0.620782  0.372938  0.543567  1
  Al  Al16  1  0.229161  0.224266  0.499071  1
  Al  Al17  1  0.378920  0.626001  0.445982  1
  Al  Al18  1  0.135058  0.410801  0.246206  1
  Al  Al19  1  0.523170  0.781950  0.750778  1
  Al  Al20  1  0.376476  0.624838  0.052783  1
  Al  Al21  1  0.226844  0.227380  0.998385  1
  Fe  Fe22  1  0.496017  0.999810  0.001068  1
  Fe  Fe23  1  0.496235  0.999655  0.499184  1
  Fe  Fe24  1  0.000250  0.504158  0.000801  1
  Ru  Ru25  1  0.999715  0.501774  0.500342  1
