# generated using pymatgen
data_Sr11Ca(Ga3Ir2)4
_symmetry_space_group_name_H-M   'P 1'
_cell_length_a   6.10343621
_cell_length_b   8.36550035
_cell_length_c   15.30272300
_cell_angle_alpha   90.00000000
_cell_angle_beta   90.00000000
_cell_angle_gamma   90.03147693
_symmetry_Int_Tables_number   1
_chemical_formula_structural   Sr11Ca(Ga3Ir2)4
_chemical_formula_sum   'Sr11 Ca1 Ga12 Ir8'
_cell_volume   781.33086898
_cell_formula_units_Z   1
loop_
 _symmetry_equiv_pos_site_id
 _symmetry_equiv_pos_as_xyz
  1  'x, y, z'
loop_
 _atom_site_type_symbol
 _atom_site_label
 _atom_site_symmetry_multiplicity
 _atom_site_fract_x
 _atom_site_fract_y
 _atom_site_fract_z
 _atom_site_occupancy
  Sr  Sr0  1  0.884128  0.456509  0.105996  1
  Sr  Sr1  1  0.384608  0.042724  0.891340  1
  Sr  Sr2  1  0.615969  0.954188  0.393188  1
  Sr  Sr3  1  0.116955  0.546082  0.607410  1
  Sr  Sr4  1  0.116955  0.546082  0.892590  1
  Sr  Sr5  1  0.615969  0.954188  0.106812  1
  Sr  Sr6  1  0.384608  0.042724  0.608660  1
  Sr  Sr7  1  0.884128  0.456509  0.394004  1
  Sr  Sr8  1  0.386961  0.300126  0.250000  1
  Sr  Sr9  1  0.885093  0.199859  0.750000  1
  Sr  Sr10  1  0.114854  0.798680  0.250000  1
  Ca  Ca11  1  0.626902  0.695066  0.750000  1
  Ga  Ga12  1  0.937866  0.146857  0.250000  1
  Ga  Ga13  1  0.440356  0.361138  0.750000  1
  Ga  Ga14  1  0.565025  0.646902  0.250000  1
  Ga  Ga15  1  0.056551  0.849521  0.750000  1
  Ga  Ga16  1  0.373242  0.327472  0.039151  1
  Ga  Ga17  1  0.871024  0.172832  0.960218  1
  Ga  Ga18  1  0.127001  0.827575  0.461456  1
  Ga  Ga19  1  0.624442  0.672944  0.542565  1
  Ga  Ga20  1  0.624442  0.672944  0.957435  1
  Ga  Ga21  1  0.127001  0.827575  0.038544  1
  Ga  Ga22  1  0.871024  0.172832  0.539782  1
  Ga  Ga23  1  0.373242  0.327472  0.460849  1
  Ir  Ir24  1  0.106288  0.115671  0.095429  1
  Ir  Ir25  1  0.607577  0.385784  0.902075  1
  Ir  Ir26  1  0.392783  0.615271  0.404201  1
  Ir  Ir27  1  0.889179  0.883875  0.597349  1
  Ir  Ir28  1  0.889179  0.883875  0.902651  1
  Ir  Ir29  1  0.392783  0.615271  0.095799  1
  Ir  Ir30  1  0.607577  0.385784  0.597925  1
  Ir  Ir31  1  0.106288  0.115671  0.404571  1
