# generated using pymatgen
data_Tb2BeRu2
_symmetry_space_group_name_H-M   'P 1'
_cell_length_a   5.56165648
_cell_length_b   5.56165571
_cell_length_c   5.56165566
_cell_angle_alpha   143.64452985
_cell_angle_beta   111.91894246
_cell_angle_gamma   79.70890582
_symmetry_Int_Tables_number   1
_chemical_formula_structural   Tb2BeRu2
_chemical_formula_sum   'Tb2 Be1 Ru2'
_cell_volume   92.25147140
_cell_formula_units_Z   1
loop_
 _symmetry_equiv_pos_site_id
 _symmetry_equiv_pos_as_xyz
  1  'x, y, z'
loop_
 _atom_site_type_symbol
 _atom_site_label
 _atom_site_symmetry_multiplicity
 _atom_site_fract_x
 _atom_site_fract_y
 _atom_site_fract_z
 _atom_site_occupancy
  Tb  Tb0  1  0.702642  0.202643  0.499999  1
  Tb  Tb1  1  0.297357  0.797358  0.500001  1
  Be  Be2  1  0.000000  0.000000  0.000000  1
  Ru  Ru3  1  0.756160  0.500000  0.256160  1
  Ru  Ru4  1  0.243839  0.500001  0.743840  1
