# generated using pymatgen
data_Ta5Ti4Nb(Ge3B)2
_symmetry_space_group_name_H-M   'P 1'
_cell_length_a   7.71811937
_cell_length_b   7.71811918
_cell_length_c   5.24261500
_cell_angle_alpha   90.00000000
_cell_angle_beta   90.00000000
_cell_angle_gamma   119.96457427
_symmetry_Int_Tables_number   1
_chemical_formula_structural   Ta5Ti4Nb(Ge3B)2
_chemical_formula_sum   'Ta5 Ti4 Nb1 Ge6 B2'
_cell_volume   270.55557659
_cell_formula_units_Z   1
loop_
 _symmetry_equiv_pos_site_id
 _symmetry_equiv_pos_as_xyz
  1  'x, y, z'
loop_
 _atom_site_type_symbol
 _atom_site_label
 _atom_site_symmetry_multiplicity
 _atom_site_fract_x
 _atom_site_fract_y
 _atom_site_fract_z
 _atom_site_occupancy
  Ta  Ta0  1  0.243532  0.000080  0.250000  1
  Ta  Ta1  1  0.000080  0.243532  0.250000  1
  Ta  Ta2  1  0.243662  0.243662  0.750000  1
  Ta  Ta3  1  0.756544  0.000205  0.750000  1
  Ta  Ta4  1  0.000205  0.756544  0.750000  1
  Ti  Ti5  1  0.666565  0.333184  0.500107  1
  Ti  Ti6  1  0.333184  0.666565  0.500107  1
  Ti  Ti7  1  0.333184  0.666565  0.999893  1
  Ti  Ti8  1  0.666565  0.333184  0.999893  1
  Nb  Nb9  1  0.755908  0.755908  0.250000  1
  Ge  Ge10  1  0.404425  0.404425  0.250000  1
  Ge  Ge11  1  0.595631  0.000027  0.250000  1
  Ge  Ge12  1  0.000027  0.595631  0.250000  1
  Ge  Ge13  1  0.595640  0.595640  0.750000  1
  Ge  Ge14  1  0.404475  0.000089  0.750000  1
  Ge  Ge15  1  0.000089  0.404475  0.750000  1
  B  B16  1  0.000142  0.000142  0.500031  1
  B  B17  1  0.000142  0.000142  0.999969  1
