# generated using pymatgen
data_AcErAs2PdPt
_symmetry_space_group_name_H-M   'P 1'
_cell_length_a   4.36998500
_cell_length_b   4.36998386
_cell_length_c   16.14956900
_cell_angle_alpha   90.00000000
_cell_angle_beta   90.00000000
_cell_angle_gamma   120.00000104
_symmetry_Int_Tables_number   1
_chemical_formula_structural   AcErAs2PdPt
_chemical_formula_sum   'Ac2 Er2 As4 Pd2 Pt2'
_cell_volume   267.08613473
_cell_formula_units_Z   2
loop_
 _symmetry_equiv_pos_site_id
 _symmetry_equiv_pos_as_xyz
  1  'x, y, z'
loop_
 _atom_site_type_symbol
 _atom_site_label
 _atom_site_symmetry_multiplicity
 _atom_site_fract_x
 _atom_site_fract_y
 _atom_site_fract_z
 _atom_site_occupancy
  Ac  Ac0  1  0.000000  0.000000  0.500000  1
  Ac  Ac1  1  0.000000  0.000000  0.000000  1
  Er  Er2  1  0.000000  0.000000  0.249820  1
  Er  Er3  1  0.000000  0.000000  0.750180  1
  As  As4  1  0.333333  0.666667  0.873159  1
  As  As5  1  0.666667  0.333333  0.126841  1
  As  As6  1  0.666667  0.333333  0.373357  1
  As  As7  1  0.333333  0.666667  0.626643  1
  Pd  Pd8  1  0.333333  0.666667  0.351763  1
  Pd  Pd9  1  0.666667  0.333333  0.648237  1
  Pt  Pt10  1  0.666667  0.333333  0.851687  1
  Pt  Pt11  1  0.333333  0.666667  0.148313  1
