# generated using pymatgen
data_Li12SmGdHo2(BO3)8
_symmetry_space_group_name_H-M   'P 1'
_cell_length_a   6.46193642
_cell_length_b   8.74870940
_cell_length_c   9.94285016
_cell_angle_alpha   114.80209961
_cell_angle_beta   90.04143744
_cell_angle_gamma   90.03877104
_symmetry_Int_Tables_number   1
_chemical_formula_structural   Li12SmGdHo2(BO3)8
_chemical_formula_sum   'Li12 Sm1 Gd1 Ho2 B8 O24'
_cell_volume   510.25732747
_cell_formula_units_Z   1
loop_
 _symmetry_equiv_pos_site_id
 _symmetry_equiv_pos_as_xyz
  1  'x, y, z'
loop_
 _atom_site_type_symbol
 _atom_site_label
 _atom_site_symmetry_multiplicity
 _atom_site_fract_x
 _atom_site_fract_y
 _atom_site_fract_z
 _atom_site_occupancy
  Li  Li0  1  0.438073  0.038296  0.334706  1
  Li  Li1  1  0.743680  0.127683  0.522888  1
  Li  Li2  1  0.755282  0.625622  0.020497  1
  Li  Li3  1  0.244060  0.373041  0.977705  1
  Li  Li4  1  0.220012  0.296185  0.459710  1
  Li  Li5  1  0.937826  0.461936  0.166043  1
  Li  Li6  1  0.561275  0.961348  0.666650  1
  Li  Li7  1  0.780888  0.704486  0.541851  1
  Li  Li8  1  0.255687  0.873247  0.479303  1
  Li  Li9  1  0.719727  0.205093  0.040463  1
  Li  Li10  1  0.281572  0.795056  0.957681  1
  Li  Li11  1  0.061540  0.538150  0.833281  1
  Sm  Sm12  1  0.973346  0.018131  0.199233  1
  Gd  Gd13  1  0.472747  0.482922  0.300805  1
  Ho  Ho14  1  0.027269  0.983146  0.799285  1
  Ho  Ho15  1  0.527060  0.516901  0.700202  1
  B  B16  1  0.337308  0.219318  0.678647  1
  B  B17  1  0.327909  0.158913  0.105041  1
  B  B18  1  0.661853  0.782739  0.323264  1
  B  B19  1  0.163622  0.716485  0.177129  1
  B  B20  1  0.827166  0.341887  0.395210  1
  B  B21  1  0.672431  0.838300  0.889157  1
  B  B22  1  0.837306  0.280723  0.821353  1
  B  B23  1  0.172587  0.661552  0.610084  1
  O  O24  1  0.287179  0.071710  0.690536  1
  O  O25  1  0.559493  0.783534  0.448304  1
  O  O26  1  0.213551  0.023948  0.008462  1
  O  O27  1  0.707497  0.931399  0.312914  1
  O  O28  1  0.179376  0.701167  0.760684  1
  O  O29  1  0.786821  0.428158  0.809359  1
  O  O30  1  0.441284  0.217178  0.553505  1
  O  O31  1  0.294038  0.379925  0.787796  1
  O  O32  1  0.061088  0.714728  0.051639  1
  O  O33  1  0.941651  0.283137  0.946544  1
  O  O34  1  0.711111  0.476172  0.490261  1
  O  O35  1  0.786926  0.975906  0.981748  1
  O  O36  1  0.565191  0.733610  0.936300  1
  O  O37  1  0.208589  0.568005  0.188291  1
  O  O38  1  0.211410  0.875125  0.287500  1
  O  O39  1  0.064445  0.766437  0.563680  1
  O  O40  1  0.678724  0.797675  0.738442  1
  O  O41  1  0.437182  0.264362  0.060451  1
  O  O42  1  0.819118  0.304429  0.244054  1
  O  O43  1  0.709063  0.623939  0.212703  1
  O  O44  1  0.793935  0.119942  0.712191  1
  O  O45  1  0.287469  0.524840  0.516851  1
  O  O46  1  0.936509  0.238006  0.441619  1
  O  O47  1  0.318132  0.195504  0.255976  1
