# generated using pymatgen
data_Y8Sc12Si15Ni
_symmetry_space_group_name_H-M   'P 1'
_cell_length_a   7.05952604
_cell_length_b   7.43604290
_cell_length_c   13.94260100
_cell_angle_alpha   90.00000000
_cell_angle_beta   90.00000000
_cell_angle_gamma   89.96510135
_symmetry_Int_Tables_number   1
_chemical_formula_structural   Y8Sc12Si15Ni
_chemical_formula_sum   'Y8 Sc12 Si15 Ni1'
_cell_volume   731.91584588
_cell_formula_units_Z   1
loop_
 _symmetry_equiv_pos_site_id
 _symmetry_equiv_pos_as_xyz
  1  'x, y, z'
loop_
 _atom_site_type_symbol
 _atom_site_label
 _atom_site_symmetry_multiplicity
 _atom_site_fract_x
 _atom_site_fract_y
 _atom_site_fract_z
 _atom_site_occupancy
  Y  Y0  1  0.010996  0.178076  0.096154  1
  Y  Y1  1  0.989482  0.823596  0.904842  1
  Y  Y2  1  0.489610  0.677426  0.904056  1
  Y  Y3  1  0.989482  0.823596  0.595158  1
  Y  Y4  1  0.511020  0.323082  0.095816  1
  Y  Y5  1  0.010996  0.178076  0.403846  1
  Y  Y6  1  0.511020  0.323082  0.404184  1
  Y  Y7  1  0.489610  0.677426  0.595944  1
  Sc  Sc8  1  0.163112  0.507145  0.750000  1
  Sc  Sc9  1  0.838988  0.498564  0.250000  1
  Sc  Sc10  1  0.338961  0.004563  0.250000  1
  Sc  Sc11  1  0.670555  0.999981  0.750000  1
  Sc  Sc12  1  0.316213  0.172451  0.627889  1
  Sc  Sc13  1  0.671395  0.826320  0.374307  1
  Sc  Sc14  1  0.170610  0.677122  0.374000  1
  Sc  Sc15  1  0.671395  0.826320  0.125693  1
  Sc  Sc16  1  0.836791  0.319082  0.628010  1
  Sc  Sc17  1  0.316213  0.172451  0.872111  1
  Sc  Sc18  1  0.836791  0.319082  0.871990  1
  Sc  Sc19  1  0.170610  0.677122  0.126000  1
  Si  Si20  1  0.968835  0.884591  0.250000  1
  Si  Si21  1  0.469360  0.616360  0.250000  1
  Si  Si22  1  0.532748  0.384291  0.750000  1
  Si  Si23  1  0.282120  0.874583  0.750000  1
  Si  Si24  1  0.713075  0.129959  0.250000  1
  Si  Si25  1  0.213044  0.372873  0.250000  1
  Si  Si26  1  0.782685  0.624177  0.750000  1
  Si  Si27  1  0.158801  0.466005  0.538624  1
  Si  Si28  1  0.842183  0.535749  0.462273  1
  Si  Si29  1  0.343996  0.964971  0.461327  1
  Si  Si30  1  0.842183  0.535749  0.037727  1
  Si  Si31  1  0.656751  0.035308  0.540270  1
  Si  Si32  1  0.158801  0.466005  0.961376  1
  Si  Si33  1  0.656751  0.035308  0.959730  1
  Si  Si34  1  0.343996  0.964971  0.038673  1
  Ni  Ni35  1  0.030825  0.104537  0.750000  1
