# generated using pymatgen
data_PrTmCo3P7Ru9
_symmetry_space_group_name_H-M   'P 1'
_cell_length_a   9.36600300
_cell_length_b   9.36600179
_cell_length_c   3.83940400
_cell_angle_alpha   90.00000000
_cell_angle_beta   90.00000000
_cell_angle_gamma   119.99999979
_symmetry_Int_Tables_number   1
_chemical_formula_structural   PrTmCo3P7Ru9
_chemical_formula_sum   'Pr1 Tm1 Co3 P7 Ru9'
_cell_volume   291.67753071
_cell_formula_units_Z   1
loop_
 _symmetry_equiv_pos_site_id
 _symmetry_equiv_pos_as_xyz
  1  'x, y, z'
loop_
 _atom_site_type_symbol
 _atom_site_label
 _atom_site_symmetry_multiplicity
 _atom_site_fract_x
 _atom_site_fract_y
 _atom_site_fract_z
 _atom_site_occupancy
  Pr  Pr0  1  0.666667  0.333333  0.000000  1
  Tm  Tm1  1  0.000000  0.000000  0.500000  1
  Co  Co2  1  0.491615  0.935210  0.000000  1
  Co  Co3  1  0.064790  0.556405  0.000000  1
  Co  Co4  1  0.443595  0.508385  0.000000  1
  P  P5  1  0.333333  0.666667  0.000000  1
  P  P6  1  0.445869  0.062222  0.500000  1
  P  P7  1  0.937778  0.383647  0.500000  1
  P  P8  1  0.616353  0.554131  0.500000  1
  P  P9  1  0.747357  0.970866  0.000000  1
  P  P10  1  0.029134  0.776489  0.000000  1
  P  P11  1  0.223511  0.252643  0.000000  1
  Ru  Ru12  1  0.757460  0.731081  0.000000  1
  Ru  Ru13  1  0.268919  0.026378  0.000000  1
  Ru  Ru14  1  0.973622  0.242540  0.000000  1
  Ru  Ru15  1  0.718644  0.099261  0.500000  1
  Ru  Ru16  1  0.900739  0.619382  0.500000  1
  Ru  Ru17  1  0.380618  0.281356  0.500000  1
  Ru  Ru18  1  0.536968  0.751928  0.500000  1
  Ru  Ru19  1  0.248072  0.785041  0.500000  1
  Ru  Ru20  1  0.214959  0.463032  0.500000  1
