# generated using pymatgen
data_U4Cr6TcP6
_symmetry_space_group_name_H-M   'P 1'
_cell_length_a   6.85877575
_cell_length_b   6.85877436
_cell_length_c   6.85877500
_cell_angle_alpha   109.47121958
_cell_angle_beta   109.47121546
_cell_angle_gamma   109.47122157
_symmetry_Int_Tables_number   1
_chemical_formula_structural   U4Cr6TcP6
_chemical_formula_sum   'U4 Cr6 Tc1 P6'
_cell_volume   248.38068085
_cell_formula_units_Z   1
loop_
 _symmetry_equiv_pos_site_id
 _symmetry_equiv_pos_as_xyz
  1  'x, y, z'
loop_
 _atom_site_type_symbol
 _atom_site_label
 _atom_site_symmetry_multiplicity
 _atom_site_fract_x
 _atom_site_fract_y
 _atom_site_fract_z
 _atom_site_occupancy
  U  U0  1  0.500000  0.500000  0.500000  1
  U  U1  1  0.000000  0.000000  0.500000  1
  U  U2  1  0.500000  0.000000  0.000000  1
  U  U3  1  0.000000  0.500000  0.000000  1
  Cr  Cr4  1  0.750000  0.250000  0.500000  1
  Cr  Cr5  1  0.500000  0.250000  0.750000  1
  Cr  Cr6  1  0.500000  0.750000  0.250000  1
  Cr  Cr7  1  0.250000  0.500000  0.750000  1
  Cr  Cr8  1  0.750000  0.500000  0.250000  1
  Cr  Cr9  1  0.250000  0.750000  0.500000  1
  Tc  Tc10  1  0.000000  0.000000  0.000000  1
  P  P11  1  0.322472  0.322472  0.000000  1
  P  P12  1  0.000000  0.322472  0.322472  1
  P  P13  1  0.000000  0.677528  0.677528  1
  P  P14  1  0.677528  0.000000  0.677528  1
  P  P15  1  0.322472  0.000000  0.322472  1
  P  P16  1  0.677528  0.677528  0.000000  1
