# generated using pymatgen
data_AcCrO4
_symmetry_space_group_name_H-M   'P 1'
_cell_length_a   6.39437287
_cell_length_b   6.39437260
_cell_length_c   6.39437323
_cell_angle_alpha   106.00671807
_cell_angle_beta   106.00671221
_cell_angle_gamma   116.64747855
_symmetry_Int_Tables_number   1
_chemical_formula_structural   AcCrO4
_chemical_formula_sum   'Ac2 Cr2 O8'
_cell_volume   198.87041337
_cell_formula_units_Z   2
loop_
 _symmetry_equiv_pos_site_id
 _symmetry_equiv_pos_as_xyz
  1  'x, y, z'
loop_
 _atom_site_type_symbol
 _atom_site_label
 _atom_site_symmetry_multiplicity
 _atom_site_fract_x
 _atom_site_fract_y
 _atom_site_fract_z
 _atom_site_occupancy
  Ac  Ac0  1  0.000000  0.000000  0.000000  1
  Ac  Ac1  1  0.250000  0.750000  0.500000  1
  Cr  Cr2  1  0.750000  0.250000  0.500000  1
  Cr  Cr3  1  0.500000  0.500000  0.000000  1
  O  O4  1  0.339827  0.515846  0.176020  1
  O  O5  1  0.413808  0.089827  0.323980  1
  O  O6  1  0.765846  0.089827  0.676020  1
  O  O7  1  0.339827  0.163808  0.823980  1
  O  O8  1  0.836192  0.660173  0.176020  1
  O  O9  1  0.910173  0.234154  0.323980  1
  O  O10  1  0.910173  0.586192  0.676020  1
  O  O11  1  0.484154  0.660173  0.823980  1
