# generated using pymatgen
data_Li2PrEuPd2
_symmetry_space_group_name_H-M   'P 1'
_cell_length_a   4.28112800
_cell_length_b   7.32488600
_cell_length_c   8.63328100
_cell_angle_alpha   90.00000000
_cell_angle_beta   90.00000000
_cell_angle_gamma   90.00000000
_symmetry_Int_Tables_number   1
_chemical_formula_structural   Li2PrEuPd2
_chemical_formula_sum   'Li4 Pr2 Eu2 Pd4'
_cell_volume   270.72911252
_cell_formula_units_Z   2
loop_
 _symmetry_equiv_pos_site_id
 _symmetry_equiv_pos_as_xyz
  1  'x, y, z'
loop_
 _atom_site_type_symbol
 _atom_site_label
 _atom_site_symmetry_multiplicity
 _atom_site_fract_x
 _atom_site_fract_y
 _atom_site_fract_z
 _atom_site_occupancy
  Li  Li0  1  0.250000  0.133074  0.938734  1
  Li  Li1  1  0.250000  0.633074  0.561266  1
  Li  Li2  1  0.750000  0.867703  0.054753  1
  Li  Li3  1  0.750000  0.367703  0.445247  1
  Pr  Pr4  1  0.250000  0.034589  0.314586  1
  Pr  Pr5  1  0.250000  0.534589  0.185414  1
  Eu  Eu6  1  0.750000  0.965983  0.683779  1
  Eu  Eu7  1  0.750000  0.465983  0.816221  1
  Pd  Pd8  1  0.250000  0.257728  0.612010  1
  Pd  Pd9  1  0.250000  0.757728  0.887990  1
  Pd  Pd10  1  0.750000  0.740924  0.373401  1
  Pd  Pd11  1  0.750000  0.240924  0.126599  1
