# generated using pymatgen
data_Ce3Sm6Er(Al2Ru3)2
_symmetry_space_group_name_H-M   'P 1'
_cell_length_a   8.52871572
_cell_length_b   8.52871523
_cell_length_c   8.52871487
_cell_angle_alpha   110.14882303
_cell_angle_beta   110.14882791
_cell_angle_gamma   110.14882169
_symmetry_Int_Tables_number   1
_chemical_formula_structural   Ce3Sm6Er(Al2Ru3)2
_chemical_formula_sum   'Ce3 Sm6 Er1 Al4 Ru6'
_cell_volume   465.19493755
_cell_formula_units_Z   1
loop_
 _symmetry_equiv_pos_site_id
 _symmetry_equiv_pos_as_xyz
  1  'x, y, z'
loop_
 _atom_site_type_symbol
 _atom_site_label
 _atom_site_symmetry_multiplicity
 _atom_site_fract_x
 _atom_site_fract_y
 _atom_site_fract_z
 _atom_site_occupancy
  Ce  Ce0  1  0.251611  0.199579  0.943511  1
  Ce  Ce1  1  0.943511  0.251611  0.199579  1
  Ce  Ce2  1  0.199579  0.943511  0.251611  1
  Sm  Sm3  1  0.313652  0.565218  0.753376  1
  Sm  Sm4  1  0.753376  0.313652  0.565218  1
  Sm  Sm5  1  0.565218  0.753376  0.313652  1
  Sm  Sm6  1  0.721352  0.506322  0.992529  1
  Sm  Sm7  1  0.992529  0.721352  0.506322  1
  Sm  Sm8  1  0.506322  0.992529  0.721352  1
  Er  Er9  1  0.786025  0.786025  0.786025  1
  Al  Al10  1  0.413329  0.413329  0.413329  1
  Al  Al11  1  0.093185  0.495867  0.004887  1
  Al  Al12  1  0.004887  0.093185  0.495867  1
  Al  Al13  1  0.495867  0.004887  0.093185  1
  Ru  Ru14  1  0.911033  0.119443  0.754685  1
  Ru  Ru15  1  0.754685  0.911033  0.119443  1
  Ru  Ru16  1  0.119443  0.754685  0.911033  1
  Ru  Ru17  1  0.220597  0.589265  0.364534  1
  Ru  Ru18  1  0.364534  0.220597  0.589265  1
  Ru  Ru19  1  0.589265  0.364534  0.220597  1
