# generated using pymatgen
data_La3Zn2Co2Hg
_symmetry_space_group_name_H-M   'P 1'
_cell_length_a   8.78342954
_cell_length_b   8.78342896
_cell_length_c   5.13379803
_cell_angle_alpha   99.68244439
_cell_angle_beta   99.68244319
_cell_angle_gamma   28.10035069
_symmetry_Int_Tables_number   1
_chemical_formula_structural   La3Zn2Co2Hg
_chemical_formula_sum   'La3 Zn2 Co2 Hg1'
_cell_volume   183.72852490
_cell_formula_units_Z   1
loop_
 _symmetry_equiv_pos_site_id
 _symmetry_equiv_pos_as_xyz
  1  'x, y, z'
loop_
 _atom_site_type_symbol
 _atom_site_label
 _atom_site_symmetry_multiplicity
 _atom_site_fract_x
 _atom_site_fract_y
 _atom_site_fract_z
 _atom_site_occupancy
  La  La0  1  0.000000  0.000000  0.000000  1
  La  La1  1  0.834459  0.834459  0.415616  1
  La  La2  1  0.165541  0.165541  0.584385  1
  Zn  Zn3  1  0.643791  0.643791  0.069192  1
  Zn  Zn4  1  0.356209  0.356209  0.930809  1
  Co  Co5  1  0.218940  0.218940  0.060571  1
  Co  Co6  1  0.781060  0.781060  0.939430  1
  Hg  Hg7  1  0.500000  0.500000  0.499999  1
