# generated using pymatgen
data_Pu(Sb3Ru)4
_symmetry_space_group_name_H-M   'P 1'
_cell_length_a   8.12934165
_cell_length_b   8.12934121
_cell_length_c   8.12934200
_cell_angle_alpha   109.47121763
_cell_angle_beta   109.47121653
_cell_angle_gamma   109.47122936
_symmetry_Int_Tables_number   1
_chemical_formula_structural   Pu(Sb3Ru)4
_chemical_formula_sum   'Pu1 Sb12 Ru4'
_cell_volume   413.56542460
_cell_formula_units_Z   1
loop_
 _symmetry_equiv_pos_site_id
 _symmetry_equiv_pos_as_xyz
  1  'x, y, z'
loop_
 _atom_site_type_symbol
 _atom_site_label
 _atom_site_symmetry_multiplicity
 _atom_site_fract_x
 _atom_site_fract_y
 _atom_site_fract_z
 _atom_site_occupancy
  Pu  Pu0  1  0.000000  0.000000  0.000000  1
  Sb  Sb1  1  0.338438  0.180988  0.842549  1
  Sb  Sb2  1  0.661561  0.819012  0.157451  1
  Sb  Sb3  1  0.661561  0.504110  0.842549  1
  Sb  Sb4  1  0.338439  0.495890  0.157451  1
  Sb  Sb5  1  0.180988  0.842549  0.338439  1
  Sb  Sb6  1  0.819012  0.157451  0.661562  1
  Sb  Sb7  1  0.504110  0.842549  0.661562  1
  Sb  Sb8  1  0.495890  0.157451  0.338439  1
  Sb  Sb9  1  0.842549  0.338438  0.180988  1
  Sb  Sb10  1  0.157451  0.661561  0.819012  1
  Sb  Sb11  1  0.842549  0.661561  0.504110  1
  Sb  Sb12  1  0.157451  0.338439  0.495890  1
  Ru  Ru13  1  0.000000  0.000000  0.500000  1
  Ru  Ru14  1  0.500000  0.000000  0.000000  1
  Ru  Ru15  1  0.000000  0.500000  0.000000  1
  Ru  Ru16  1  0.500000  0.500000  0.500000  1
