# generated using pymatgen
data_Os(S4F3)2
_symmetry_space_group_name_H-M   'P 1'
_cell_length_a   8.07055525
_cell_length_b   8.03142667
_cell_length_c   11.37659923
_cell_angle_alpha   99.48243958
_cell_angle_beta   101.46806161
_cell_angle_gamma   90.71705924
_symmetry_Int_Tables_number   1
_chemical_formula_structural   Os(S4F3)2
_chemical_formula_sum   'Os2 S16 F12'
_cell_volume   712.03056327
_cell_formula_units_Z   2
loop_
 _symmetry_equiv_pos_site_id
 _symmetry_equiv_pos_as_xyz
  1  'x, y, z'
loop_
 _atom_site_type_symbol
 _atom_site_label
 _atom_site_symmetry_multiplicity
 _atom_site_fract_x
 _atom_site_fract_y
 _atom_site_fract_z
 _atom_site_occupancy
  Os  Os0  1  0.288470  0.778647  0.103526  1
  Os  Os1  1  0.711468  0.221218  0.896358  1
  S  S2  1  0.111115  0.370492  0.272796  1
  S  S3  1  0.757946  0.590500  0.281025  1
  S  S4  1  0.901333  0.021699  0.316268  1
  S  S5  1  0.548601  0.243576  0.327658  1
  S  S6  1  0.011956  0.584383  0.352668  1
  S  S7  1  0.113425  0.180926  0.373626  1
  S  S8  1  0.615915  0.496130  0.387732  1
  S  S9  1  0.719661  0.095857  0.415661  1
  S  S10  1  0.280381  0.904335  0.584577  1
  S  S11  1  0.384234  0.504058  0.612353  1
  S  S12  1  0.886555  0.819119  0.626475  1
  S  S13  1  0.988129  0.415645  0.647260  1
  S  S14  1  0.451423  0.756605  0.672590  1
  S  S15  1  0.098618  0.978389  0.683904  1
  S  S16  1  0.242139  0.409471  0.718911  1
  S  S17  1  0.888926  0.629446  0.727207  1
  F  F18  1  0.754722  0.254124  0.068668  1
  F  F19  1  0.061761  0.709528  0.099830  1
  F  F20  1  0.352875  0.551900  0.101791  1
  F  F21  1  0.224190  0.005843  0.108989  1
  F  F22  1  0.516172  0.847120  0.110688  1
  F  F23  1  0.333341  0.812911  0.277413  1
  F  F24  1  0.666480  0.186969  0.722374  1
  F  F25  1  0.483660  0.152812  0.889186  1
  F  F26  1  0.775895  0.993949  0.891051  1
  F  F27  1  0.646941  0.448144  0.897995  1
  F  F28  1  0.938275  0.290382  0.900072  1
  F  F29  1  0.245396  0.745819  0.931352  1
