# generated using pymatgen
data_CsV2RuSe3
_symmetry_space_group_name_H-M   'P 1'
_cell_length_a   9.48332300
_cell_length_b   9.54116353
_cell_length_c   4.31469100
_cell_angle_alpha   90.00000000
_cell_angle_beta   90.00000000
_cell_angle_gamma   117.73993560
_symmetry_Int_Tables_number   1
_chemical_formula_structural   CsV2RuSe3
_chemical_formula_sum   'Cs2 V4 Ru2 Se6'
_cell_volume   345.53250854
_cell_formula_units_Z   2
loop_
 _symmetry_equiv_pos_site_id
 _symmetry_equiv_pos_as_xyz
  1  'x, y, z'
loop_
 _atom_site_type_symbol
 _atom_site_label
 _atom_site_symmetry_multiplicity
 _atom_site_fract_x
 _atom_site_fract_y
 _atom_site_fract_z
 _atom_site_occupancy
  Cs  Cs0  1  0.332697  0.662368  0.250000  1
  Cs  Cs1  1  0.667303  0.337632  0.750000  1
  V  V2  1  0.834947  0.976197  0.250000  1
  V  V3  1  0.023698  0.857951  0.250000  1
  V  V4  1  0.976302  0.142049  0.750000  1
  V  V5  1  0.165053  0.023803  0.750000  1
  Ru  Ru6  1  0.141495  0.166153  0.250000  1
  Ru  Ru7  1  0.858505  0.833847  0.750000  1
  Se  Se8  1  0.946074  0.276051  0.250000  1
  Se  Se9  1  0.053926  0.723949  0.750000  1
  Se  Se10  1  0.720879  0.671437  0.250000  1
  Se  Se11  1  0.324386  0.042141  0.250000  1
  Se  Se12  1  0.675614  0.957859  0.750000  1
  Se  Se13  1  0.279121  0.328563  0.750000  1
