# generated using pymatgen
data_Dy3Tm2In4IrPt
_symmetry_space_group_name_H-M   'P 1'
_cell_length_a   3.62123100
_cell_length_b   8.10869134
_cell_length_c   18.16127620
_cell_angle_alpha   89.93901081
_cell_angle_beta   90.00000000
_cell_angle_gamma   90.00000000
_symmetry_Int_Tables_number   1
_chemical_formula_structural   Dy3Tm2In4IrPt
_chemical_formula_sum   'Dy6 Tm4 In8 Ir2 Pt2'
_cell_volume   533.27732250
_cell_formula_units_Z   2
loop_
 _symmetry_equiv_pos_site_id
 _symmetry_equiv_pos_as_xyz
  1  'x, y, z'
loop_
 _atom_site_type_symbol
 _atom_site_label
 _atom_site_symmetry_multiplicity
 _atom_site_fract_x
 _atom_site_fract_y
 _atom_site_fract_z
 _atom_site_occupancy
  Dy  Dy0  1  0.000000  0.236901  0.222009  1
  Dy  Dy1  1  0.000000  0.763099  0.777991  1
  Dy  Dy2  1  0.000000  0.248627  0.720284  1
  Dy  Dy3  1  0.000000  0.751373  0.279716  1
  Dy  Dy4  1  0.000000  0.000000  0.000000  1
  Dy  Dy5  1  0.000000  0.500000  0.500000  1
  Tm  Tm6  1  0.000000  0.114888  0.411723  1
  Tm  Tm7  1  0.000000  0.885112  0.588277  1
  Tm  Tm8  1  0.000000  0.383431  0.913208  1
  Tm  Tm9  1  0.000000  0.616569  0.086792  1
  In  In10  1  0.500000  0.422754  0.351325  1
  In  In11  1  0.500000  0.577246  0.648675  1
  In  In12  1  0.500000  0.074074  0.850951  1
  In  In13  1  0.500000  0.925926  0.149049  1
  In  In14  1  0.500000  0.293948  0.066145  1
  In  In15  1  0.500000  0.706052  0.933855  1
  In  In16  1  0.500000  0.205037  0.567137  1
  In  In17  1  0.500000  0.794963  0.432863  1
  Ir  Ir18  1  0.500000  0.022336  0.304559  1
  Ir  Ir19  1  0.500000  0.977664  0.695441  1
  Pt  Pt20  1  0.500000  0.476426  0.804058  1
  Pt  Pt21  1  0.500000  0.523574  0.195942  1
