# generated using pymatgen
data_MgPa2(Ni10B3)2
_symmetry_space_group_name_H-M   'P 1'
_cell_length_a   7.58736886
_cell_length_b   7.58610962
_cell_length_c   7.58703604
_cell_angle_alpha   60.00575305
_cell_angle_beta   59.98965985
_cell_angle_gamma   60.00001672
_symmetry_Int_Tables_number   1
_chemical_formula_structural   MgPa2(Ni10B3)2
_chemical_formula_sum   'Mg1 Pa2 Ni20 B6'
_cell_volume   308.78233156
_cell_formula_units_Z   1
loop_
 _symmetry_equiv_pos_site_id
 _symmetry_equiv_pos_as_xyz
  1  'x, y, z'
loop_
 _atom_site_type_symbol
 _atom_site_label
 _atom_site_symmetry_multiplicity
 _atom_site_fract_x
 _atom_site_fract_y
 _atom_site_fract_z
 _atom_site_occupancy
  Mg  Mg0  1  0.999988  0.000010  0.999998  1
  Pa  Pa1  1  0.249972  0.249940  0.250055  1
  Pa  Pa2  1  0.750032  0.750065  0.749949  1
  Ni  Ni3  1  0.343151  0.999991  0.000011  1
  Ni  Ni4  1  0.999979  0.343140  0.656870  1
  Ni  Ni5  1  0.656873  0.000000  0.999974  1
  Ni  Ni6  1  0.999999  0.656858  0.343158  1
  Ni  Ni7  1  0.999997  0.343146  0.999999  1
  Ni  Ni8  1  0.000006  0.999992  0.343139  1
  Ni  Ni9  1  0.343141  0.999999  0.656868  1
  Ni  Ni10  1  0.343144  0.656865  0.000007  1
  Ni  Ni11  1  0.656867  0.999991  0.343144  1
  Ni  Ni12  1  0.999971  0.000010  0.656876  1
  Ni  Ni13  1  0.999978  0.656873  0.999993  1
  Ni  Ni14  1  0.656868  0.343144  0.999977  1
  Ni  Ni15  1  0.386658  0.386607  0.386658  1
  Ni  Ni16  1  0.386616  0.386634  0.840088  1
  Ni  Ni17  1  0.840051  0.386638  0.386634  1
  Ni  Ni18  1  0.386648  0.840040  0.386667  1
  Ni  Ni19  1  0.613361  0.613401  0.613347  1
  Ni  Ni20  1  0.613411  0.613371  0.159877  1
  Ni  Ni21  1  0.613370  0.159924  0.613342  1
  Ni  Ni22  1  0.159928  0.613365  0.613371  1
  B  B23  1  0.734528  0.734530  0.265470  1
  B  B24  1  0.265466  0.265468  0.734532  1
  B  B25  1  0.265467  0.734533  0.734541  1
  B  B26  1  0.734507  0.265493  0.734520  1
  B  B27  1  0.734531  0.265469  0.265455  1
  B  B28  1  0.265492  0.734508  0.265480  1
