# generated using pymatgen
data_YbDy5(Si3Pt2)4
_symmetry_space_group_name_H-M   'P 1'
_cell_length_a   4.25466300
_cell_length_b   8.58488408
_cell_length_c   12.92092473
_cell_angle_alpha   80.10279007
_cell_angle_beta   90.00000000
_cell_angle_gamma   90.00000000
_symmetry_Int_Tables_number   1
_chemical_formula_structural   YbDy5(Si3Pt2)4
_chemical_formula_sum   'Yb1 Dy5 Si12 Pt8'
_cell_volume   464.92330856
_cell_formula_units_Z   1
loop_
 _symmetry_equiv_pos_site_id
 _symmetry_equiv_pos_as_xyz
  1  'x, y, z'
loop_
 _atom_site_type_symbol
 _atom_site_label
 _atom_site_symmetry_multiplicity
 _atom_site_fract_x
 _atom_site_fract_y
 _atom_site_fract_z
 _atom_site_occupancy
  Yb  Yb0  1  0.250000  0.071378  0.186255  1
  Dy  Dy1  1  0.250000  0.766654  0.439166  1
  Dy  Dy2  1  0.250000  0.588104  0.183839  1
  Dy  Dy3  1  0.750000  0.234132  0.561518  1
  Dy  Dy4  1  0.750000  0.416100  0.812112  1
  Dy  Dy5  1  0.750000  0.927042  0.815520  1
  Si  Si6  1  0.750000  0.586849  0.571487  1
  Si  Si7  1  0.750000  0.128987  0.006804  1
  Si  Si8  1  0.750000  0.867748  0.579725  1
  Si  Si9  1  0.250000  0.697804  0.712683  1
  Si  Si10  1  0.750000  0.305205  0.287794  1
  Si  Si11  1  0.750000  0.805049  0.275642  1
  Si  Si12  1  0.250000  0.872519  0.991819  1
  Si  Si13  1  0.250000  0.192997  0.723436  1
  Si  Si14  1  0.250000  0.377518  0.002303  1
  Si  Si15  1  0.250000  0.124958  0.428173  1
  Si  Si16  1  0.750000  0.620830  0.997368  1
  Si  Si17  1  0.250000  0.411691  0.429016  1
  Pt  Pt18  1  0.750000  0.353291  0.101122  1
  Pt  Pt19  1  0.250000  0.972447  0.621860  1
  Pt  Pt20  1  0.750000  0.850006  0.086791  1
  Pt  Pt21  1  0.750000  0.030709  0.374560  1
  Pt  Pt22  1  0.250000  0.646452  0.899957  1
  Pt  Pt23  1  0.250000  0.150845  0.911334  1
  Pt  Pt24  1  0.750000  0.533487  0.375577  1
  Pt  Pt25  1  0.250000  0.467196  0.624138  1
