# generated using pymatgen
data_Y4Al24Pd7Au2
_symmetry_space_group_name_H-M   'P 1'
_cell_length_a   7.59045221
_cell_length_b   7.61075765
_cell_length_c   13.20322444
_cell_angle_alpha   84.54113284
_cell_angle_beta   78.99475797
_cell_angle_gamma   59.92204905
_symmetry_Int_Tables_number   1
_chemical_formula_structural   Y4Al24Pd7Au2
_chemical_formula_sum   'Y4 Al24 Pd7 Au2'
_cell_volume   647.89298066
_cell_formula_units_Z   1
loop_
 _symmetry_equiv_pos_site_id
 _symmetry_equiv_pos_as_xyz
  1  'x, y, z'
loop_
 _atom_site_type_symbol
 _atom_site_label
 _atom_site_symmetry_multiplicity
 _atom_site_fract_x
 _atom_site_fract_y
 _atom_site_fract_z
 _atom_site_occupancy
  Y  Y0  1  0.391992  0.169672  0.809520  1
  Y  Y1  1  0.608008  0.830328  0.190480  1
  Y  Y2  1  0.734078  0.498578  0.810045  1
  Y  Y3  1  0.265922  0.501422  0.189955  1
  Al  Al4  1  0.683067  0.834606  0.945091  1
  Al  Al5  1  0.316933  0.165394  0.054909  1
  Al  Al6  1  0.145244  0.839096  0.562390  1
  Al  Al7  1  0.854756  0.160904  0.437610  1
  Al  Al8  1  0.487418  0.159819  0.559738  1
  Al  Al9  1  0.512582  0.840181  0.440262  1
  Al  Al10  1  0.223803  0.159640  0.325801  1
  Al  Al11  1  0.776197  0.840360  0.674199  1
  Al  Al12  1  0.440296  0.507051  0.674640  1
  Al  Al13  1  0.559704  0.492949  0.325360  1
  Al  Al14  1  0.109098  0.153232  0.672671  1
  Al  Al15  1  0.890902  0.846768  0.327329  1
  Al  Al16  1  0.352966  0.499278  0.944727  1
  Al  Al17  1  0.647034  0.500722  0.055273  1
  Al  Al18  1  0.014932  0.167078  0.955076  1
  Al  Al19  1  0.985068  0.832922  0.044924  1
  Al  Al20  1  0.195443  0.499885  0.437127  1
  Al  Al21  1  0.804557  0.500115  0.562873  1
  Al  Al22  1  0.732292  0.163948  0.183371  1
  Al  Al23  1  0.267708  0.836052  0.816629  1
  Al  Al24  1  0.060091  0.635162  0.818296  1
  Al  Al25  1  0.939909  0.364838  0.181704  1
  Al  Al26  1  0.854078  0.043023  0.816210  1
  Al  Al27  1  0.145922  0.956977  0.183790  1
  Pd  Pd28  1  0.657297  0.171593  0.999798  1
  Pd  Pd29  1  0.342703  0.828407  0.000202  1
  Pd  Pd30  1  0.537760  0.167164  0.362484  1
  Pd  Pd31  1  0.462240  0.832836  0.637516  1
  Pd  Pd32  1  0.779632  0.175037  0.636872  1
  Pd  Pd33  1  0.220368  0.824963  0.363128  1
  Pd  Pd34  1  0.000000  0.500000  0.000000  1
  Au  Au35  1  0.119915  0.491369  0.637711  1
  Au  Au36  1  0.880085  0.508631  0.362289  1
