# generated using pymatgen
data_La4Pd5RhO19
_symmetry_space_group_name_H-M   'P 1'
_cell_length_a   7.88397067
_cell_length_b   7.84709710
_cell_length_c   7.88397005
_cell_angle_alpha   109.83239456
_cell_angle_beta   109.47830649
_cell_angle_gamma   109.29380322
_symmetry_Int_Tables_number   1
_chemical_formula_structural   La4Pd5RhO19
_chemical_formula_sum   'La4 Pd5 Rh1 O19'
_cell_volume   374.57825759
_cell_formula_units_Z   1
loop_
 _symmetry_equiv_pos_site_id
 _symmetry_equiv_pos_as_xyz
  1  'x, y, z'
loop_
 _atom_site_type_symbol
 _atom_site_label
 _atom_site_symmetry_multiplicity
 _atom_site_fract_x
 _atom_site_fract_y
 _atom_site_fract_z
 _atom_site_occupancy
  La  La0  1  0.008400  0.009409  0.326957  1
  La  La1  1  0.997651  0.320817  0.996608  1
  La  La2  1  0.675792  0.679183  0.676834  1
  La  La3  1  0.317549  0.990591  0.998992  1
  Pd  Pd4  1  0.338569  0.500000  0.838569  1
  Pd  Pd5  1  0.840701  0.339862  0.498007  1
  Pd  Pd6  1  0.502017  0.161683  0.660070  1
  Pd  Pd7  1  0.158145  0.660138  0.500839  1
  Pd  Pd8  1  0.498387  0.838317  0.340334  1
  Rh  Rh9  1  0.658898  0.500000  0.158898  1
  O  O10  1  0.341847  0.000000  0.341847  1
  O  O11  1  0.349899  0.345771  0.000685  1
  O  O12  1  0.998152  0.659504  0.658513  1
  O  O13  1  0.654914  0.654229  0.004127  1
  O  O14  1  0.999009  0.340496  0.338649  1
  O  O15  1  0.660544  0.000000  0.660544  1
  O  O16  1  0.001176  0.000000  0.001176  1
  O  O17  1  0.366367  0.328840  0.606343  1
  O  O18  1  0.038421  0.282130  0.672878  1
  O  O19  1  0.754696  0.392800  0.714058  1
  O  O20  1  0.390748  0.717870  0.756290  1
  O  O21  1  0.249300  0.966289  0.642106  1
  O  O22  1  0.608386  0.357683  0.315192  1
  O  O23  1  0.321259  0.607200  0.361896  1
  O  O24  1  0.675816  0.033711  0.283009  1
  O  O25  1  0.957508  0.642317  0.250703  1
  O  O26  1  0.710829  0.745254  0.392772  1
  O  O27  1  0.647518  0.254746  0.965573  1
  O  O28  1  0.277503  0.671160  0.037528  1
