# generated using pymatgen
data_K2Tb3Ce3F20
_symmetry_space_group_name_H-M   'P 1'
_cell_length_a   8.42078562
_cell_length_b   8.57224156
_cell_length_c   8.49680030
_cell_angle_alpha   59.11829499
_cell_angle_beta   60.88736201
_cell_angle_gamma   59.99434777
_symmetry_Int_Tables_number   1
_chemical_formula_structural   K2Tb3Ce3F20
_chemical_formula_sum   'K2 Tb3 Ce3 F20'
_cell_volume   433.49121821
_cell_formula_units_Z   1
loop_
 _symmetry_equiv_pos_site_id
 _symmetry_equiv_pos_as_xyz
  1  'x, y, z'
loop_
 _atom_site_type_symbol
 _atom_site_label
 _atom_site_symmetry_multiplicity
 _atom_site_fract_x
 _atom_site_fract_y
 _atom_site_fract_z
 _atom_site_occupancy
  K  K0  1  0.248493  0.248493  0.251507  1
  K  K1  1  0.748493  0.748493  0.751507  1
  Tb  Tb2  1  0.237959  0.760006  0.239994  1
  Tb  Tb3  1  0.239143  0.239143  0.760857  1
  Tb  Tb4  1  0.760006  0.237959  0.762041  1
  Ce  Ce5  1  0.758404  0.758404  0.241596  1
  Ce  Ce6  1  0.756881  0.240368  0.243119  1
  Ce  Ce7  1  0.240368  0.756881  0.759632  1
  F  F8  1  0.881761  0.896855  0.882286  1
  F  F9  1  0.660901  0.117714  0.103145  1
  F  F10  1  0.106228  0.119856  0.666246  1
  F  F11  1  0.117714  0.660901  0.118239  1
  F  F12  1  0.896855  0.881761  0.339099  1
  F  F13  1  0.892331  0.333754  0.880144  1
  F  F14  1  0.333754  0.892331  0.893772  1
  F  F15  1  0.119856  0.106228  0.107669  1
  F  F16  1  0.491076  0.167095  0.508924  1
  F  F17  1  0.178378  0.500117  0.499883  1
  F  F18  1  0.500117  0.178378  0.821622  1
  F  F19  1  0.841527  0.500643  0.158473  1
  F  F20  1  0.167095  0.491076  0.832905  1
  F  F21  1  0.492769  0.509208  0.170119  1
  F  F22  1  0.829881  0.172096  0.507231  1
  F  F23  1  0.492203  0.825859  0.174141  1
  F  F24  1  0.509208  0.492769  0.827904  1
  F  F25  1  0.172096  0.829881  0.490792  1
  F  F26  1  0.825859  0.492203  0.507797  1
  F  F27  1  0.500643  0.841527  0.499357  1
