# generated using pymatgen
data_NaYbTl(P3Pd10)2
_symmetry_space_group_name_H-M   'P 1'
_cell_length_a   8.64992183
_cell_length_b   8.64992157
_cell_length_c   8.64992000
_cell_angle_alpha   59.99999836
_cell_angle_beta   59.99999936
_cell_angle_gamma   59.99999416
_symmetry_Int_Tables_number   1
_chemical_formula_structural   NaYbTl(P3Pd10)2
_chemical_formula_sum   'Na1 Yb1 Tl1 P6 Pd20'
_cell_volume   457.63730455
_cell_formula_units_Z   1
loop_
 _symmetry_equiv_pos_site_id
 _symmetry_equiv_pos_as_xyz
  1  'x, y, z'
loop_
 _atom_site_type_symbol
 _atom_site_label
 _atom_site_symmetry_multiplicity
 _atom_site_fract_x
 _atom_site_fract_y
 _atom_site_fract_z
 _atom_site_occupancy
  Na  Na0  1  0.000000  0.000000  0.000000  1
  Yb  Yb1  1  0.750000  0.750000  0.750000  1
  Tl  Tl2  1  0.250000  0.250000  0.250000  1
  P  P3  1  0.736741  0.263259  0.263259  1
  P  P4  1  0.263259  0.736741  0.736741  1
  P  P5  1  0.263259  0.736741  0.263259  1
  P  P6  1  0.736741  0.263259  0.736741  1
  P  P7  1  0.263259  0.263259  0.736741  1
  P  P8  1  0.736741  0.736741  0.263259  1
  Pd  Pd9  1  0.383072  0.383072  0.383072  1
  Pd  Pd10  1  0.613675  0.613675  0.613675  1
  Pd  Pd11  1  0.383072  0.383072  0.850785  1
  Pd  Pd12  1  0.383072  0.850785  0.383072  1
  Pd  Pd13  1  0.613675  0.613675  0.158976  1
  Pd  Pd14  1  0.613675  0.158976  0.613675  1
  Pd  Pd15  1  0.850785  0.383072  0.383072  1
  Pd  Pd16  1  0.158976  0.613675  0.613675  1
  Pd  Pd17  1  0.347337  0.997768  0.997768  1
  Pd  Pd18  1  0.657128  0.997768  0.997768  1
  Pd  Pd19  1  0.997768  0.347337  0.657128  1
  Pd  Pd20  1  0.997768  0.657128  0.347337  1
  Pd  Pd21  1  0.997768  0.347337  0.997768  1
  Pd  Pd22  1  0.657128  0.997768  0.347337  1
  Pd  Pd23  1  0.997768  0.657128  0.997768  1
  Pd  Pd24  1  0.347337  0.997768  0.657128  1
  Pd  Pd25  1  0.997768  0.997768  0.347337  1
  Pd  Pd26  1  0.997768  0.997768  0.657128  1
  Pd  Pd27  1  0.657128  0.347337  0.997768  1
  Pd  Pd28  1  0.347337  0.657128  0.997768  1
