# generated using pymatgen
data_TbYbYZn11
_symmetry_space_group_name_H-M   'P 1'
_cell_length_a   8.17121782
_cell_length_b   8.17121774
_cell_length_c   8.17121733
_cell_angle_alpha   148.28980295
_cell_angle_beta   115.68162275
_cell_angle_gamma   73.49568657
_symmetry_Int_Tables_number   1
_chemical_formula_structural   TbYbYZn11
_chemical_formula_sum   'Tb1 Yb1 Y1 Zn11'
_cell_volume   254.28851555
_cell_formula_units_Z   1
loop_
 _symmetry_equiv_pos_site_id
 _symmetry_equiv_pos_as_xyz
  1  'x, y, z'
loop_
 _atom_site_type_symbol
 _atom_site_label
 _atom_site_symmetry_multiplicity
 _atom_site_fract_x
 _atom_site_fract_y
 _atom_site_fract_z
 _atom_site_occupancy
  Tb  Tb0  1  0.298048  0.298048  0.000000  1
  Yb  Yb1  1  0.000028  0.000028  0.000000  1
  Y  Y2  1  0.702080  0.702080  0.000000  1
  Zn  Zn3  1  0.499975  0.999975  0.500000  1
  Zn  Zn4  1  0.679083  0.499947  0.179137  1
  Zn  Zn5  1  0.320810  0.499947  0.820863  1
  Zn  Zn6  1  0.696148  0.339171  0.356976  1
  Zn  Zn7  1  0.303879  0.660775  0.643105  1
  Zn  Zn8  1  0.982196  0.339171  0.643024  1
  Zn  Zn9  1  0.017670  0.660775  0.356895  1
  Zn  Zn10  1  0.419931  0.136812  0.283119  1
  Zn  Zn11  1  0.580031  0.863230  0.716802  1
  Zn  Zn12  1  0.853692  0.136812  0.716881  1
  Zn  Zn13  1  0.146429  0.863230  0.283198  1
