# generated using pymatgen
data_Y3HoOsRuC4
_symmetry_space_group_name_H-M   'P 1'
_cell_length_a   5.13033800
_cell_length_b   6.46978453
_cell_length_c   9.79573548
_cell_angle_alpha   89.87980866
_cell_angle_beta   90.00000000
_cell_angle_gamma   90.00000000
_symmetry_Int_Tables_number   1
_chemical_formula_structural   Y3HoOsRuC4
_chemical_formula_sum   'Y6 Ho2 Os2 Ru2 C8'
_cell_volume   325.14111396
_cell_formula_units_Z   2
loop_
 _symmetry_equiv_pos_site_id
 _symmetry_equiv_pos_as_xyz
  1  'x, y, z'
loop_
 _atom_site_type_symbol
 _atom_site_label
 _atom_site_symmetry_multiplicity
 _atom_site_fract_x
 _atom_site_fract_y
 _atom_site_fract_z
 _atom_site_occupancy
  Y  Y0  1  0.750000  0.821187  0.053981  1
  Y  Y1  1  0.250000  0.178813  0.946019  1
  Y  Y2  1  0.250000  0.527069  0.217452  1
  Y  Y3  1  0.750000  0.472931  0.782548  1
  Y  Y4  1  0.750000  0.973799  0.717689  1
  Y  Y5  1  0.250000  0.026201  0.282311  1
  Ho  Ho6  1  0.250000  0.680977  0.553655  1
  Ho  Ho7  1  0.750000  0.319023  0.446345  1
  Os  Os8  1  0.750000  0.776529  0.365926  1
  Os  Os9  1  0.250000  0.223471  0.634074  1
  Ru  Ru10  1  0.250000  0.722880  0.864188  1
  Ru  Ru11  1  0.750000  0.277120  0.135812  1
  C  C12  1  0.250000  0.458571  0.755097  1
  C  C13  1  0.750000  0.541429  0.244903  1
  C  C14  1  0.750000  0.040864  0.261073  1
  C  C15  1  0.250000  0.959136  0.738927  1
  C  C16  1  0.250000  0.825315  0.052192  1
  C  C17  1  0.750000  0.174685  0.947808  1
  C  C18  1  0.750000  0.673836  0.553071  1
  C  C19  1  0.250000  0.326164  0.446929  1
