# generated using pymatgen
data_Li4Th4Si5As
_symmetry_space_group_name_H-M   'P 1'
_cell_length_a   9.49849539
_cell_length_b   9.49849536
_cell_length_c   6.78202100
_cell_angle_alpha   90.00000000
_cell_angle_beta   90.00000000
_cell_angle_gamma   153.23732247
_symmetry_Int_Tables_number   1
_chemical_formula_structural   Li4Th4Si5As
_chemical_formula_sum   'Li4 Th4 Si5 As1'
_cell_volume   275.52871372
_cell_formula_units_Z   1
loop_
 _symmetry_equiv_pos_site_id
 _symmetry_equiv_pos_as_xyz
  1  'x, y, z'
loop_
 _atom_site_type_symbol
 _atom_site_label
 _atom_site_symmetry_multiplicity
 _atom_site_fract_x
 _atom_site_fract_y
 _atom_site_fract_z
 _atom_site_occupancy
  Li  Li0  1  0.813297  0.186703  0.432115  1
  Li  Li1  1  0.187644  0.812356  0.564244  1
  Li  Li2  1  0.813297  0.186703  0.067885  1
  Li  Li3  1  0.187644  0.812356  0.935756  1
  Th  Th4  1  0.548107  0.451893  0.750000  1
  Th  Th5  1  0.449940  0.550060  0.250000  1
  Th  Th6  1  0.345331  0.654669  0.750000  1
  Th  Th7  1  0.655627  0.344373  0.250000  1
  Si  Si8  1  0.939241  0.060759  0.928617  1
  Si  Si9  1  0.060870  0.939130  0.070754  1
  Si  Si10  1  0.939241  0.060759  0.571383  1
  Si  Si11  1  0.060870  0.939130  0.429246  1
  Si  Si12  1  0.279472  0.720528  0.250000  1
  As  As13  1  0.719419  0.280581  0.750000  1
