# generated using pymatgen
data_NdLuTh2Au5
_symmetry_space_group_name_H-M   'P 1'
_cell_length_a   8.13230152
_cell_length_b   8.10731265
_cell_length_c   8.09962900
_cell_angle_alpha   66.62679596
_cell_angle_beta   66.10603802
_cell_angle_gamma   66.15252538
_symmetry_Int_Tables_number   1
_chemical_formula_structural   NdLuTh2Au5
_chemical_formula_sum   'Nd2 Lu2 Th4 Au10'
_cell_volume   428.88813743
_cell_formula_units_Z   2
loop_
 _symmetry_equiv_pos_site_id
 _symmetry_equiv_pos_as_xyz
  1  'x, y, z'
loop_
 _atom_site_type_symbol
 _atom_site_label
 _atom_site_symmetry_multiplicity
 _atom_site_fract_x
 _atom_site_fract_y
 _atom_site_fract_z
 _atom_site_occupancy
  Nd  Nd0  1  0.373232  0.109725  0.815689  1
  Nd  Nd1  1  0.817429  0.373556  0.109288  1
  Lu  Lu2  1  0.656439  0.657447  0.660073  1
  Lu  Lu3  1  0.346662  0.341698  0.343245  1
  Th  Th4  1  0.893276  0.181686  0.623666  1
  Th  Th5  1  0.626394  0.892936  0.180769  1
  Th  Th6  1  0.180607  0.624087  0.894264  1
  Th  Th7  1  0.106091  0.819773  0.371237  1
  Au  Au8  1  0.998110  0.998063  0.998459  1
  Au  Au9  1  0.498021  0.503256  0.501587  1
  Au  Au10  1  0.806708  0.804945  0.804254  1
  Au  Au11  1  0.196737  0.196027  0.198286  1
  Au  Au12  1  0.939212  0.548851  0.323099  1
  Au  Au13  1  0.322049  0.935060  0.546871  1
  Au  Au14  1  0.546464  0.322673  0.937454  1
  Au  Au15  1  0.060875  0.454671  0.674677  1
  Au  Au16  1  0.679553  0.057779  0.453085  1
  Au  Au17  1  0.452139  0.677764  0.063997  1
