# generated using pymatgen
data_AgSCl7
_symmetry_space_group_name_H-M   'P 1'
_cell_length_a   10.46219900
_cell_length_b   8.97943430
_cell_length_c   12.17506061
_cell_angle_alpha   73.21237955
_cell_angle_beta   90.00000000
_cell_angle_gamma   90.00000000
_symmetry_Int_Tables_number   1
_chemical_formula_structural   AgSCl7
_chemical_formula_sum   'Ag4 S4 Cl28'
_cell_volume   1095.03577841
_cell_formula_units_Z   4
loop_
 _symmetry_equiv_pos_site_id
 _symmetry_equiv_pos_as_xyz
  1  'x, y, z'
loop_
 _atom_site_type_symbol
 _atom_site_label
 _atom_site_symmetry_multiplicity
 _atom_site_fract_x
 _atom_site_fract_y
 _atom_site_fract_z
 _atom_site_occupancy
  Ag  Ag0  1  0.092452  0.788258  0.031441  1
  Ag  Ag1  1  0.407548  0.788258  0.531441  1
  Ag  Ag2  1  0.592452  0.211742  0.468559  1
  Ag  Ag3  1  0.907548  0.211742  0.968559  1
  S  S4  1  0.290570  0.235865  0.014477  1
  S  S5  1  0.790570  0.764135  0.485523  1
  S  S6  1  0.209430  0.235865  0.514477  1
  S  S7  1  0.709430  0.764135  0.985523  1
  Cl  Cl8  1  0.283801  0.430705  0.068651  1
  Cl  Cl9  1  0.716199  0.569295  0.931349  1
  Cl  Cl10  1  0.232735  0.690258  0.182911  1
  Cl  Cl11  1  0.246028  0.948279  0.429877  1
  Cl  Cl12  1  0.542142  0.872766  0.370866  1
  Cl  Cl13  1  0.432072  0.373670  0.364739  1
  Cl  Cl14  1  0.077344  0.299394  0.387070  1
  Cl  Cl15  1  0.783801  0.569295  0.431349  1
  Cl  Cl16  1  0.042142  0.127234  0.129134  1
  Cl  Cl17  1  0.893933  0.902594  0.354717  1
  Cl  Cl18  1  0.216199  0.430705  0.568651  1
  Cl  Cl19  1  0.393933  0.097406  0.145283  1
  Cl  Cl20  1  0.567928  0.626330  0.635261  1
  Cl  Cl21  1  0.753972  0.051721  0.570123  1
  Cl  Cl22  1  0.457858  0.127234  0.629134  1
  Cl  Cl23  1  0.606067  0.902594  0.854717  1
  Cl  Cl24  1  0.932072  0.626330  0.135261  1
  Cl  Cl25  1  0.746028  0.051721  0.070123  1
  Cl  Cl26  1  0.732735  0.309742  0.317089  1
  Cl  Cl27  1  0.253972  0.948279  0.929877  1
  Cl  Cl28  1  0.577344  0.700606  0.112930  1
  Cl  Cl29  1  0.067928  0.373670  0.864739  1
  Cl  Cl30  1  0.422656  0.299394  0.887070  1
  Cl  Cl31  1  0.267265  0.690258  0.682911  1
  Cl  Cl32  1  0.957858  0.872766  0.870866  1
  Cl  Cl33  1  0.106067  0.097406  0.645283  1
  Cl  Cl34  1  0.767265  0.309742  0.817089  1
  Cl  Cl35  1  0.922656  0.700606  0.612930  1
