# generated using pymatgen
data_TbDy2Y3(Al3Os)8
_symmetry_space_group_name_H-M   'P 1'
_cell_length_a   8.84205500
_cell_length_b   8.84017465
_cell_length_c   9.57594600
_cell_angle_alpha   90.00000000
_cell_angle_beta   90.00000000
_cell_angle_gamma   119.99216065
_symmetry_Int_Tables_number   1
_chemical_formula_structural   TbDy2Y3(Al3Os)8
_chemical_formula_sum   'Tb1 Dy2 Y3 Al24 Os8'
_cell_volume   648.27709747
_cell_formula_units_Z   1
loop_
 _symmetry_equiv_pos_site_id
 _symmetry_equiv_pos_as_xyz
  1  'x, y, z'
loop_
 _atom_site_type_symbol
 _atom_site_label
 _atom_site_symmetry_multiplicity
 _atom_site_fract_x
 _atom_site_fract_y
 _atom_site_fract_z
 _atom_site_occupancy
  Tb  Tb0  1  0.193211  0.386487  0.250000  1
  Dy  Dy1  1  0.193295  0.806679  0.250000  1
  Dy  Dy2  1  0.806725  0.193271  0.750000  1
  Y  Y3  1  0.806797  0.613534  0.750000  1
  Y  Y4  1  0.613440  0.806744  0.250000  1
  Y  Y5  1  0.386497  0.193211  0.750000  1
  Al  Al6  1  0.333330  0.666712  0.014859  1
  Al  Al7  1  0.666686  0.333317  0.985155  1
  Al  Al8  1  0.666686  0.333317  0.514845  1
  Al  Al9  1  0.333330  0.666712  0.485141  1
  Al  Al10  1  0.162681  0.325369  0.575842  1
  Al  Al11  1  0.837307  0.674605  0.424202  1
  Al  Al12  1  0.674631  0.837326  0.575819  1
  Al  Al13  1  0.837307  0.674605  0.075798  1
  Al  Al14  1  0.325380  0.162664  0.424173  1
  Al  Al15  1  0.162681  0.325369  0.924158  1
  Al  Al16  1  0.162716  0.837299  0.575672  1
  Al  Al17  1  0.325380  0.162664  0.075827  1
  Al  Al18  1  0.837266  0.162691  0.424320  1
  Al  Al19  1  0.674631  0.837326  0.924181  1
  Al  Al20  1  0.837266  0.162691  0.075680  1
  Al  Al21  1  0.162716  0.837299  0.924328  1
  Al  Al22  1  0.560171  0.120504  0.250000  1
  Al  Al23  1  0.439828  0.879491  0.750000  1
  Al  Al24  1  0.879418  0.439814  0.250000  1
  Al  Al25  1  0.120491  0.560168  0.750000  1
  Al  Al26  1  0.560324  0.439724  0.250000  1
  Al  Al27  1  0.439751  0.560259  0.750000  1
  Al  Al28  1  0.000156  0.999892  0.250000  1
  Al  Al29  1  0.999862  0.000143  0.750000  1
  Os  Os30  1  0.500016  0.000032  0.999975  1
  Os  Os31  1  0.999995  0.500013  0.999988  1
  Os  Os32  1  0.500016  0.000032  0.500025  1
  Os  Os33  1  0.500009  0.500007  0.999995  1
  Os  Os34  1  0.999995  0.500013  0.500012  1
  Os  Os35  1  0.500009  0.500007  0.500005  1
  Os  Os36  1  0.000003  0.000005  0.999966  1
  Os  Os37  1  0.000003  0.000005  0.500034  1
