# generated using pymatgen
data_Ce2Pr5Sc3Si8O3
_symmetry_space_group_name_H-M   'P 1'
_cell_length_a   10.53345100
_cell_length_b   10.52206270
_cell_length_c   4.32279100
_cell_angle_alpha   90.00000000
_cell_angle_beta   90.00000000
_cell_angle_gamma   120.03580636
_symmetry_Int_Tables_number   1
_chemical_formula_structural   Ce2Pr5Sc3Si8O3
_chemical_formula_sum   'Ce2 Pr5 Sc3 Si8 O3'
_cell_volume   414.77218537
_cell_formula_units_Z   1
loop_
 _symmetry_equiv_pos_site_id
 _symmetry_equiv_pos_as_xyz
  1  'x, y, z'
loop_
 _atom_site_type_symbol
 _atom_site_label
 _atom_site_symmetry_multiplicity
 _atom_site_fract_x
 _atom_site_fract_y
 _atom_site_fract_z
 _atom_site_occupancy
  Ce  Ce0  1  0.572858  0.787069  0.000000  1
  Ce  Ce1  1  0.785788  0.212931  0.000000  1
  Pr  Pr2  1  0.213560  0.785988  0.000000  1
  Pr  Pr3  1  0.212746  0.427630  0.000000  1
  Pr  Pr4  1  0.785116  0.572370  0.000000  1
  Pr  Pr5  1  0.427571  0.214012  0.000000  1
  Pr  Pr6  1  0.999443  0.000000  0.000000  1
  Sc  Sc7  1  0.501305  0.000000  0.500000  1
  Sc  Sc8  1  0.999146  0.499269  0.500000  1
  Sc  Sc9  1  0.499877  0.500731  0.500000  1
  Si  Si10  1  0.670179  0.330345  0.500000  1
  Si  Si11  1  0.999252  0.772168  0.500000  1
  Si  Si12  1  0.339833  0.669655  0.500000  1
  Si  Si13  1  0.227084  0.227832  0.500000  1
  Si  Si14  1  0.769605  0.772899  0.500000  1
  Si  Si15  1  0.768255  0.000000  0.500000  1
  Si  Si16  1  0.228183  0.000000  0.500000  1
  Si  Si17  1  0.996706  0.227101  0.500000  1
  O  O18  1  0.501287  0.503862  0.000000  1
  O  O19  1  0.504783  0.000000  0.000000  1
  O  O20  1  0.997425  0.496138  0.000000  1
