# generated using pymatgen
data_Th10Si16Pd
_symmetry_space_group_name_H-M   'P 1'
_cell_length_a   11.35860795
_cell_length_b   11.37959741
_cell_length_c   11.35860877
_cell_angle_alpha   143.25388140
_cell_angle_beta   136.84989554
_cell_angle_gamma   57.90276821
_symmetry_Int_Tables_number   1
_chemical_formula_structural   Th10Si16Pd
_chemical_formula_sum   'Th10 Si16 Pd1'
_cell_volume   595.61703984
_cell_formula_units_Z   1
loop_
 _symmetry_equiv_pos_site_id
 _symmetry_equiv_pos_as_xyz
  1  'x, y, z'
loop_
 _atom_site_type_symbol
 _atom_site_label
 _atom_site_symmetry_multiplicity
 _atom_site_fract_x
 _atom_site_fract_y
 _atom_site_fract_z
 _atom_site_occupancy
  Th  Th0  1  0.055390  0.566621  0.022592  1
  Th  Th1  1  0.350843  0.368722  0.519298  1
  Th  Th2  1  0.153539  0.160497  0.516195  1
  Th  Th3  1  0.456324  0.963582  0.020955  1
  Th  Th4  1  0.644304  0.160497  0.006959  1
  Th  Th5  1  0.942626  0.963582  0.507257  1
  Th  Th6  1  0.849424  0.368722  0.017878  1
  Th  Th7  1  0.544030  0.566621  0.511231  1
  Th  Th8  1  0.247634  0.766166  0.009953  1
  Th  Th9  1  0.756213  0.766166  0.518532  1
  Si  Si10  1  0.110062  0.060965  0.950902  1
  Si  Si11  1  0.799381  0.212736  0.413355  1
  Si  Si12  1  0.299690  0.896670  0.596980  1
  Si  Si13  1  0.400598  0.500460  0.099862  1
  Si  Si14  1  0.891069  0.841554  0.950485  1
  Si  Si15  1  0.101692  0.706584  0.604892  1
  Si  Si16  1  0.199454  0.605450  0.405995  1
  Si  Si17  1  0.699559  0.297121  0.597563  1
  Si  Si18  1  0.001258  0.431504  0.430246  1
  Si  Si19  1  0.705873  0.650718  0.944845  1
  Si  Si20  1  0.598930  0.699517  0.100586  1
  Si  Si21  1  0.000656  0.089118  0.088462  1
  Si  Si22  1  0.498993  0.403436  0.904443  1
  Si  Si23  1  0.293640  0.242931  0.949291  1
  Si  Si24  1  0.592831  0.041757  0.448924  1
  Si  Si25  1  0.407057  0.853221  0.446164  1
  Pd  Pd26  1  0.898930  0.504002  0.605074  1
