# generated using pymatgen
data_Dy7Ho12InIr12
_symmetry_space_group_name_H-M   'P 1'
_cell_length_a   10.85268901
_cell_length_b   10.85377802
_cell_length_c   6.31030400
_cell_angle_alpha   90.00377309
_cell_angle_beta   89.99766205
_cell_angle_gamma   89.99481592
_symmetry_Int_Tables_number   1
_chemical_formula_structural   Dy7Ho12InIr12
_chemical_formula_sum   'Dy7 Ho12 In1 Ir12'
_cell_volume   743.30759890
_cell_formula_units_Z   1
loop_
 _symmetry_equiv_pos_site_id
 _symmetry_equiv_pos_as_xyz
  1  'x, y, z'
loop_
 _atom_site_type_symbol
 _atom_site_label
 _atom_site_symmetry_multiplicity
 _atom_site_fract_x
 _atom_site_fract_y
 _atom_site_fract_z
 _atom_site_occupancy
  Dy  Dy0  1  0.284297  0.085263  0.379255  1
  Dy  Dy1  1  0.290580  0.911566  0.879573  1
  Dy  Dy2  1  0.709385  0.088560  0.879556  1
  Dy  Dy3  1  0.715750  0.914794  0.379279  1
  Dy  Dy4  1  0.588321  0.791387  0.880487  1
  Dy  Dy5  1  0.588109  0.208495  0.377188  1
  Dy  Dy6  1  0.411830  0.791517  0.377161  1
  Ho  Ho7  1  0.411669  0.208441  0.880576  1
  Ho  Ho8  1  0.208062  0.411940  0.622787  1
  Ho  Ho9  1  0.208151  0.588109  0.119355  1
  Ho  Ho10  1  0.791840  0.411871  0.119335  1
  Ho  Ho11  1  0.791978  0.587981  0.622721  1
  Ho  Ho12  1  0.911688  0.708963  0.120227  1
  Ho  Ho13  1  0.915015  0.284701  0.620551  1
  Ho  Ho14  1  0.084978  0.715309  0.620582  1
  Ho  Ho15  1  0.088343  0.291039  0.120185  1
  Ho  Ho16  1  0.000014  0.000014  0.000071  1
  Ho  Ho17  1  0.499957  0.499899  0.000011  1
  Ho  Ho18  1  0.499982  0.499976  0.500095  1
  In  In19  1  0.000009  0.000007  0.500070  1
  Ir  Ir20  1  0.845886  0.155963  0.245938  1
  Ir  Ir21  1  0.844517  0.845393  0.754373  1
  Ir  Ir22  1  0.155683  0.154634  0.754465  1
  Ir  Ir23  1  0.154113  0.844033  0.245956  1
  Ir  Ir24  1  0.654562  0.346718  0.747717  1
  Ir  Ir25  1  0.653684  0.654226  0.252634  1
  Ir  Ir26  1  0.346396  0.345677  0.252301  1
  Ir  Ir27  1  0.345316  0.653218  0.747623  1
  Ir  Ir28  1  0.499941  0.000173  0.124463  1
  Ir  Ir29  1  0.499939  0.000137  0.620745  1
  Ir  Ir30  1  0.000007  0.499999  0.875343  1
  Ir  Ir31  1  0.999998  0.499996  0.379377  1
