# generated using pymatgen
data_Er20Ir5Ru4Rh3
_symmetry_space_group_name_H-M   'P 1'
_cell_length_a   10.74302313
_cell_length_b   10.74302313
_cell_length_c   6.37816800
_cell_angle_alpha   90.00141355
_cell_angle_beta   90.00141355
_cell_angle_gamma   90.01777055
_symmetry_Int_Tables_number   1
_chemical_formula_structural   Er20Ir5Ru4Rh3
_chemical_formula_sum   'Er20 Ir5 Ru4 Rh3'
_cell_volume   736.12057177
_cell_formula_units_Z   1
loop_
 _symmetry_equiv_pos_site_id
 _symmetry_equiv_pos_as_xyz
  1  'x, y, z'
loop_
 _atom_site_type_symbol
 _atom_site_label
 _atom_site_symmetry_multiplicity
 _atom_site_fract_x
 _atom_site_fract_y
 _atom_site_fract_z
 _atom_site_occupancy
  Er  Er0  1  0.293926  0.086142  0.376478  1
  Er  Er1  1  0.293754  0.912749  0.877488  1
  Er  Er2  1  0.705607  0.086922  0.876876  1
  Er  Er3  1  0.705645  0.912953  0.376593  1
  Er  Er4  1  0.585824  0.793501  0.877667  1
  Er  Er5  1  0.585825  0.206522  0.377476  1
  Er  Er6  1  0.413384  0.793548  0.377304  1
  Er  Er7  1  0.414165  0.206484  0.877441  1
  Er  Er8  1  0.206499  0.414176  0.622333  1
  Er  Er9  1  0.206452  0.586616  0.122696  1
  Er  Er10  1  0.793478  0.414175  0.122524  1
  Er  Er11  1  0.793516  0.585835  0.622559  1
  Er  Er12  1  0.913858  0.706074  0.123522  1
  Er  Er13  1  0.913078  0.294393  0.623124  1
  Er  Er14  1  0.087251  0.706246  0.622512  1
  Er  Er15  1  0.087047  0.294355  0.123407  1
  Er  Er16  1  0.000215  0.999835  0.499786  1
  Er  Er17  1  0.000165  0.999785  0.000214  1
  Er  Er18  1  0.500022  0.499957  0.000062  1
  Er  Er19  1  0.500043  0.499978  0.499938  1
  Ir  Ir20  1  0.152103  0.847897  0.250000  1
  Ir  Ir21  1  0.652904  0.347096  0.750000  1
  Ir  Ir22  1  0.652860  0.652878  0.250048  1
  Ir  Ir23  1  0.347122  0.347140  0.249952  1
  Ir  Ir24  1  0.347397  0.652603  0.750000  1
  Ru  Ru25  1  0.500277  0.000135  0.122176  1
  Ru  Ru26  1  0.500294  0.000151  0.622306  1
  Ru  Ru27  1  0.999849  0.499706  0.877694  1
  Ru  Ru28  1  0.999865  0.499723  0.377824  1
  Rh  Rh29  1  0.847838  0.152162  0.250000  1
  Rh  Rh30  1  0.847538  0.847799  0.749910  1
  Rh  Rh31  1  0.152201  0.152462  0.750090  1
