# generated using pymatgen
data_Ca2PdAu6
_symmetry_space_group_name_H-M   'P 1'
_cell_length_a   5.42203702
_cell_length_b   5.42203794
_cell_length_c   14.17579600
_cell_angle_alpha   90.00000000
_cell_angle_beta   90.00000000
_cell_angle_gamma   118.40335165
_symmetry_Int_Tables_number   1
_chemical_formula_structural   Ca2PdAu6
_chemical_formula_sum   'Ca4 Pd2 Au12'
_cell_volume   366.57931066
_cell_formula_units_Z   2
loop_
 _symmetry_equiv_pos_site_id
 _symmetry_equiv_pos_as_xyz
  1  'x, y, z'
loop_
 _atom_site_type_symbol
 _atom_site_label
 _atom_site_symmetry_multiplicity
 _atom_site_fract_x
 _atom_site_fract_y
 _atom_site_fract_z
 _atom_site_occupancy
  Ca  Ca0  1  0.320474  0.320474  0.115672  1
  Ca  Ca1  1  0.679526  0.679526  0.615672  1
  Ca  Ca2  1  0.320474  0.320474  0.384328  1
  Ca  Ca3  1  0.679526  0.679526  0.884328  1
  Pd  Pd4  1  0.830644  0.830644  0.250000  1
  Pd  Pd5  1  0.169356  0.169356  0.750000  1
  Au  Au6  1  0.826890  0.329046  0.250000  1
  Au  Au7  1  0.173110  0.670954  0.750000  1
  Au  Au8  1  0.329046  0.826890  0.250000  1
  Au  Au9  1  0.670954  0.173110  0.750000  1
  Au  Au10  1  0.982263  0.664109  0.075334  1
  Au  Au11  1  0.017737  0.335891  0.575334  1
  Au  Au12  1  0.664109  0.982263  0.424666  1
  Au  Au13  1  0.335891  0.017737  0.924666  1
  Au  Au14  1  0.017737  0.335891  0.924666  1
  Au  Au15  1  0.982263  0.664109  0.424666  1
  Au  Au16  1  0.335891  0.017737  0.575334  1
  Au  Au17  1  0.664109  0.982263  0.075334  1
