# generated using pymatgen
data_Sm2InCl7
_symmetry_space_group_name_H-M   'P 1'
_cell_length_a   12.94343100
_cell_length_b   7.10105645
_cell_length_c   13.59006600
_cell_angle_alpha   89.46943981
_cell_angle_beta   90.00000000
_cell_angle_gamma   90.00000000
_symmetry_Int_Tables_number   1
_chemical_formula_structural   Sm2InCl7
_chemical_formula_sum   'Sm8 In4 Cl28'
_cell_volume   1249.03705742
_cell_formula_units_Z   4
loop_
 _symmetry_equiv_pos_site_id
 _symmetry_equiv_pos_as_xyz
  1  'x, y, z'
loop_
 _atom_site_type_symbol
 _atom_site_label
 _atom_site_symmetry_multiplicity
 _atom_site_fract_x
 _atom_site_fract_y
 _atom_site_fract_z
 _atom_site_occupancy
  Sm  Sm0  1  0.537592  0.779074  0.236541  1
  Sm  Sm1  1  0.462408  0.220926  0.763459  1
  Sm  Sm2  1  0.037592  0.220926  0.263459  1
  Sm  Sm3  1  0.962408  0.779074  0.736541  1
  Sm  Sm4  1  0.840566  0.727203  0.247104  1
  Sm  Sm5  1  0.159434  0.272797  0.752896  1
  Sm  Sm6  1  0.340566  0.272797  0.252896  1
  Sm  Sm7  1  0.659434  0.727203  0.747104  1
  In  In8  1  0.201659  0.739509  0.036390  1
  In  In9  1  0.798341  0.260491  0.963610  1
  In  In10  1  0.701659  0.260491  0.463610  1
  In  In11  1  0.298341  0.739509  0.536390  1
  Cl  Cl12  1  0.975040  0.943741  0.133956  1
  Cl  Cl13  1  0.024960  0.056259  0.866044  1
  Cl  Cl14  1  0.475040  0.056259  0.366044  1
  Cl  Cl15  1  0.524960  0.943741  0.633956  1
  Cl  Cl16  1  0.685360  0.743162  0.389391  1
  Cl  Cl17  1  0.314640  0.256838  0.610609  1
  Cl  Cl18  1  0.185360  0.256838  0.110609  1
  Cl  Cl19  1  0.814640  0.743162  0.889391  1
  Cl  Cl20  1  0.678458  0.516331  0.172218  1
  Cl  Cl21  1  0.321542  0.483669  0.827782  1
  Cl  Cl22  1  0.178458  0.483669  0.327782  1
  Cl  Cl23  1  0.821542  0.516331  0.672218  1
  Cl  Cl24  1  0.924409  0.976019  0.379443  1
  Cl  Cl25  1  0.075591  0.023981  0.620557  1
  Cl  Cl26  1  0.424409  0.023981  0.120557  1
  Cl  Cl27  1  0.575591  0.976019  0.879443  1
  Cl  Cl28  1  0.941917  0.462539  0.129702  1
  Cl  Cl29  1  0.058083  0.537461  0.870298  1
  Cl  Cl30  1  0.441917  0.537461  0.370298  1
  Cl  Cl31  1  0.558083  0.462539  0.629702  1
  Cl  Cl32  1  0.703793  0.998203  0.174852  1
  Cl  Cl33  1  0.296207  0.001797  0.825148  1
  Cl  Cl34  1  0.203793  0.001797  0.325148  1
  Cl  Cl35  1  0.796207  0.998203  0.674852  1
  Cl  Cl36  1  0.911651  0.454344  0.377272  1
  Cl  Cl37  1  0.088349  0.545656  0.622728  1
  Cl  Cl38  1  0.411651  0.545656  0.122728  1
  Cl  Cl39  1  0.588349  0.454344  0.877272  1
