# generated using pymatgen
data_La2GePd14
_symmetry_space_group_name_H-M   'P 1'
_cell_length_a   9.03155100
_cell_length_b   9.03155100
_cell_length_c   7.23947600
_cell_angle_alpha   90.00000000
_cell_angle_beta   90.00000000
_cell_angle_gamma   90.00000000
_symmetry_Int_Tables_number   1
_chemical_formula_structural   La2GePd14
_chemical_formula_sum   'La4 Ge2 Pd28'
_cell_volume   590.51619138
_cell_formula_units_Z   2
loop_
 _symmetry_equiv_pos_site_id
 _symmetry_equiv_pos_as_xyz
  1  'x, y, z'
loop_
 _atom_site_type_symbol
 _atom_site_label
 _atom_site_symmetry_multiplicity
 _atom_site_fract_x
 _atom_site_fract_y
 _atom_site_fract_z
 _atom_site_occupancy
  La  La0  1  0.500000  0.000000  0.937763  1
  La  La1  1  0.000000  0.500000  0.062237  1
  La  La2  1  0.000000  0.000000  0.500000  1
  La  La3  1  0.500000  0.500000  0.500000  1
  Ge  Ge4  1  0.500000  0.000000  0.448828  1
  Ge  Ge5  1  0.000000  0.500000  0.551172  1
  Pd  Pd6  1  0.331122  0.831122  0.620021  1
  Pd  Pd7  1  0.331122  0.168878  0.620021  1
  Pd  Pd8  1  0.668878  0.831122  0.620021  1
  Pd  Pd9  1  0.668878  0.168878  0.620021  1
  Pd  Pd10  1  0.168878  0.668878  0.379979  1
  Pd  Pd11  1  0.168878  0.331122  0.379979  1
  Pd  Pd12  1  0.831122  0.668878  0.379979  1
  Pd  Pd13  1  0.831122  0.331122  0.379979  1
  Pd  Pd14  1  0.500000  0.766333  0.253588  1
  Pd  Pd15  1  0.500000  0.233667  0.253588  1
  Pd  Pd16  1  0.266333  0.000000  0.253588  1
  Pd  Pd17  1  0.733667  0.000000  0.253588  1
  Pd  Pd18  1  0.000000  0.733667  0.746412  1
  Pd  Pd19  1  0.000000  0.266333  0.746412  1
  Pd  Pd20  1  0.233667  0.500000  0.746412  1
  Pd  Pd21  1  0.766333  0.500000  0.746412  1
  Pd  Pd22  1  0.500000  0.349097  0.856501  1
  Pd  Pd23  1  0.500000  0.650903  0.856501  1
  Pd  Pd24  1  0.849097  0.000000  0.856501  1
  Pd  Pd25  1  0.150903  0.000000  0.856501  1
  Pd  Pd26  1  0.000000  0.150903  0.143499  1
  Pd  Pd27  1  0.000000  0.849097  0.143499  1
  Pd  Pd28  1  0.650903  0.500000  0.143499  1
  Pd  Pd29  1  0.349097  0.500000  0.143499  1
  Pd  Pd30  1  0.250000  0.750000  0.000000  1
  Pd  Pd31  1  0.250000  0.250000  0.000000  1
  Pd  Pd32  1  0.750000  0.750000  0.000000  1
  Pd  Pd33  1  0.750000  0.250000  0.000000  1
