# generated using pymatgen
data_Pr2Zn21Ni
_symmetry_space_group_name_H-M   'P 1'
_cell_length_a   8.24831255
_cell_length_b   8.25633564
_cell_length_c   8.24831253
_cell_angle_alpha   100.08075094
_cell_angle_beta   99.69066356
_cell_angle_gamma   130.98239433
_symmetry_Int_Tables_number   1
_chemical_formula_structural   Pr2Zn21Ni
_chemical_formula_sum   'Pr2 Zn21 Ni1'
_cell_volume   386.02367897
_cell_formula_units_Z   1
loop_
 _symmetry_equiv_pos_site_id
 _symmetry_equiv_pos_as_xyz
  1  'x, y, z'
loop_
 _atom_site_type_symbol
 _atom_site_label
 _atom_site_symmetry_multiplicity
 _atom_site_fract_x
 _atom_site_fract_y
 _atom_site_fract_z
 _atom_site_occupancy
  Pr  Pr0  1  0.499725  0.503276  0.003551  1
  Pr  Pr1  1  0.750275  0.246724  0.496449  1
  Zn  Zn2  1  0.843406  0.431067  0.169001  1
  Zn  Zn3  1  0.322762  0.150888  0.590132  1
  Zn  Zn4  1  0.262066  0.431067  0.587661  1
  Zn  Zn5  1  0.324085  0.740766  0.172135  1
  Zn  Zn6  1  0.987934  0.318933  0.912339  1
  Zn  Zn7  1  0.254496  0.680288  0.822398  1
  Zn  Zn8  1  0.243059  0.753057  0.509997  1
  Zn  Zn9  1  0.995504  0.069712  0.677602  1
  Zn  Zn10  1  0.006941  0.996943  0.990003  1
  Zn  Zn11  1  0.681368  0.009234  0.083319  1
  Zn  Zn12  1  0.625000  0.875000  0.750000  1
  Zn  Zn13  1  0.406594  0.318933  0.330999  1
  Zn  Zn14  1  0.925915  0.009234  0.327865  1
  Zn  Zn15  1  0.857890  0.680288  0.425792  1
  Zn  Zn16  1  0.568632  0.740766  0.416681  1
  Zn  Zn17  1  0.689245  0.599112  0.671875  1
  Zn  Zn18  1  0.392110  0.069712  0.074208  1
  Zn  Zn19  1  0.927238  0.599112  0.909868  1
  Zn  Zn20  1  0.560755  0.150888  0.828125  1
  Zn  Zn21  1  0.125000  0.875000  0.250000  1
  Zn  Zn22  1  0.125000  0.375000  0.250000  1
  Ni  Ni23  1  0.125000  0.875000  0.750000  1
