# generated using pymatgen
data_Pr4SiPd28Se
_symmetry_space_group_name_H-M   'P 1'
_cell_length_a   9.02714900
_cell_length_b   9.02714900
_cell_length_c   7.20395500
_cell_angle_alpha   90.00000000
_cell_angle_beta   90.00000000
_cell_angle_gamma   90.00000000
_symmetry_Int_Tables_number   1
_chemical_formula_structural   Pr4SiPd28Se
_chemical_formula_sum   'Pr4 Si1 Pd28 Se1'
_cell_volume   587.04610794
_cell_formula_units_Z   1
loop_
 _symmetry_equiv_pos_site_id
 _symmetry_equiv_pos_as_xyz
  1  'x, y, z'
loop_
 _atom_site_type_symbol
 _atom_site_label
 _atom_site_symmetry_multiplicity
 _atom_site_fract_x
 _atom_site_fract_y
 _atom_site_fract_z
 _atom_site_occupancy
  Pr  Pr0  1  0.500000  0.000000  0.934095  1
  Pr  Pr1  1  0.000000  0.500000  0.065297  1
  Pr  Pr2  1  0.000000  0.000000  0.500495  1
  Pr  Pr3  1  0.500000  0.500000  0.500495  1
  Si  Si4  1  0.000000  0.500000  0.550520  1
  Pd  Pd5  1  0.327878  0.827878  0.623203  1
  Pd  Pd6  1  0.327878  0.172122  0.623203  1
  Pd  Pd7  1  0.672122  0.827878  0.623203  1
  Pd  Pd8  1  0.672122  0.172122  0.623203  1
  Pd  Pd9  1  0.164487  0.664487  0.383457  1
  Pd  Pd10  1  0.164487  0.335513  0.383457  1
  Pd  Pd11  1  0.835513  0.664487  0.383457  1
  Pd  Pd12  1  0.835513  0.335513  0.383457  1
  Pd  Pd13  1  0.500000  0.764201  0.250731  1
  Pd  Pd14  1  0.500000  0.235799  0.250731  1
  Pd  Pd15  1  0.264201  0.000000  0.250731  1
  Pd  Pd16  1  0.735799  0.000000  0.250731  1
  Pd  Pd17  1  0.000000  0.728584  0.741991  1
  Pd  Pd18  1  0.000000  0.271416  0.741991  1
  Pd  Pd19  1  0.228584  0.500000  0.741991  1
  Pd  Pd20  1  0.771416  0.500000  0.741991  1
  Pd  Pd21  1  0.500000  0.347913  0.858587  1
  Pd  Pd22  1  0.500000  0.652087  0.858587  1
  Pd  Pd23  1  0.847913  0.000000  0.858587  1
  Pd  Pd24  1  0.152087  0.000000  0.858587  1
  Pd  Pd25  1  0.000000  0.151433  0.141799  1
  Pd  Pd26  1  0.000000  0.848567  0.141799  1
  Pd  Pd27  1  0.651433  0.500000  0.141799  1
  Pd  Pd28  1  0.348567  0.500000  0.141799  1
  Pd  Pd29  1  0.247263  0.747263  0.999969  1
  Pd  Pd30  1  0.247263  0.252737  0.999969  1
  Pd  Pd31  1  0.752737  0.747263  0.999969  1
  Pd  Pd32  1  0.752737  0.252737  0.999969  1
  Se  Se33  1  0.500000  0.000000  0.450149  1
