# generated using pymatgen
data_Ba2Ag8Se7
_symmetry_space_group_name_H-M   'P 1'
_cell_length_a   4.58503700
_cell_length_b   11.45249800
_cell_length_c   16.55832000
_cell_angle_alpha   90.00000000
_cell_angle_beta   90.00000000
_cell_angle_gamma   90.00000000
_symmetry_Int_Tables_number   1
_chemical_formula_structural   Ba2Ag8Se7
_chemical_formula_sum   'Ba4 Ag16 Se14'
_cell_volume   869.47948731
_cell_formula_units_Z   2
loop_
 _symmetry_equiv_pos_site_id
 _symmetry_equiv_pos_as_xyz
  1  'x, y, z'
loop_
 _atom_site_type_symbol
 _atom_site_label
 _atom_site_symmetry_multiplicity
 _atom_site_fract_x
 _atom_site_fract_y
 _atom_site_fract_z
 _atom_site_occupancy
  Ba  Ba0  1  0.262272  0.877731  0.365457  1
  Ba  Ba1  1  0.262272  0.877731  0.634543  1
  Ba  Ba2  1  0.762272  0.122269  0.134543  1
  Ba  Ba3  1  0.762272  0.122269  0.865457  1
  Ag  Ag4  1  0.754503  0.481320  0.394035  1
  Ag  Ag5  1  0.754503  0.481320  0.605965  1
  Ag  Ag6  1  0.254503  0.518680  0.105965  1
  Ag  Ag7  1  0.254503  0.518680  0.894035  1
  Ag  Ag8  1  0.771133  0.201398  0.355296  1
  Ag  Ag9  1  0.771133  0.201398  0.644704  1
  Ag  Ag10  1  0.271133  0.798602  0.144704  1
  Ag  Ag11  1  0.271133  0.798602  0.855296  1
  Ag  Ag12  1  0.259545  0.364122  0.293868  1
  Ag  Ag13  1  0.259545  0.364122  0.706132  1
  Ag  Ag14  1  0.759545  0.635878  0.206132  1
  Ag  Ag15  1  0.759545  0.635878  0.793868  1
  Ag  Ag16  1  0.248479  0.576402  0.500000  1
  Ag  Ag17  1  0.748479  0.423598  0.000000  1
  Ag  Ag18  1  0.146823  0.189542  0.500000  1
  Ag  Ag19  1  0.646823  0.810458  0.000000  1
  Se  Se20  1  0.246464  0.577636  0.344316  1
  Se  Se21  1  0.246464  0.577636  0.655684  1
  Se  Se22  1  0.746464  0.422364  0.155684  1
  Se  Se23  1  0.746464  0.422364  0.844316  1
  Se  Se24  1  0.767278  0.785866  0.500000  1
  Se  Se25  1  0.267278  0.214134  0.000000  1
  Se  Se26  1  0.755185  0.003883  0.500000  1
  Se  Se27  1  0.255185  0.996117  0.000000  1
  Se  Se28  1  0.263622  0.141303  0.278408  1
  Se  Se29  1  0.263622  0.141303  0.721592  1
  Se  Se30  1  0.763622  0.858697  0.221592  1
  Se  Se31  1  0.763622  0.858697  0.778408  1
  Se  Se32  1  0.634156  0.303936  0.500000  1
  Se  Se33  1  0.134156  0.696064  0.000000  1
