# generated using pymatgen
data_ThPa(Be2Ir3)2
_symmetry_space_group_name_H-M   'P 1'
_cell_length_a   6.43290745
_cell_length_b   6.43290706
_cell_length_c   6.43290700
_cell_angle_alpha   130.61479320
_cell_angle_beta   114.27916890
_cell_angle_gamma   86.43658063
_symmetry_Int_Tables_number   1
_chemical_formula_structural   ThPa(Be2Ir3)2
_chemical_formula_sum   'Th1 Pa1 Be4 Ir6'
_cell_volume   175.89434223
_cell_formula_units_Z   1
loop_
 _symmetry_equiv_pos_site_id
 _symmetry_equiv_pos_as_xyz
  1  'x, y, z'
loop_
 _atom_site_type_symbol
 _atom_site_label
 _atom_site_symmetry_multiplicity
 _atom_site_fract_x
 _atom_site_fract_y
 _atom_site_fract_z
 _atom_site_occupancy
  Th  Th0  1  0.250000  0.980149  0.730149  1
  Pa  Pa1  1  0.750000  0.024417  0.274417  1
  Be  Be2  1  0.577752  0.359009  0.781258  1
  Be  Be3  1  0.086048  0.307811  0.221763  1
  Be  Be4  1  0.413952  0.635716  0.221763  1
  Be  Be5  1  0.922248  0.703507  0.781258  1
  Ir  Ir6  1  0.747525  0.460048  0.246564  1
  Ir  Ir7  1  0.990919  0.535608  0.026527  1
  Ir  Ir8  1  0.752475  0.999039  0.712524  1
  Ir  Ir9  1  0.213484  0.460048  0.712524  1
  Ir  Ir10  1  0.286516  0.999039  0.246564  1
  Ir  Ir11  1  0.509081  0.535608  0.544689  1
