# generated using pymatgen
data_Er6Th2MgInRh2
_symmetry_space_group_name_H-M   'P 1'
_cell_length_a   9.72651928
_cell_length_b   9.72652021
_cell_length_c   9.73877700
_cell_angle_alpha   59.95830270
_cell_angle_beta   59.95829951
_cell_angle_gamma   60.05137924
_symmetry_Int_Tables_number   1
_chemical_formula_structural   Er6Th2MgInRh2
_chemical_formula_sum   'Er12 Th4 Mg2 In2 Rh4'
_cell_volume   651.32611821
_cell_formula_units_Z   2
loop_
 _symmetry_equiv_pos_site_id
 _symmetry_equiv_pos_as_xyz
  1  'x, y, z'
loop_
 _atom_site_type_symbol
 _atom_site_label
 _atom_site_symmetry_multiplicity
 _atom_site_fract_x
 _atom_site_fract_y
 _atom_site_fract_z
 _atom_site_occupancy
  Er  Er0  1  0.812404  0.187029  0.188158  1
  Er  Er1  1  0.187029  0.812404  0.812409  1
  Er  Er2  1  0.187029  0.812404  0.188158  1
  Er  Er3  1  0.812404  0.187029  0.812409  1
  Er  Er4  1  0.186729  0.186729  0.813271  1
  Er  Er5  1  0.811725  0.811725  0.188275  1
  Er  Er6  1  0.933876  0.566867  0.565948  1
  Er  Er7  1  0.566867  0.933876  0.933309  1
  Er  Er8  1  0.566867  0.933876  0.565948  1
  Er  Er9  1  0.933876  0.566867  0.933309  1
  Er  Er10  1  0.565849  0.565849  0.934151  1
  Er  Er11  1  0.933503  0.933503  0.566497  1
  Th  Th12  1  0.348686  0.348686  0.348193  1
  Th  Th13  1  0.348686  0.348686  0.954434  1
  Th  Th14  1  0.349057  0.952414  0.349264  1
  Th  Th15  1  0.952414  0.349057  0.349264  1
  Mg  Mg16  1  0.580514  0.258426  0.580529  1
  Mg  Mg17  1  0.258426  0.580514  0.580529  1
  In  In18  1  0.582467  0.582467  0.584045  1
  In  In19  1  0.582467  0.582467  0.251019  1
  Rh  Rh20  1  0.143098  0.143098  0.143390  1
  Rh  Rh21  1  0.143098  0.143098  0.570411  1
  Rh  Rh22  1  0.143129  0.569794  0.143537  1
  Rh  Rh23  1  0.569794  0.143129  0.143537  1
