# generated using pymatgen
data_LuU5O16
_symmetry_space_group_name_H-M   'P 1'
_cell_length_a   6.72433992
_cell_length_b   6.71839444
_cell_length_c   8.30944800
_cell_angle_alpha   90.00000000
_cell_angle_beta   90.00000000
_cell_angle_gamma   116.37833287
_symmetry_Int_Tables_number   1
_chemical_formula_structural   LuU5O16
_chemical_formula_sum   'Lu1 U5 O16'
_cell_volume   336.30792035
_cell_formula_units_Z   1
loop_
 _symmetry_equiv_pos_site_id
 _symmetry_equiv_pos_as_xyz
  1  'x, y, z'
loop_
 _atom_site_type_symbol
 _atom_site_label
 _atom_site_symmetry_multiplicity
 _atom_site_fract_x
 _atom_site_fract_y
 _atom_site_fract_z
 _atom_site_occupancy
  Lu  Lu0  1  0.309457  0.685750  0.250000  1
  U  U1  1  0.997904  0.999882  0.250000  1
  U  U2  1  0.317099  0.685272  0.750000  1
  U  U3  1  0.682173  0.318312  0.750000  1
  U  U4  1  0.677337  0.318175  0.250000  1
  U  U5  1  0.998491  0.000554  0.750000  1
  O  O6  1  0.314763  0.687285  0.978718  1
  O  O7  1  0.515457  0.504451  0.750000  1
  O  O8  1  0.999418  0.998308  0.505825  1
  O  O9  1  0.035088  0.323213  0.250000  1
  O  O10  1  0.963888  0.670831  0.750000  1
  O  O11  1  0.323284  0.035725  0.250000  1
  O  O12  1  0.686507  0.311789  0.494357  1
  O  O13  1  0.037704  0.328082  0.750000  1
  O  O14  1  0.674385  0.958247  0.250000  1
  O  O15  1  0.331272  0.045428  0.750000  1
  O  O16  1  0.686507  0.311789  0.005643  1
  O  O17  1  0.314763  0.687285  0.521282  1
  O  O18  1  0.504531  0.486169  0.250000  1
  O  O19  1  0.957551  0.672876  0.250000  1
  O  O20  1  0.999418  0.998308  0.994175  1
  O  O21  1  0.673004  0.972268  0.750000  1
