# generated using pymatgen
data_Y2Zn14Ni3
_symmetry_space_group_name_H-M   'P 1'
_cell_length_a   6.66839099
_cell_length_b   6.66839115
_cell_length_c   6.66839017
_cell_angle_alpha   82.88502504
_cell_angle_beta   82.88502064
_cell_angle_gamma   82.88502286
_symmetry_Int_Tables_number   1
_chemical_formula_structural   Y2Zn14Ni3
_chemical_formula_sum   'Y2 Zn14 Ni3'
_cell_volume   290.19843961
_cell_formula_units_Z   1
loop_
 _symmetry_equiv_pos_site_id
 _symmetry_equiv_pos_as_xyz
  1  'x, y, z'
loop_
 _atom_site_type_symbol
 _atom_site_label
 _atom_site_symmetry_multiplicity
 _atom_site_fract_x
 _atom_site_fract_y
 _atom_site_fract_z
 _atom_site_occupancy
  Y  Y0  1  0.662006  0.662006  0.662006  1
  Y  Y1  1  0.337994  0.337994  0.337994  1
  Zn  Zn2  1  0.346658  0.346658  0.850799  1
  Zn  Zn3  1  0.850799  0.346658  0.346658  1
  Zn  Zn4  1  0.106022  0.106022  0.106022  1
  Zn  Zn5  1  0.893978  0.893978  0.893978  1
  Zn  Zn6  1  0.294960  0.705040  0.000000  1
  Zn  Zn7  1  0.705040  0.000000  0.294960  1
  Zn  Zn8  1  0.000000  0.294960  0.705040  1
  Zn  Zn9  1  0.705040  0.294960  0.000000  1
  Zn  Zn10  1  0.294960  0.000000  0.705040  1
  Zn  Zn11  1  0.000000  0.705040  0.294960  1
  Zn  Zn12  1  0.149201  0.653342  0.653342  1
  Zn  Zn13  1  0.653342  0.653342  0.149201  1
  Zn  Zn14  1  0.653342  0.149201  0.653342  1
  Zn  Zn15  1  0.346658  0.850799  0.346658  1
  Ni  Ni16  1  0.000000  0.000000  0.500000  1
  Ni  Ni17  1  0.000000  0.500000  0.000000  1
  Ni  Ni18  1  0.500000  0.000000  0.000000  1
