# generated using pymatgen
data_Th5Ti3(Co4P3)4
_symmetry_space_group_name_H-M   'P 1'
_cell_length_a   12.25468400
_cell_length_b   12.25468380
_cell_length_c   3.80644900
_cell_angle_alpha   90.00000000
_cell_angle_beta   90.00000000
_cell_angle_gamma   119.99999515
_symmetry_Int_Tables_number   1
_chemical_formula_structural   Th5Ti3(Co4P3)4
_chemical_formula_sum   'Th5 Ti3 Co16 P12'
_cell_volume   495.05664577
_cell_formula_units_Z   1
loop_
 _symmetry_equiv_pos_site_id
 _symmetry_equiv_pos_as_xyz
  1  'x, y, z'
loop_
 _atom_site_type_symbol
 _atom_site_label
 _atom_site_symmetry_multiplicity
 _atom_site_fract_x
 _atom_site_fract_y
 _atom_site_fract_z
 _atom_site_occupancy
  Th  Th0  1  0.666667  0.333333  0.000000  1
  Th  Th1  1  0.333333  0.666667  0.000000  1
  Th  Th2  1  0.812272  0.812272  0.500000  1
  Th  Th3  1  0.187728  0.000000  0.500000  1
  Th  Th4  1  0.000000  0.187728  0.500000  1
  Ti  Ti5  1  0.432606  0.432606  0.000000  1
  Ti  Ti6  1  0.567394  0.000000  0.000000  1
  Ti  Ti7  1  0.000000  0.567394  0.000000  1
  Co  Co8  1  0.196507  0.378364  0.000000  1
  Co  Co9  1  0.181857  0.803493  0.000000  1
  Co  Co10  1  0.818143  0.621636  0.000000  1
  Co  Co11  1  0.803493  0.181857  0.000000  1
  Co  Co12  1  0.378364  0.196507  0.000000  1
  Co  Co13  1  0.124852  0.484831  0.500000  1
  Co  Co14  1  0.359981  0.875148  0.500000  1
  Co  Co15  1  0.515169  0.640019  0.500000  1
  Co  Co16  1  0.640019  0.515169  0.500000  1
  Co  Co17  1  0.875148  0.359981  0.500000  1
  Co  Co18  1  0.484831  0.124852  0.500000  1
  Co  Co19  1  0.000000  0.000000  0.000000  1
  Co  Co20  1  0.719190  0.000000  0.500000  1
  Co  Co21  1  0.000000  0.719190  0.500000  1
  Co  Co22  1  0.621636  0.818143  0.000000  1
  Co  Co23  1  0.280810  0.280810  0.500000  1
  P  P24  1  0.631570  0.631570  0.000000  1
  P  P25  1  0.368430  0.000000  0.000000  1
  P  P26  1  0.000000  0.368430  0.000000  1
  P  P27  1  0.474106  0.308666  0.500000  1
  P  P28  1  0.691334  0.165439  0.500000  1
  P  P29  1  0.834561  0.525894  0.500000  1
  P  P30  1  0.525894  0.834561  0.500000  1
  P  P31  1  0.165439  0.691334  0.500000  1
  P  P32  1  0.816390  0.000000  0.000000  1
  P  P33  1  0.000000  0.816390  0.000000  1
  P  P34  1  0.308666  0.474106  0.500000  1
  P  P35  1  0.183610  0.183610  0.000000  1
