# generated using pymatgen
data_TmScPa2(Al3Rh)6
_symmetry_space_group_name_H-M   'P 1'
_cell_length_a   7.57612017
_cell_length_b   7.58902392
_cell_length_c   9.33941400
_cell_angle_alpha   90.00000000
_cell_angle_beta   90.00000000
_cell_angle_gamma   119.66959101
_symmetry_Int_Tables_number   1
_chemical_formula_structural   TmScPa2(Al3Rh)6
_chemical_formula_sum   'Tm1 Sc1 Pa2 Al18 Rh6'
_cell_volume   466.57275683
_cell_formula_units_Z   1
loop_
 _symmetry_equiv_pos_site_id
 _symmetry_equiv_pos_as_xyz
  1  'x, y, z'
loop_
 _atom_site_type_symbol
 _atom_site_label
 _atom_site_symmetry_multiplicity
 _atom_site_fract_x
 _atom_site_fract_y
 _atom_site_fract_z
 _atom_site_occupancy
  Tm  Tm0  1  0.329892  0.007074  0.750000  1
  Sc  Sc1  1  0.670424  0.992852  0.250000  1
  Pa  Pa2  1  0.997552  0.671242  0.250000  1
  Pa  Pa3  1  0.002414  0.328853  0.750000  1
  Al  Al4  1  0.127893  0.124844  0.250000  1
  Al  Al5  1  0.869239  0.873794  0.750000  1
  Al  Al6  1  0.996921  0.328539  0.080184  1
  Al  Al7  1  0.000184  0.668736  0.921694  1
  Al  Al8  1  0.000184  0.668736  0.578306  1
  Al  Al9  1  0.341217  0.002698  0.423242  1
  Al  Al10  1  0.996921  0.328539  0.419816  1
  Al  Al11  1  0.661488  0.997317  0.572427  1
  Al  Al12  1  0.661488  0.997317  0.927573  1
  Al  Al13  1  0.341217  0.002698  0.076758  1
  Al  Al14  1  0.334674  0.332840  0.552455  1
  Al  Al15  1  0.665464  0.669316  0.445368  1
  Al  Al16  1  0.665464  0.669316  0.054632  1
  Al  Al17  1  0.334674  0.332840  0.947545  1
  Al  Al18  1  0.342904  0.552538  0.250000  1
  Al  Al19  1  0.658807  0.450786  0.750000  1
  Al  Al20  1  0.551250  0.340373  0.250000  1
  Al  Al21  1  0.450179  0.659132  0.750000  1
  Rh  Rh22  1  0.675232  0.329193  0.999512  1
  Rh  Rh23  1  0.324353  0.670753  0.000372  1
  Rh  Rh24  1  0.324353  0.670753  0.499628  1
  Rh  Rh25  1  0.675232  0.329193  0.500488  1
  Rh  Rh26  1  0.000190  0.999863  0.000036  1
  Rh  Rh27  1  0.000190  0.999863  0.499964  1
