# generated using pymatgen
data_Mn4Nb4Si3P
_symmetry_space_group_name_H-M   'P 1'
_cell_length_a   3.55144100
_cell_length_b   6.34656377
_cell_length_c   7.44227889
_cell_angle_alpha   90.05624188
_cell_angle_beta   90.00000000
_cell_angle_gamma   90.00000000
_symmetry_Int_Tables_number   1
_chemical_formula_structural   Mn4Nb4Si3P
_chemical_formula_sum   'Mn4 Nb4 Si3 P1'
_cell_volume   167.74476816
_cell_formula_units_Z   1
loop_
 _symmetry_equiv_pos_site_id
 _symmetry_equiv_pos_as_xyz
  1  'x, y, z'
loop_
 _atom_site_type_symbol
 _atom_site_label
 _atom_site_symmetry_multiplicity
 _atom_site_fract_x
 _atom_site_fract_y
 _atom_site_fract_z
 _atom_site_occupancy
  Mn  Mn0  1  0.750000  0.867329  0.561335  1
  Mn  Mn1  1  0.250000  0.140530  0.443587  1
  Mn  Mn2  1  0.750000  0.360483  0.935819  1
  Mn  Mn3  1  0.250000  0.636406  0.060502  1
  Nb  Nb4  1  0.250000  0.528716  0.671982  1
  Nb  Nb5  1  0.750000  0.466652  0.328935  1
  Nb  Nb6  1  0.250000  0.034489  0.825376  1
  Nb  Nb7  1  0.750000  0.966290  0.171854  1
  Si  Si8  1  0.250000  0.265323  0.130973  1
  Si  Si9  1  0.750000  0.733563  0.869048  1
  Si  Si10  1  0.250000  0.767235  0.370562  1
  P  P11  1  0.750000  0.232985  0.630027  1
