# generated using pymatgen
data_Dy13Er7Co3Bi8Ru
_symmetry_space_group_name_H-M   'P 1'
_cell_length_a   7.95375248
_cell_length_b   8.90975031
_cell_length_c   12.40490141
_cell_angle_alpha   89.97791867
_cell_angle_beta   90.20737279
_cell_angle_gamma   90.02064162
_symmetry_Int_Tables_number   1
_chemical_formula_structural   Dy13Er7Co3Bi8Ru
_chemical_formula_sum   'Dy13 Er7 Co3 Bi8 Ru1'
_cell_volume   879.07922592
_cell_formula_units_Z   1
loop_
 _symmetry_equiv_pos_site_id
 _symmetry_equiv_pos_as_xyz
  1  'x, y, z'
loop_
 _atom_site_type_symbol
 _atom_site_label
 _atom_site_symmetry_multiplicity
 _atom_site_fract_x
 _atom_site_fract_y
 _atom_site_fract_z
 _atom_site_occupancy
  Dy  Dy0  1  0.847315  0.750222  0.800135  1
  Dy  Dy1  1  0.151429  0.249885  0.198537  1
  Dy  Dy2  1  0.348623  0.249908  0.698885  1
  Dy  Dy3  1  0.653133  0.750028  0.296210  1
  Dy  Dy4  1  0.379342  0.749980  0.692195  1
  Dy  Dy5  1  0.617841  0.250006  0.311382  1
  Dy  Dy6  1  0.881121  0.249737  0.811666  1
  Dy  Dy7  1  0.117371  0.750431  0.186723  1
  Dy  Dy8  1  0.948886  0.750035  0.503840  1
  Dy  Dy9  1  0.051216  0.249991  0.496802  1
  Dy  Dy10  1  0.450645  0.249722  0.997261  1
  Dy  Dy11  1  0.550436  0.750210  0.002550  1
  Dy  Dy12  1  0.175500  0.534561  0.936944  1
  Er  Er13  1  0.675386  0.042916  0.564557  1
  Er  Er14  1  0.325664  0.965336  0.436503  1
  Er  Er15  1  0.173591  0.965353  0.937153  1
  Er  Er16  1  0.325629  0.534640  0.436562  1
  Er  Er17  1  0.825554  0.037260  0.062976  1
  Er  Er18  1  0.675397  0.457106  0.564560  1
  Er  Er19  1  0.825059  0.462818  0.063110  1
  Co  Co20  1  0.434310  0.249991  0.491243  1
  Co  Co21  1  0.060179  0.249454  0.992470  1
  Co  Co22  1  0.936467  0.750629  0.007139  1
  Bi  Bi23  1  0.570899  0.491649  0.826754  1
  Bi  Bi24  1  0.428881  0.507906  0.173287  1
  Bi  Bi25  1  0.070482  0.507662  0.674097  1
  Bi  Bi26  1  0.429001  0.992078  0.173262  1
  Bi  Bi27  1  0.930901  0.492328  0.326046  1
  Bi  Bi28  1  0.570208  0.008229  0.826928  1
  Bi  Bi29  1  0.930910  0.007650  0.326091  1
  Bi  Bi30  1  0.070624  0.992281  0.674363  1
  Ru  Ru31  1  0.567999  0.749996  0.509770  1
