# generated using pymatgen
data_Ba2NbClO4
_symmetry_space_group_name_H-M   'P 1'
_cell_length_a   7.20879700
_cell_length_b   8.05233700
_cell_length_c   12.51192900
_cell_angle_alpha   90.00000000
_cell_angle_beta   90.00000000
_cell_angle_gamma   90.00000000
_symmetry_Int_Tables_number   1
_chemical_formula_structural   Ba2NbClO4
_chemical_formula_sum   'Ba8 Nb4 Cl4 O16'
_cell_volume   726.28823568
_cell_formula_units_Z   4
loop_
 _symmetry_equiv_pos_site_id
 _symmetry_equiv_pos_as_xyz
  1  'x, y, z'
loop_
 _atom_site_type_symbol
 _atom_site_label
 _atom_site_symmetry_multiplicity
 _atom_site_fract_x
 _atom_site_fract_y
 _atom_site_fract_z
 _atom_site_occupancy
  Ba  Ba0  1  0.859523  0.527965  0.750000  1
  Ba  Ba1  1  0.377257  0.750000  0.500000  1
  Ba  Ba2  1  0.140477  0.472035  0.250000  1
  Ba  Ba3  1  0.377257  0.750000  0.000000  1
  Ba  Ba4  1  0.140477  0.027965  0.750000  1
  Ba  Ba5  1  0.859523  0.972035  0.250000  1
  Ba  Ba6  1  0.622743  0.250000  0.500000  1
  Ba  Ba7  1  0.622743  0.250000  0.000000  1
  Nb  Nb8  1  0.127023  0.250000  0.000000  1
  Nb  Nb9  1  0.127023  0.250000  0.500000  1
  Nb  Nb10  1  0.872977  0.750000  0.500000  1
  Nb  Nb11  1  0.872977  0.750000  0.000000  1
  Cl  Cl12  1  0.492508  0.193527  0.250000  1
  Cl  Cl13  1  0.507492  0.693527  0.250000  1
  Cl  Cl14  1  0.507492  0.806473  0.750000  1
  Cl  Cl15  1  0.492508  0.306473  0.750000  1
  O  O16  1  0.285258  0.071511  0.968928  1
  O  O17  1  0.285258  0.428489  0.031072  1
  O  O18  1  0.028409  0.774733  0.619817  1
  O  O19  1  0.971591  0.225267  0.119817  1
  O  O20  1  0.714742  0.928489  0.031072  1
  O  O21  1  0.028409  0.725267  0.119817  1
  O  O22  1  0.714742  0.571511  0.531072  1
  O  O23  1  0.971591  0.274733  0.880183  1
  O  O24  1  0.971591  0.274733  0.619817  1
  O  O25  1  0.714742  0.571511  0.968928  1
  O  O26  1  0.028409  0.774733  0.880183  1
  O  O27  1  0.028409  0.725267  0.380183  1
  O  O28  1  0.971591  0.225267  0.380183  1
  O  O29  1  0.285258  0.071511  0.531072  1
  O  O30  1  0.714742  0.928489  0.468928  1
  O  O31  1  0.285258  0.428489  0.468928  1
