# generated using pymatgen
data_Y3Ho9(TcIr)2
_symmetry_space_group_name_H-M   'P 1'
_cell_length_a   6.31725701
_cell_length_b   7.34824152
_cell_length_c   9.12311500
_cell_angle_alpha   90.00000000
_cell_angle_beta   90.00000000
_cell_angle_gamma   89.88800235
_symmetry_Int_Tables_number   1
_chemical_formula_structural   Y3Ho9(TcIr)2
_chemical_formula_sum   'Y3 Ho9 Tc2 Ir2'
_cell_volume   423.50085129
_cell_formula_units_Z   1
loop_
 _symmetry_equiv_pos_site_id
 _symmetry_equiv_pos_as_xyz
  1  'x, y, z'
loop_
 _atom_site_type_symbol
 _atom_site_label
 _atom_site_symmetry_multiplicity
 _atom_site_fract_x
 _atom_site_fract_y
 _atom_site_fract_z
 _atom_site_occupancy
  Y  Y0  1  0.874319  0.538169  0.250000  1
  Y  Y1  1  0.131803  0.459984  0.750000  1
  Y  Y2  1  0.368045  0.960052  0.750000  1
  Ho  Ho3  1  0.329822  0.676625  0.065953  1
  Ho  Ho4  1  0.170870  0.176092  0.434078  1
  Ho  Ho5  1  0.667783  0.323969  0.561003  1
  Ho  Ho6  1  0.831886  0.824671  0.939045  1
  Ho  Ho7  1  0.667783  0.323969  0.938997  1
  Ho  Ho8  1  0.831886  0.824671  0.560955  1
  Ho  Ho9  1  0.329822  0.676625  0.434047  1
  Ho  Ho10  1  0.170870  0.176092  0.065922  1
  Ho  Ho11  1  0.626464  0.038909  0.250000  1
  Tc  Tc12  1  0.036622  0.887085  0.250000  1
  Tc  Tc13  1  0.462117  0.384850  0.250000  1
  Ir  Ir14  1  0.952345  0.114115  0.750000  1
  Ir  Ir15  1  0.547563  0.614119  0.750000  1
