# generated using pymatgen
data_Tb8Hf10Zr2Si15Ir
_symmetry_space_group_name_H-M   'P 1'
_cell_length_a   7.31012812
_cell_length_b   7.31891803
_cell_length_c   13.46452511
_cell_angle_alpha   89.87015880
_cell_angle_beta   89.89617841
_cell_angle_gamma   89.99786031
_symmetry_Int_Tables_number   1
_chemical_formula_structural   Tb8Hf10Zr2Si15Ir
_chemical_formula_sum   'Tb8 Hf10 Zr2 Si15 Ir1'
_cell_volume   720.37906521
_cell_formula_units_Z   1
loop_
 _symmetry_equiv_pos_site_id
 _symmetry_equiv_pos_as_xyz
  1  'x, y, z'
loop_
 _atom_site_type_symbol
 _atom_site_label
 _atom_site_symmetry_multiplicity
 _atom_site_fract_x
 _atom_site_fract_y
 _atom_site_fract_z
 _atom_site_occupancy
  Tb  Tb0  1  0.995420  0.346501  0.214608  1
  Tb  Tb1  1  0.004320  0.655220  0.714654  1
  Tb  Tb2  1  0.157746  0.494505  0.463521  1
  Tb  Tb3  1  0.503537  0.842850  0.034226  1
  Tb  Tb4  1  0.844441  0.502798  0.964993  1
  Tb  Tb5  1  0.496229  0.157100  0.535569  1
  Tb  Tb6  1  0.343767  0.997026  0.785213  1
  Tb  Tb7  1  0.657160  0.000608  0.284664  1
  Hf  Hf8  1  0.325649  0.667630  0.252718  1
  Hf  Hf9  1  0.674346  0.325315  0.750266  1
  Hf  Hf10  1  0.154021  0.004836  0.373524  1
  Hf  Hf11  1  0.850352  0.004224  0.874752  1
  Hf  Hf12  1  0.503640  0.650620  0.625648  1
  Hf  Hf13  1  0.351139  0.495886  0.873737  1
  Hf  Hf14  1  0.494325  0.346784  0.126527  1
  Hf  Hf15  1  0.646006  0.502009  0.378839  1
  Hf  Hf16  1  0.997021  0.148753  0.626254  1
  Hf  Hf17  1  0.000634  0.848533  0.124295  1
  Zr  Zr18  1  0.174916  0.174995  0.998636  1
  Zr  Zr19  1  0.827193  0.825466  0.500426  1
  Si  Si20  1  0.638048  0.705185  0.818342  1
  Si  Si21  1  0.205890  0.862281  0.566859  1
  Si  Si22  1  0.137633  0.794097  0.932731  1
  Si  Si23  1  0.795740  0.136948  0.065982  1
  Si  Si24  1  0.861048  0.200955  0.435556  1
  Si  Si25  1  0.295988  0.362303  0.683450  1
  Si  Si26  1  0.703722  0.639247  0.182775  1
  Si  Si27  1  0.291116  0.044743  0.184434  1
  Si  Si28  1  0.705315  0.951822  0.686341  1
  Si  Si29  1  0.450918  0.797586  0.438179  1
  Si  Si30  1  0.205857  0.551510  0.061626  1
  Si  Si31  1  0.549313  0.204988  0.935108  1
  Si  Si32  1  0.794735  0.450081  0.566332  1
  Si  Si33  1  0.047471  0.295906  0.813852  1
  Si  Si34  1  0.949548  0.708953  0.313225  1
  Ir  Ir35  1  0.365794  0.301737  0.312137  1
