# generated using pymatgen
data_Sc12GaNi4Ir
_symmetry_space_group_name_H-M   'P 1'
_cell_length_a   7.68849776
_cell_length_b   7.68849785
_cell_length_c   7.68849768
_cell_angle_alpha   110.54123704
_cell_angle_beta   110.87303373
_cell_angle_gamma   107.02688203
_symmetry_Int_Tables_number   1
_chemical_formula_structural   Sc12GaNi4Ir
_chemical_formula_sum   'Sc12 Ga1 Ni4 Ir1'
_cell_volume   349.38857790
_cell_formula_units_Z   1
loop_
 _symmetry_equiv_pos_site_id
 _symmetry_equiv_pos_as_xyz
  1  'x, y, z'
loop_
 _atom_site_type_symbol
 _atom_site_label
 _atom_site_symmetry_multiplicity
 _atom_site_fract_x
 _atom_site_fract_y
 _atom_site_fract_z
 _atom_site_occupancy
  Sc  Sc0  1  0.426964  0.231765  0.195199  1
  Sc  Sc1  1  0.573036  0.768235  0.804801  1
  Sc  Sc2  1  0.036567  0.231765  0.804801  1
  Sc  Sc3  1  0.963433  0.768235  0.195199  1
  Sc  Sc4  1  0.322737  0.618126  0.295388  1
  Sc  Sc5  1  0.677263  0.381874  0.704612  1
  Sc  Sc6  1  0.322737  0.027348  0.704612  1
  Sc  Sc7  1  0.677263  0.972652  0.295388  1
  Sc  Sc8  1  0.182729  0.278125  0.460855  1
  Sc  Sc9  1  0.817271  0.721874  0.539145  1
  Sc  Sc10  1  0.182729  0.721874  0.904604  1
  Sc  Sc11  1  0.817271  0.278125  0.095396  1
  Ga  Ga12  1  0.500000  0.500000  0.000000  1
  Ni  Ni13  1  0.354536  0.000000  0.354536  1
  Ni  Ni14  1  0.645464  0.000000  0.645464  1
  Ni  Ni15  1  0.126836  0.626836  0.500000  1
  Ni  Ni16  1  0.873164  0.373164  0.500000  1
  Ir  Ir17  1  0.000000  0.000000  0.000000  1
