# generated using pymatgen
data_Zr3MoF15
_symmetry_space_group_name_H-M   'P 1'
_cell_length_a   8.04491207
_cell_length_b   8.04491228
_cell_length_c   8.04491271
_cell_angle_alpha   99.89703325
_cell_angle_beta   99.89703576
_cell_angle_gamma   99.89702031
_symmetry_Int_Tables_number   1
_chemical_formula_structural   Zr3MoF15
_chemical_formula_sum   'Zr6 Mo2 F30'
_cell_volume   494.28680341
_cell_formula_units_Z   2
loop_
 _symmetry_equiv_pos_site_id
 _symmetry_equiv_pos_as_xyz
  1  'x, y, z'
loop_
 _atom_site_type_symbol
 _atom_site_label
 _atom_site_symmetry_multiplicity
 _atom_site_fract_x
 _atom_site_fract_y
 _atom_site_fract_z
 _atom_site_occupancy
  Zr  Zr0  1  0.680335  0.819665  0.250000  1
  Zr  Zr1  1  0.750000  0.319665  0.180335  1
  Zr  Zr2  1  0.819665  0.250000  0.680335  1
  Zr  Zr3  1  0.180335  0.750000  0.319665  1
  Zr  Zr4  1  0.250000  0.680335  0.819665  1
  Zr  Zr5  1  0.319665  0.180335  0.750000  1
  Mo  Mo6  1  0.750000  0.750000  0.750000  1
  Mo  Mo7  1  0.250000  0.250000  0.250000  1
  F  F8  1  0.962446  0.537554  0.250000  1
  F  F9  1  0.283690  0.519376  0.278772  1
  F  F10  1  0.150349  0.675711  0.048247  1
  F  F11  1  0.750000  0.037554  0.462446  1
  F  F12  1  0.778772  0.019376  0.783690  1
  F  F13  1  0.548247  0.175711  0.650349  1
  F  F14  1  0.980624  0.216310  0.221228  1
  F  F15  1  0.216310  0.221228  0.980624  1
  F  F16  1  0.675711  0.048247  0.150349  1
  F  F17  1  0.824289  0.349651  0.451753  1
  F  F18  1  0.537554  0.250000  0.962446  1
  F  F19  1  0.048247  0.150349  0.675711  1
  F  F20  1  0.349651  0.451753  0.824289  1
  F  F21  1  0.519376  0.278772  0.283690  1
  F  F22  1  0.278772  0.283690  0.519376  1
  F  F23  1  0.721228  0.716310  0.480624  1
  F  F24  1  0.480624  0.721228  0.716310  1
  F  F25  1  0.650349  0.548247  0.175711  1
  F  F26  1  0.951753  0.849651  0.324289  1
  F  F27  1  0.462446  0.750000  0.037554  1
  F  F28  1  0.175711  0.650349  0.548247  1
  F  F29  1  0.324289  0.951753  0.849651  1
  F  F30  1  0.783690  0.778772  0.019376  1
  F  F31  1  0.019376  0.783690  0.778772  1
  F  F32  1  0.451753  0.824289  0.349651  1
  F  F33  1  0.221228  0.980624  0.216310  1
  F  F34  1  0.250000  0.962446  0.537554  1
  F  F35  1  0.849651  0.324289  0.951753  1
  F  F36  1  0.716310  0.480624  0.721228  1
  F  F37  1  0.037554  0.462446  0.750000  1
