# generated using pymatgen
data_Ba4SrBi3Cl
_symmetry_space_group_name_H-M   'P 1'
_cell_length_a   10.27682700
_cell_length_b   10.27682703
_cell_length_c   7.88077600
_cell_angle_alpha   90.00000000
_cell_angle_beta   90.00000000
_cell_angle_gamma   120.00000312
_symmetry_Int_Tables_number   1
_chemical_formula_structural   Ba4SrBi3Cl
_chemical_formula_sum   'Ba8 Sr2 Bi6 Cl2'
_cell_volume   720.80484012
_cell_formula_units_Z   2
loop_
 _symmetry_equiv_pos_site_id
 _symmetry_equiv_pos_as_xyz
  1  'x, y, z'
loop_
 _atom_site_type_symbol
 _atom_site_label
 _atom_site_symmetry_multiplicity
 _atom_site_fract_x
 _atom_site_fract_y
 _atom_site_fract_z
 _atom_site_occupancy
  Ba  Ba0  1  0.256096  0.000000  0.253915  1
  Ba  Ba1  1  0.743904  0.000000  0.746085  1
  Ba  Ba2  1  0.000000  0.256096  0.253915  1
  Ba  Ba3  1  0.000000  0.743904  0.746085  1
  Ba  Ba4  1  0.743904  0.743904  0.253915  1
  Ba  Ba5  1  0.256096  0.256096  0.746085  1
  Ba  Ba6  1  0.333333  0.666667  0.000000  1
  Ba  Ba7  1  0.666667  0.333333  0.000000  1
  Sr  Sr8  1  0.666667  0.333333  0.500000  1
  Sr  Sr9  1  0.333333  0.666667  0.500000  1
  Bi  Bi10  1  0.605197  0.000000  0.259362  1
  Bi  Bi11  1  0.394803  0.000000  0.740638  1
  Bi  Bi12  1  0.000000  0.605197  0.259362  1
  Bi  Bi13  1  0.000000  0.394803  0.740638  1
  Bi  Bi14  1  0.394803  0.394803  0.259362  1
  Bi  Bi15  1  0.605197  0.605197  0.740638  1
  Cl  Cl16  1  0.000000  0.000000  0.000000  1
  Cl  Cl17  1  0.000000  0.000000  0.500000  1
