# generated using pymatgen
data_La11Tb(GePd)12
_symmetry_space_group_name_H-M   'P 1'
_cell_length_a   4.56221100
_cell_length_b   7.75251706
_cell_length_c   22.31384427
_cell_angle_alpha   90.01626178
_cell_angle_beta   90.00000000
_cell_angle_gamma   90.00000000
_symmetry_Int_Tables_number   1
_chemical_formula_structural   La11Tb(GePd)12
_chemical_formula_sum   'La11 Tb1 Ge12 Pd12'
_cell_volume   789.20981626
_cell_formula_units_Z   1
loop_
 _symmetry_equiv_pos_site_id
 _symmetry_equiv_pos_as_xyz
  1  'x, y, z'
loop_
 _atom_site_type_symbol
 _atom_site_label
 _atom_site_symmetry_multiplicity
 _atom_site_fract_x
 _atom_site_fract_y
 _atom_site_fract_z
 _atom_site_occupancy
  La  La0  1  0.250000  0.710739  0.333519  1
  La  La1  1  0.750000  0.290153  0.666620  1
  La  La2  1  0.750000  0.209661  0.166983  1
  La  La3  1  0.250000  0.789885  0.832991  1
  La  La4  1  0.250000  0.791006  0.166299  1
  La  La5  1  0.750000  0.209098  0.833841  1
  La  La6  1  0.750000  0.291244  0.334329  1
  La  La7  1  0.250000  0.710185  0.665555  1
  La  La8  1  0.250000  0.715383  0.001985  1
  La  La9  1  0.750000  0.284752  0.998172  1
  La  La10  1  0.750000  0.212391  0.498304  1
  Tb  Tb11  1  0.250000  0.778181  0.501694  1
  Ge  Ge12  1  0.250000  0.088448  0.071035  1
  Ge  Ge13  1  0.750000  0.911590  0.928838  1
  Ge  Ge14  1  0.750000  0.592587  0.430858  1
  Ge  Ge15  1  0.250000  0.415039  0.570811  1
  Ge  Ge16  1  0.250000  0.083062  0.270495  1
  Ge  Ge17  1  0.750000  0.916571  0.729361  1
  Ge  Ge18  1  0.750000  0.583088  0.229743  1
  Ge  Ge19  1  0.250000  0.416696  0.770198  1
  Ge  Ge20  1  0.250000  0.083437  0.397848  1
  Ge  Ge21  1  0.750000  0.913786  0.601435  1
  Ge  Ge22  1  0.750000  0.584680  0.103858  1
  Ge  Ge23  1  0.250000  0.415320  0.896140  1
  Pd  Pd24  1  0.250000  0.416717  0.238109  1
  Pd  Pd25  1  0.750000  0.583262  0.762050  1
  Pd  Pd26  1  0.750000  0.916754  0.262458  1
  Pd  Pd27  1  0.250000  0.082955  0.737501  1
  Pd  Pd28  1  0.250000  0.419522  0.436051  1
  Pd  Pd29  1  0.750000  0.587597  0.562497  1
  Pd  Pd30  1  0.750000  0.916448  0.064906  1
  Pd  Pd31  1  0.250000  0.083425  0.935163  1
  Pd  Pd32  1  0.250000  0.420022  0.093450  1
  Pd  Pd33  1  0.750000  0.579939  0.906630  1
  Pd  Pd34  1  0.750000  0.919334  0.408609  1
  Pd  Pd35  1  0.250000  0.077043  0.591665  1
