# generated using pymatgen
data_Eu3(SiRh)2
_symmetry_space_group_name_H-M   'P 1'
_cell_length_a   5.89708600
_cell_length_b   7.84782800
_cell_length_c   13.48631400
_cell_angle_alpha   90.00000000
_cell_angle_beta   90.00000000
_cell_angle_gamma   90.00000000
_symmetry_Int_Tables_number   1
_chemical_formula_structural   Eu3(SiRh)2
_chemical_formula_sum   'Eu12 Si8 Rh8'
_cell_volume   624.13739577
_cell_formula_units_Z   4
loop_
 _symmetry_equiv_pos_site_id
 _symmetry_equiv_pos_as_xyz
  1  'x, y, z'
loop_
 _atom_site_type_symbol
 _atom_site_label
 _atom_site_symmetry_multiplicity
 _atom_site_fract_x
 _atom_site_fract_y
 _atom_site_fract_z
 _atom_site_occupancy
  Eu  Eu0  1  0.133919  0.608171  0.100695  1
  Eu  Eu1  1  0.133919  0.891829  0.899305  1
  Eu  Eu2  1  0.866081  0.108171  0.399305  1
  Eu  Eu3  1  0.866081  0.391829  0.600695  1
  Eu  Eu4  1  0.866081  0.391829  0.899305  1
  Eu  Eu5  1  0.866081  0.108171  0.100695  1
  Eu  Eu6  1  0.133919  0.891829  0.600695  1
  Eu  Eu7  1  0.133919  0.608171  0.399305  1
  Eu  Eu8  1  0.360603  0.265784  0.250000  1
  Eu  Eu9  1  0.360603  0.234216  0.750000  1
  Eu  Eu10  1  0.639397  0.765784  0.250000  1
  Eu  Eu11  1  0.639397  0.734216  0.750000  1
  Si  Si12  1  0.836444  0.410461  0.250000  1
  Si  Si13  1  0.836444  0.089539  0.750000  1
  Si  Si14  1  0.163556  0.910461  0.250000  1
  Si  Si15  1  0.163556  0.589539  0.750000  1
  Si  Si16  1  0.405110  0.250000  0.000000  1
  Si  Si17  1  0.594890  0.750000  0.500000  1
  Si  Si18  1  0.594890  0.750000  0.000000  1
  Si  Si19  1  0.405110  0.250000  0.500000  1
  Rh  Rh20  1  0.631893  0.472106  0.089383  1
  Rh  Rh21  1  0.631893  0.027894  0.910617  1
  Rh  Rh22  1  0.368107  0.972106  0.410617  1
  Rh  Rh23  1  0.368107  0.527894  0.589383  1
  Rh  Rh24  1  0.368107  0.527894  0.910617  1
  Rh  Rh25  1  0.368107  0.972106  0.089383  1
  Rh  Rh26  1  0.631893  0.027894  0.589383  1
  Rh  Rh27  1  0.631893  0.472106  0.410617  1
