# generated using pymatgen
data_Ho11Er(InSi2)2
_symmetry_space_group_name_H-M   'P 1'
_cell_length_a   8.48030505
_cell_length_b   8.48030944
_cell_length_c   8.48030592
_cell_angle_alpha   112.43659268
_cell_angle_beta   110.87553068
_cell_angle_gamma   105.18876380
_symmetry_Int_Tables_number   1
_chemical_formula_structural   Ho11Er(InSi2)2
_chemical_formula_sum   'Ho11 Er1 In2 Si4'
_cell_volume   467.43356342
_cell_formula_units_Z   1
loop_
 _symmetry_equiv_pos_site_id
 _symmetry_equiv_pos_as_xyz
  1  'x, y, z'
loop_
 _atom_site_type_symbol
 _atom_site_label
 _atom_site_symmetry_multiplicity
 _atom_site_fract_x
 _atom_site_fract_y
 _atom_site_fract_z
 _atom_site_occupancy
  Ho  Ho0  1  0.680346  0.383976  0.703631  1
  Ho  Ho1  1  0.319652  0.023228  0.703577  1
  Ho  Ho2  1  0.680320  0.976689  0.296368  1
  Ho  Ho3  1  0.186303  0.278226  0.464340  1
  Ho  Ho4  1  0.813625  0.721811  0.535516  1
  Ho  Ho5  1  0.186296  0.721811  0.908186  1
  Ho  Ho6  1  0.813885  0.278226  0.091923  1
  Ho  Ho7  1  0.442868  0.238273  0.204766  1
  Ho  Ho8  1  0.557019  0.761778  0.795128  1
  Ho  Ho9  1  0.033507  0.238273  0.795403  1
  Ho  Ho10  1  0.966649  0.761778  0.204760  1
  Er  Er11  1  0.319651  0.616339  0.296687  1
  In  In12  1  0.499936  0.500016  0.000080  1
  In  In13  1  0.999957  0.999906  0.999949  1
  Si  Si14  1  0.115885  0.615777  0.499891  1
  Si  Si15  1  0.884289  0.384281  0.499992  1
  Si  Si16  1  0.369080  0.999806  0.369075  1
  Si  Si17  1  0.630732  0.999806  0.630726  1
