# generated using pymatgen
data_Ho20TcBi8Ir3
_symmetry_space_group_name_H-M   'P 1'
_cell_length_a   7.95855535
_cell_length_b   9.00331200
_cell_length_c   12.44878113
_cell_angle_alpha   90.00000000
_cell_angle_beta   90.06693658
_cell_angle_gamma   90.00000000
_symmetry_Int_Tables_number   1
_chemical_formula_structural   Ho20TcBi8Ir3
_chemical_formula_sum   'Ho20 Tc1 Bi8 Ir3'
_cell_volume   891.99634881
_cell_formula_units_Z   1
loop_
 _symmetry_equiv_pos_site_id
 _symmetry_equiv_pos_as_xyz
  1  'x, y, z'
loop_
 _atom_site_type_symbol
 _atom_site_label
 _atom_site_symmetry_multiplicity
 _atom_site_fract_x
 _atom_site_fract_y
 _atom_site_fract_z
 _atom_site_occupancy
  Ho  Ho0  1  0.837532  0.750000  0.791963  1
  Ho  Ho1  1  0.160840  0.250000  0.206386  1
  Ho  Ho2  1  0.339267  0.250000  0.707535  1
  Ho  Ho3  1  0.658887  0.750000  0.292895  1
  Ho  Ho4  1  0.377305  0.750000  0.691092  1
  Ho  Ho5  1  0.625165  0.250000  0.307367  1
  Ho  Ho6  1  0.874537  0.250000  0.808360  1
  Ho  Ho7  1  0.124917  0.750000  0.191326  1
  Ho  Ho8  1  0.946201  0.750000  0.503006  1
  Ho  Ho9  1  0.055047  0.250000  0.497399  1
  Ho  Ho10  1  0.447306  0.250000  0.997874  1
  Ho  Ho11  1  0.554154  0.750000  0.002608  1
  Ho  Ho12  1  0.674783  0.041376  0.565388  1
  Ho  Ho13  1  0.325047  0.958035  0.434892  1
  Ho  Ho14  1  0.175365  0.958126  0.933921  1
  Ho  Ho15  1  0.325047  0.541965  0.434892  1
  Ho  Ho16  1  0.823999  0.043797  0.066385  1
  Ho  Ho17  1  0.674783  0.458624  0.565388  1
  Ho  Ho18  1  0.823999  0.456203  0.066385  1
  Ho  Ho19  1  0.175365  0.541874  0.933921  1
  Tc  Tc20  1  0.576168  0.750000  0.510862  1
  Bi  Bi21  1  0.566115  0.491958  0.826850  1
  Bi  Bi22  1  0.433545  0.508415  0.173057  1
  Bi  Bi23  1  0.066802  0.508219  0.673210  1
  Bi  Bi24  1  0.433545  0.991585  0.173057  1
  Bi  Bi25  1  0.932922  0.491769  0.327194  1
  Bi  Bi26  1  0.566115  0.008042  0.826850  1
  Bi  Bi27  1  0.932922  0.008231  0.327194  1
  Bi  Bi28  1  0.066802  0.991781  0.673210  1
  Ir  Ir29  1  0.425099  0.250000  0.490231  1
  Ir  Ir30  1  0.072214  0.250000  0.990666  1
  Ir  Ir31  1  0.928207  0.750000  0.008633  1
