# generated using pymatgen
data_HoEr5NiI10
_symmetry_space_group_name_H-M   'P 1'
_cell_length_a   7.66413525
_cell_length_b   9.61286529
_cell_length_c   9.64271501
_cell_angle_alpha   106.94997244
_cell_angle_beta   96.90744797
_cell_angle_gamma   104.41881710
_symmetry_Int_Tables_number   1
_chemical_formula_structural   HoEr5NiI10
_chemical_formula_sum   'Ho1 Er5 Ni1 I10'
_cell_volume   643.73492393
_cell_formula_units_Z   1
loop_
 _symmetry_equiv_pos_site_id
 _symmetry_equiv_pos_as_xyz
  1  'x, y, z'
loop_
 _atom_site_type_symbol
 _atom_site_label
 _atom_site_symmetry_multiplicity
 _atom_site_fract_x
 _atom_site_fract_y
 _atom_site_fract_z
 _atom_site_occupancy
  Ho  Ho0  1  0.337769  0.120019  0.161203  1
  Er  Er1  1  0.663797  0.880974  0.839982  1
  Er  Er2  1  0.967668  0.277011  0.082193  1
  Er  Er3  1  0.031932  0.722737  0.917403  1
  Er  Er4  1  0.887944  0.959099  0.233583  1
  Er  Er5  1  0.111363  0.040395  0.766180  1
  Ni  Ni6  1  0.000840  0.000145  0.000545  1
  I  I7  1  0.347438  0.450719  0.272354  1
  I  I8  1  0.651210  0.550309  0.726540  1
  I  I9  1  0.774576  0.256088  0.344980  1
  I  I10  1  0.229012  0.745240  0.657043  1
  I  I11  1  0.545318  0.185848  0.905963  1
  I  I12  1  0.454955  0.812611  0.092625  1
  I  I13  1  0.742511  0.912712  0.537053  1
  I  I14  1  0.255004  0.086718  0.463440  1
  I  I15  1  0.913717  0.626081  0.179598  1
  I  I16  1  0.084943  0.373297  0.819316  1
