# generated using pymatgen
data_YbTh(Si7Ir3)2
_symmetry_space_group_name_H-M   'P 1'
_cell_length_a   8.08869269
_cell_length_b   8.08869386
_cell_length_c   8.08869410
_cell_angle_alpha   56.58773344
_cell_angle_beta   56.58772826
_cell_angle_gamma   56.58773604
_symmetry_Int_Tables_number   1
_chemical_formula_structural   YbTh(Si7Ir3)2
_chemical_formula_sum   'Yb1 Th1 Si14 Ir6'
_cell_volume   344.71225474
_cell_formula_units_Z   1
loop_
 _symmetry_equiv_pos_site_id
 _symmetry_equiv_pos_as_xyz
  1  'x, y, z'
loop_
 _atom_site_type_symbol
 _atom_site_label
 _atom_site_symmetry_multiplicity
 _atom_site_fract_x
 _atom_site_fract_y
 _atom_site_fract_z
 _atom_site_occupancy
  Yb  Yb0  1  0.000000  0.000000  0.000000  1
  Th  Th1  1  0.500000  0.500000  0.500000  1
  Si  Si2  1  0.061916  0.853966  0.674846  1
  Si  Si3  1  0.674846  0.061916  0.853966  1
  Si  Si4  1  0.853966  0.674846  0.061916  1
  Si  Si5  1  0.170872  0.347154  0.566066  1
  Si  Si6  1  0.566066  0.170872  0.347154  1
  Si  Si7  1  0.347154  0.566066  0.170872  1
  Si  Si8  1  0.938084  0.146034  0.325154  1
  Si  Si9  1  0.325154  0.938084  0.146034  1
  Si  Si10  1  0.146034  0.325154  0.938084  1
  Si  Si11  1  0.829128  0.652846  0.433934  1
  Si  Si12  1  0.433934  0.829128  0.652846  1
  Si  Si13  1  0.652846  0.433934  0.829128  1
  Si  Si14  1  0.749635  0.749635  0.749635  1
  Si  Si15  1  0.250365  0.250365  0.250365  1
  Ir  Ir16  1  0.070555  0.748872  0.432666  1
  Ir  Ir17  1  0.432666  0.070555  0.748872  1
  Ir  Ir18  1  0.748872  0.432666  0.070555  1
  Ir  Ir19  1  0.929445  0.251128  0.567334  1
  Ir  Ir20  1  0.567334  0.929445  0.251128  1
  Ir  Ir21  1  0.251128  0.567334  0.929445  1
