# generated using pymatgen
data_Er5Al2CdC4
_symmetry_space_group_name_H-M   'P 1'
_cell_length_a   10.90924900
_cell_length_b   10.90924900
_cell_length_c   3.47788200
_cell_angle_alpha   90.00000000
_cell_angle_beta   90.00000000
_cell_angle_gamma   90.00000000
_symmetry_Int_Tables_number   1
_chemical_formula_structural   Er5Al2CdC4
_chemical_formula_sum   'Er10 Al4 Cd2 C8'
_cell_volume   413.90869702
_cell_formula_units_Z   2
loop_
 _symmetry_equiv_pos_site_id
 _symmetry_equiv_pos_as_xyz
  1  'x, y, z'
loop_
 _atom_site_type_symbol
 _atom_site_label
 _atom_site_symmetry_multiplicity
 _atom_site_fract_x
 _atom_site_fract_y
 _atom_site_fract_z
 _atom_site_occupancy
  Er  Er0  1  0.549060  0.734170  0.500000  1
  Er  Er1  1  0.450940  0.265830  0.500000  1
  Er  Er2  1  0.049060  0.765830  0.500000  1
  Er  Er3  1  0.950940  0.234170  0.500000  1
  Er  Er4  1  0.265830  0.549060  0.500000  1
  Er  Er5  1  0.734170  0.450940  0.500000  1
  Er  Er6  1  0.234170  0.049060  0.500000  1
  Er  Er7  1  0.765830  0.950940  0.500000  1
  Er  Er8  1  0.500000  0.000000  0.000000  1
  Er  Er9  1  0.000000  0.500000  0.000000  1
  Al  Al10  1  0.703535  0.203535  0.000000  1
  Al  Al11  1  0.296465  0.796465  0.000000  1
  Al  Al12  1  0.203535  0.296465  0.000000  1
  Al  Al13  1  0.796465  0.703535  0.000000  1
  Cd  Cd14  1  0.500000  0.500000  0.000000  1
  Cd  Cd15  1  0.000000  0.000000  0.000000  1
  C  C16  1  0.630242  0.130242  0.500000  1
  C  C17  1  0.369758  0.869758  0.500000  1
  C  C18  1  0.130242  0.369758  0.500000  1
  C  C19  1  0.869758  0.630242  0.500000  1
  C  C20  1  0.161029  0.661029  0.000000  1
  C  C21  1  0.838971  0.338971  0.000000  1
  C  C22  1  0.661029  0.838971  0.000000  1
  C  C23  1  0.338971  0.161029  0.000000  1
