# generated using pymatgen
data_Yb3Sn3GePd2
_symmetry_space_group_name_H-M   'P 1'
_cell_length_a   7.50727100
_cell_length_b   7.50727090
_cell_length_c   4.19660700
_cell_angle_alpha   90.00000000
_cell_angle_beta   90.00000000
_cell_angle_gamma   120.00000483
_symmetry_Int_Tables_number   1
_chemical_formula_structural   Yb3Sn3GePd2
_chemical_formula_sum   'Yb3 Sn3 Ge1 Pd2'
_cell_volume   204.82977722
_cell_formula_units_Z   1
loop_
 _symmetry_equiv_pos_site_id
 _symmetry_equiv_pos_as_xyz
  1  'x, y, z'
loop_
 _atom_site_type_symbol
 _atom_site_label
 _atom_site_symmetry_multiplicity
 _atom_site_fract_x
 _atom_site_fract_y
 _atom_site_fract_z
 _atom_site_occupancy
  Yb  Yb0  1  0.998201  0.591072  0.000000  1
  Yb  Yb1  1  0.408928  0.407129  0.000000  1
  Yb  Yb2  1  0.592871  0.001799  0.000000  1
  Sn  Sn3  1  0.749851  0.739581  0.500000  1
  Sn  Sn4  1  0.989731  0.250149  0.500000  1
  Sn  Sn5  1  0.260419  0.010269  0.500000  1
  Ge  Ge6  1  0.333333  0.666667  0.500000  1
  Pd  Pd7  1  0.000000  0.000000  0.000000  1
  Pd  Pd8  1  0.666667  0.333333  0.500000  1
