# generated using pymatgen
data_TbHoU(InIr)3
_symmetry_space_group_name_H-M   'P 1'
_cell_length_a   7.47191118
_cell_length_b   7.47566052
_cell_length_c   3.85859900
_cell_angle_alpha   90.00000000
_cell_angle_beta   90.00000000
_cell_angle_gamma   117.51878413
_symmetry_Int_Tables_number   1
_chemical_formula_structural   TbHoU(InIr)3
_chemical_formula_sum   'Tb1 Ho1 U1 In3 Ir3'
_cell_volume   191.14621145
_cell_formula_units_Z   1
loop_
 _symmetry_equiv_pos_site_id
 _symmetry_equiv_pos_as_xyz
  1  'x, y, z'
loop_
 _atom_site_type_symbol
 _atom_site_label
 _atom_site_symmetry_multiplicity
 _atom_site_fract_x
 _atom_site_fract_y
 _atom_site_fract_z
 _atom_site_occupancy
  Tb  Tb0  1  0.404597  0.999982  0.000000  1
  Ho  Ho1  1  0.000035  0.404136  0.000000  1
  U  U2  1  0.584008  0.583965  0.000000  1
  In  In3  1  0.011792  0.740405  0.500000  1
  In  In4  1  0.243146  0.243759  0.500000  1
  In  In5  1  0.741224  0.012226  0.500000  1
  Ir  Ir6  1  0.986460  0.987325  0.000000  1
  Ir  Ir7  1  0.662726  0.366760  0.500000  1
  Ir  Ir8  1  0.366015  0.661444  0.500000  1
