# generated using pymatgen
data_LaEu2(CdPd)3
_symmetry_space_group_name_H-M   'P 1'
_cell_length_a   7.76685881
_cell_length_b   7.80705131
_cell_length_c   4.17140100
_cell_angle_alpha   90.00000000
_cell_angle_beta   90.00000000
_cell_angle_gamma   120.17662425
_symmetry_Int_Tables_number   1
_chemical_formula_structural   LaEu2(CdPd)3
_chemical_formula_sum   'La1 Eu2 Cd3 Pd3'
_cell_volume   218.65998406
_cell_formula_units_Z   1
loop_
 _symmetry_equiv_pos_site_id
 _symmetry_equiv_pos_as_xyz
  1  'x, y, z'
loop_
 _atom_site_type_symbol
 _atom_site_label
 _atom_site_symmetry_multiplicity
 _atom_site_fract_x
 _atom_site_fract_y
 _atom_site_fract_z
 _atom_site_occupancy
  La  La0  1  0.999984  0.590980  0.500000  1
  Eu  Eu1  1  0.407593  0.407224  0.500000  1
  Eu  Eu2  1  0.592765  0.999664  0.500000  1
  Cd  Cd3  1  0.748526  0.750441  0.000000  1
  Cd  Cd4  1  0.251419  0.001781  0.000000  1
  Cd  Cd5  1  0.999807  0.247752  0.000000  1
  Pd  Pd6  1  0.670881  0.336967  0.000000  1
  Pd  Pd7  1  0.329144  0.666530  0.000000  1
  Pd  Pd8  1  0.999882  0.998661  0.500000  1
