# generated using pymatgen
data_Ho3Tm7(RuRh)2
_symmetry_space_group_name_H-M   'P 1'
_cell_length_a   6.33324469
_cell_length_b   7.20048835
_cell_length_c   8.42197868
_cell_angle_alpha   96.86658037
_cell_angle_beta   112.07153754
_cell_angle_gamma   90.07683032
_symmetry_Int_Tables_number   1
_chemical_formula_structural   Ho3Tm7(RuRh)2
_chemical_formula_sum   'Ho3 Tm7 Ru2 Rh2'
_cell_volume   352.91705084
_cell_formula_units_Z   1
loop_
 _symmetry_equiv_pos_site_id
 _symmetry_equiv_pos_as_xyz
  1  'x, y, z'
loop_
 _atom_site_type_symbol
 _atom_site_label
 _atom_site_symmetry_multiplicity
 _atom_site_fract_x
 _atom_site_fract_y
 _atom_site_fract_z
 _atom_site_occupancy
  Ho  Ho0  1  0.790577  0.081432  0.810169  1
  Ho  Ho1  1  0.979522  0.418385  0.188917  1
  Ho  Ho2  1  0.211998  0.915799  0.186237  1
  Tm  Tm3  1  0.024982  0.584793  0.813946  1
  Tm  Tm4  1  0.207404  0.183774  0.565251  1
  Tm  Tm5  1  0.643648  0.317787  0.435400  1
  Tm  Tm6  1  0.792015  0.811758  0.437388  1
  Tm  Tm7  1  0.353754  0.686702  0.563420  1
  Tm  Tm8  1  0.421034  0.250288  0.999540  1
  Tm  Tm9  1  0.576117  0.749749  0.999721  1
  Ru  Ru10  1  0.397936  0.573950  0.219823  1
  Ru  Ru11  1  0.177560  0.924955  0.779002  1
  Rh  Rh12  1  0.602196  0.425605  0.778122  1
  Rh  Rh13  1  0.821256  0.075024  0.223062  1
