# generated using pymatgen
data_CaTm2Co8P6W
_symmetry_space_group_name_H-M   'P 1'
_cell_length_a   3.70671900
_cell_length_b   10.53943000
_cell_length_c   12.23745500
_cell_angle_alpha   90.00000000
_cell_angle_beta   90.00000000
_cell_angle_gamma   90.00000000
_symmetry_Int_Tables_number   1
_chemical_formula_structural   CaTm2Co8P6W
_chemical_formula_sum   'Ca2 Tm4 Co16 P12 W2'
_cell_volume   478.07704970
_cell_formula_units_Z   2
loop_
 _symmetry_equiv_pos_site_id
 _symmetry_equiv_pos_as_xyz
  1  'x, y, z'
loop_
 _atom_site_type_symbol
 _atom_site_label
 _atom_site_symmetry_multiplicity
 _atom_site_fract_x
 _atom_site_fract_y
 _atom_site_fract_z
 _atom_site_occupancy
  Ca  Ca0  1  0.000000  0.500000  0.524882  1
  Ca  Ca1  1  0.500000  0.000000  0.475118  1
  Tm  Tm2  1  0.500000  0.820165  0.204761  1
  Tm  Tm3  1  0.500000  0.179835  0.204761  1
  Tm  Tm4  1  0.000000  0.679835  0.795239  1
  Tm  Tm5  1  0.000000  0.320165  0.795239  1
  Co  Co6  1  0.500000  0.500000  0.702680  1
  Co  Co7  1  0.000000  0.000000  0.297320  1
  Co  Co8  1  0.000000  0.500000  0.986517  1
  Co  Co9  1  0.500000  0.000000  0.013483  1
  Co  Co10  1  0.500000  0.332340  0.989935  1
  Co  Co11  1  0.500000  0.667660  0.989935  1
  Co  Co12  1  0.000000  0.167660  0.010065  1
  Co  Co13  1  0.000000  0.832340  0.010065  1
  Co  Co14  1  0.500000  0.295010  0.430687  1
  Co  Co15  1  0.500000  0.704990  0.430687  1
  Co  Co16  1  0.000000  0.204990  0.569313  1
  Co  Co17  1  0.000000  0.795010  0.569313  1
  Co  Co18  1  0.500000  0.877513  0.708467  1
  Co  Co19  1  0.500000  0.122487  0.708467  1
  Co  Co20  1  0.000000  0.622487  0.291533  1
  Co  Co21  1  0.000000  0.377513  0.291533  1
  P  P22  1  0.500000  0.500000  0.880203  1
  P  P23  1  0.000000  0.000000  0.119797  1
  P  P24  1  0.500000  0.500000  0.349453  1
  P  P25  1  0.000000  0.000000  0.650547  1
  P  P26  1  0.500000  0.309768  0.616866  1
  P  P27  1  0.500000  0.690232  0.616866  1
  P  P28  1  0.000000  0.190232  0.383134  1
  P  P29  1  0.000000  0.809768  0.383134  1
  P  P30  1  0.500000  0.843738  0.891892  1
  P  P31  1  0.500000  0.156262  0.891892  1
  P  P32  1  0.000000  0.656262  0.108108  1
  P  P33  1  0.000000  0.343738  0.108108  1
  W  W34  1  0.500000  0.500000  0.156119  1
  W  W35  1  0.000000  0.000000  0.843881  1
