# generated using pymatgen
data_Pa5Co16Si7Pt
_symmetry_space_group_name_H-M   'P 1'
_cell_length_a   8.18166246
_cell_length_b   8.19193321
_cell_length_c   8.19193300
_cell_angle_alpha   59.91707637
_cell_angle_beta   60.04147597
_cell_angle_gamma   60.04146909
_symmetry_Int_Tables_number   1
_chemical_formula_structural   Pa5Co16Si7Pt
_chemical_formula_sum   'Pa5 Co16 Si7 Pt1'
_cell_volume   388.23801842
_cell_formula_units_Z   1
loop_
 _symmetry_equiv_pos_site_id
 _symmetry_equiv_pos_as_xyz
  1  'x, y, z'
loop_
 _atom_site_type_symbol
 _atom_site_label
 _atom_site_symmetry_multiplicity
 _atom_site_fract_x
 _atom_site_fract_y
 _atom_site_fract_z
 _atom_site_occupancy
  Pa  Pa0  1  0.796287  0.786834  0.203713  1
  Pa  Pa1  1  0.781467  0.218533  0.218533  1
  Pa  Pa2  1  0.213166  0.203713  0.786834  1
  Pa  Pa3  1  0.796287  0.203713  0.786834  1
  Pa  Pa4  1  0.213166  0.786834  0.203713  1
  Co  Co5  1  0.620156  0.620795  0.138893  1
  Co  Co6  1  0.166140  0.492556  0.175168  1
  Co  Co7  1  0.861107  0.379844  0.379844  1
  Co  Co8  1  0.507444  0.833860  0.833860  1
  Co  Co9  1  0.503852  0.167133  0.167133  1
  Co  Co10  1  0.832867  0.838118  0.496148  1
  Co  Co11  1  0.166140  0.175168  0.492556  1
  Co  Co12  1  0.142185  0.621050  0.621050  1
  Co  Co13  1  0.161882  0.167133  0.167133  1
  Co  Co14  1  0.378950  0.384283  0.857815  1
  Co  Co15  1  0.615717  0.621050  0.621050  1
  Co  Co16  1  0.378950  0.857815  0.384283  1
  Co  Co17  1  0.379205  0.379844  0.379844  1
  Co  Co18  1  0.824832  0.833860  0.833860  1
  Co  Co19  1  0.620156  0.138893  0.620795  1
  Co  Co20  1  0.832867  0.496148  0.838118  1
  Si  Si21  1  0.491251  0.981755  0.508749  1
  Si  Si22  1  0.491251  0.508749  0.981755  1
  Si  Si23  1  0.500611  0.499389  0.499389  1
  Si  Si24  1  0.018245  0.981755  0.508749  1
  Si  Si25  1  0.018245  0.508749  0.981755  1
  Si  Si26  1  0.993963  0.506037  0.506037  1
  Si  Si27  1  0.493963  0.006037  0.006037  1
  Pt  Pt28  1  0.199644  0.800356  0.800356  1
