# generated using pymatgen
data_Er7Tm13Ir7Au5
_symmetry_space_group_name_H-M   'P 1'
_cell_length_a   11.03235136
_cell_length_b   11.05290657
_cell_length_c   6.29809078
_cell_angle_alpha   89.84613296
_cell_angle_beta   89.81954677
_cell_angle_gamma   89.50510574
_symmetry_Int_Tables_number   1
_chemical_formula_structural   Er7Tm13Ir7Au5
_chemical_formula_sum   'Er7 Tm13 Ir7 Au5'
_cell_volume   767.95117799
_cell_formula_units_Z   1
loop_
 _symmetry_equiv_pos_site_id
 _symmetry_equiv_pos_as_xyz
  1  'x, y, z'
loop_
 _atom_site_type_symbol
 _atom_site_label
 _atom_site_symmetry_multiplicity
 _atom_site_fract_x
 _atom_site_fract_y
 _atom_site_fract_z
 _atom_site_occupancy
  Er  Er0  1  0.298923  0.090012  0.362853  1
  Er  Er1  1  0.301009  0.907879  0.860097  1
  Er  Er2  1  0.696680  0.079791  0.857932  1
  Er  Er3  1  0.697533  0.906269  0.358914  1
  Er  Er4  1  0.580523  0.784890  0.873254  1
  Er  Er5  1  0.574596  0.206523  0.361187  1
  Er  Er6  1  0.418186  0.788393  0.373280  1
  Tm  Tm7  1  0.411188  0.207013  0.877330  1
  Tm  Tm8  1  0.214303  0.420062  0.626385  1
  Tm  Tm9  1  0.210644  0.580849  0.126616  1
  Tm  Tm10  1  0.794828  0.425919  0.137758  1
  Tm  Tm11  1  0.793712  0.588184  0.621967  1
  Tm  Tm12  1  0.910784  0.700115  0.136585  1
  Tm  Tm13  1  0.920870  0.303678  0.641291  1
  Tm  Tm14  1  0.092042  0.698433  0.639477  1
  Tm  Tm15  1  0.093075  0.302966  0.140347  1
  Tm  Tm16  1  0.997861  0.000655  0.500036  1
  Tm  Tm17  1  0.999163  0.002275  0.001605  1
  Tm  Tm18  1  0.496258  0.501119  0.002056  1
  Tm  Tm19  1  0.498579  0.503492  0.498661  1
  Ir  Ir20  1  0.653887  0.650509  0.250030  1
  Ir  Ir21  1  0.348245  0.347426  0.249471  1
  Ir  Ir22  1  0.345499  0.653064  0.750512  1
  Ir  Ir23  1  0.498612  0.999137  0.109459  1
  Ir  Ir24  1  0.498560  0.999666  0.611508  1
  Ir  Ir25  1  0.000879  0.501360  0.888248  1
  Ir  Ir26  1  0.001393  0.501374  0.389665  1
  Au  Au27  1  0.842182  0.159729  0.250883  1
  Au  Au28  1  0.844554  0.844758  0.751686  1
  Au  Au29  1  0.153705  0.157127  0.750025  1
  Au  Au30  1  0.154844  0.843153  0.250516  1
  Au  Au31  1  0.656883  0.344181  0.750365  1
