# generated using pymatgen
data_TmScB6W
_symmetry_space_group_name_H-M   'P 1'
_cell_length_a   3.48299500
_cell_length_b   9.14807700
_cell_length_c   11.51633600
_cell_angle_alpha   90.00000000
_cell_angle_beta   90.00000000
_cell_angle_gamma   90.00000000
_symmetry_Int_Tables_number   1
_chemical_formula_structural   TmScB6W
_chemical_formula_sum   'Tm4 Sc4 B24 W4'
_cell_volume   366.94163335
_cell_formula_units_Z   4
loop_
 _symmetry_equiv_pos_site_id
 _symmetry_equiv_pos_as_xyz
  1  'x, y, z'
loop_
 _atom_site_type_symbol
 _atom_site_label
 _atom_site_symmetry_multiplicity
 _atom_site_fract_x
 _atom_site_fract_y
 _atom_site_fract_z
 _atom_site_occupancy
  Tm  Tm0  1  0.500000  0.320067  0.414067  1
  Tm  Tm1  1  0.500000  0.679933  0.585933  1
  Tm  Tm2  1  0.500000  0.179933  0.914067  1
  Tm  Tm3  1  0.500000  0.820067  0.085933  1
  Sc  Sc4  1  0.500000  0.445445  0.127061  1
  Sc  Sc5  1  0.500000  0.554555  0.872939  1
  Sc  Sc6  1  0.500000  0.054555  0.627061  1
  Sc  Sc7  1  0.500000  0.945445  0.372939  1
  B  B8  1  0.000000  0.096181  0.473505  1
  B  B9  1  0.000000  0.903819  0.526495  1
  B  B10  1  0.000000  0.403819  0.973505  1
  B  B11  1  0.000000  0.596181  0.026495  1
  B  B12  1  0.000000  0.129733  0.319842  1
  B  B13  1  0.000000  0.870267  0.680158  1
  B  B14  1  0.000000  0.370267  0.819842  1
  B  B15  1  0.000000  0.629733  0.180158  1
  B  B16  1  0.000000  0.052146  0.064925  1
  B  B17  1  0.000000  0.947854  0.935075  1
  B  B18  1  0.000000  0.447854  0.564925  1
  B  B19  1  0.000000  0.552146  0.435075  1
  B  B20  1  0.000000  0.478255  0.285560  1
  B  B21  1  0.000000  0.521745  0.714440  1
  B  B22  1  0.000000  0.021745  0.785560  1
  B  B23  1  0.000000  0.978255  0.214440  1
  B  B24  1  0.000000  0.256647  0.078295  1
  B  B25  1  0.000000  0.743353  0.921705  1
  B  B26  1  0.000000  0.243353  0.578295  1
  B  B27  1  0.000000  0.756647  0.421705  1
  B  B28  1  0.000000  0.298007  0.236338  1
  B  B29  1  0.000000  0.701993  0.763662  1
  B  B30  1  0.000000  0.201993  0.736338  1
  B  B31  1  0.000000  0.798007  0.263662  1
  W  W32  1  0.500000  0.141449  0.181077  1
  W  W33  1  0.500000  0.858551  0.818923  1
  W  W34  1  0.500000  0.358551  0.681077  1
  W  W35  1  0.500000  0.641449  0.318923  1
