# generated using pymatgen
data_Dy5Tm15Sn11Bi5
_symmetry_space_group_name_H-M   'P 1'
_cell_length_a   8.10921980
_cell_length_b   8.11153085
_cell_length_c   15.34128905
_cell_angle_alpha   90.17064537
_cell_angle_beta   90.02275456
_cell_angle_gamma   89.88560873
_symmetry_Int_Tables_number   1
_chemical_formula_structural   Dy5Tm15Sn11Bi5
_chemical_formula_sum   'Dy5 Tm15 Sn11 Bi5'
_cell_volume   1009.11561049
_cell_formula_units_Z   1
loop_
 _symmetry_equiv_pos_site_id
 _symmetry_equiv_pos_as_xyz
  1  'x, y, z'
loop_
 _atom_site_type_symbol
 _atom_site_label
 _atom_site_symmetry_multiplicity
 _atom_site_fract_x
 _atom_site_fract_y
 _atom_site_fract_z
 _atom_site_occupancy
  Dy  Dy0  1  0.957479  0.820441  0.106933  1
  Dy  Dy1  1  0.469486  0.668428  0.104254  1
  Dy  Dy2  1  0.974027  0.826079  0.398157  1
  Dy  Dy3  1  0.524441  0.326199  0.601023  1
  Dy  Dy4  1  0.034413  0.179061  0.895905  1
  Tm  Tm5  1  0.371815  0.840598  0.874199  1
  Tm  Tm6  1  0.875899  0.659335  0.625253  1
  Tm  Tm7  1  0.623244  0.159018  0.374713  1
  Tm  Tm8  1  0.122588  0.339220  0.125883  1
  Tm  Tm9  1  0.629439  0.162624  0.125649  1
  Tm  Tm10  1  0.129750  0.338083  0.377353  1
  Tm  Tm11  1  0.368090  0.839306  0.623852  1
  Tm  Tm12  1  0.870435  0.655630  0.874633  1
  Tm  Tm13  1  0.549054  0.333944  0.892470  1
  Tm  Tm14  1  0.050508  0.172895  0.606240  1
  Tm  Tm15  1  0.450358  0.674722  0.394935  1
  Tm  Tm16  1  0.203245  0.502222  0.745208  1
  Tm  Tm17  1  0.702985  0.999071  0.749211  1
  Tm  Tm18  1  0.796468  0.497488  0.247275  1
  Tm  Tm19  1  0.297048  0.001095  0.254462  1
  Sn  Sn20  1  0.211576  0.535287  0.542073  1
  Sn  Sn21  1  0.287790  0.034611  0.458470  1
  Sn  Sn22  1  0.786301  0.464319  0.041517  1
  Sn  Sn23  1  0.566967  0.625396  0.748741  1
  Sn  Sn24  1  0.066241  0.876863  0.752023  1
  Sn  Sn25  1  0.431271  0.376087  0.249565  1
  Sn  Sn26  1  0.932264  0.123003  0.251747  1
  Sn  Sn27  1  0.343891  0.149673  0.752291  1
  Sn  Sn28  1  0.842180  0.350069  0.747517  1
  Sn  Sn29  1  0.657749  0.850707  0.251654  1
  Sn  Sn30  1  0.159183  0.646622  0.249962  1
  Bi  Bi31  1  0.279085  0.025385  0.045094  1
  Bi  Bi32  1  0.776241  0.474897  0.455450  1
  Bi  Bi33  1  0.721836  0.974674  0.543862  1
  Bi  Bi34  1  0.220382  0.527342  0.956026  1
  Bi  Bi35  1  0.716267  0.969600  0.956399  1
