# generated using pymatgen
data_Ba12Tb3Y(Co4O15)2
_symmetry_space_group_name_H-M   'P 1'
_cell_length_a   6.05614007
_cell_length_b   8.06761523
_cell_length_c   18.55075246
_cell_angle_alpha   89.06981452
_cell_angle_beta   90.01103548
_cell_angle_gamma   90.01359400
_symmetry_Int_Tables_number   1
_chemical_formula_structural   Ba12Tb3Y(Co4O15)2
_chemical_formula_sum   'Ba12 Tb3 Y1 Co8 O30'
_cell_volume   906.24445621
_cell_formula_units_Z   1
loop_
 _symmetry_equiv_pos_site_id
 _symmetry_equiv_pos_as_xyz
  1  'x, y, z'
loop_
 _atom_site_type_symbol
 _atom_site_label
 _atom_site_symmetry_multiplicity
 _atom_site_fract_x
 _atom_site_fract_y
 _atom_site_fract_z
 _atom_site_occupancy
  Ba  Ba0  1  0.276955  0.999921  0.249978  1
  Ba  Ba1  1  0.723375  0.999926  0.750148  1
  Ba  Ba2  1  0.329558  0.500101  0.250011  1
  Ba  Ba3  1  0.670656  0.499980  0.750168  1
  Ba  Ba4  1  0.748347  0.978877  0.089010  1
  Ba  Ba5  1  0.748556  0.021301  0.410699  1
  Ba  Ba6  1  0.251400  0.021247  0.910968  1
  Ba  Ba7  1  0.251400  0.978693  0.589127  1
  Ba  Ba8  1  0.247158  0.496204  0.578176  1
  Ba  Ba9  1  0.246989  0.503668  0.921724  1
  Ba  Ba10  1  0.752964  0.503844  0.421756  1
  Ba  Ba11  1  0.752823  0.496075  0.078017  1
  Tb  Tb12  1  0.252140  0.754008  0.410804  1
  Tb  Tb13  1  0.252029  0.246105  0.089031  1
  Tb  Tb14  1  0.747909  0.245980  0.588988  1
  Y  Y15  1  0.747851  0.753956  0.910986  1
  Co  Co16  1  0.252220  0.754045  0.062290  1
  Co  Co17  1  0.252408  0.245916  0.437329  1
  Co  Co18  1  0.747448  0.245970  0.937644  1
  Co  Co19  1  0.747670  0.754036  0.562405  1
  Co  Co20  1  0.775963  0.768389  0.263654  1
  Co  Co21  1  0.775884  0.231661  0.236273  1
  Co  Co22  1  0.224282  0.231639  0.736305  1
  Co  Co23  1  0.224505  0.768614  0.764096  1
  O  O24  1  0.820689  0.000040  0.250057  1
  O  O25  1  0.179308  0.999993  0.750017  1
  O  O26  1  0.769003  0.956509  0.607099  1
  O  O27  1  0.768561  0.043134  0.893205  1
  O  O28  1  0.230938  0.043338  0.392771  1
  O  O29  1  0.230773  0.956781  0.106845  1
  O  O30  1  0.243070  0.532747  0.088745  1
  O  O31  1  0.243330  0.467184  0.411003  1
  O  O32  1  0.756493  0.467082  0.911221  1
  O  O33  1  0.756577  0.532966  0.588816  1
  O  O34  1  0.037278  0.716406  0.309639  1
  O  O35  1  0.037395  0.283470  0.190338  1
  O  O36  1  0.962795  0.283569  0.690269  1
  O  O37  1  0.963364  0.717080  0.810649  1
  O  O38  1  0.545295  0.751987  0.335777  1
  O  O39  1  0.545139  0.247958  0.164234  1
  O  O40  1  0.454721  0.248088  0.664065  1
  O  O41  1  0.455773  0.751927  0.836013  1
  O  O42  1  0.489330  0.764701  0.502785  1
  O  O43  1  0.489366  0.235243  0.997316  1
  O  O44  1  0.510783  0.235280  0.497104  1
  O  O45  1  0.510965  0.764809  0.002635  1
  O  O46  1  0.014926  0.765314  0.992876  1
  O  O47  1  0.015033  0.234611  0.506633  1
  O  O48  1  0.984736  0.234571  0.006811  1
  O  O49  1  0.984898  0.765420  0.493201  1
  O  O50  1  0.348049  0.697694  0.682328  1
  O  O51  1  0.348993  0.301943  0.818014  1
  O  O52  1  0.650997  0.301834  0.318039  1
  O  O53  1  0.650929  0.698164  0.181910  1
