# generated using pymatgen
data_Tb8HoLuIn6
_symmetry_space_group_name_H-M   'P 1'
_cell_length_a   6.01388600
_cell_length_b   9.21430490
_cell_length_c   9.21430538
_cell_angle_alpha   83.88675534
_cell_angle_beta   70.95357061
_cell_angle_gamma   70.95357738
_symmetry_Int_Tables_number   1
_chemical_formula_structural   Tb8HoLuIn6
_chemical_formula_sum   'Tb8 Ho1 Lu1 In6'
_cell_volume   456.22370168
_cell_formula_units_Z   1
loop_
 _symmetry_equiv_pos_site_id
 _symmetry_equiv_pos_as_xyz
  1  'x, y, z'
loop_
 _atom_site_type_symbol
 _atom_site_label
 _atom_site_symmetry_multiplicity
 _atom_site_fract_x
 _atom_site_fract_y
 _atom_site_fract_z
 _atom_site_occupancy
  Tb  Tb0  1  0.719650  0.862188  0.697908  1
  Tb  Tb1  1  0.279748  0.137812  0.302092  1
  Tb  Tb2  1  0.780350  0.302092  0.137812  1
  Tb  Tb3  1  0.220252  0.697908  0.862188  1
  Tb  Tb4  1  0.582441  0.697908  0.137812  1
  Tb  Tb5  1  0.418162  0.302092  0.862188  1
  Tb  Tb6  1  0.081838  0.137812  0.697908  1
  Tb  Tb7  1  0.917559  0.862188  0.302092  1
  Ho  Ho8  1  0.250000  0.500000  0.500000  1
  Lu  Lu9  1  0.750000  0.500000  0.500000  1
  In  In10  1  0.160314  0.500000  0.178514  1
  In  In11  1  0.838829  0.500000  0.821486  1
  In  In12  1  0.339686  0.821486  0.500000  1
  In  In13  1  0.661171  0.178514  0.500000  1
  In  In14  1  0.250000  0.000000  0.000000  1
  In  In15  1  0.750000  0.000000  0.000000  1
