# generated using pymatgen
data_Pr3Sc(Co4P3)2
_symmetry_space_group_name_H-M   'P 1'
_cell_length_a   3.79120600
_cell_length_b   10.80417500
_cell_length_c   12.61123100
_cell_angle_alpha   90.00000000
_cell_angle_beta   90.00000000
_cell_angle_gamma   90.00000000
_symmetry_Int_Tables_number   1
_chemical_formula_structural   Pr3Sc(Co4P3)2
_chemical_formula_sum   'Pr6 Sc2 Co16 P12'
_cell_volume   516.56678021
_cell_formula_units_Z   2
loop_
 _symmetry_equiv_pos_site_id
 _symmetry_equiv_pos_as_xyz
  1  'x, y, z'
loop_
 _atom_site_type_symbol
 _atom_site_label
 _atom_site_symmetry_multiplicity
 _atom_site_fract_x
 _atom_site_fract_y
 _atom_site_fract_z
 _atom_site_occupancy
  Pr  Pr0  1  0.000000  0.500000  0.526730  1
  Pr  Pr1  1  0.500000  0.000000  0.473270  1
  Pr  Pr2  1  0.500000  0.821193  0.206412  1
  Pr  Pr3  1  0.500000  0.178807  0.206412  1
  Pr  Pr4  1  0.000000  0.678807  0.793588  1
  Pr  Pr5  1  0.000000  0.321193  0.793588  1
  Sc  Sc6  1  0.500000  0.500000  0.154337  1
  Sc  Sc7  1  0.000000  0.000000  0.845663  1
  Co  Co8  1  0.500000  0.500000  0.706412  1
  Co  Co9  1  0.000000  0.000000  0.293588  1
  Co  Co10  1  0.000000  0.500000  0.987980  1
  Co  Co11  1  0.500000  0.000000  0.012020  1
  Co  Co12  1  0.500000  0.331539  0.995389  1
  Co  Co13  1  0.500000  0.668461  0.995389  1
  Co  Co14  1  0.000000  0.168461  0.004611  1
  Co  Co15  1  0.000000  0.831539  0.004611  1
  Co  Co16  1  0.500000  0.295998  0.432679  1
  Co  Co17  1  0.500000  0.704002  0.432679  1
  Co  Co18  1  0.000000  0.204002  0.567321  1
  Co  Co19  1  0.000000  0.795998  0.567321  1
  Co  Co20  1  0.500000  0.880633  0.703126  1
  Co  Co21  1  0.500000  0.119367  0.703126  1
  Co  Co22  1  0.000000  0.619367  0.296874  1
  Co  Co23  1  0.000000  0.380633  0.296874  1
  P  P24  1  0.500000  0.500000  0.889151  1
  P  P25  1  0.000000  0.000000  0.110849  1
  P  P26  1  0.500000  0.500000  0.354291  1
  P  P27  1  0.000000  0.000000  0.645709  1
  P  P28  1  0.500000  0.303059  0.612725  1
  P  P29  1  0.500000  0.696941  0.612725  1
  P  P30  1  0.000000  0.196941  0.387275  1
  P  P31  1  0.000000  0.803059  0.387275  1
  P  P32  1  0.500000  0.841557  0.897228  1
  P  P33  1  0.500000  0.158443  0.897228  1
  P  P34  1  0.000000  0.658443  0.102772  1
  P  P35  1  0.000000  0.341557  0.102772  1
