# generated using pymatgen
data_Er12Si16NiOs7
_symmetry_space_group_name_H-M   'P 1'
_cell_length_a   4.21204900
_cell_length_b   12.14197085
_cell_length_c   12.74820898
_cell_angle_alpha   89.84064037
_cell_angle_beta   90.00000000
_cell_angle_gamma   90.00000000
_symmetry_Int_Tables_number   1
_chemical_formula_structural   Er12Si16NiOs7
_chemical_formula_sum   'Er12 Si16 Ni1 Os7'
_cell_volume   651.97372737
_cell_formula_units_Z   1
loop_
 _symmetry_equiv_pos_site_id
 _symmetry_equiv_pos_as_xyz
  1  'x, y, z'
loop_
 _atom_site_type_symbol
 _atom_site_label
 _atom_site_symmetry_multiplicity
 _atom_site_fract_x
 _atom_site_fract_y
 _atom_site_fract_z
 _atom_site_occupancy
  Er  Er0  1  0.750000  0.983143  0.814257  1
  Er  Er1  1  0.250000  0.016650  0.186579  1
  Er  Er2  1  0.750000  0.483488  0.692699  1
  Er  Er3  1  0.250000  0.517283  0.307565  1
  Er  Er4  1  0.750000  0.756399  0.649779  1
  Er  Er5  1  0.250000  0.245612  0.354186  1
  Er  Er6  1  0.750000  0.254278  0.852641  1
  Er  Er7  1  0.250000  0.745071  0.143197  1
  Er  Er8  1  0.750000  0.691402  0.916774  1
  Er  Er9  1  0.250000  0.304886  0.084270  1
  Er  Er10  1  0.750000  0.193443  0.585820  1
  Er  Er11  1  0.250000  0.806238  0.414132  1
  Si  Si12  1  0.750000  0.952949  0.538753  1
  Si  Si13  1  0.250000  0.046849  0.461709  1
  Si  Si14  1  0.750000  0.449787  0.961815  1
  Si  Si15  1  0.250000  0.548873  0.036404  1
  Si  Si16  1  0.750000  0.892024  0.057766  1
  Si  Si17  1  0.250000  0.106872  0.940734  1
  Si  Si18  1  0.750000  0.392781  0.441242  1
  Si  Si19  1  0.250000  0.609406  0.559963  1
  Si  Si20  1  0.750000  0.872346  0.259481  1
  Si  Si21  1  0.250000  0.127818  0.737634  1
  Si  Si22  1  0.750000  0.368704  0.237431  1
  Si  Si23  1  0.250000  0.630458  0.764532  1
  Si  Si24  1  0.750000  0.672745  0.296448  1
  Si  Si25  1  0.250000  0.328191  0.701672  1
  Si  Si26  1  0.750000  0.170126  0.204820  1
  Si  Si27  1  0.250000  0.830087  0.799736  1
  Ni  Ni28  1  0.250000  0.912228  0.973386  1
  Os  Os29  1  0.750000  0.536679  0.133187  1
  Os  Os30  1  0.250000  0.459067  0.866234  1
  Os  Os31  1  0.750000  0.038192  0.367452  1
  Os  Os32  1  0.250000  0.960170  0.632988  1
  Os  Os33  1  0.750000  0.592322  0.473742  1
  Os  Os34  1  0.250000  0.410452  0.525753  1
  Os  Os35  1  0.750000  0.092985  0.025220  1
