# generated using pymatgen
data_Ca2Nd8Si5Ni
_symmetry_space_group_name_H-M   'P 1'
_cell_length_a   8.93416316
_cell_length_b   8.93416345
_cell_length_c   8.85946770
_cell_angle_alpha   128.12596100
_cell_angle_beta   128.12596270
_cell_angle_gamma   77.02879599
_symmetry_Int_Tables_number   1
_chemical_formula_structural   Ca2Nd8Si5Ni
_chemical_formula_sum   'Ca2 Nd8 Si5 Ni1'
_cell_volume   423.34260585
_cell_formula_units_Z   1
loop_
 _symmetry_equiv_pos_site_id
 _symmetry_equiv_pos_as_xyz
  1  'x, y, z'
loop_
 _atom_site_type_symbol
 _atom_site_label
 _atom_site_symmetry_multiplicity
 _atom_site_fract_x
 _atom_site_fract_y
 _atom_site_fract_z
 _atom_site_occupancy
  Ca  Ca0  1  0.503612  0.503173  0.006785  1
  Ca  Ca1  1  0.996827  0.996388  0.993215  1
  Nd  Nd2  1  0.684590  0.185208  0.159618  1
  Nd  Nd3  1  0.532072  0.680114  0.500000  1
  Nd  Nd4  1  0.024972  0.525590  0.840382  1
  Nd  Nd5  1  0.819886  0.967928  0.500000  1
  Nd  Nd6  1  0.314792  0.815410  0.840382  1
  Nd  Nd7  1  0.177316  0.033527  0.500000  1
  Nd  Nd8  1  0.466473  0.322684  0.500000  1
  Nd  Nd9  1  0.974410  0.475028  0.159618  1
  Si  Si10  1  0.611334  0.116291  0.727625  1
  Si  Si11  1  0.383709  0.888666  0.272375  1
  Si  Si12  1  0.115451  0.384549  0.500000  1
  Si  Si13  1  0.748914  0.751086  0.000000  1
  Si  Si14  1  0.248914  0.251086  0.000000  1
  Ni  Ni15  1  0.896730  0.603270  0.500000  1
