# generated using pymatgen
data_Cs3PRhBr9
_symmetry_space_group_name_H-M   'P 1'
_cell_length_a   7.80931900
_cell_length_b   7.80931820
_cell_length_c   19.68877600
_cell_angle_alpha   90.00000000
_cell_angle_beta   90.00000000
_cell_angle_gamma   119.99999917
_symmetry_Int_Tables_number   1
_chemical_formula_structural   Cs3PRhBr9
_chemical_formula_sum   'Cs6 P2 Rh2 Br18'
_cell_volume   1039.86182692
_cell_formula_units_Z   2
loop_
 _symmetry_equiv_pos_site_id
 _symmetry_equiv_pos_as_xyz
  1  'x, y, z'
loop_
 _atom_site_type_symbol
 _atom_site_label
 _atom_site_symmetry_multiplicity
 _atom_site_fract_x
 _atom_site_fract_y
 _atom_site_fract_z
 _atom_site_occupancy
  Cs  Cs0  1  0.666667  0.333333  0.911153  1
  Cs  Cs1  1  0.333333  0.666667  0.411153  1
  Cs  Cs2  1  0.666667  0.333333  0.564955  1
  Cs  Cs3  1  0.333333  0.666667  0.064955  1
  Cs  Cs4  1  0.000000  0.000000  0.763292  1
  Cs  Cs5  1  0.000000  0.000000  0.263292  1
  P  P6  1  0.333333  0.666667  0.653435  1
  P  P7  1  0.666667  0.333333  0.153435  1
  Rh  Rh8  1  0.666667  0.333333  0.335306  1
  Rh  Rh9  1  0.333333  0.666667  0.835306  1
  Br  Br10  1  0.818554  0.637108  0.408374  1
  Br  Br11  1  0.181446  0.362892  0.908374  1
  Br  Br12  1  0.181446  0.818554  0.908374  1
  Br  Br13  1  0.182483  0.364967  0.590565  1
  Br  Br14  1  0.637108  0.818554  0.908374  1
  Br  Br15  1  0.362892  0.181446  0.408374  1
  Br  Br16  1  0.030963  0.515481  0.758347  1
  Br  Br17  1  0.818554  0.181446  0.408374  1
  Br  Br18  1  0.515481  0.030963  0.258347  1
  Br  Br19  1  0.484519  0.515481  0.758347  1
  Br  Br20  1  0.515481  0.484519  0.258347  1
  Br  Br21  1  0.969037  0.484519  0.258347  1
  Br  Br22  1  0.364967  0.182483  0.090565  1
  Br  Br23  1  0.484519  0.969037  0.758347  1
  Br  Br24  1  0.817517  0.635033  0.090565  1
  Br  Br25  1  0.182483  0.817517  0.590565  1
  Br  Br26  1  0.635033  0.817517  0.590565  1
  Br  Br27  1  0.817517  0.182483  0.090565  1
