# generated using pymatgen
data_CaDy2Er4Sn23Rh6
_symmetry_space_group_name_H-M   'P 1'
_cell_length_a   9.86428076
_cell_length_b   9.87103642
_cell_length_c   10.06917691
_cell_angle_alpha   90.00000041
_cell_angle_beta   89.89511028
_cell_angle_gamma   120.02265326
_symmetry_Int_Tables_number   1
_chemical_formula_structural   CaDy2Er4Sn23Rh6
_chemical_formula_sum   'Ca1 Dy2 Er4 Sn23 Rh6'
_cell_volume   848.89237028
_cell_formula_units_Z   1
loop_
 _symmetry_equiv_pos_site_id
 _symmetry_equiv_pos_as_xyz
  1  'x, y, z'
loop_
 _atom_site_type_symbol
 _atom_site_label
 _atom_site_symmetry_multiplicity
 _atom_site_fract_x
 _atom_site_fract_y
 _atom_site_fract_z
 _atom_site_occupancy
  Ca  Ca0  1  0.000000  0.000000  0.000000  1
  Dy  Dy1  1  0.038577  0.519288  0.307662  1
  Dy  Dy2  1  0.961423  0.480712  0.692338  1
  Er  Er3  1  0.481773  0.518600  0.307486  1
  Er  Er4  1  0.518227  0.481400  0.692514  1
  Er  Er5  1  0.481773  0.963173  0.307486  1
  Er  Er6  1  0.518227  0.036827  0.692514  1
  Sn  Sn7  1  0.351969  0.000753  0.999864  1
  Sn  Sn8  1  0.648031  0.999247  0.000136  1
  Sn  Sn9  1  0.000000  0.351738  0.000000  1
  Sn  Sn10  1  0.000000  0.648262  0.000000  1
  Sn  Sn11  1  0.648031  0.648784  0.000136  1
  Sn  Sn12  1  0.351969  0.351216  0.999864  1
  Sn  Sn13  1  0.332632  0.666317  0.818100  1
  Sn  Sn14  1  0.667368  0.333683  0.181900  1
  Sn  Sn15  1  0.000000  0.000000  0.500000  1
  Sn  Sn16  1  0.777471  0.221302  0.458310  1
  Sn  Sn17  1  0.222529  0.778698  0.541690  1
  Sn  Sn18  1  0.777471  0.556170  0.458310  1
  Sn  Sn19  1  0.222529  0.443830  0.541690  1
  Sn  Sn20  1  0.443949  0.221975  0.458194  1
  Sn  Sn21  1  0.556051  0.778025  0.541806  1
  Sn  Sn22  1  0.335198  0.667599  0.126401  1
  Sn  Sn23  1  0.664802  0.332401  0.873599  1
  Sn  Sn24  1  0.119622  0.881255  0.280642  1
  Sn  Sn25  1  0.880378  0.118745  0.719358  1
  Sn  Sn26  1  0.119622  0.238367  0.280642  1
  Sn  Sn27  1  0.880378  0.761633  0.719358  1
  Sn  Sn28  1  0.759915  0.879957  0.281770  1
  Sn  Sn29  1  0.240085  0.120043  0.718230  1
  Rh  Rh30  1  0.829164  0.169682  0.200549  1
  Rh  Rh31  1  0.170836  0.830318  0.799451  1
  Rh  Rh32  1  0.829164  0.659481  0.200549  1
  Rh  Rh33  1  0.170836  0.340519  0.799451  1
  Rh  Rh34  1  0.341501  0.170750  0.201206  1
  Rh  Rh35  1  0.658499  0.829250  0.798794  1
