# generated using pymatgen
data_Tm2ScCo(Ni3B)2
_symmetry_space_group_name_H-M   'P 1'
_cell_length_a   4.95028300
_cell_length_b   4.99416625
_cell_length_c   14.16497400
_cell_angle_alpha   90.00000000
_cell_angle_beta   90.00000000
_cell_angle_gamma   119.70977462
_symmetry_Int_Tables_number   1
_chemical_formula_structural   Tm2ScCo(Ni3B)2
_chemical_formula_sum   'Tm4 Sc2 Co2 Ni12 B4'
_cell_volume   304.16001284
_cell_formula_units_Z   2
loop_
 _symmetry_equiv_pos_site_id
 _symmetry_equiv_pos_as_xyz
  1  'x, y, z'
loop_
 _atom_site_type_symbol
 _atom_site_label
 _atom_site_symmetry_multiplicity
 _atom_site_fract_x
 _atom_site_fract_y
 _atom_site_fract_z
 _atom_site_occupancy
  Tm  Tm0  1  0.666527  0.333054  0.470849  1
  Tm  Tm1  1  0.333473  0.666946  0.970849  1
  Tm  Tm2  1  0.333648  0.667298  0.748652  1
  Tm  Tm3  1  0.666352  0.332702  0.248652  1
  Sc  Sc4  1  0.333689  0.667380  0.533860  1
  Sc  Sc5  1  0.666311  0.332620  0.033860  1
  Co  Co6  1  0.163622  0.327243  0.148228  1
  Co  Co7  1  0.836378  0.672757  0.648228  1
  Ni  Ni8  1  0.001902  0.003805  0.999770  1
  Ni  Ni9  1  0.998098  0.996195  0.499770  1
  Ni  Ni10  1  0.668638  0.832570  0.146140  1
  Ni  Ni11  1  0.163932  0.832570  0.146140  1
  Ni  Ni12  1  0.836068  0.167430  0.646140  1
  Ni  Ni13  1  0.331362  0.167430  0.646140  1
  Ni  Ni14  1  0.833188  0.666376  0.853661  1
  Ni  Ni15  1  0.833389  0.166618  0.852777  1
  Ni  Ni16  1  0.333230  0.166618  0.852777  1
  Ni  Ni17  1  0.666770  0.833382  0.352777  1
  Ni  Ni18  1  0.166611  0.833382  0.352777  1
  Ni  Ni19  1  0.166812  0.333624  0.353661  1
  B  B20  1  0.330881  0.661762  0.248018  1
  B  B21  1  0.669119  0.338238  0.748018  1
  B  B22  1  0.003300  0.006599  0.249127  1
  B  B23  1  0.996700  0.993401  0.749127  1
