# generated using pymatgen
data_CdF18
_symmetry_space_group_name_H-M   'P 1'
_cell_length_a   6.69487341
_cell_length_b   8.90818402
_cell_length_c   12.19127100
_cell_angle_alpha   100.43921331
_cell_angle_beta   85.84792849
_cell_angle_gamma   115.29955038
_symmetry_Int_Tables_number   1
_chemical_formula_structural   CdF18
_chemical_formula_sum   'Cd2 F36'
_cell_volume   646.44942297
_cell_formula_units_Z   2
loop_
 _symmetry_equiv_pos_site_id
 _symmetry_equiv_pos_as_xyz
  1  'x, y, z'
loop_
 _atom_site_type_symbol
 _atom_site_label
 _atom_site_symmetry_multiplicity
 _atom_site_fract_x
 _atom_site_fract_y
 _atom_site_fract_z
 _atom_site_occupancy
  Cd  Cd0  1  0.996604  0.789938  0.113883  1
  Cd  Cd1  1  0.003396  0.210062  0.886117  1
  F  F2  1  0.800255  0.598869  0.328766  1
  F  F3  1  0.199745  0.401131  0.671234  1
  F  F4  1  0.166514  0.415046  0.425810  1
  F  F5  1  0.833486  0.584954  0.574190  1
  F  F6  1  0.178959  0.937735  0.925891  1
  F  F7  1  0.821041  0.062265  0.074109  1
  F  F8  1  0.044632  0.936487  0.370844  1
  F  F9  1  0.955368  0.063513  0.629156  1
  F  F10  1  0.046537  0.604684  0.185127  1
  F  F11  1  0.953463  0.395316  0.814873  1
  F  F12  1  0.641838  0.610310  0.412495  1
  F  F13  1  0.358162  0.389690  0.587505  1
  F  F14  1  0.947028  0.012270  0.173540  1
  F  F15  1  0.052972  0.987730  0.826460  1
  F  F16  1  0.096576  0.112834  0.392235  1
  F  F17  1  0.903424  0.887166  0.607765  1
  F  F18  1  0.107451  0.456796  0.328795  1
  F  F19  1  0.892549  0.543204  0.671205  1
  F  F20  1  0.719708  0.611470  0.002041  1
  F  F21  1  0.280292  0.388530  0.997959  1
  F  F22  1  0.836244  0.507467  0.914100  1
  F  F23  1  0.163756  0.492533  0.085900  1
  F  F24  1  0.600307  0.644321  0.787260  1
  F  F25  1  0.399693  0.355679  0.212740  1
  F  F26  1  0.499775  0.050774  0.247194  1
  F  F27  1  0.500225  0.949226  0.752806  1
  F  F28  1  0.266472  0.827252  0.521876  1
  F  F29  1  0.733528  0.172748  0.478124  1
  F  F30  1  0.301786  0.879746  0.016799  1
  F  F31  1  0.698214  0.120254  0.983201  1
  F  F32  1  0.473344  0.897111  0.280086  1
  F  F33  1  0.526656  0.102889  0.719914  1
  F  F34  1  0.536381  0.287738  0.146822  1
  F  F35  1  0.463619  0.712262  0.853178  1
  F  F36  1  0.452136  0.793377  0.484161  1
  F  F37  1  0.547864  0.206623  0.515839  1
