# generated using pymatgen
data_Y5Tm(Co3P2)6
_symmetry_space_group_name_H-M   'P 1'
_cell_length_a   3.69645400
_cell_length_b   10.50982101
_cell_length_c   12.16730301
_cell_angle_alpha   90.00537575
_cell_angle_beta   90.00000000
_cell_angle_gamma   90.00000000
_symmetry_Int_Tables_number   1
_chemical_formula_structural   Y5Tm(Co3P2)6
_chemical_formula_sum   'Y5 Tm1 Co18 P12'
_cell_volume   472.68840339
_cell_formula_units_Z   1
loop_
 _symmetry_equiv_pos_site_id
 _symmetry_equiv_pos_as_xyz
  1  'x, y, z'
loop_
 _atom_site_type_symbol
 _atom_site_label
 _atom_site_symmetry_multiplicity
 _atom_site_fract_x
 _atom_site_fract_y
 _atom_site_fract_z
 _atom_site_occupancy
  Y  Y0  1  0.000000  0.500042  0.521924  1
  Y  Y1  1  0.500000  0.999889  0.477642  1
  Y  Y2  1  0.500000  0.182577  0.205725  1
  Y  Y3  1  0.000000  0.682990  0.794200  1
  Y  Y4  1  0.000000  0.317066  0.794478  1
  Tm  Tm5  1  0.500000  0.817282  0.205742  1
  Co  Co6  1  0.500000  0.500258  0.158697  1
  Co  Co7  1  0.000000  0.999776  0.841528  1
  Co  Co8  1  0.500000  0.500182  0.703335  1
  Co  Co9  1  0.000000  0.998687  0.296221  1
  Co  Co10  1  0.000000  0.500617  0.986639  1
  Co  Co11  1  0.500000  0.999398  0.014562  1
  Co  Co12  1  0.500000  0.333372  0.994872  1
  Co  Co13  1  0.500000  0.667239  0.995456  1
  Co  Co14  1  0.000000  0.166105  0.005657  1
  Co  Co15  1  0.000000  0.833278  0.006100  1
  Co  Co16  1  0.500000  0.297321  0.430521  1
  Co  Co17  1  0.500000  0.702828  0.429636  1
  Co  Co18  1  0.000000  0.202459  0.569332  1
  Co  Co19  1  0.000000  0.797404  0.568709  1
  Co  Co20  1  0.500000  0.879553  0.709556  1
  Co  Co21  1  0.500000  0.120395  0.709827  1
  Co  Co22  1  0.000000  0.621494  0.289488  1
  Co  Co23  1  0.000000  0.379767  0.290255  1
  P  P24  1  0.500000  0.500297  0.883019  1
  P  P25  1  0.000000  0.998838  0.117923  1
  P  P26  1  0.500000  0.500029  0.343354  1
  P  P27  1  0.000000  0.999978  0.656442  1
  P  P28  1  0.500000  0.310258  0.615956  1
  P  P29  1  0.500000  0.689913  0.615530  1
  P  P30  1  0.000000  0.189409  0.383905  1
  P  P31  1  0.000000  0.810258  0.382622  1
  P  P32  1  0.500000  0.847819  0.893321  1
  P  P33  1  0.500000  0.151948  0.893679  1
  P  P34  1  0.000000  0.653563  0.107432  1
  P  P35  1  0.000000  0.347714  0.106716  1
