# generated using pymatgen
data_Pr8Nd8Cd4IrPt3
_symmetry_space_group_name_H-M   'P 1'
_cell_length_a   10.05695509
_cell_length_b   10.03767707
_cell_length_c   10.03189900
_cell_angle_alpha   60.01904344
_cell_angle_beta   60.08238462
_cell_angle_gamma   60.16461190
_symmetry_Int_Tables_number   1
_chemical_formula_structural   Pr8Nd8Cd4IrPt3
_chemical_formula_sum   'Pr8 Nd8 Cd4 Ir1 Pt3'
_cell_volume   717.52709268
_cell_formula_units_Z   1
loop_
 _symmetry_equiv_pos_site_id
 _symmetry_equiv_pos_as_xyz
  1  'x, y, z'
loop_
 _atom_site_type_symbol
 _atom_site_label
 _atom_site_symmetry_multiplicity
 _atom_site_fract_x
 _atom_site_fract_y
 _atom_site_fract_z
 _atom_site_occupancy
  Pr  Pr0  1  0.191426  0.190975  0.808800  1
  Pr  Pr1  1  0.806435  0.813374  0.190096  1
  Pr  Pr2  1  0.939890  0.561043  0.562543  1
  Pr  Pr3  1  0.563305  0.938892  0.936663  1
  Pr  Pr4  1  0.563305  0.938892  0.561138  1
  Pr  Pr5  1  0.939890  0.561043  0.936525  1
  Pr  Pr6  1  0.563946  0.560542  0.937755  1
  Pr  Pr7  1  0.938702  0.937744  0.561777  1
  Nd  Nd8  1  0.352459  0.348394  0.347227  1
  Nd  Nd9  1  0.352459  0.348394  0.951920  1
  Nd  Nd10  1  0.352806  0.948833  0.349180  1
  Nd  Nd11  1  0.944429  0.351766  0.351902  1
  Nd  Nd12  1  0.806693  0.189871  0.190666  1
  Nd  Nd13  1  0.191303  0.809511  0.807618  1
  Nd  Nd14  1  0.191303  0.809511  0.191569  1
  Nd  Nd15  1  0.806693  0.189871  0.812770  1
  Cd  Cd16  1  0.579721  0.580227  0.580730  1
  Cd  Cd17  1  0.579721  0.580227  0.259320  1
  Cd  Cd18  1  0.580243  0.258981  0.580387  1
  Cd  Cd19  1  0.259734  0.580414  0.579926  1
  Ir  Ir20  1  0.570673  0.144040  0.142644  1
  Pt  Pt21  1  0.141156  0.143558  0.146133  1
  Pt  Pt22  1  0.141156  0.143558  0.569152  1
  Pt  Pt23  1  0.142550  0.570339  0.143556  1
