# generated using pymatgen
data_Er5In4RhAu
_symmetry_space_group_name_H-M   'P 1'
_cell_length_a   3.59111700
_cell_length_b   8.15741374
_cell_length_c   18.25749658
_cell_angle_alpha   90.16339156
_cell_angle_beta   90.00000000
_cell_angle_gamma   90.00000000
_symmetry_Int_Tables_number   1
_chemical_formula_structural   Er5In4RhAu
_chemical_formula_sum   'Er10 In8 Rh2 Au2'
_cell_volume   534.83707743
_cell_formula_units_Z   2
loop_
 _symmetry_equiv_pos_site_id
 _symmetry_equiv_pos_as_xyz
  1  'x, y, z'
loop_
 _atom_site_type_symbol
 _atom_site_label
 _atom_site_symmetry_multiplicity
 _atom_site_fract_x
 _atom_site_fract_y
 _atom_site_fract_z
 _atom_site_occupancy
  Er  Er0  1  0.000000  0.115995  0.414655  1
  Er  Er1  1  0.000000  0.884005  0.585345  1
  Er  Er2  1  0.000000  0.380151  0.919348  1
  Er  Er3  1  0.000000  0.619849  0.080652  1
  Er  Er4  1  0.000000  0.223288  0.223047  1
  Er  Er5  1  0.000000  0.776712  0.776953  1
  Er  Er6  1  0.000000  0.238819  0.718084  1
  Er  Er7  1  0.000000  0.761181  0.281916  1
  Er  Er8  1  0.000000  0.000000  0.000000  1
  Er  Er9  1  0.000000  0.500000  0.500000  1
  In  In10  1  0.500000  0.420423  0.351843  1
  In  In11  1  0.500000  0.579577  0.648157  1
  In  In12  1  0.500000  0.076240  0.851439  1
  In  In13  1  0.500000  0.923760  0.148561  1
  In  In14  1  0.500000  0.290241  0.067633  1
  In  In15  1  0.500000  0.709759  0.932367  1
  In  In16  1  0.500000  0.207868  0.567497  1
  In  In17  1  0.500000  0.792132  0.432503  1
  Rh  Rh18  1  0.500000  0.024149  0.305423  1
  Rh  Rh19  1  0.500000  0.975851  0.694577  1
  Au  Au20  1  0.500000  0.475606  0.801964  1
  Au  Au21  1  0.500000  0.524394  0.198036  1
