# generated using pymatgen
data_Na4AlIn2GaI16
_symmetry_space_group_name_H-M   'P 1'
_cell_length_a   8.09612336
_cell_length_b   8.65863070
_cell_length_c   15.91623941
_cell_angle_alpha   86.98969547
_cell_angle_beta   90.00533238
_cell_angle_gamma   89.99530724
_symmetry_Int_Tables_number   1
_chemical_formula_structural   Na4AlIn2GaI16
_chemical_formula_sum   'Na4 Al1 In2 Ga1 I16'
_cell_volume   1114.21012202
_cell_formula_units_Z   1
loop_
 _symmetry_equiv_pos_site_id
 _symmetry_equiv_pos_as_xyz
  1  'x, y, z'
loop_
 _atom_site_type_symbol
 _atom_site_label
 _atom_site_symmetry_multiplicity
 _atom_site_fract_x
 _atom_site_fract_y
 _atom_site_fract_z
 _atom_site_occupancy
  Na  Na0  1  0.996253  0.848740  0.375757  1
  Na  Na1  1  0.495370  0.151014  0.124339  1
  Na  Na2  1  0.007442  0.152798  0.625346  1
  Na  Na3  1  0.506272  0.847960  0.874916  1
  Al  Al4  1  0.186050  0.708051  0.600444  1
  In  In5  1  0.810773  0.296806  0.398953  1
  In  In6  1  0.311006  0.703012  0.101304  1
  Ga  Ga7  1  0.686939  0.293640  0.899157  1
  I  I8  1  0.319352  0.685579  0.456178  1
  I  I9  1  0.820103  0.314990  0.045310  1
  I  I10  1  0.674041  0.313270  0.556080  1
  I  I11  1  0.174148  0.685650  0.944237  1
  I  I12  1  0.133303  0.190314  0.426564  1
  I  I13  1  0.633444  0.809535  0.073717  1
  I  I14  1  0.883633  0.800039  0.577228  1
  I  I15  1  0.382113  0.198165  0.922912  1
  I  I16  1  0.331030  0.925808  0.678989  1
  I  I17  1  0.832022  0.071965  0.820008  1
  I  I18  1  0.660985  0.057332  0.316157  1
  I  I19  1  0.160978  0.942235  0.184184  1
  I  I20  1  0.201942  0.456174  0.690555  1
  I  I21  1  0.703234  0.547084  0.807353  1
  I  I22  1  0.794681  0.565577  0.300475  1
  I  I23  1  0.294889  0.434262  0.199834  1
