# generated using pymatgen
data_BaVBF10
_symmetry_space_group_name_H-M   'P 1'
_cell_length_a   6.49185900
_cell_length_b   10.70630300
_cell_length_c   12.13367400
_cell_angle_alpha   90.00000000
_cell_angle_beta   90.00000000
_cell_angle_gamma   90.00000000
_symmetry_Int_Tables_number   1
_chemical_formula_structural   BaVBF10
_chemical_formula_sum   'Ba4 V4 B4 F40'
_cell_volume   843.33656608
_cell_formula_units_Z   4
loop_
 _symmetry_equiv_pos_site_id
 _symmetry_equiv_pos_as_xyz
  1  'x, y, z'
loop_
 _atom_site_type_symbol
 _atom_site_label
 _atom_site_symmetry_multiplicity
 _atom_site_fract_x
 _atom_site_fract_y
 _atom_site_fract_z
 _atom_site_occupancy
  Ba  Ba0  1  0.750000  0.264485  0.610521  1
  Ba  Ba1  1  0.750000  0.764485  0.889479  1
  Ba  Ba2  1  0.250000  0.735515  0.389479  1
  Ba  Ba3  1  0.250000  0.235515  0.110521  1
  V  V4  1  0.250000  0.982652  0.699200  1
  V  V5  1  0.250000  0.482652  0.800800  1
  V  V6  1  0.750000  0.017348  0.300800  1
  V  V7  1  0.750000  0.517348  0.199200  1
  B  B8  1  0.750000  0.641719  0.571262  1
  B  B9  1  0.750000  0.141719  0.928738  1
  B  B10  1  0.250000  0.358281  0.428738  1
  B  B11  1  0.250000  0.858281  0.071262  1
  F  F12  1  0.572794  0.686064  0.516134  1
  F  F13  1  0.927206  0.186064  0.983866  1
  F  F14  1  0.072794  0.313936  0.483866  1
  F  F15  1  0.427206  0.813936  0.016134  1
  F  F16  1  0.427206  0.313936  0.483866  1
  F  F17  1  0.072794  0.813936  0.016134  1
  F  F18  1  0.927206  0.686064  0.516134  1
  F  F19  1  0.572794  0.186064  0.983866  1
  F  F20  1  0.750000  0.509634  0.571869  1
  F  F21  1  0.750000  0.009634  0.928131  1
  F  F22  1  0.250000  0.490366  0.428131  1
  F  F23  1  0.250000  0.990366  0.071869  1
  F  F24  1  0.750000  0.685525  0.681303  1
  F  F25  1  0.750000  0.185525  0.818697  1
  F  F26  1  0.250000  0.314475  0.318697  1
  F  F27  1  0.250000  0.814475  0.181303  1
  F  F28  1  0.250000  0.887047  0.574226  1
  F  F29  1  0.250000  0.387047  0.925774  1
  F  F30  1  0.750000  0.112953  0.425774  1
  F  F31  1  0.750000  0.612953  0.074226  1
  F  F32  1  0.448022  0.882388  0.757961  1
  F  F33  1  0.051978  0.382388  0.742039  1
  F  F34  1  0.948022  0.117612  0.242039  1
  F  F35  1  0.551978  0.617612  0.257961  1
  F  F36  1  0.551978  0.117612  0.242039  1
  F  F37  1  0.948022  0.617612  0.257961  1
  F  F38  1  0.051978  0.882388  0.757961  1
  F  F39  1  0.448022  0.382388  0.742039  1
  F  F40  1  0.250000  0.078172  0.819136  1
  F  F41  1  0.250000  0.578172  0.680864  1
  F  F42  1  0.750000  0.921828  0.180864  1
  F  F43  1  0.750000  0.421828  0.319136  1
  F  F44  1  0.050480  0.080257  0.637238  1
  F  F45  1  0.449520  0.580257  0.862762  1
  F  F46  1  0.550480  0.919743  0.362762  1
  F  F47  1  0.949520  0.419743  0.137238  1
  F  F48  1  0.949520  0.919743  0.362762  1
  F  F49  1  0.550480  0.419743  0.137238  1
  F  F50  1  0.449520  0.080257  0.637238  1
  F  F51  1  0.050480  0.580257  0.862762  1
