# generated using pymatgen
data_YbPr2Tm4FeI12
_symmetry_space_group_name_H-M   'P 1'
_cell_length_a   9.84071523
_cell_length_b   9.70854995
_cell_length_c   9.84717357
_cell_angle_alpha   106.44917570
_cell_angle_beta   106.78772636
_cell_angle_gamma   107.73616068
_symmetry_Int_Tables_number   1
_chemical_formula_structural   YbPr2Tm4FeI12
_chemical_formula_sum   'Yb1 Pr2 Tm4 Fe1 I12'
_cell_volume   783.60820788
_cell_formula_units_Z   1
loop_
 _symmetry_equiv_pos_site_id
 _symmetry_equiv_pos_as_xyz
  1  'x, y, z'
loop_
 _atom_site_type_symbol
 _atom_site_label
 _atom_site_symmetry_multiplicity
 _atom_site_fract_x
 _atom_site_fract_y
 _atom_site_fract_z
 _atom_site_occupancy
  Yb  Yb0  1  0.000000  0.000000  0.000000  1
  Pr  Pr1  1  0.590851  0.777334  0.523254  1
  Pr  Pr2  1  0.409149  0.222666  0.476746  1
  Tm  Tm3  1  0.799072  0.528614  0.597958  1
  Tm  Tm4  1  0.526165  0.597262  0.797446  1
  Tm  Tm5  1  0.200928  0.471386  0.402042  1
  Tm  Tm6  1  0.473835  0.402738  0.202554  1
  Fe  Fe7  1  0.500000  0.500000  0.500000  1
  I  I8  1  0.736118  0.194399  0.579264  1
  I  I9  1  0.967131  0.880507  0.657631  1
  I  I10  1  0.569586  0.717349  0.172209  1
  I  I11  1  0.123541  0.352618  0.047120  1
  I  I12  1  0.652698  0.956068  0.886276  1
  I  I13  1  0.876459  0.647382  0.952880  1
  I  I14  1  0.032869  0.119493  0.342369  1
  I  I15  1  0.817538  0.430034  0.281266  1
  I  I16  1  0.347302  0.043932  0.113724  1
  I  I17  1  0.263882  0.805601  0.420736  1
  I  I18  1  0.182462  0.569966  0.718734  1
  I  I19  1  0.430414  0.282651  0.827791  1
