# generated using pymatgen
data_Sr5Cu5Pd
_symmetry_space_group_name_H-M   'P 1'
_cell_length_a   15.58750534
_cell_length_b   15.58750557
_cell_length_c   4.44331400
_cell_angle_alpha   90.00000000
_cell_angle_beta   90.00000000
_cell_angle_gamma   164.30500547
_symmetry_Int_Tables_number   1
_chemical_formula_structural   Sr5Cu5Pd
_chemical_formula_sum   'Sr5 Cu5 Pd1'
_cell_volume   292.04767199
_cell_formula_units_Z   1
loop_
 _symmetry_equiv_pos_site_id
 _symmetry_equiv_pos_as_xyz
  1  'x, y, z'
loop_
 _atom_site_type_symbol
 _atom_site_label
 _atom_site_symmetry_multiplicity
 _atom_site_fract_x
 _atom_site_fract_y
 _atom_site_fract_z
 _atom_site_occupancy
  Sr  Sr0  1  0.999875  0.000125  0.000000  1
  Sr  Sr1  1  0.615064  0.384934  0.000000  1
  Sr  Sr2  1  0.386358  0.613640  0.000000  1
  Sr  Sr3  1  0.800790  0.199208  0.500001  1
  Sr  Sr4  1  0.198168  0.801830  0.500001  1
  Cu  Cu5  1  0.274091  0.725907  0.000000  1
  Cu  Cu6  1  0.919073  0.080926  0.500001  1
  Cu  Cu7  1  0.540786  0.459212  0.500001  1
  Cu  Cu8  1  0.459834  0.540164  0.500001  1
  Cu  Cu9  1  0.080757  0.919242  0.500001  1
  Pd  Pd10  1  0.725195  0.274803  0.000000  1
