# generated using pymatgen
data_Th8SnHg3Rh8
_symmetry_space_group_name_H-M   'P 1'
_cell_length_a   7.83908000
_cell_length_b   7.83908000
_cell_length_c   7.54177400
_cell_angle_alpha   90.00000000
_cell_angle_beta   90.00000000
_cell_angle_gamma   90.00000000
_symmetry_Int_Tables_number   1
_chemical_formula_structural   Th8SnHg3Rh8
_chemical_formula_sum   'Th8 Sn1 Hg3 Rh8'
_cell_volume   463.45087574
_cell_formula_units_Z   1
loop_
 _symmetry_equiv_pos_site_id
 _symmetry_equiv_pos_as_xyz
  1  'x, y, z'
loop_
 _atom_site_type_symbol
 _atom_site_label
 _atom_site_symmetry_multiplicity
 _atom_site_fract_x
 _atom_site_fract_y
 _atom_site_fract_z
 _atom_site_occupancy
  Th  Th0  1  0.172698  0.169413  0.000207  1
  Th  Th1  1  0.669413  0.327302  0.499793  1
  Th  Th2  1  0.330587  0.672698  0.499793  1
  Th  Th3  1  0.827302  0.830587  0.000207  1
  Th  Th4  1  0.668308  0.328875  0.000173  1
  Th  Th5  1  0.828875  0.831692  0.499827  1
  Th  Th6  1  0.171125  0.168308  0.499827  1
  Th  Th7  1  0.331692  0.671125  0.000173  1
  Sn  Sn8  1  0.000000  0.500000  0.750000  1
  Hg  Hg9  1  0.500000  0.000000  0.250000  1
  Hg  Hg10  1  0.500000  0.000000  0.750000  1
  Hg  Hg11  1  0.000000  0.500000  0.250000  1
  Rh  Rh12  1  0.369121  0.367642  0.251446  1
  Rh  Rh13  1  0.872966  0.135857  0.751395  1
  Rh  Rh14  1  0.127034  0.864143  0.751395  1
  Rh  Rh15  1  0.630879  0.632358  0.251446  1
  Rh  Rh16  1  0.132358  0.869121  0.248554  1
  Rh  Rh17  1  0.867642  0.130879  0.248554  1
  Rh  Rh18  1  0.364143  0.372966  0.748605  1
  Rh  Rh19  1  0.635857  0.627034  0.748605  1
