# generated using pymatgen
data_Y3Ho4Pu3(SiB4)4
_symmetry_space_group_name_H-M   'P 1'
_cell_length_a   7.23519183
_cell_length_b   7.23577161
_cell_length_c   8.10167321
_cell_angle_alpha   90.05049893
_cell_angle_beta   90.06866809
_cell_angle_gamma   89.77843766
_symmetry_Int_Tables_number   1
_chemical_formula_structural   Y3Ho4Pu3(SiB4)4
_chemical_formula_sum   'Y3 Ho4 Pu3 Si4 B16'
_cell_volume   424.13674136
_cell_formula_units_Z   1
loop_
 _symmetry_equiv_pos_site_id
 _symmetry_equiv_pos_as_xyz
  1  'x, y, z'
loop_
 _atom_site_type_symbol
 _atom_site_label
 _atom_site_symmetry_multiplicity
 _atom_site_fract_x
 _atom_site_fract_y
 _atom_site_fract_z
 _atom_site_occupancy
  Y  Y0  1  0.818408  0.681586  0.222663  1
  Y  Y1  1  0.817872  0.681411  0.777355  1
  Y  Y2  1  0.181109  0.318138  0.777174  1
  Ho  Ho3  1  0.681270  0.181446  0.777869  1
  Ho  Ho4  1  0.182015  0.317760  0.221216  1
  Ho  Ho5  1  0.002598  0.999840  0.498362  1
  Ho  Ho6  1  0.499642  0.502276  0.498276  1
  Pu  Pu7  1  0.684299  0.184207  0.230446  1
  Pu  Pu8  1  0.315835  0.816008  0.769254  1
  Pu  Pu9  1  0.316510  0.816386  0.230767  1
  Si  Si10  1  0.114903  0.614461  0.499732  1
  Si  Si11  1  0.883545  0.382868  0.495021  1
  Si  Si12  1  0.385850  0.115805  0.498070  1
  Si  Si13  1  0.615230  0.886187  0.498838  1
  B  B14  1  0.173729  0.037486  0.999829  1
  B  B15  1  0.827340  0.962285  0.000783  1
  B  B16  1  0.959120  0.172188  0.000514  1
  B  B17  1  0.327426  0.541855  0.999638  1
  B  B18  1  0.042225  0.827691  0.999579  1
  B  B19  1  0.671953  0.458815  0.000456  1
  B  B20  1  0.537110  0.673602  0.999785  1
  B  B21  1  0.461923  0.327239  0.000811  1
  B  B22  1  0.090971  0.590803  0.000125  1
  B  B23  1  0.908748  0.408582  0.002097  1
  B  B24  1  0.410712  0.089440  0.000680  1
  B  B25  1  0.589240  0.910870  0.000473  1
  B  B26  1  0.000476  0.999806  0.161613  1
  B  B27  1  0.001576  0.999489  0.838484  1
  B  B28  1  0.499387  0.501736  0.838477  1
  B  B29  1  0.498978  0.499730  0.161619  1
