# generated using pymatgen
data_Pr3Nd5(SiI6)2
_symmetry_space_group_name_H-M   'P 1'
_cell_length_a   4.36126900
_cell_length_b   14.51263922
_cell_length_c   15.28987623
_cell_angle_alpha   89.97999049
_cell_angle_beta   90.00000000
_cell_angle_gamma   90.00000000
_symmetry_Int_Tables_number   1
_chemical_formula_structural   Pr3Nd5(SiI6)2
_chemical_formula_sum   'Pr3 Nd5 Si2 I12'
_cell_volume   967.75008233
_cell_formula_units_Z   1
loop_
 _symmetry_equiv_pos_site_id
 _symmetry_equiv_pos_as_xyz
  1  'x, y, z'
loop_
 _atom_site_type_symbol
 _atom_site_label
 _atom_site_symmetry_multiplicity
 _atom_site_fract_x
 _atom_site_fract_y
 _atom_site_fract_z
 _atom_site_occupancy
  Pr  Pr0  1  0.000000  0.113638  0.576064  1
  Pr  Pr1  1  0.000000  0.886356  0.423935  1
  Pr  Pr2  1  0.000000  0.613385  0.924110  1
  Nd  Nd3  1  0.500000  0.114775  0.346276  1
  Nd  Nd4  1  0.500000  0.885235  0.653716  1
  Nd  Nd5  1  0.500000  0.614628  0.153675  1
  Nd  Nd6  1  0.500000  0.385230  0.846424  1
  Nd  Nd7  1  0.000000  0.386744  0.075788  1
  Si  Si8  1  0.500000  0.000000  0.499993  1
  Si  Si9  1  0.500000  0.499390  0.000399  1
  I  I10  1  0.500000  0.244422  0.161733  1
  I  I11  1  0.500000  0.756313  0.837824  1
  I  I12  1  0.500000  0.743605  0.337771  1
  I  I13  1  0.500000  0.256377  0.662236  1
  I  I14  1  0.000000  0.258300  0.413510  1
  I  I15  1  0.000000  0.741694  0.586483  1
  I  I16  1  0.000000  0.758253  0.086465  1
  I  I17  1  0.000000  0.242047  0.914030  1
  I  I18  1  0.000000  0.999294  0.240475  1
  I  I19  1  0.000000  0.000722  0.759520  1
  I  I20  1  0.000000  0.498873  0.259032  1
  I  I21  1  0.000000  0.500718  0.740539  1
