# generated using pymatgen
data_Y(FeSb3)4
_symmetry_space_group_name_H-M   'P 1'
_cell_length_a   7.94878338
_cell_length_b   7.94878395
_cell_length_c   7.94878300
_cell_angle_alpha   109.47121567
_cell_angle_beta   109.47121712
_cell_angle_gamma   109.47122630
_symmetry_Int_Tables_number   1
_chemical_formula_structural   Y(FeSb3)4
_chemical_formula_sum   'Y1 Fe4 Sb12'
_cell_volume   386.61626392
_cell_formula_units_Z   1
loop_
 _symmetry_equiv_pos_site_id
 _symmetry_equiv_pos_as_xyz
  1  'x, y, z'
loop_
 _atom_site_type_symbol
 _atom_site_label
 _atom_site_symmetry_multiplicity
 _atom_site_fract_x
 _atom_site_fract_y
 _atom_site_fract_z
 _atom_site_occupancy
  Y  Y0  1  0.000000  0.000000  0.000000  1
  Fe  Fe1  1  0.500000  0.000000  0.000000  1
  Fe  Fe2  1  0.000000  0.000000  0.500000  1
  Fe  Fe3  1  0.000000  0.500000  0.000000  1
  Fe  Fe4  1  0.500000  0.500000  0.500000  1
  Sb  Sb5  1  0.161833  0.828923  0.667091  1
  Sb  Sb6  1  0.838167  0.171077  0.332909  1
  Sb  Sb7  1  0.161833  0.494742  0.332909  1
  Sb  Sb8  1  0.838167  0.505258  0.667091  1
  Sb  Sb9  1  0.667091  0.161833  0.828923  1
  Sb  Sb10  1  0.332909  0.838167  0.171077  1
  Sb  Sb11  1  0.332909  0.161833  0.494742  1
  Sb  Sb12  1  0.667091  0.838167  0.505258  1
  Sb  Sb13  1  0.828923  0.667091  0.161833  1
  Sb  Sb14  1  0.171077  0.332909  0.838167  1
  Sb  Sb15  1  0.494742  0.332909  0.161833  1
  Sb  Sb16  1  0.505258  0.667091  0.838167  1
