# generated using pymatgen
data_Na2Se4O9
_symmetry_space_group_name_H-M   'P 1'
_cell_length_a   4.63290845
_cell_length_b   8.32397709
_cell_length_c   15.75690964
_cell_angle_alpha   104.44510158
_cell_angle_beta   88.14341700
_cell_angle_gamma   104.54781065
_symmetry_Int_Tables_number   1
_chemical_formula_structural   Na2Se4O9
_chemical_formula_sum   'Na4 Se8 O18'
_cell_volume   569.27995603
_cell_formula_units_Z   2
loop_
 _symmetry_equiv_pos_site_id
 _symmetry_equiv_pos_as_xyz
  1  'x, y, z'
loop_
 _atom_site_type_symbol
 _atom_site_label
 _atom_site_symmetry_multiplicity
 _atom_site_fract_x
 _atom_site_fract_y
 _atom_site_fract_z
 _atom_site_occupancy
  Na  Na0  1  0.175144  0.090816  0.157257  1
  Na  Na1  1  0.781175  0.381614  0.301390  1
  Na  Na2  1  0.218825  0.618386  0.698610  1
  Na  Na3  1  0.824856  0.909185  0.842743  1
  Se  Se4  1  0.735781  0.296837  0.072677  1
  Se  Se5  1  0.249057  0.647966  0.162614  1
  Se  Se6  1  0.229634  0.808148  0.384677  1
  Se  Se7  1  0.230865  0.212154  0.399763  1
  Se  Se8  1  0.769136  0.787847  0.600237  1
  Se  Se9  1  0.770364  0.191852  0.615323  1
  Se  Se10  1  0.750943  0.352034  0.837386  1
  Se  Se11  1  0.264218  0.703163  0.927323  1
  O  O12  1  0.383082  0.309869  0.068948  1
  O  O13  1  0.144385  0.807948  0.139916  1
  O  O14  1  0.720683  0.150001  0.130230  1
  O  O15  1  0.894095  0.502178  0.172619  1
  O  O16  1  0.375110  0.712072  0.277747  1
  O  O17  1  0.217637  0.266841  0.303698  1
  O  O18  1  0.059508  0.960193  0.358197  1
  O  O19  1  0.933314  0.658222  0.396473  1
  O  O20  1  0.591243  0.226487  0.416470  1
  O  O21  1  0.408759  0.773514  0.583530  1
  O  O22  1  0.066684  0.341779  0.603527  1
  O  O23  1  0.940491  0.039808  0.641803  1
  O  O24  1  0.782364  0.733160  0.696302  1
  O  O25  1  0.624887  0.287927  0.722252  1
  O  O26  1  0.105904  0.497822  0.827381  1
  O  O27  1  0.279315  0.849999  0.869770  1
  O  O28  1  0.855615  0.192051  0.860084  1
  O  O29  1  0.616917  0.690131  0.931052  1
