# generated using pymatgen
data_Ta12Mn13Si9Ir2
_symmetry_space_group_name_H-M   'P 1'
_cell_length_a   8.55631000
_cell_length_b   8.55630915
_cell_length_c   8.03090300
_cell_angle_alpha   90.00000000
_cell_angle_beta   90.00000000
_cell_angle_gamma   119.99998781
_symmetry_Int_Tables_number   1
_chemical_formula_structural   Ta12Mn13Si9Ir2
_chemical_formula_sum   'Ta12 Mn13 Si9 Ir2'
_cell_volume   509.17613988
_cell_formula_units_Z   1
loop_
 _symmetry_equiv_pos_site_id
 _symmetry_equiv_pos_as_xyz
  1  'x, y, z'
loop_
 _atom_site_type_symbol
 _atom_site_label
 _atom_site_symmetry_multiplicity
 _atom_site_fract_x
 _atom_site_fract_y
 _atom_site_fract_z
 _atom_site_occupancy
  Ta  Ta0  1  0.339500  0.999188  0.064752  1
  Ta  Ta1  1  0.659689  0.999188  0.935248  1
  Ta  Ta2  1  0.000812  0.340311  0.064752  1
  Ta  Ta3  1  0.660726  0.999704  0.562947  1
  Ta  Ta4  1  0.000296  0.339274  0.437053  1
  Ta  Ta5  1  0.000812  0.660500  0.935248  1
  Ta  Ta6  1  0.338978  0.999704  0.437053  1
  Ta  Ta7  1  0.000296  0.661022  0.562947  1
  Ta  Ta8  1  0.659689  0.660500  0.064752  1
  Ta  Ta9  1  0.339500  0.340311  0.935248  1
  Ta  Ta10  1  0.338978  0.339274  0.562947  1
  Ta  Ta11  1  0.660726  0.661022  0.437053  1
  Mn  Mn12  1  0.168115  0.501841  0.748225  1
  Mn  Mn13  1  0.833242  0.498742  0.250270  1
  Mn  Mn14  1  0.498159  0.666274  0.748225  1
  Mn  Mn15  1  0.501258  0.166758  0.749730  1
  Mn  Mn16  1  0.501258  0.334499  0.250270  1
  Mn  Mn17  1  0.498159  0.831885  0.251775  1
  Mn  Mn18  1  0.333726  0.831885  0.748225  1
  Mn  Mn19  1  0.665501  0.498742  0.749730  1
  Mn  Mn20  1  0.665501  0.166758  0.250270  1
  Mn  Mn21  1  0.333726  0.501841  0.251775  1
  Mn  Mn22  1  0.833242  0.334499  0.749730  1
  Mn  Mn23  1  0.168115  0.666274  0.251775  1
  Mn  Mn24  1  0.333333  0.666667  0.500000  1
  Si  Si25  1  0.666667  0.333333  0.500000  1
  Si  Si26  1  0.666667  0.333333  0.000000  1
  Si  Si27  1  0.333333  0.666667  0.000000  1
  Si  Si28  1  0.183962  0.000787  0.751731  1
  Si  Si29  1  0.816825  0.000787  0.248269  1
  Si  Si30  1  0.999213  0.183175  0.751731  1
  Si  Si31  1  0.999213  0.816038  0.248269  1
  Si  Si32  1  0.816825  0.816038  0.751731  1
  Si  Si33  1  0.183962  0.183175  0.248269  1
  Ir  Ir34  1  0.000000  0.000000  0.500000  1
  Ir  Ir35  1  0.000000  0.000000  0.000000  1
