# generated using pymatgen
data_Er2Al9CoPd2
_symmetry_space_group_name_H-M   'P 1'
_cell_length_a   7.55680874
_cell_length_b   7.55680914
_cell_length_c   9.38084400
_cell_angle_alpha   90.00000000
_cell_angle_beta   90.00000000
_cell_angle_gamma   119.96190719
_symmetry_Int_Tables_number   1
_chemical_formula_structural   Er2Al9CoPd2
_chemical_formula_sum   'Er4 Al18 Co2 Pd4'
_cell_volume   464.10474096
_cell_formula_units_Z   2
loop_
 _symmetry_equiv_pos_site_id
 _symmetry_equiv_pos_as_xyz
  1  'x, y, z'
loop_
 _atom_site_type_symbol
 _atom_site_label
 _atom_site_symmetry_multiplicity
 _atom_site_fract_x
 _atom_site_fract_y
 _atom_site_fract_z
 _atom_site_occupancy
  Er  Er0  1  0.993240  0.662730  0.250000  1
  Er  Er1  1  0.006760  0.337270  0.750000  1
  Er  Er2  1  0.662730  0.993240  0.250000  1
  Er  Er3  1  0.337270  0.006760  0.750000  1
  Al  Al4  1  0.111769  0.111769  0.250000  1
  Al  Al5  1  0.888231  0.888231  0.750000  1
  Al  Al6  1  0.998957  0.323080  0.075155  1
  Al  Al7  1  0.001043  0.676920  0.924845  1
  Al  Al8  1  0.001043  0.676920  0.575155  1
  Al  Al9  1  0.323080  0.998957  0.424845  1
  Al  Al10  1  0.998957  0.323080  0.424845  1
  Al  Al11  1  0.676920  0.001043  0.575155  1
  Al  Al12  1  0.676920  0.001043  0.924845  1
  Al  Al13  1  0.323080  0.998957  0.075155  1
  Al  Al14  1  0.323506  0.323506  0.555158  1
  Al  Al15  1  0.676494  0.676494  0.444842  1
  Al  Al16  1  0.676494  0.676494  0.055158  1
  Al  Al17  1  0.323506  0.323506  0.944842  1
  Al  Al18  1  0.339026  0.543312  0.250000  1
  Al  Al19  1  0.660974  0.456688  0.750000  1
  Al  Al20  1  0.543312  0.339026  0.250000  1
  Al  Al21  1  0.456688  0.660974  0.750000  1
  Co  Co22  1  0.000000  0.000000  0.000000  1
  Co  Co23  1  0.000000  0.000000  0.500000  1
  Pd  Pd24  1  0.672800  0.327200  0.000000  1
  Pd  Pd25  1  0.327200  0.672800  0.000000  1
  Pd  Pd26  1  0.327200  0.672800  0.500000  1
  Pd  Pd27  1  0.672800  0.327200  0.500000  1
