# generated using pymatgen
data_Y2Co9P7Ru3
_symmetry_space_group_name_H-M   'P 1'
_cell_length_a   3.68611200
_cell_length_b   9.04347964
_cell_length_c   9.04348000
_cell_angle_alpha   120.00000133
_cell_angle_beta   90.00000000
_cell_angle_gamma   90.00000000
_symmetry_Int_Tables_number   1
_chemical_formula_structural   Y2Co9P7Ru3
_chemical_formula_sum   'Y2 Co9 P7 Ru3'
_cell_volume   261.07801391
_cell_formula_units_Z   1
loop_
 _symmetry_equiv_pos_site_id
 _symmetry_equiv_pos_as_xyz
  1  'x, y, z'
loop_
 _atom_site_type_symbol
 _atom_site_label
 _atom_site_symmetry_multiplicity
 _atom_site_fract_x
 _atom_site_fract_y
 _atom_site_fract_z
 _atom_site_occupancy
  Y  Y0  1  0.000000  0.666667  0.333333  1
  Y  Y1  1  0.500000  0.333333  0.666667  1
  Co  Co2  1  0.000000  0.565793  0.938624  1
  Co  Co3  1  0.000000  0.372830  0.434207  1
  Co  Co4  1  0.000000  0.061376  0.627170  1
  Co  Co5  1  0.000000  0.877082  0.158899  1
  Co  Co6  1  0.000000  0.281817  0.122918  1
  Co  Co7  1  0.000000  0.841101  0.718183  1
  Co  Co8  1  0.500000  0.944678  0.384073  1
  Co  Co9  1  0.500000  0.439394  0.055322  1
  Co  Co10  1  0.500000  0.615927  0.560606  1
  P  P11  1  0.000000  0.000000  0.000000  1
  P  P12  1  0.500000  0.708879  0.115368  1
  P  P13  1  0.500000  0.406488  0.291121  1
  P  P14  1  0.500000  0.884632  0.593512  1
  P  P15  1  0.000000  0.590000  0.700524  1
  P  P16  1  0.000000  0.110524  0.410000  1
  P  P17  1  0.000000  0.299476  0.889476  1
  Ru  Ru18  1  0.500000  0.774367  0.899131  1
  Ru  Ru19  1  0.500000  0.124765  0.225633  1
  Ru  Ru20  1  0.500000  0.100869  0.875235  1
