# generated using pymatgen
data_TbHo2Sc2Pb3
_symmetry_space_group_name_H-M   'P 1'
_cell_length_a   8.89390256
_cell_length_b   8.89935431
_cell_length_c   6.36571000
_cell_angle_alpha   90.00000000
_cell_angle_beta   90.00000000
_cell_angle_gamma   120.02027871
_symmetry_Int_Tables_number   1
_chemical_formula_structural   TbHo2Sc2Pb3
_chemical_formula_sum   'Tb2 Ho4 Sc4 Pb6'
_cell_volume   436.25414400
_cell_formula_units_Z   2
loop_
 _symmetry_equiv_pos_site_id
 _symmetry_equiv_pos_as_xyz
  1  'x, y, z'
loop_
 _atom_site_type_symbol
 _atom_site_label
 _atom_site_symmetry_multiplicity
 _atom_site_fract_x
 _atom_site_fract_y
 _atom_site_fract_z
 _atom_site_occupancy
  Tb  Tb0  1  0.238540  0.999867  0.250000  1
  Tb  Tb1  1  0.238540  0.238673  0.750000  1
  Ho  Ho2  1  0.999782  0.761140  0.750000  1
  Ho  Ho3  1  0.999782  0.238642  0.250000  1
  Ho  Ho4  1  0.761398  0.761549  0.250000  1
  Ho  Ho5  1  0.761398  0.999849  0.750000  1
  Sc  Sc6  1  0.333389  0.666695  0.000000  1
  Sc  Sc7  1  0.666752  0.333375  0.500000  1
  Sc  Sc8  1  0.666752  0.333375  0.000000  1
  Sc  Sc9  1  0.333389  0.666695  0.500000  1
  Pb  Pb10  1  0.601793  0.000012  0.250000  1
  Pb  Pb11  1  0.601793  0.601780  0.750000  1
  Pb  Pb12  1  0.999638  0.398676  0.750000  1
  Pb  Pb13  1  0.999638  0.600962  0.250000  1
  Pb  Pb14  1  0.398709  0.399002  0.250000  1
  Pb  Pb15  1  0.398709  0.999707  0.750000  1
