# generated using pymatgen
data_Nd6Er10Cd4Ir3Pd
_symmetry_space_group_name_H-M   'P 1'
_cell_length_a   9.71526500
_cell_length_b   9.71526458
_cell_length_c   9.71526539
_cell_angle_alpha   60.10810605
_cell_angle_beta   60.10810169
_cell_angle_gamma   60.10811281
_symmetry_Int_Tables_number   1
_chemical_formula_structural   Nd6Er10Cd4Ir3Pd
_chemical_formula_sum   'Nd6 Er10 Cd4 Ir3 Pd1'
_cell_volume   649.99707844
_cell_formula_units_Z   1
loop_
 _symmetry_equiv_pos_site_id
 _symmetry_equiv_pos_as_xyz
  1  'x, y, z'
loop_
 _atom_site_type_symbol
 _atom_site_label
 _atom_site_symmetry_multiplicity
 _atom_site_fract_x
 _atom_site_fract_y
 _atom_site_fract_z
 _atom_site_occupancy
  Nd  Nd0  1  0.940677  0.560236  0.560236  1
  Nd  Nd1  1  0.561270  0.940460  0.940460  1
  Nd  Nd2  1  0.560236  0.940677  0.560236  1
  Nd  Nd3  1  0.940460  0.561270  0.940460  1
  Nd  Nd4  1  0.560236  0.560236  0.940677  1
  Nd  Nd5  1  0.940460  0.940460  0.561270  1
  Er  Er6  1  0.346292  0.346292  0.346292  1
  Er  Er7  1  0.352227  0.352227  0.952710  1
  Er  Er8  1  0.352227  0.952710  0.352227  1
  Er  Er9  1  0.952710  0.352227  0.352227  1
  Er  Er10  1  0.806391  0.187977  0.187977  1
  Er  Er11  1  0.185001  0.812792  0.812792  1
  Er  Er12  1  0.187977  0.806391  0.187977  1
  Er  Er13  1  0.812792  0.185001  0.812792  1
  Er  Er14  1  0.187977  0.187977  0.806391  1
  Er  Er15  1  0.812792  0.812792  0.185001  1
  Cd  Cd16  1  0.579731  0.579731  0.579731  1
  Cd  Cd17  1  0.579101  0.579101  0.262230  1
  Cd  Cd18  1  0.579101  0.262230  0.579101  1
  Cd  Cd19  1  0.262230  0.579101  0.579101  1
  Ir  Ir20  1  0.141377  0.141377  0.574996  1
  Ir  Ir21  1  0.141377  0.574996  0.141377  1
  Ir  Ir22  1  0.574996  0.141377  0.141377  1
  Pd  Pd23  1  0.142361  0.142361  0.142361  1
