# generated using pymatgen
data_V4(CoSe4)3
_symmetry_space_group_name_H-M   'P 1'
_cell_length_a   7.02074745
_cell_length_b   7.02074800
_cell_length_c   18.84118270
_cell_angle_alpha   68.68293685
_cell_angle_beta   68.68293583
_cell_angle_gamma   27.01060671
_symmetry_Int_Tables_number   1
_chemical_formula_structural   V4(CoSe4)3
_chemical_formula_sum   'V4 Co3 Se12'
_cell_volume   391.18762455
_cell_formula_units_Z   1
loop_
 _symmetry_equiv_pos_site_id
 _symmetry_equiv_pos_as_xyz
  1  'x, y, z'
loop_
 _atom_site_type_symbol
 _atom_site_label
 _atom_site_symmetry_multiplicity
 _atom_site_fract_x
 _atom_site_fract_y
 _atom_site_fract_z
 _atom_site_occupancy
  V  V0  1  0.620764  0.620764  0.851553  1
  V  V1  1  0.379236  0.379236  0.148447  1
  V  V2  1  0.743567  0.743567  0.594611  1
  V  V3  1  0.256433  0.256433  0.405389  1
  Co  Co4  1  0.000000  0.000000  0.000000  1
  Co  Co5  1  0.229414  0.229414  0.717727  1
  Co  Co6  1  0.770586  0.770586  0.282273  1
  Se  Se7  1  0.971424  0.971424  0.886700  1
  Se  Se8  1  0.028576  0.028576  0.113300  1
  Se  Se9  1  0.627233  0.627233  0.397928  1
  Se  Se10  1  0.372767  0.372767  0.602072  1
  Se  Se11  1  0.139311  0.139311  0.549209  1
  Se  Se12  1  0.860689  0.860689  0.450791  1
  Se  Se13  1  0.805870  0.805870  0.768523  1
  Se  Se14  1  0.194130  0.194130  0.231477  1
  Se  Se15  1  0.180015  0.180015  0.928274  1
  Se  Se16  1  0.819985  0.819985  0.071726  1
  Se  Se17  1  0.601860  0.601860  0.721470  1
  Se  Se18  1  0.398140  0.398140  0.278530  1
