# generated using pymatgen
data_Sr4RhW3O16
_symmetry_space_group_name_H-M   'P 1'
_cell_length_a   5.14667863
_cell_length_b   5.64426282
_cell_length_c   13.05689900
_cell_angle_alpha   90.00000000
_cell_angle_beta   90.00000000
_cell_angle_gamma   89.80496244
_symmetry_Int_Tables_number   1
_chemical_formula_structural   Sr4RhW3O16
_chemical_formula_sum   'Sr4 Rh1 W3 O16'
_cell_volume   379.29036212
_cell_formula_units_Z   1
loop_
 _symmetry_equiv_pos_site_id
 _symmetry_equiv_pos_as_xyz
  1  'x, y, z'
loop_
 _atom_site_type_symbol
 _atom_site_label
 _atom_site_symmetry_multiplicity
 _atom_site_fract_x
 _atom_site_fract_y
 _atom_site_fract_z
 _atom_site_occupancy
  Sr  Sr0  1  0.750000  0.000000  0.659826  1
  Sr  Sr1  1  0.250000  0.500000  0.843207  1
  Sr  Sr2  1  0.250000  0.000000  0.340736  1
  Sr  Sr3  1  0.750000  0.500000  0.156587  1
  Rh  Rh4  1  0.750000  0.000000  0.928995  1
  W  W5  1  0.750000  0.500000  0.423529  1
  W  W6  1  0.250000  0.000000  0.073919  1
  W  W7  1  0.250000  0.500000  0.575571  1
  O  O8  1  0.123005  0.291255  0.671498  1
  O  O9  1  0.622462  0.208251  0.830492  1
  O  O10  1  0.877538  0.791749  0.830492  1
  O  O11  1  0.376995  0.708745  0.671498  1
  O  O12  1  0.874634  0.710064  0.328215  1
  O  O13  1  0.368623  0.785828  0.170196  1
  O  O14  1  0.131377  0.214172  0.170196  1
  O  O15  1  0.625366  0.289936  0.328215  1
  O  O16  1  0.558054  0.310075  0.543507  1
  O  O17  1  0.065526  0.189505  0.955488  1
  O  O18  1  0.434474  0.810495  0.955488  1
  O  O19  1  0.941946  0.689925  0.543507  1
  O  O20  1  0.441341  0.688551  0.456143  1
  O  O21  1  0.939808  0.811831  0.043278  1
  O  O22  1  0.560192  0.188169  0.043278  1
  O  O23  1  0.058659  0.311449  0.456143  1
