# generated using pymatgen
data_Dy3YReTcB12
_symmetry_space_group_name_H-M   'P 1'
_cell_length_a   3.69039100
_cell_length_b   9.17901598
_cell_length_c   11.56270101
_cell_angle_alpha   90.05071583
_cell_angle_beta   90.00000000
_cell_angle_gamma   90.00000000
_symmetry_Int_Tables_number   1
_chemical_formula_structural   Dy3YReTcB12
_chemical_formula_sum   'Dy6 Y2 Re2 Tc2 B24'
_cell_volume   391.67660712
_cell_formula_units_Z   2
loop_
 _symmetry_equiv_pos_site_id
 _symmetry_equiv_pos_as_xyz
  1  'x, y, z'
loop_
 _atom_site_type_symbol
 _atom_site_label
 _atom_site_symmetry_multiplicity
 _atom_site_fract_x
 _atom_site_fract_y
 _atom_site_fract_z
 _atom_site_occupancy
  Dy  Dy0  1  0.000000  0.823610  0.085942  1
  Dy  Dy1  1  0.000000  0.176390  0.914058  1
  Dy  Dy2  1  0.000000  0.941978  0.369773  1
  Dy  Dy3  1  0.000000  0.058022  0.630227  1
  Dy  Dy4  1  0.000000  0.443553  0.130580  1
  Dy  Dy5  1  0.000000  0.556447  0.869420  1
  Y  Y6  1  0.000000  0.323748  0.414079  1
  Y  Y7  1  0.000000  0.676252  0.585921  1
  Re  Re8  1  0.000000  0.138609  0.179216  1
  Re  Re9  1  0.000000  0.861391  0.820784  1
  Tc  Tc10  1  0.000000  0.638781  0.320447  1
  Tc  Tc11  1  0.000000  0.361219  0.679553  1
  B  B12  1  0.500000  0.553368  0.432731  1
  B  B13  1  0.500000  0.446632  0.567269  1
  B  B14  1  0.500000  0.053207  0.067052  1
  B  B15  1  0.500000  0.946793  0.932948  1
  B  B16  1  0.500000  0.748476  0.418289  1
  B  B17  1  0.500000  0.251524  0.581711  1
  B  B18  1  0.500000  0.248863  0.081465  1
  B  B19  1  0.500000  0.751137  0.918535  1
  B  B20  1  0.500000  0.791572  0.265371  1
  B  B21  1  0.500000  0.208428  0.734629  1
  B  B22  1  0.500000  0.291787  0.234535  1
  B  B23  1  0.500000  0.708213  0.765465  1
  B  B24  1  0.500000  0.631029  0.185780  1
  B  B25  1  0.500000  0.368971  0.814220  1
  B  B26  1  0.500000  0.130475  0.314286  1
  B  B27  1  0.500000  0.869525  0.685714  1
  B  B28  1  0.500000  0.982155  0.211715  1
  B  B29  1  0.500000  0.017845  0.788285  1
  B  B30  1  0.500000  0.482640  0.288207  1
  B  B31  1  0.500000  0.517360  0.711793  1
  B  B32  1  0.500000  0.600436  0.027981  1
  B  B33  1  0.500000  0.399564  0.972019  1
  B  B34  1  0.500000  0.100039  0.471838  1
  B  B35  1  0.500000  0.899961  0.528162  1
