# generated using pymatgen
data_Dy3PaAl15(GaIr2)3
_symmetry_space_group_name_H-M   'P 1'
_cell_length_a   7.55871748
_cell_length_b   7.55292038
_cell_length_c   9.47814900
_cell_angle_alpha   90.00000000
_cell_angle_beta   90.00000000
_cell_angle_gamma   119.51133103
_symmetry_Int_Tables_number   1
_chemical_formula_structural   Dy3PaAl15(GaIr2)3
_chemical_formula_sum   'Dy3 Pa1 Al15 Ga3 Ir6'
_cell_volume   470.90654101
_cell_formula_units_Z   1
loop_
 _symmetry_equiv_pos_site_id
 _symmetry_equiv_pos_as_xyz
  1  'x, y, z'
loop_
 _atom_site_type_symbol
 _atom_site_label
 _atom_site_symmetry_multiplicity
 _atom_site_fract_x
 _atom_site_fract_y
 _atom_site_fract_z
 _atom_site_occupancy
  Dy  Dy0  1  0.001804  0.325531  0.250000  1
  Dy  Dy1  1  0.675193  0.995325  0.750000  1
  Dy  Dy2  1  0.329963  0.007733  0.250000  1
  Pa  Pa3  1  0.994511  0.674269  0.750000  1
  Al  Al4  1  0.001599  0.333600  0.574469  1
  Al  Al5  1  0.998912  0.664266  0.422522  1
  Al  Al6  1  0.998912  0.664266  0.077478  1
  Al  Al7  1  0.339224  0.003176  0.925742  1
  Al  Al8  1  0.001599  0.333600  0.925531  1
  Al  Al9  1  0.664120  0.998136  0.074299  1
  Al  Al10  1  0.664120  0.998136  0.425701  1
  Al  Al11  1  0.339224  0.003176  0.574258  1
  Al  Al12  1  0.332756  0.333303  0.055876  1
  Al  Al13  1  0.662429  0.665014  0.944502  1
  Al  Al14  1  0.662429  0.665014  0.555498  1
  Al  Al15  1  0.332756  0.333303  0.444124  1
  Al  Al16  1  0.336603  0.548047  0.750000  1
  Al  Al17  1  0.547431  0.339344  0.750000  1
  Al  Al18  1  0.448516  0.660654  0.250000  1
  Ga  Ga19  1  0.138408  0.137906  0.750000  1
  Ga  Ga20  1  0.870222  0.871328  0.250000  1
  Ga  Ga21  1  0.658911  0.451720  0.250000  1
  Ir  Ir22  1  0.673759  0.329675  0.504411  1
  Ir  Ir23  1  0.327100  0.670925  0.501848  1
  Ir  Ir24  1  0.327100  0.670925  0.998152  1
  Ir  Ir25  1  0.673759  0.329675  0.995589  1
  Ir  Ir26  1  0.999317  0.995976  0.503632  1
  Ir  Ir27  1  0.999317  0.995976  0.996368  1
