# generated using pymatgen
data_Li4AcNd3Si8
_symmetry_space_group_name_H-M   'P 1'
_cell_length_a   3.91399000
_cell_length_b   7.81359099
_cell_length_c   10.66799102
_cell_angle_alpha   89.72980568
_cell_angle_beta   90.00000000
_cell_angle_gamma   90.00000000
_symmetry_Int_Tables_number   1
_chemical_formula_structural   Li4AcNd3Si8
_chemical_formula_sum   'Li4 Ac1 Nd3 Si8'
_cell_volume   326.24825543
_cell_formula_units_Z   1
loop_
 _symmetry_equiv_pos_site_id
 _symmetry_equiv_pos_as_xyz
  1  'x, y, z'
loop_
 _atom_site_type_symbol
 _atom_site_label
 _atom_site_symmetry_multiplicity
 _atom_site_fract_x
 _atom_site_fract_y
 _atom_site_fract_z
 _atom_site_occupancy
  Li  Li0  1  0.250000  0.996918  0.390348  1
  Li  Li1  1  0.750000  0.004927  0.612232  1
  Li  Li2  1  0.250000  0.494697  0.107905  1
  Li  Li3  1  0.750000  0.504887  0.890555  1
  Ac  Ac4  1  0.750000  0.359253  0.364315  1
  Nd  Nd5  1  0.250000  0.133847  0.864616  1
  Nd  Nd6  1  0.750000  0.862811  0.132961  1
  Nd  Nd7  1  0.250000  0.637721  0.636895  1
  Si  Si8  1  0.750000  0.268127  0.065244  1
  Si  Si9  1  0.250000  0.726979  0.928362  1
  Si  Si10  1  0.750000  0.781822  0.428904  1
  Si  Si11  1  0.250000  0.224626  0.579997  1
  Si  Si12  1  0.750000  0.834420  0.822173  1
  Si  Si13  1  0.250000  0.159168  0.170006  1
  Si  Si14  1  0.750000  0.334782  0.683436  1
  Si  Si15  1  0.250000  0.675016  0.322051  1
