# generated using pymatgen
data_PuBN
_symmetry_space_group_name_H-M   'P 1'
_cell_length_a   6.20542428
_cell_length_b   6.20542460
_cell_length_c   3.33386700
_cell_angle_alpha   90.00000000
_cell_angle_beta   90.00000000
_cell_angle_gamma   146.17716446
_symmetry_Int_Tables_number   1
_chemical_formula_structural   PuBN
_chemical_formula_sum   'Pu2 B2 N2'
_cell_volume   71.45873749
_cell_formula_units_Z   2
loop_
 _symmetry_equiv_pos_site_id
 _symmetry_equiv_pos_as_xyz
  1  'x, y, z'
loop_
 _atom_site_type_symbol
 _atom_site_label
 _atom_site_symmetry_multiplicity
 _atom_site_fract_x
 _atom_site_fract_y
 _atom_site_fract_z
 _atom_site_occupancy
  Pu  Pu0  1  0.858799  0.141201  0.750000  1
  Pu  Pu1  1  0.141201  0.858799  0.250000  1
  B  B2  1  0.534919  0.465081  0.750000  1
  B  B3  1  0.465081  0.534919  0.250000  1
  N  N4  1  0.661801  0.338199  0.750000  1
  N  N5  1  0.338199  0.661801  0.250000  1
