# generated using pymatgen
data_Tm2Lu10Ru3Rh
_symmetry_space_group_name_H-M   'P 1'
_cell_length_a   6.18828623
_cell_length_b   7.19729264
_cell_length_c   8.94799400
_cell_angle_alpha   90.00000000
_cell_angle_beta   90.00000000
_cell_angle_gamma   89.99132220
_symmetry_Int_Tables_number   1
_chemical_formula_structural   Tm2Lu10Ru3Rh
_chemical_formula_sum   'Tm2 Lu10 Ru3 Rh1'
_cell_volume   398.53386755
_cell_formula_units_Z   1
loop_
 _symmetry_equiv_pos_site_id
 _symmetry_equiv_pos_as_xyz
  1  'x, y, z'
loop_
 _atom_site_type_symbol
 _atom_site_label
 _atom_site_symmetry_multiplicity
 _atom_site_fract_x
 _atom_site_fract_y
 _atom_site_fract_z
 _atom_site_occupancy
  Tm  Tm0  1  0.871783  0.538631  0.250000  1
  Tm  Tm1  1  0.628892  0.038763  0.250000  1
  Lu  Lu2  1  0.332474  0.674370  0.061273  1
  Lu  Lu3  1  0.170060  0.179515  0.438552  1
  Lu  Lu4  1  0.669783  0.323418  0.563241  1
  Lu  Lu5  1  0.827938  0.822387  0.934407  1
  Lu  Lu6  1  0.669783  0.323418  0.936759  1
  Lu  Lu7  1  0.827938  0.822387  0.565593  1
  Lu  Lu8  1  0.332474  0.674370  0.438727  1
  Lu  Lu9  1  0.170060  0.179515  0.061448  1
  Lu  Lu10  1  0.126895  0.460619  0.750000  1
  Lu  Lu11  1  0.370344  0.961472  0.750000  1
  Ru  Ru12  1  0.462908  0.385232  0.250000  1
  Ru  Ru13  1  0.963233  0.114195  0.750000  1
  Ru  Ru14  1  0.533544  0.615034  0.750000  1
  Rh  Rh15  1  0.041891  0.886676  0.250000  1
