# generated using pymatgen
data_TaZn2(NiSb)3
_symmetry_space_group_name_H-M   'P 1'
_cell_length_a   7.26009377
_cell_length_b   7.31646128
_cell_length_c   7.31646144
_cell_angle_alpha   119.72772620
_cell_angle_beta   99.61375198
_cell_angle_gamma   99.61374960
_symmetry_Int_Tables_number   1
_chemical_formula_structural   TaZn2(NiSb)3
_chemical_formula_sum   'Ta2 Zn4 Ni6 Sb6'
_cell_volume   318.27029193
_cell_formula_units_Z   2
loop_
 _symmetry_equiv_pos_site_id
 _symmetry_equiv_pos_as_xyz
  1  'x, y, z'
loop_
 _atom_site_type_symbol
 _atom_site_label
 _atom_site_symmetry_multiplicity
 _atom_site_fract_x
 _atom_site_fract_y
 _atom_site_fract_z
 _atom_site_occupancy
  Ta  Ta0  1  0.002096  0.834712  0.668758  1
  Ta  Ta1  1  0.502097  0.668759  0.834714  1
  Zn  Zn2  1  0.999044  0.503523  0.001879  1
  Zn  Zn3  1  0.498813  0.328970  0.162334  1
  Zn  Zn4  1  0.998812  0.162335  0.328971  1
  Zn  Zn5  1  0.499045  0.001881  0.503524  1
  Ni  Ni6  1  0.122606  0.200531  0.033456  1
  Ni  Ni7  1  0.622607  0.033455  0.200530  1
  Ni  Ni8  1  0.124087  0.874621  0.383970  1
  Ni  Ni9  1  0.631253  0.710664  0.552300  1
  Ni  Ni10  1  0.131253  0.552301  0.710665  1
  Ni  Ni11  1  0.624087  0.383970  0.874620  1
  Sb  Sb12  1  0.246766  0.916717  0.090759  1
  Sb  Sb13  1  0.748972  0.749101  0.252644  1
  Sb  Sb14  1  0.251361  0.576252  0.408807  1
  Sb  Sb15  1  0.751363  0.408808  0.576253  1
  Sb  Sb16  1  0.248972  0.252644  0.749101  1
  Sb  Sb17  1  0.746765  0.090758  0.916716  1
