# generated using pymatgen
data_Hf4Th2Sn5
_symmetry_space_group_name_H-M   'P 1'
_cell_length_a   11.22476765
_cell_length_b   11.22477449
_cell_length_c   11.22477365
_cell_angle_alpha   148.97648052
_cell_angle_beta   131.71176118
_cell_angle_gamma   58.51070157
_symmetry_Int_Tables_number   1
_chemical_formula_structural   Hf4Th2Sn5
_chemical_formula_sum   'Hf8 Th4 Sn10'
_cell_volume   539.89838169
_cell_formula_units_Z   2
loop_
 _symmetry_equiv_pos_site_id
 _symmetry_equiv_pos_as_xyz
  1  'x, y, z'
loop_
 _atom_site_type_symbol
 _atom_site_label
 _atom_site_symmetry_multiplicity
 _atom_site_fract_x
 _atom_site_fract_y
 _atom_site_fract_z
 _atom_site_occupancy
  Hf  Hf0  1  0.310522  0.560520  0.250000  1
  Hf  Hf1  1  0.689478  0.439480  0.750000  1
  Hf  Hf2  1  0.689478  0.939478  0.249998  1
  Hf  Hf3  1  0.310522  0.060522  0.750002  1
  Hf  Hf4  1  0.676576  0.435260  0.241317  1
  Hf  Hf5  1  0.323424  0.564740  0.758683  1
  Hf  Hf6  1  0.193943  0.935260  0.258682  1
  Hf  Hf7  1  0.806057  0.064740  0.741318  1
  Th  Th8  1  0.253881  0.142540  0.111340  1
  Th  Th9  1  0.746119  0.857460  0.888660  1
  Th  Th10  1  0.031194  0.642541  0.388653  1
  Th  Th11  1  0.968806  0.357459  0.611347  1
  Sn  Sn12  1  0.578827  0.287385  0.291442  1
  Sn  Sn13  1  0.421173  0.712615  0.708558  1
  Sn  Sn14  1  0.995944  0.787385  0.208559  1
  Sn  Sn15  1  0.004056  0.212615  0.791441  1
  Sn  Sn16  1  0.000000  0.250001  0.250001  1
  Sn  Sn17  1  0.000000  0.749999  0.749999  1
  Sn  Sn18  1  0.473501  0.065441  0.408059  1
  Sn  Sn19  1  0.526499  0.934559  0.591941  1
  Sn  Sn20  1  0.657381  0.565441  0.091939  1
  Sn  Sn21  1  0.342619  0.434559  0.908061  1
