# generated using pymatgen
data_DyGaCo3C
_symmetry_space_group_name_H-M   'P 1'
_cell_length_a   5.13578400
_cell_length_b   5.13550652
_cell_length_c   6.57374000
_cell_angle_alpha   90.00000000
_cell_angle_beta   90.00000000
_cell_angle_gamma   120.00178739
_symmetry_Int_Tables_number   1
_chemical_formula_structural   DyGaCo3C
_chemical_formula_sum   'Dy2 Ga2 Co6 C2'
_cell_volume   150.15001061
_cell_formula_units_Z   2
loop_
 _symmetry_equiv_pos_site_id
 _symmetry_equiv_pos_as_xyz
  1  'x, y, z'
loop_
 _atom_site_type_symbol
 _atom_site_label
 _atom_site_symmetry_multiplicity
 _atom_site_fract_x
 _atom_site_fract_y
 _atom_site_fract_z
 _atom_site_occupancy
  Dy  Dy0  1  0.999893  0.000000  0.000000  1
  Dy  Dy1  1  0.999999  0.000000  0.500000  1
  Ga  Ga2  1  0.333223  0.666635  0.000000  1
  Ga  Ga3  1  0.666588  0.333365  0.000000  1
  Co  Co4  1  0.500046  0.000000  0.305696  1
  Co  Co5  1  0.499977  0.499971  0.305686  1
  Co  Co6  1  0.000007  0.500029  0.305686  1
  Co  Co7  1  0.500046  0.000000  0.694304  1
  Co  Co8  1  0.499977  0.499971  0.694314  1
  Co  Co9  1  0.000007  0.500029  0.694314  1
  C  C10  1  0.333315  0.666594  0.500000  1
  C  C11  1  0.666722  0.333406  0.500000  1
