# generated using pymatgen
data_Ho8Er4Co4SnRu
_symmetry_space_group_name_H-M   'P 1'
_cell_length_a   8.23502240
_cell_length_b   8.23502313
_cell_length_c   8.23502217
_cell_angle_alpha   111.31960759
_cell_angle_beta   110.83077437
_cell_angle_gamma   106.30921340
_symmetry_Int_Tables_number   1
_chemical_formula_structural   Ho8Er4Co4SnRu
_chemical_formula_sum   'Ho8 Er4 Co4 Sn1 Ru1'
_cell_volume   428.92157760
_cell_formula_units_Z   1
loop_
 _symmetry_equiv_pos_site_id
 _symmetry_equiv_pos_as_xyz
  1  'x, y, z'
loop_
 _atom_site_type_symbol
 _atom_site_label
 _atom_site_symmetry_multiplicity
 _atom_site_fract_x
 _atom_site_fract_y
 _atom_site_fract_z
 _atom_site_occupancy
  Ho  Ho0  1  0.185008  0.285406  0.470414  1
  Ho  Ho1  1  0.814992  0.714594  0.529586  1
  Ho  Ho2  1  0.185008  0.714594  0.899603  1
  Ho  Ho3  1  0.814992  0.285406  0.100397  1
  Ho  Ho4  1  0.312568  0.619097  0.306530  1
  Ho  Ho5  1  0.687432  0.380903  0.693470  1
  Ho  Ho6  1  0.312568  0.006038  0.693470  1
  Ho  Ho7  1  0.687432  0.993962  0.306530  1
  Er  Er8  1  0.409432  0.215806  0.193626  1
  Er  Er9  1  0.590568  0.784194  0.806374  1
  Er  Er10  1  0.022180  0.215806  0.806374  1
  Er  Er11  1  0.977820  0.784194  0.193626  1
  Co  Co12  1  0.376591  0.000000  0.376591  1
  Co  Co13  1  0.623409  0.000000  0.623409  1
  Co  Co14  1  0.111571  0.611571  0.500000  1
  Co  Co15  1  0.888429  0.388429  0.500000  1
  Sn  Sn16  1  0.500000  0.500000  0.000000  1
  Ru  Ru17  1  0.000000  0.000000  0.000000  1
