# generated using pymatgen
data_CeDy2Y9Co4
_symmetry_space_group_name_H-M   'P 1'
_cell_length_a   9.53959544
_cell_length_b   6.29784610
_cell_length_c   6.92070792
_cell_angle_alpha   92.04050683
_cell_angle_beta   90.06251080
_cell_angle_gamma   90.35187669
_symmetry_Int_Tables_number   1
_chemical_formula_structural   CeDy2Y9Co4
_chemical_formula_sum   'Ce1 Dy2 Y9 Co4'
_cell_volume   415.51670352
_cell_formula_units_Z   1
loop_
 _symmetry_equiv_pos_site_id
 _symmetry_equiv_pos_as_xyz
  1  'x, y, z'
loop_
 _atom_site_type_symbol
 _atom_site_label
 _atom_site_symmetry_multiplicity
 _atom_site_fract_x
 _atom_site_fract_y
 _atom_site_fract_z
 _atom_site_occupancy
  Ce  Ce0  1  0.489992  0.347784  0.065180  1
  Dy  Dy1  1  0.488522  0.138350  0.547643  1
  Dy  Dy2  1  0.988710  0.644095  0.951674  1
  Y  Y3  1  0.988222  0.859943  0.456928  1
  Y  Y4  1  0.304910  0.820941  0.173788  1
  Y  Y5  1  0.667059  0.677504  0.675294  1
  Y  Y6  1  0.805778  0.183004  0.825279  1
  Y  Y7  1  0.170110  0.319286  0.325777  1
  Y  Y8  1  0.307337  0.670243  0.673789  1
  Y  Y9  1  0.673886  0.828304  0.171260  1
  Y  Y10  1  0.809747  0.327546  0.329492  1
  Y  Y11  1  0.171282  0.175703  0.828004  1
  Co  Co12  1  0.491784  0.524733  0.355700  1
  Co  Co13  1  0.484753  0.989207  0.898036  1
  Co  Co14  1  0.998011  0.452091  0.612559  1
  Co  Co15  1  0.982211  0.041265  0.109595  1
