# generated using pymatgen
data_Nb4V4SiAs3
_symmetry_space_group_name_H-M   'P 1'
_cell_length_a   3.51085700
_cell_length_b   6.59065517
_cell_length_c   7.94590983
_cell_angle_alpha   89.85101621
_cell_angle_beta   90.00000000
_cell_angle_gamma   90.00000000
_symmetry_Int_Tables_number   1
_chemical_formula_structural   Nb4V4SiAs3
_chemical_formula_sum   'Nb4 V4 Si1 As3'
_cell_volume   183.85857679
_cell_formula_units_Z   1
loop_
 _symmetry_equiv_pos_site_id
 _symmetry_equiv_pos_as_xyz
  1  'x, y, z'
loop_
 _atom_site_type_symbol
 _atom_site_label
 _atom_site_symmetry_multiplicity
 _atom_site_fract_x
 _atom_site_fract_y
 _atom_site_fract_z
 _atom_site_occupancy
  Nb  Nb0  1  0.250000  0.545921  0.162508  1
  Nb  Nb1  1  0.750000  0.465901  0.832593  1
  Nb  Nb2  1  0.750000  0.950832  0.672529  1
  Nb  Nb3  1  0.250000  0.042890  0.333262  1
  V  V4  1  0.250000  0.633168  0.559918  1
  V  V5  1  0.750000  0.366581  0.441914  1
  V  V6  1  0.750000  0.867501  0.054881  1
  V  V7  1  0.250000  0.128245  0.942303  1
  Si  Si8  1  0.250000  0.755991  0.860583  1
  As  As9  1  0.750000  0.244827  0.138527  1
  As  As10  1  0.750000  0.742953  0.359851  1
  As  As11  1  0.250000  0.255189  0.641133  1
