# generated using pymatgen
data_Hf8Co5Ni7P12
_symmetry_space_group_name_H-M   'P 1'
_cell_length_a   3.59771600
_cell_length_b   9.99376283
_cell_length_c   12.14882423
_cell_angle_alpha   89.93064260
_cell_angle_beta   90.00000000
_cell_angle_gamma   90.00000000
_symmetry_Int_Tables_number   1
_chemical_formula_structural   Hf8Co5Ni7P12
_chemical_formula_sum   'Hf8 Co5 Ni7 P12'
_cell_volume   436.80725860
_cell_formula_units_Z   1
loop_
 _symmetry_equiv_pos_site_id
 _symmetry_equiv_pos_as_xyz
  1  'x, y, z'
loop_
 _atom_site_type_symbol
 _atom_site_label
 _atom_site_symmetry_multiplicity
 _atom_site_fract_x
 _atom_site_fract_y
 _atom_site_fract_z
 _atom_site_occupancy
  Hf  Hf0  1  0.250000  0.339028  0.995385  1
  Hf  Hf1  1  0.250000  0.160654  0.494968  1
  Hf  Hf2  1  0.750000  0.661164  0.004404  1
  Hf  Hf3  1  0.750000  0.838313  0.504287  1
  Hf  Hf4  1  0.250000  0.422509  0.707266  1
  Hf  Hf5  1  0.250000  0.074354  0.206141  1
  Hf  Hf6  1  0.750000  0.574347  0.293855  1
  Hf  Hf7  1  0.750000  0.928612  0.791906  1
  Co  Co8  1  0.250000  0.907454  0.983521  1
  Co  Co9  1  0.250000  0.592318  0.484555  1
  Co  Co10  1  0.750000  0.093652  0.016032  1
  Co  Co11  1  0.750000  0.404598  0.518320  1
  Co  Co12  1  0.250000  0.137343  0.719789  1
  Ni  Ni13  1  0.250000  0.363889  0.220612  1
  Ni  Ni14  1  0.750000  0.863626  0.279042  1
  Ni  Ni15  1  0.750000  0.637083  0.779608  1
  Ni  Ni16  1  0.250000  0.769805  0.165145  1
  Ni  Ni17  1  0.250000  0.731661  0.665424  1
  Ni  Ni18  1  0.750000  0.231611  0.836031  1
  Ni  Ni19  1  0.750000  0.270564  0.334237  1
  P  P20  1  0.250000  0.102082  0.899142  1
  P  P21  1  0.250000  0.397403  0.402720  1
  P  P22  1  0.750000  0.898539  0.097682  1
  P  P23  1  0.750000  0.601158  0.598814  1
  P  P24  1  0.250000  0.739708  0.857456  1
  P  P25  1  0.250000  0.761314  0.358213  1
  P  P26  1  0.750000  0.261691  0.141990  1
  P  P27  1  0.750000  0.232321  0.643929  1
  P  P28  1  0.250000  0.551416  0.128589  1
  P  P29  1  0.250000  0.951023  0.628294  1
  P  P30  1  0.750000  0.449657  0.871446  1
  P  P31  1  0.750000  0.051103  0.371197  1
