# generated using pymatgen
data_NdUReB6
_symmetry_space_group_name_H-M   'P 1'
_cell_length_a   3.69262000
_cell_length_b   9.39119900
_cell_length_c   11.52594900
_cell_angle_alpha   90.00000000
_cell_angle_beta   90.00000000
_cell_angle_gamma   90.00000000
_symmetry_Int_Tables_number   1
_chemical_formula_structural   NdUReB6
_chemical_formula_sum   'Nd4 U4 Re4 B24'
_cell_volume   399.69834917
_cell_formula_units_Z   4
loop_
 _symmetry_equiv_pos_site_id
 _symmetry_equiv_pos_as_xyz
  1  'x, y, z'
loop_
 _atom_site_type_symbol
 _atom_site_label
 _atom_site_symmetry_multiplicity
 _atom_site_fract_x
 _atom_site_fract_y
 _atom_site_fract_z
 _atom_site_occupancy
  Nd  Nd0  1  0.000000  0.337090  0.408164  1
  Nd  Nd1  1  0.000000  0.662910  0.591836  1
  Nd  Nd2  1  0.000000  0.837090  0.091836  1
  Nd  Nd3  1  0.000000  0.162910  0.908164  1
  U  U4  1  0.000000  0.957174  0.396347  1
  U  U5  1  0.000000  0.042826  0.603653  1
  U  U6  1  0.000000  0.457174  0.103653  1
  U  U7  1  0.000000  0.542826  0.896347  1
  Re  Re8  1  0.000000  0.647439  0.317031  1
  Re  Re9  1  0.000000  0.352561  0.682969  1
  Re  Re10  1  0.000000  0.147439  0.182969  1
  Re  Re11  1  0.000000  0.852561  0.817031  1
  B  B12  1  0.500000  0.555581  0.428166  1
  B  B13  1  0.500000  0.444419  0.571834  1
  B  B14  1  0.500000  0.055581  0.071834  1
  B  B15  1  0.500000  0.944419  0.928166  1
  B  B16  1  0.500000  0.745444  0.420950  1
  B  B17  1  0.500000  0.254556  0.579050  1
  B  B18  1  0.500000  0.245444  0.079050  1
  B  B19  1  0.500000  0.754556  0.920950  1
  B  B20  1  0.500000  0.802432  0.275228  1
  B  B21  1  0.500000  0.197568  0.724772  1
  B  B22  1  0.500000  0.302432  0.224772  1
  B  B23  1  0.500000  0.697568  0.775228  1
  B  B24  1  0.500000  0.643924  0.187920  1
  B  B25  1  0.500000  0.356076  0.812080  1
  B  B26  1  0.500000  0.143924  0.312080  1
  B  B27  1  0.500000  0.856076  0.687920  1
  B  B28  1  0.500000  0.992416  0.220834  1
  B  B29  1  0.500000  0.007584  0.779166  1
  B  B30  1  0.500000  0.492416  0.279166  1
  B  B31  1  0.500000  0.507584  0.720834  1
  B  B32  1  0.500000  0.636266  0.037103  1
  B  B33  1  0.500000  0.363734  0.962897  1
  B  B34  1  0.500000  0.136266  0.462897  1
  B  B35  1  0.500000  0.863734  0.537103  1
