# generated using pymatgen
data_Cs2ZrZn3Sb4
_symmetry_space_group_name_H-M   'P 1'
_cell_length_a   8.73311302
_cell_length_b   8.73311354
_cell_length_c   6.39456100
_cell_angle_alpha   90.00000000
_cell_angle_beta   90.00000000
_cell_angle_gamma   136.96128026
_symmetry_Int_Tables_number   1
_chemical_formula_structural   Cs2ZrZn3Sb4
_chemical_formula_sum   'Cs2 Zr1 Zn3 Sb4'
_cell_volume   332.84862645
_cell_formula_units_Z   1
loop_
 _symmetry_equiv_pos_site_id
 _symmetry_equiv_pos_as_xyz
  1  'x, y, z'
loop_
 _atom_site_type_symbol
 _atom_site_label
 _atom_site_symmetry_multiplicity
 _atom_site_fract_x
 _atom_site_fract_y
 _atom_site_fract_z
 _atom_site_occupancy
  Cs  Cs0  1  0.500000  0.000000  0.253118  1
  Cs  Cs1  1  0.000000  0.500000  0.746882  1
  Zr  Zr2  1  0.000000  0.000000  0.000000  1
  Zn  Zn3  1  0.500000  0.500000  0.500000  1
  Zn  Zn4  1  0.500000  0.500000  0.000000  1
  Zn  Zn5  1  0.000000  0.000000  0.500000  1
  Sb  Sb6  1  0.645615  0.847996  0.747196  1
  Sb  Sb7  1  0.152004  0.354385  0.252804  1
  Sb  Sb8  1  0.847996  0.645615  0.252804  1
  Sb  Sb9  1  0.354385  0.152004  0.747196  1
