# generated using pymatgen
data_Li6YNp2N6
_symmetry_space_group_name_H-M   'P 1'
_cell_length_a   6.01172400
_cell_length_b   6.01172562
_cell_length_c   5.48675500
_cell_angle_alpha   90.00000000
_cell_angle_beta   90.00000000
_cell_angle_gamma   120.00000208
_symmetry_Int_Tables_number   1
_chemical_formula_structural   Li6YNp2N6
_chemical_formula_sum   'Li6 Y1 Np2 N6'
_cell_volume   171.72929041
_cell_formula_units_Z   1
loop_
 _symmetry_equiv_pos_site_id
 _symmetry_equiv_pos_as_xyz
  1  'x, y, z'
loop_
 _atom_site_type_symbol
 _atom_site_label
 _atom_site_symmetry_multiplicity
 _atom_site_fract_x
 _atom_site_fract_y
 _atom_site_fract_z
 _atom_site_occupancy
  Li  Li0  1  0.986374  0.659753  0.606977  1
  Li  Li1  1  0.340247  0.326621  0.606977  1
  Li  Li2  1  0.673379  0.013626  0.606977  1
  Li  Li3  1  0.013626  0.340247  0.393023  1
  Li  Li4  1  0.659753  0.673379  0.393023  1
  Li  Li5  1  0.326621  0.986374  0.393023  1
  Y  Y6  1  0.000000  0.000000  0.000000  1
  Np  Np7  1  0.333333  0.666667  0.995049  1
  Np  Np8  1  0.666667  0.333333  0.004951  1
  N  N9  1  0.000806  0.653052  0.225518  1
  N  N10  1  0.346948  0.347755  0.225518  1
  N  N11  1  0.652245  0.999194  0.225518  1
  N  N12  1  0.999194  0.346948  0.774482  1
  N  N13  1  0.653052  0.652245  0.774482  1
  N  N14  1  0.347755  0.000806  0.774482  1
