# generated using pymatgen
data_Ta3FeCoOsN
_symmetry_space_group_name_H-M   'P 1'
_cell_length_a   8.08321292
_cell_length_b   8.08321276
_cell_length_c   8.08321300
_cell_angle_alpha   60.00000310
_cell_angle_beta   60.00000377
_cell_angle_gamma   60.00000657
_symmetry_Int_Tables_number   1
_chemical_formula_structural   Ta3FeCoOsN
_chemical_formula_sum   'Ta12 Fe4 Co4 Os4 N4'
_cell_volume   373.45398508
_cell_formula_units_Z   4
loop_
 _symmetry_equiv_pos_site_id
 _symmetry_equiv_pos_as_xyz
  1  'x, y, z'
loop_
 _atom_site_type_symbol
 _atom_site_label
 _atom_site_symmetry_multiplicity
 _atom_site_fract_x
 _atom_site_fract_y
 _atom_site_fract_z
 _atom_site_occupancy
  Ta  Ta0  1  0.804851  0.804851  0.195149  1
  Ta  Ta1  1  0.195149  0.195149  0.804851  1
  Ta  Ta2  1  0.804851  0.195149  0.804851  1
  Ta  Ta3  1  0.195149  0.804851  0.195149  1
  Ta  Ta4  1  0.195149  0.804851  0.804851  1
  Ta  Ta5  1  0.804851  0.195149  0.195149  1
  Ta  Ta6  1  0.444651  0.444651  0.055349  1
  Ta  Ta7  1  0.055349  0.055349  0.444651  1
  Ta  Ta8  1  0.444651  0.055349  0.444651  1
  Ta  Ta9  1  0.055349  0.444651  0.055349  1
  Ta  Ta10  1  0.055349  0.444651  0.444651  1
  Ta  Ta11  1  0.444651  0.055349  0.055349  1
  Fe  Fe12  1  0.729277  0.423575  0.423575  1
  Fe  Fe13  1  0.423575  0.729277  0.423575  1
  Fe  Fe14  1  0.423575  0.423575  0.729277  1
  Fe  Fe15  1  0.423575  0.423575  0.423575  1
  Co  Co16  1  0.505950  0.831350  0.831350  1
  Co  Co17  1  0.831350  0.505950  0.831350  1
  Co  Co18  1  0.831350  0.831350  0.505950  1
  Co  Co19  1  0.831350  0.831350  0.831350  1
  Os  Os20  1  0.124446  0.625185  0.625185  1
  Os  Os21  1  0.625185  0.124446  0.625185  1
  Os  Os22  1  0.625185  0.625185  0.124446  1
  Os  Os23  1  0.625185  0.625185  0.625185  1
  N  N24  1  0.624769  0.125077  0.125077  1
  N  N25  1  0.125077  0.624769  0.125077  1
  N  N26  1  0.125077  0.125077  0.624769  1
  N  N27  1  0.125077  0.125077  0.125077  1
