# generated using pymatgen
data_Ho16In6FeCo
_symmetry_space_group_name_H-M   'P 1'
_cell_length_a   10.30519801
_cell_length_b   10.30522099
_cell_length_c   6.96627800
_cell_angle_alpha   90.00165284
_cell_angle_beta   89.99775208
_cell_angle_gamma   120.00441078
_symmetry_Int_Tables_number   1
_chemical_formula_structural   Ho16In6FeCo
_chemical_formula_sum   'Ho16 In6 Fe1 Co1'
_cell_volume   640.65729997
_cell_formula_units_Z   1
loop_
 _symmetry_equiv_pos_site_id
 _symmetry_equiv_pos_as_xyz
  1  'x, y, z'
loop_
 _atom_site_type_symbol
 _atom_site_label
 _atom_site_symmetry_multiplicity
 _atom_site_fract_x
 _atom_site_fract_y
 _atom_site_fract_z
 _atom_site_occupancy
  Ho  Ho0  1  0.535098  0.070169  0.504670  1
  Ho  Ho1  1  0.929817  0.464906  0.504661  1
  Ho  Ho2  1  0.535076  0.464923  0.504663  1
  Ho  Ho3  1  0.465290  0.930581  0.006360  1
  Ho  Ho4  1  0.069423  0.534706  0.006361  1
  Ho  Ho5  1  0.465289  0.534707  0.006386  1
  Ho  Ho6  1  0.178519  0.357024  0.712517  1
  Ho  Ho7  1  0.642976  0.821482  0.712517  1
  Ho  Ho8  1  0.178518  0.821478  0.712497  1
  Ho  Ho9  1  0.821475  0.642975  0.211995  1
  Ho  Ho10  1  0.357025  0.178518  0.211995  1
  Ho  Ho11  1  0.821487  0.178508  0.212019  1
  Ho  Ho12  1  0.666666  0.333328  0.890988  1
  Ho  Ho13  1  0.333329  0.666675  0.394638  1
  Ho  Ho14  1  0.000004  0.000004  0.493355  1
  Ho  Ho15  1  0.999991  0.000014  0.992644  1
  In  In16  1  0.837902  0.675749  0.751979  1
  In  In17  1  0.324238  0.162106  0.751986  1
  In  In18  1  0.837883  0.162151  0.752013  1
  In  In19  1  0.163104  0.326223  0.253649  1
  In  In20  1  0.673778  0.836897  0.253658  1
  In  In21  1  0.163111  0.836881  0.253666  1
  Fe  Fe22  1  0.666663  0.333334  0.280700  1
  Co  Co23  1  0.333340  0.666661  0.782125  1
