# generated using pymatgen
data_Y2Nb3Co8NiAs7
_symmetry_space_group_name_H-M   'P 1'
_cell_length_a   3.83500000
_cell_length_b   9.54589258
_cell_length_c   9.56238911
_cell_angle_alpha   119.93869411
_cell_angle_beta   90.00000000
_cell_angle_gamma   90.00000000
_symmetry_Int_Tables_number   1
_chemical_formula_structural   Y2Nb3Co8NiAs7
_chemical_formula_sum   'Y2 Nb3 Co8 Ni1 As7'
_cell_volume   303.35203502
_cell_formula_units_Z   1
loop_
 _symmetry_equiv_pos_site_id
 _symmetry_equiv_pos_as_xyz
  1  'x, y, z'
loop_
 _atom_site_type_symbol
 _atom_site_label
 _atom_site_symmetry_multiplicity
 _atom_site_fract_x
 _atom_site_fract_y
 _atom_site_fract_z
 _atom_site_occupancy
  Y  Y0  1  0.000000  0.667713  0.334672  1
  Y  Y1  1  0.500000  0.331205  0.664951  1
  Nb  Nb2  1  0.500000  0.777406  0.897831  1
  Nb  Nb3  1  0.500000  0.121030  0.223921  1
  Nb  Nb4  1  0.500000  0.101119  0.878249  1
  Co  Co5  1  0.000000  0.365695  0.428308  1
  Co  Co6  1  0.000000  0.063313  0.633770  1
  Co  Co7  1  0.000000  0.876433  0.161586  1
  Co  Co8  1  0.000000  0.283183  0.123466  1
  Co  Co9  1  0.000000  0.839627  0.716671  1
  Co  Co10  1  0.500000  0.949600  0.386525  1
  Co  Co11  1  0.500000  0.436824  0.051157  1
  Co  Co12  1  0.500000  0.614620  0.562428  1
  Ni  Ni13  1  0.000000  0.571752  0.937035  1
  As  As14  1  0.000000  0.999573  0.000989  1
  As  As15  1  0.500000  0.711398  0.126712  1
  As  As16  1  0.500000  0.415551  0.290213  1
  As  As17  1  0.500000  0.876324  0.584841  1
  As  As18  1  0.000000  0.580712  0.688097  1
  As  As19  1  0.000000  0.110676  0.419118  1
  As  As20  1  0.000000  0.306247  0.889458  1
