# generated using pymatgen
data_TbLu3(Sc3Ga4)2
_symmetry_space_group_name_H-M   'P 1'
_cell_length_a   7.22292689
_cell_length_b   7.53445547
_cell_length_c   14.41269637
_cell_angle_alpha   90.15080779
_cell_angle_beta   89.91737638
_cell_angle_gamma   89.99310774
_symmetry_Int_Tables_number   1
_chemical_formula_structural   TbLu3(Sc3Ga4)2
_chemical_formula_sum   'Tb2 Lu6 Sc12 Ga16'
_cell_volume   784.34723060
_cell_formula_units_Z   2
loop_
 _symmetry_equiv_pos_site_id
 _symmetry_equiv_pos_as_xyz
  1  'x, y, z'
loop_
 _atom_site_type_symbol
 _atom_site_label
 _atom_site_symmetry_multiplicity
 _atom_site_fract_x
 _atom_site_fract_y
 _atom_site_fract_z
 _atom_site_occupancy
  Tb  Tb0  1  0.510583  0.320306  0.404999  1
  Tb  Tb1  1  0.489417  0.679694  0.595001  1
  Lu  Lu2  1  0.010324  0.181260  0.093702  1
  Lu  Lu3  1  0.989676  0.818740  0.906298  1
  Lu  Lu4  1  0.489409  0.681515  0.905256  1
  Lu  Lu5  1  0.989726  0.819056  0.594613  1
  Lu  Lu6  1  0.510591  0.318485  0.094744  1
  Lu  Lu7  1  0.010274  0.180944  0.405387  1
  Sc  Sc8  1  0.162387  0.503091  0.750915  1
  Sc  Sc9  1  0.837613  0.496909  0.249085  1
  Sc  Sc10  1  0.336396  0.003344  0.249158  1
  Sc  Sc11  1  0.663604  0.996656  0.750842  1
  Sc  Sc12  1  0.328470  0.173194  0.624819  1
  Sc  Sc13  1  0.671530  0.826806  0.375181  1
  Sc  Sc14  1  0.168775  0.674085  0.375308  1
  Sc  Sc15  1  0.669770  0.826376  0.123338  1
  Sc  Sc16  1  0.831225  0.325915  0.624692  1
  Sc  Sc17  1  0.330230  0.173624  0.876662  1
  Sc  Sc18  1  0.829162  0.327261  0.875866  1
  Sc  Sc19  1  0.170838  0.672739  0.124134  1
  Ga  Ga20  1  0.031146  0.115953  0.750880  1
  Ga  Ga21  1  0.968854  0.884047  0.249120  1
  Ga  Ga22  1  0.468643  0.616681  0.249287  1
  Ga  Ga23  1  0.531357  0.383319  0.750713  1
  Ga  Ga24  1  0.281266  0.869667  0.751126  1
  Ga  Ga25  1  0.718734  0.130333  0.248874  1
  Ga  Ga26  1  0.215921  0.369271  0.248646  1
  Ga  Ga27  1  0.784079  0.630729  0.751354  1
  Ga  Ga28  1  0.160620  0.463625  0.540453  1
  Ga  Ga29  1  0.839380  0.536375  0.459547  1
  Ga  Ga30  1  0.335894  0.964975  0.459061  1
  Ga  Ga31  1  0.836295  0.533704  0.041201  1
  Ga  Ga32  1  0.664106  0.035025  0.540939  1
  Ga  Ga33  1  0.163705  0.466296  0.958799  1
  Ga  Ga34  1  0.663568  0.034161  0.959339  1
  Ga  Ga35  1  0.336432  0.965839  0.040661  1
