# generated using pymatgen
data_CsUMoO6
_symmetry_space_group_name_H-M   'P 1'
_cell_length_a   7.26393396
_cell_length_b   8.73677900
_cell_length_c   10.72639100
_cell_angle_alpha   90.00000000
_cell_angle_beta   105.52117742
_cell_angle_gamma   90.00000000
_symmetry_Int_Tables_number   1
_chemical_formula_structural   CsUMoO6
_chemical_formula_sum   'Cs4 U4 Mo4 O24'
_cell_volume   655.90785076
_cell_formula_units_Z   4
loop_
 _symmetry_equiv_pos_site_id
 _symmetry_equiv_pos_as_xyz
  1  'x, y, z'
loop_
 _atom_site_type_symbol
 _atom_site_label
 _atom_site_symmetry_multiplicity
 _atom_site_fract_x
 _atom_site_fract_y
 _atom_site_fract_z
 _atom_site_occupancy
  Cs  Cs0  1  0.453901  0.764206  0.138256  1
  Cs  Cs1  1  0.546100  0.264206  0.361744  1
  Cs  Cs2  1  0.453901  0.735794  0.638256  1
  Cs  Cs3  1  0.546099  0.235794  0.861744  1
  U  U4  1  0.985335  0.481021  0.176061  1
  U  U5  1  0.014666  0.981021  0.323939  1
  U  U6  1  0.985334  0.018979  0.676061  1
  U  U7  1  0.014666  0.518979  0.823939  1
  Mo  Mo8  1  0.122013  0.147226  0.058592  1
  Mo  Mo9  1  0.877985  0.647226  0.441408  1
  Mo  Mo10  1  0.122014  0.352773  0.558592  1
  Mo  Mo11  1  0.877986  0.852773  0.941408  1
  O  O12  1  0.970372  0.648281  0.007296  1
  O  O13  1  0.365928  0.135099  0.075329  1
  O  O14  1  0.040570  0.938789  0.110487  1
  O  O15  1  0.727491  0.443024  0.121049  1
  O  O16  1  0.070463  0.215128  0.220635  1
  O  O17  1  0.242385  0.516781  0.237161  1
  O  O18  1  0.757615  0.016781  0.262839  1
  O  O19  1  0.929538  0.715128  0.279365  1
  O  O20  1  0.272509  0.943024  0.378951  1
  O  O21  1  0.959431  0.438789  0.389514  1
  O  O22  1  0.634072  0.635099  0.424671  1
  O  O23  1  0.029628  0.148281  0.492704  1
  O  O24  1  0.970373  0.851719  0.507296  1
  O  O25  1  0.365927  0.364901  0.575329  1
  O  O26  1  0.040570  0.561211  0.610487  1
  O  O27  1  0.727492  0.056976  0.621049  1
  O  O28  1  0.070463  0.284872  0.720635  1
  O  O29  1  0.242386  0.983219  0.737161  1
  O  O30  1  0.757614  0.483219  0.762839  1
  O  O31  1  0.929537  0.784872  0.779365  1
  O  O32  1  0.272508  0.556976  0.878951  1
  O  O33  1  0.959430  0.061211  0.889514  1
  O  O34  1  0.634073  0.864901  0.924671  1
  O  O35  1  0.029627  0.351719  0.992704  1
