# generated using pymatgen
data_Ac3Ce(CrSb3)4
_symmetry_space_group_name_H-M   'P 1'
_cell_length_a   6.29321300
_cell_length_b   6.29779034
_cell_length_c   13.58714265
_cell_angle_alpha   90.32984679
_cell_angle_beta   90.00000000
_cell_angle_gamma   90.00000000
_symmetry_Int_Tables_number   1
_chemical_formula_structural   Ac3Ce(CrSb3)4
_chemical_formula_sum   'Ac3 Ce1 Cr4 Sb12'
_cell_volume   538.49486713
_cell_formula_units_Z   1
loop_
 _symmetry_equiv_pos_site_id
 _symmetry_equiv_pos_as_xyz
  1  'x, y, z'
loop_
 _atom_site_type_symbol
 _atom_site_label
 _atom_site_symmetry_multiplicity
 _atom_site_fract_x
 _atom_site_fract_y
 _atom_site_fract_z
 _atom_site_occupancy
  Ac  Ac0  1  0.250000  0.503713  0.305313  1
  Ac  Ac1  1  0.750000  0.497120  0.692123  1
  Ac  Ac2  1  0.250000  0.003903  0.692203  1
  Ce  Ce3  1  0.750000  0.995450  0.301991  1
  Cr  Cr4  1  0.997819  0.751423  0.913181  1
  Cr  Cr5  1  0.999267  0.250097  0.091355  1
  Cr  Cr6  1  0.500733  0.250097  0.091355  1
  Cr  Cr7  1  0.502181  0.751423  0.913181  1
  Sb  Sb8  1  0.993225  0.757731  0.495431  1
  Sb  Sb9  1  0.994060  0.242266  0.492024  1
  Sb  Sb10  1  0.505940  0.242266  0.492024  1
  Sb  Sb11  1  0.506775  0.757731  0.495431  1
  Sb  Sb12  1  0.250000  0.598285  0.059878  1
  Sb  Sb13  1  0.750000  0.402367  0.943213  1
  Sb  Sb14  1  0.250000  0.098271  0.943224  1
  Sb  Sb15  1  0.750000  0.902168  0.064334  1
  Sb  Sb16  1  0.250000  0.002147  0.214146  1
  Sb  Sb17  1  0.750000  0.998650  0.791267  1
  Sb  Sb18  1  0.250000  0.504230  0.791386  1
  Sb  Sb19  1  0.750000  0.490664  0.216940  1
