# generated using pymatgen
data_Th2ZrRh5
_symmetry_space_group_name_H-M   'P 1'
_cell_length_a   5.92018688
_cell_length_b   5.92018712
_cell_length_c   9.02253800
_cell_angle_alpha   90.00000000
_cell_angle_beta   90.00000000
_cell_angle_gamma   103.99066091
_symmetry_Int_Tables_number   1
_chemical_formula_structural   Th2ZrRh5
_chemical_formula_sum   'Th4 Zr2 Rh10'
_cell_volume   306.84661185
_cell_formula_units_Z   2
loop_
 _symmetry_equiv_pos_site_id
 _symmetry_equiv_pos_as_xyz
  1  'x, y, z'
loop_
 _atom_site_type_symbol
 _atom_site_label
 _atom_site_symmetry_multiplicity
 _atom_site_fract_x
 _atom_site_fract_y
 _atom_site_fract_z
 _atom_site_occupancy
  Th  Th0  1  0.792250  0.207750  0.500000  1
  Th  Th1  1  0.207750  0.792250  0.000000  1
  Th  Th2  1  0.207750  0.792250  0.500000  1
  Th  Th3  1  0.792250  0.207750  0.000000  1
  Zr  Zr4  1  0.597991  0.597991  0.750000  1
  Zr  Zr5  1  0.402009  0.402009  0.250000  1
  Rh  Rh6  1  0.693533  0.693533  0.045696  1
  Rh  Rh7  1  0.693533  0.693533  0.454304  1
  Rh  Rh8  1  0.306467  0.306467  0.954304  1
  Rh  Rh9  1  0.306467  0.306467  0.545696  1
  Rh  Rh10  1  0.488092  0.020496  0.750000  1
  Rh  Rh11  1  0.511908  0.979504  0.250000  1
  Rh  Rh12  1  0.011876  0.011876  0.250000  1
  Rh  Rh13  1  0.988124  0.988124  0.750000  1
  Rh  Rh14  1  0.020496  0.488092  0.750000  1
  Rh  Rh15  1  0.979504  0.511908  0.250000  1
