# generated using pymatgen
data_Ho6Er3TmSi6
_symmetry_space_group_name_H-M   'P 1'
_cell_length_a   8.38120400
_cell_length_b   8.38120300
_cell_length_c   6.29255800
_cell_angle_alpha   90.00000000
_cell_angle_beta   90.00000000
_cell_angle_gamma   119.99999606
_symmetry_Int_Tables_number   1
_chemical_formula_structural   Ho6Er3TmSi6
_chemical_formula_sum   'Ho6 Er3 Tm1 Si6'
_cell_volume   382.79887036
_cell_formula_units_Z   1
loop_
 _symmetry_equiv_pos_site_id
 _symmetry_equiv_pos_as_xyz
  1  'x, y, z'
loop_
 _atom_site_type_symbol
 _atom_site_label
 _atom_site_symmetry_multiplicity
 _atom_site_fract_x
 _atom_site_fract_y
 _atom_site_fract_z
 _atom_site_occupancy
  Ho  Ho0  1  0.000039  0.757218  0.749957  1
  Ho  Ho1  1  0.000039  0.242820  0.250043  1
  Ho  Ho2  1  0.757180  0.757218  0.250043  1
  Ho  Ho3  1  0.757180  0.999961  0.749957  1
  Ho  Ho4  1  0.242782  0.242820  0.749957  1
  Ho  Ho5  1  0.242782  0.999961  0.250043  1
  Er  Er6  1  0.666667  0.333333  0.000000  1
  Er  Er7  1  0.666667  0.333333  0.500000  1
  Er  Er8  1  0.333333  0.666667  0.000000  1
  Tm  Tm9  1  0.333333  0.666667  0.500000  1
  Si  Si10  1  0.394567  0.999876  0.749892  1
  Si  Si11  1  0.394567  0.394691  0.250108  1
  Si  Si12  1  0.000124  0.605433  0.250108  1
  Si  Si13  1  0.000124  0.394691  0.749892  1
  Si  Si14  1  0.605309  0.605433  0.749892  1
  Si  Si15  1  0.605309  0.999876  0.250108  1
