# generated using pymatgen
data_NaSrLi6(FeN3)2
_symmetry_space_group_name_H-M   'P 1'
_cell_length_a   7.23448728
_cell_length_b   7.23448715
_cell_length_c   7.23448899
_cell_angle_alpha   47.09881761
_cell_angle_beta   47.09881373
_cell_angle_gamma   47.09881692
_symmetry_Int_Tables_number   1
_chemical_formula_structural   NaSrLi6(FeN3)2
_chemical_formula_sum   'Na1 Sr1 Li6 Fe2 N6'
_cell_volume   185.76535056
_cell_formula_units_Z   1
loop_
 _symmetry_equiv_pos_site_id
 _symmetry_equiv_pos_as_xyz
  1  'x, y, z'
loop_
 _atom_site_type_symbol
 _atom_site_label
 _atom_site_symmetry_multiplicity
 _atom_site_fract_x
 _atom_site_fract_y
 _atom_site_fract_z
 _atom_site_occupancy
  Na  Na0  1  0.339201  0.339201  0.339201  1
  Sr  Sr1  1  0.663658  0.663658  0.663658  1
  Li  Li2  1  0.470828  0.236784  0.906706  1
  Li  Li3  1  0.906706  0.470828  0.236784  1
  Li  Li4  1  0.748971  0.116198  0.520909  1
  Li  Li5  1  0.236784  0.906706  0.470828  1
  Li  Li6  1  0.116198  0.520909  0.748971  1
  Li  Li7  1  0.520909  0.748971  0.116198  1
  Fe  Fe8  1  0.071183  0.071183  0.071183  1
  Fe  Fe9  1  0.928290  0.928290  0.928290  1
  N  N10  1  0.624435  0.892110  0.206168  1
  N  N11  1  0.798575  0.381392  0.094593  1
  N  N12  1  0.381392  0.094593  0.798575  1
  N  N13  1  0.094593  0.798575  0.381392  1
  N  N14  1  0.206168  0.624435  0.892110  1
  N  N15  1  0.892110  0.206168  0.624435  1
