# generated using pymatgen
data_K2NpBiO6
_symmetry_space_group_name_H-M   'P 1'
_cell_length_a   6.18775783
_cell_length_b   6.18775815
_cell_length_c   6.18775900
_cell_angle_alpha   60.00001149
_cell_angle_beta   60.00000978
_cell_angle_gamma   90.00001129
_symmetry_Int_Tables_number   1
_chemical_formula_structural   K2NpBiO6
_chemical_formula_sum   'K2 Np1 Bi1 O6'
_cell_volume   167.52712232
_cell_formula_units_Z   1
loop_
 _symmetry_equiv_pos_site_id
 _symmetry_equiv_pos_as_xyz
  1  'x, y, z'
loop_
 _atom_site_type_symbol
 _atom_site_label
 _atom_site_symmetry_multiplicity
 _atom_site_fract_x
 _atom_site_fract_y
 _atom_site_fract_z
 _atom_site_occupancy
  K  K0  1  0.250002  0.750002  0.499997  1
  K  K1  1  0.749999  0.249998  0.500002  1
  Np  Np2  1  0.000000  0.000000  0.000000  1
  Bi  Bi3  1  0.499999  0.499999  0.000000  1
  O  O4  1  0.232224  0.232224  0.000000  1
  O  O5  1  0.767775  0.232226  0.000000  1
  O  O6  1  0.232224  0.767775  0.000000  1
  O  O7  1  0.767775  0.767775  0.000000  1
  O  O8  1  0.767775  0.767775  0.464451  1
  O  O9  1  0.232225  0.232225  0.535548  1
