# generated using pymatgen
data_Ho2Sc3Nb3(P3Ir4)4
_symmetry_space_group_name_H-M   'P 1'
_cell_length_a   12.69876000
_cell_length_b   12.69876021
_cell_length_c   3.95633100
_cell_angle_alpha   90.00000000
_cell_angle_beta   90.00000000
_cell_angle_gamma   119.99999945
_symmetry_Int_Tables_number   1
_chemical_formula_structural   Ho2Sc3Nb3(P3Ir4)4
_chemical_formula_sum   'Ho2 Sc3 Nb3 P12 Ir16'
_cell_volume   552.51731284
_cell_formula_units_Z   1
loop_
 _symmetry_equiv_pos_site_id
 _symmetry_equiv_pos_as_xyz
  1  'x, y, z'
loop_
 _atom_site_type_symbol
 _atom_site_label
 _atom_site_symmetry_multiplicity
 _atom_site_fract_x
 _atom_site_fract_y
 _atom_site_fract_z
 _atom_site_occupancy
  Ho  Ho0  1  0.333333  0.666667  0.000000  1
  Ho  Ho1  1  0.666667  0.333333  0.000000  1
  Sc  Sc2  1  0.815114  0.000000  0.500000  1
  Sc  Sc3  1  0.000000  0.815114  0.500000  1
  Sc  Sc4  1  0.184886  0.184886  0.500000  1
  Nb  Nb5  1  0.452696  0.000000  0.000000  1
  Nb  Nb6  1  0.000000  0.452696  0.000000  1
  Nb  Nb7  1  0.547304  0.547304  0.000000  1
  P  P8  1  0.174486  0.000000  0.000000  1
  P  P9  1  0.000000  0.174486  0.000000  1
  P  P10  1  0.825514  0.825514  0.000000  1
  P  P11  1  0.166980  0.482110  0.500000  1
  P  P12  1  0.517890  0.684869  0.500000  1
  P  P13  1  0.315131  0.833020  0.500000  1
  P  P14  1  0.684869  0.517890  0.500000  1
  P  P15  1  0.833020  0.315131  0.500000  1
  P  P16  1  0.482110  0.166980  0.500000  1
  P  P17  1  0.644783  0.000000  0.000000  1
  P  P18  1  0.000000  0.644783  0.000000  1
  P  P19  1  0.355217  0.355217  0.000000  1
  Ir  Ir20  1  0.355916  0.492356  0.500000  1
  Ir  Ir21  1  0.507644  0.863560  0.500000  1
  Ir  Ir22  1  0.136440  0.644084  0.500000  1
  Ir  Ir23  1  0.863560  0.507644  0.500000  1
  Ir  Ir24  1  0.644084  0.136440  0.500000  1
  Ir  Ir25  1  0.492356  0.355916  0.500000  1
  Ir  Ir26  1  0.178040  0.368681  0.000000  1
  Ir  Ir27  1  0.631319  0.809360  0.000000  1
  Ir  Ir28  1  0.190640  0.821960  0.000000  1
  Ir  Ir29  1  0.809360  0.631319  0.000000  1
  Ir  Ir30  1  0.821960  0.190640  0.000000  1
  Ir  Ir31  1  0.368681  0.178040  0.000000  1
  Ir  Ir32  1  0.280351  0.000000  0.500000  1
  Ir  Ir33  1  0.000000  0.280351  0.500000  1
  Ir  Ir34  1  0.719649  0.719649  0.500000  1
  Ir  Ir35  1  0.000000  0.000000  0.000000  1
