# generated using pymatgen
data_KV2(SeO3)4
_symmetry_space_group_name_H-M   'P 1'
_cell_length_a   5.30608700
_cell_length_b   10.32316948
_cell_length_c   14.15981562
_cell_angle_alpha   48.64324051
_cell_angle_beta   90.00000000
_cell_angle_gamma   90.00000000
_symmetry_Int_Tables_number   1
_chemical_formula_structural   KV2(SeO3)4
_chemical_formula_sum   'K2 V4 Se8 O24'
_cell_volume   582.18275088
_cell_formula_units_Z   2
loop_
 _symmetry_equiv_pos_site_id
 _symmetry_equiv_pos_as_xyz
  1  'x, y, z'
loop_
 _atom_site_type_symbol
 _atom_site_label
 _atom_site_symmetry_multiplicity
 _atom_site_fract_x
 _atom_site_fract_y
 _atom_site_fract_z
 _atom_site_occupancy
  K  K0  1  0.059848  0.000000  0.750000  1
  K  K1  1  0.940152  0.000000  0.250000  1
  V  V2  1  0.000000  0.500000  0.500000  1
  V  V3  1  0.500000  0.000000  0.000000  1
  V  V4  1  0.500000  0.000000  0.500000  1
  V  V5  1  0.000000  0.500000  0.000000  1
  Se  Se6  1  0.493031  0.343468  0.182639  1
  Se  Se7  1  0.008631  0.746204  0.598194  1
  Se  Se8  1  0.008631  0.253796  0.901806  1
  Se  Se9  1  0.991369  0.253796  0.401806  1
  Se  Se10  1  0.506969  0.343468  0.682639  1
  Se  Se11  1  0.506969  0.656532  0.817361  1
  Se  Se12  1  0.493031  0.656532  0.317361  1
  Se  Se13  1  0.991369  0.746204  0.098194  1
  O  O14  1  0.211144  0.700224  0.351791  1
  O  O15  1  0.297827  0.814530  0.034547  1
  O  O16  1  0.788856  0.700224  0.851791  1
  O  O17  1  0.809873  0.915750  0.971818  1
  O  O18  1  0.702173  0.814530  0.534547  1
  O  O19  1  0.307885  0.347918  0.585130  1
  O  O20  1  0.190127  0.084250  0.028182  1
  O  O21  1  0.692115  0.347918  0.085130  1
  O  O22  1  0.788856  0.299776  0.648209  1
  O  O23  1  0.580417  0.135159  0.322703  1
  O  O24  1  0.692115  0.652082  0.414870  1
  O  O25  1  0.297827  0.185470  0.465453  1
  O  O26  1  0.580417  0.864841  0.177297  1
  O  O27  1  0.809873  0.084250  0.528182  1
  O  O28  1  0.419583  0.135159  0.822703  1
  O  O29  1  0.052409  0.416934  0.902181  1
  O  O30  1  0.702173  0.185470  0.965453  1
  O  O31  1  0.947591  0.416934  0.402181  1
  O  O32  1  0.052409  0.583066  0.597819  1
  O  O33  1  0.419583  0.864841  0.677297  1
  O  O34  1  0.307885  0.652082  0.914870  1
  O  O35  1  0.190127  0.915750  0.471818  1
  O  O36  1  0.947591  0.583066  0.097819  1
  O  O37  1  0.211144  0.299776  0.148209  1
