# generated using pymatgen
data_BaMn6S7
_symmetry_space_group_name_H-M   'P 1'
_cell_length_a   8.87053839
_cell_length_b   8.87053819
_cell_length_c   8.87053800
_cell_angle_alpha   60.07159731
_cell_angle_beta   60.07159806
_cell_angle_gamma   60.07158908
_symmetry_Int_Tables_number   1
_chemical_formula_structural   BaMn6S7
_chemical_formula_sum   'Ba2 Mn12 S14'
_cell_volume   494.35506019
_cell_formula_units_Z   2
loop_
 _symmetry_equiv_pos_site_id
 _symmetry_equiv_pos_as_xyz
  1  'x, y, z'
loop_
 _atom_site_type_symbol
 _atom_site_label
 _atom_site_symmetry_multiplicity
 _atom_site_fract_x
 _atom_site_fract_y
 _atom_site_fract_z
 _atom_site_occupancy
  Ba  Ba0  1  0.376043  0.376043  0.376043  1
  Ba  Ba1  1  0.623957  0.623957  0.623957  1
  Mn  Mn2  1  0.314089  0.124892  0.989826  1
  Mn  Mn3  1  0.197736  0.882829  0.061210  1
  Mn  Mn4  1  0.882829  0.061210  0.197736  1
  Mn  Mn5  1  0.938790  0.802264  0.117171  1
  Mn  Mn6  1  0.802264  0.117171  0.938790  1
  Mn  Mn7  1  0.117171  0.938790  0.802264  1
  Mn  Mn8  1  0.989826  0.314089  0.124892  1
  Mn  Mn9  1  0.875108  0.010174  0.685911  1
  Mn  Mn10  1  0.124892  0.989826  0.314089  1
  Mn  Mn11  1  0.010174  0.685911  0.875108  1
  Mn  Mn12  1  0.685911  0.875108  0.010174  1
  Mn  Mn13  1  0.061210  0.197736  0.882829  1
  S  S14  1  0.983823  0.238510  0.647181  1
  S  S15  1  0.238510  0.647181  0.983823  1
  S  S16  1  0.647181  0.983823  0.238510  1
  S  S17  1  0.016177  0.761490  0.352819  1
  S  S18  1  0.761490  0.352819  0.016177  1
  S  S19  1  0.352819  0.016177  0.761490  1
  S  S20  1  0.174582  0.411140  0.810045  1
  S  S21  1  0.411140  0.810045  0.174582  1
  S  S22  1  0.810045  0.174582  0.411140  1
  S  S23  1  0.825418  0.588860  0.189955  1
  S  S24  1  0.588860  0.189955  0.825418  1
  S  S25  1  0.189955  0.825418  0.588860  1
  S  S26  1  0.779787  0.779787  0.779787  1
  S  S27  1  0.220213  0.220213  0.220213  1
