# generated using pymatgen
data_Sc24CoTc4Rh3
_symmetry_space_group_name_H-M   'P 1'
_cell_length_a   5.90689192
_cell_length_b   8.59454000
_cell_length_c   13.37406803
_cell_angle_alpha   90.00000000
_cell_angle_beta   90.25612515
_cell_angle_gamma   90.00000000
_symmetry_Int_Tables_number   1
_chemical_formula_structural   Sc24CoTc4Rh3
_chemical_formula_sum   'Sc24 Co1 Tc4 Rh3'
_cell_volume   678.95478062
_cell_formula_units_Z   1
loop_
 _symmetry_equiv_pos_site_id
 _symmetry_equiv_pos_as_xyz
  1  'x, y, z'
loop_
 _atom_site_type_symbol
 _atom_site_label
 _atom_site_symmetry_multiplicity
 _atom_site_fract_x
 _atom_site_fract_y
 _atom_site_fract_z
 _atom_site_occupancy
  Sc  Sc0  1  0.532922  0.750000  0.357070  1
  Sc  Sc1  1  0.031190  0.250000  0.143500  1
  Sc  Sc2  1  0.469033  0.250000  0.643327  1
  Sc  Sc3  1  0.972103  0.750000  0.850778  1
  Sc  Sc4  1  0.800420  0.750000  0.111265  1
  Sc  Sc5  1  0.299796  0.250000  0.389228  1
  Sc  Sc6  1  0.200299  0.250000  0.888347  1
  Sc  Sc7  1  0.712538  0.750000  0.614194  1
  Sc  Sc8  1  0.411955  0.934502  0.784257  1
  Sc  Sc9  1  0.918472  0.061481  0.712255  1
  Sc  Sc10  1  0.582575  0.438008  0.211664  1
  Sc  Sc11  1  0.082492  0.562763  0.288730  1
  Sc  Sc12  1  0.582575  0.061992  0.211664  1
  Sc  Sc13  1  0.082492  0.937237  0.288730  1
  Sc  Sc14  1  0.411955  0.565498  0.784257  1
  Sc  Sc15  1  0.918472  0.438519  0.712255  1
  Sc  Sc16  1  0.244055  0.939152  0.538068  1
  Sc  Sc17  1  0.745858  0.055512  0.966763  1
  Sc  Sc18  1  0.752965  0.443480  0.468155  1
  Sc  Sc19  1  0.252528  0.557453  0.030744  1
  Sc  Sc20  1  0.752965  0.056520  0.468155  1
  Sc  Sc21  1  0.252528  0.942547  0.030744  1
  Sc  Sc22  1  0.244055  0.560848  0.538068  1
  Sc  Sc23  1  0.745858  0.444488  0.966763  1
  Co  Co24  1  0.128861  0.750000  0.680655  1
  Tc  Tc25  1  0.932467  0.750000  0.442038  1
  Tc  Tc26  1  0.432556  0.250000  0.059424  1
  Tc  Tc27  1  0.069744  0.250000  0.558988  1
  Tc  Tc28  1  0.569714  0.750000  0.938717  1
  Rh  Rh29  1  0.367430  0.750000  0.178615  1
  Rh  Rh30  1  0.867041  0.250000  0.321529  1
  Rh  Rh31  1  0.632086  0.250000  0.821053  1
