# generated using pymatgen
data_Cs2La10Re2Cl17
_symmetry_space_group_name_H-M   'P 1'
_cell_length_a   9.19782218
_cell_length_b   10.85374022
_cell_length_c   10.85373100
_cell_angle_alpha   107.44282261
_cell_angle_beta   93.36159521
_cell_angle_gamma   93.35836621
_symmetry_Int_Tables_number   1
_chemical_formula_structural   Cs2La10Re2Cl17
_chemical_formula_sum   'Cs2 La10 Re2 Cl17'
_cell_volume   1028.62829142
_cell_formula_units_Z   1
loop_
 _symmetry_equiv_pos_site_id
 _symmetry_equiv_pos_as_xyz
  1  'x, y, z'
loop_
 _atom_site_type_symbol
 _atom_site_label
 _atom_site_symmetry_multiplicity
 _atom_site_fract_x
 _atom_site_fract_y
 _atom_site_fract_z
 _atom_site_occupancy
  Cs  Cs0  1  0.002554  0.818480  0.184873  1
  Cs  Cs1  1  0.002558  0.184806  0.818457  1
  La  La2  1  0.435506  0.150811  0.150811  1
  La  La3  1  0.576743  0.513004  0.191820  1
  La  La4  1  0.841696  0.287200  0.287150  1
  La  La5  1  0.290778  0.420479  0.420486  1
  La  La6  1  0.423463  0.800144  0.491389  1
  La  La7  1  0.576801  0.191841  0.513053  1
  La  La8  1  0.709889  0.572131  0.572223  1
  La  La9  1  0.153283  0.716163  0.716146  1
  La  La10  1  0.423332  0.491262  0.800030  1
  La  La11  1  0.565685  0.852774  0.852770  1
  Re  Re12  1  0.572664  0.354593  0.354590  1
  Re  Re13  1  0.426395  0.644509  0.644538  1
  Cl  Cl14  1  0.582202  0.690933  0.020033  1
  Cl  Cl15  1  0.723168  0.068887  0.068892  1
  Cl  Cl16  1  0.861442  0.450696  0.119291  1
  Cl  Cl17  1  0.131909  0.196835  0.196864  1
  Cl  Cl18  1  0.284862  0.602210  0.257744  1
  Cl  Cl19  1  0.417392  0.976732  0.312556  1
  Cl  Cl20  1  0.715445  0.741284  0.395852  1
  Cl  Cl21  1  0.861541  0.119439  0.450735  1
  Cl  Cl22  1  0.001152  0.500534  0.500311  1
  Cl  Cl23  1  0.138599  0.880344  0.552599  1
  Cl  Cl24  1  0.284803  0.257558  0.602172  1
  Cl  Cl25  1  0.582302  0.020162  0.691048  1
  Cl  Cl26  1  0.715470  0.395887  0.741338  1
  Cl  Cl27  1  0.865568  0.801921  0.802032  1
  Cl  Cl28  1  0.138565  0.552643  0.880374  1
  Cl  Cl29  1  0.276939  0.933198  0.933101  1
  Cl  Cl30  1  0.417296  0.312541  0.976721  1
