# generated using pymatgen
data_Tb7Ce4Tm5(CdRu)4
_symmetry_space_group_name_H-M   'P 1'
_cell_length_a   9.61240581
_cell_length_b   9.61240565
_cell_length_c   9.61088500
_cell_angle_alpha   60.00522951
_cell_angle_beta   60.00523006
_cell_angle_gamma   59.97824782
_symmetry_Int_Tables_number   1
_chemical_formula_structural   Tb7Ce4Tm5(CdRu)4
_chemical_formula_sum   'Tb7 Ce4 Tm5 Cd4 Ru4'
_cell_volume   627.87824947
_cell_formula_units_Z   1
loop_
 _symmetry_equiv_pos_site_id
 _symmetry_equiv_pos_as_xyz
  1  'x, y, z'
loop_
 _atom_site_type_symbol
 _atom_site_label
 _atom_site_symmetry_multiplicity
 _atom_site_fract_x
 _atom_site_fract_y
 _atom_site_fract_z
 _atom_site_occupancy
  Tb  Tb0  1  0.561581  0.561581  0.938419  1
  Tb  Tb1  1  0.938435  0.561544  0.939380  1
  Tb  Tb2  1  0.561544  0.938435  0.939380  1
  Tb  Tb3  1  0.939434  0.939434  0.560566  1
  Tb  Tb4  1  0.561544  0.938435  0.560641  1
  Tb  Tb5  1  0.938435  0.561544  0.560641  1
  Tb  Tb6  1  0.187136  0.187136  0.812864  1
  Ce  Ce7  1  0.346511  0.346511  0.962268  1
  Ce  Ce8  1  0.346345  0.960688  0.346484  1
  Ce  Ce9  1  0.960688  0.346345  0.346484  1
  Ce  Ce10  1  0.346511  0.346511  0.344711  1
  Tm  Tm11  1  0.812182  0.186713  0.813139  1
  Tm  Tm12  1  0.186712  0.812183  0.813139  1
  Tm  Tm13  1  0.813416  0.813417  0.186584  1
  Tm  Tm14  1  0.186712  0.812182  0.187966  1
  Tm  Tm15  1  0.812182  0.186713  0.187967  1
  Cd  Cd16  1  0.580663  0.580663  0.257618  1
  Cd  Cd17  1  0.581435  0.256935  0.580814  1
  Cd  Cd18  1  0.256935  0.581435  0.580814  1
  Cd  Cd19  1  0.580663  0.580663  0.581054  1
  Ru  Ru20  1  0.143860  0.143860  0.567724  1
  Ru  Ru21  1  0.145035  0.568178  0.143394  1
  Ru  Ru22  1  0.568178  0.145035  0.143394  1
  Ru  Ru23  1  0.143860  0.143860  0.144556  1
