# generated using pymatgen
data_TbHoEr2(B6Os)2
_symmetry_space_group_name_H-M   'P 1'
_cell_length_a   3.63863300
_cell_length_b   9.11860802
_cell_length_c   11.49777501
_cell_angle_alpha   90.00151349
_cell_angle_beta   90.00000000
_cell_angle_gamma   90.00000000
_symmetry_Int_Tables_number   1
_chemical_formula_structural   TbHoEr2(B6Os)2
_chemical_formula_sum   'Tb2 Ho2 Er4 B24 Os4'
_cell_volume   381.48775861
_cell_formula_units_Z   2
loop_
 _symmetry_equiv_pos_site_id
 _symmetry_equiv_pos_as_xyz
  1  'x, y, z'
loop_
 _atom_site_type_symbol
 _atom_site_label
 _atom_site_symmetry_multiplicity
 _atom_site_fract_x
 _atom_site_fract_y
 _atom_site_fract_z
 _atom_site_occupancy
  Tb  Tb0  1  0.000000  0.321744  0.413804  1
  Tb  Tb1  1  0.000000  0.678256  0.586196  1
  Ho  Ho2  1  0.000000  0.821668  0.085860  1
  Ho  Ho3  1  0.000000  0.178332  0.914140  1
  Er  Er4  1  0.000000  0.943888  0.372587  1
  Er  Er5  1  0.000000  0.056112  0.627413  1
  Er  Er6  1  0.000000  0.443834  0.126696  1
  Er  Er7  1  0.000000  0.556166  0.873304  1
  B  B8  1  0.500000  0.554282  0.432466  1
  B  B9  1  0.500000  0.445718  0.567534  1
  B  B10  1  0.500000  0.053784  0.066682  1
  B  B11  1  0.500000  0.946216  0.933318  1
  B  B12  1  0.500000  0.748642  0.419117  1
  B  B13  1  0.500000  0.251358  0.580883  1
  B  B14  1  0.500000  0.248063  0.079836  1
  B  B15  1  0.500000  0.751937  0.920164  1
  B  B16  1  0.500000  0.791343  0.265806  1
  B  B17  1  0.500000  0.208657  0.734194  1
  B  B18  1  0.500000  0.290765  0.232967  1
  B  B19  1  0.500000  0.709235  0.767033  1
  B  B20  1  0.500000  0.631400  0.184635  1
  B  B21  1  0.500000  0.368600  0.815365  1
  B  B22  1  0.500000  0.130737  0.314413  1
  B  B23  1  0.500000  0.869263  0.685587  1
  B  B24  1  0.500000  0.982512  0.212714  1
  B  B25  1  0.500000  0.017488  0.787286  1
  B  B26  1  0.500000  0.483126  0.286197  1
  B  B27  1  0.500000  0.516874  0.713803  1
  B  B28  1  0.500000  0.607361  0.029646  1
  B  B29  1  0.500000  0.392639  0.970354  1
  B  B30  1  0.500000  0.105624  0.470743  1
  B  B31  1  0.500000  0.894376  0.529257  1
  Os  Os32  1  0.000000  0.637876  0.320444  1
  Os  Os33  1  0.000000  0.362124  0.679556  1
  Os  Os34  1  0.000000  0.137028  0.178411  1
  Os  Os35  1  0.000000  0.862972  0.821589  1
