# generated using pymatgen
data_Tb2Al9Pt2Rh
_symmetry_space_group_name_H-M   'P 1'
_cell_length_a   7.61486107
_cell_length_b   7.61486030
_cell_length_c   9.44736400
_cell_angle_alpha   90.00000000
_cell_angle_beta   90.00000000
_cell_angle_gamma   119.61235341
_symmetry_Int_Tables_number   1
_chemical_formula_structural   Tb2Al9Pt2Rh
_chemical_formula_sum   'Tb4 Al18 Pt4 Rh2'
_cell_volume   476.26472952
_cell_formula_units_Z   2
loop_
 _symmetry_equiv_pos_site_id
 _symmetry_equiv_pos_as_xyz
  1  'x, y, z'
loop_
 _atom_site_type_symbol
 _atom_site_label
 _atom_site_symmetry_multiplicity
 _atom_site_fract_x
 _atom_site_fract_y
 _atom_site_fract_z
 _atom_site_occupancy
  Tb  Tb0  1  0.993638  0.667460  0.250000  1
  Tb  Tb1  1  0.006362  0.332540  0.750000  1
  Tb  Tb2  1  0.667460  0.993638  0.250000  1
  Tb  Tb3  1  0.332540  0.006362  0.750000  1
  Al  Al4  1  0.125434  0.125434  0.250000  1
  Al  Al5  1  0.874566  0.874566  0.750000  1
  Al  Al6  1  0.999796  0.330604  0.076289  1
  Al  Al7  1  0.000204  0.669396  0.923711  1
  Al  Al8  1  0.000204  0.669396  0.576289  1
  Al  Al9  1  0.330604  0.999796  0.423711  1
  Al  Al10  1  0.999796  0.330604  0.423711  1
  Al  Al11  1  0.669396  0.000204  0.576289  1
  Al  Al12  1  0.669396  0.000204  0.923711  1
  Al  Al13  1  0.330604  0.999796  0.076289  1
  Al  Al14  1  0.329317  0.329317  0.554493  1
  Al  Al15  1  0.670683  0.670683  0.445507  1
  Al  Al16  1  0.670683  0.670683  0.054493  1
  Al  Al17  1  0.329317  0.329317  0.945507  1
  Al  Al18  1  0.340840  0.546350  0.250000  1
  Al  Al19  1  0.659160  0.453650  0.750000  1
  Al  Al20  1  0.546350  0.340840  0.250000  1
  Al  Al21  1  0.453650  0.659160  0.750000  1
  Pt  Pt22  1  0.672401  0.327599  0.000000  1
  Pt  Pt23  1  0.327599  0.672401  0.000000  1
  Pt  Pt24  1  0.327599  0.672401  0.500000  1
  Pt  Pt25  1  0.672401  0.327599  0.500000  1
  Rh  Rh26  1  0.000000  0.000000  0.000000  1
  Rh  Rh27  1  0.000000  0.000000  0.500000  1
