# generated using pymatgen
data_LaYb4Th3(ReC2)4
_symmetry_space_group_name_H-M   'P 1'
_cell_length_a   5.24832100
_cell_length_b   6.54025830
_cell_length_c   10.43158708
_cell_angle_alpha   89.81797593
_cell_angle_beta   90.00000000
_cell_angle_gamma   90.00000000
_symmetry_Int_Tables_number   1
_chemical_formula_structural   LaYb4Th3(ReC2)4
_chemical_formula_sum   'La1 Yb4 Th3 Re4 C8'
_cell_volume   358.06633132
_cell_formula_units_Z   1
loop_
 _symmetry_equiv_pos_site_id
 _symmetry_equiv_pos_as_xyz
  1  'x, y, z'
loop_
 _atom_site_type_symbol
 _atom_site_label
 _atom_site_symmetry_multiplicity
 _atom_site_fract_x
 _atom_site_fract_y
 _atom_site_fract_z
 _atom_site_occupancy
  La  La0  1  0.250000  0.712361  0.553370  1
  Yb  Yb1  1  0.250000  0.535027  0.230719  1
  Yb  Yb2  1  0.750000  0.465738  0.769519  1
  Yb  Yb3  1  0.750000  0.968450  0.730361  1
  Yb  Yb4  1  0.250000  0.031603  0.269772  1
  Th  Th5  1  0.750000  0.297499  0.443046  1
  Th  Th6  1  0.750000  0.797306  0.053628  1
  Th  Th7  1  0.250000  0.204641  0.950352  1
  Re  Re8  1  0.250000  0.729738  0.863102  1
  Re  Re9  1  0.750000  0.272595  0.135489  1
  Re  Re10  1  0.750000  0.770956  0.355854  1
  Re  Re11  1  0.250000  0.229710  0.645061  1
  C  C12  1  0.250000  0.469497  0.759615  1
  C  C13  1  0.750000  0.529585  0.243165  1
  C  C14  1  0.750000  0.033461  0.252116  1
  C  C15  1  0.250000  0.972382  0.751086  1
  C  C16  1  0.250000  0.823232  0.040640  1
  C  C17  1  0.750000  0.178166  0.958189  1
  C  C18  1  0.750000  0.677028  0.530279  1
  C  C19  1  0.250000  0.301026  0.464638  1
