# generated using pymatgen
data_Na5SrVP4
_symmetry_space_group_name_H-M   'P 1'
_cell_length_a   9.19471863
_cell_length_b   9.19471801
_cell_length_c   7.29976586
_cell_angle_alpha   90.02262563
_cell_angle_beta   90.02263124
_cell_angle_gamma   120.12116575
_symmetry_Int_Tables_number   1
_chemical_formula_structural   Na5SrVP4
_chemical_formula_sum   'Na10 Sr2 V2 P8'
_cell_volume   533.80758245
_cell_formula_units_Z   2
loop_
 _symmetry_equiv_pos_site_id
 _symmetry_equiv_pos_as_xyz
  1  'x, y, z'
loop_
 _atom_site_type_symbol
 _atom_site_label
 _atom_site_symmetry_multiplicity
 _atom_site_fract_x
 _atom_site_fract_y
 _atom_site_fract_z
 _atom_site_occupancy
  Na  Na0  1  0.534668  0.473805  0.611983  1
  Na  Na1  1  0.938716  0.472383  0.611386  1
  Na  Na2  1  0.473805  0.534668  0.111983  1
  Na  Na3  1  0.472383  0.938716  0.111386  1
  Na  Na4  1  0.136004  0.853778  0.782167  1
  Na  Na5  1  0.712494  0.848630  0.790904  1
  Na  Na6  1  0.146763  0.288779  0.776748  1
  Na  Na7  1  0.853778  0.136004  0.282167  1
  Na  Na8  1  0.288779  0.146763  0.276748  1
  Na  Na9  1  0.848630  0.712494  0.290904  1
  Sr  Sr10  1  0.531871  0.061394  0.608249  1
  Sr  Sr11  1  0.061394  0.531871  0.108249  1
  V  V12  1  0.332586  0.662233  0.500441  1
  V  V13  1  0.662233  0.332586  0.000441  1
  P  P14  1  0.804514  0.197636  0.899860  1
  P  P15  1  0.392006  0.195984  0.897290  1
  P  P16  1  0.804594  0.606954  0.903531  1
  P  P17  1  0.197636  0.804514  0.399860  1
  P  P18  1  0.606954  0.804594  0.403531  1
  P  P19  1  0.195984  0.392006  0.397290  1
  P  P20  1  0.334005  0.670203  0.814542  1
  P  P21  1  0.670203  0.334005  0.314542  1
