# generated using pymatgen
data_Mg2SbP6IN12
_symmetry_space_group_name_H-M   'P 1'
_cell_length_a   7.36291461
_cell_length_b   7.44226354
_cell_length_c   7.36291386
_cell_angle_alpha   109.86069839
_cell_angle_beta   109.19109337
_cell_angle_gamma   109.86067383
_symmetry_Int_Tables_number   1
_chemical_formula_structural   Mg2SbP6IN12
_chemical_formula_sum   'Mg2 Sb1 P6 I1 N12'
_cell_volume   308.64930347
_cell_formula_units_Z   1
loop_
 _symmetry_equiv_pos_site_id
 _symmetry_equiv_pos_as_xyz
  1  'x, y, z'
loop_
 _atom_site_type_symbol
 _atom_site_label
 _atom_site_symmetry_multiplicity
 _atom_site_fract_x
 _atom_site_fract_y
 _atom_site_fract_z
 _atom_site_occupancy
  Mg  Mg0  1  0.004981  0.005652  0.387759  1
  Mg  Mg1  1  0.387759  0.005652  0.004981  1
  Sb  Sb2  1  0.011404  0.364288  0.011404  1
  P  P3  1  0.498076  0.260643  0.751402  1
  P  P4  1  0.256616  0.758956  0.503385  1
  P  P5  1  0.741894  0.505541  0.255779  1
  P  P6  1  0.751402  0.260643  0.498076  1
  P  P7  1  0.503385  0.758956  0.256616  1
  P  P8  1  0.255779  0.505541  0.741894  1
  I  I9  1  0.970781  0.890162  0.970781  1
  N  N10  1  0.405032  0.697821  0.405032  1
  N  N11  1  0.707638  0.425508  0.422667  1
  N  N12  1  0.422667  0.425508  0.707638  1
  N  N13  1  0.722493  0.295410  0.722493  1
  N  N14  1  0.996292  0.584021  0.283280  1
  N  N15  1  0.283280  0.584021  0.996292  1
  N  N16  1  0.285478  0.005418  0.575098  1
  N  N17  1  0.000849  0.286685  0.573370  1
  N  N18  1  0.716937  0.723735  0.288788  1
  N  N19  1  0.575098  0.005418  0.285478  1
  N  N20  1  0.288788  0.723735  0.716937  1
  N  N21  1  0.573370  0.286685  0.000849  1
