# generated using pymatgen
data_GdDy2CoSn3Rh2
_symmetry_space_group_name_H-M   'P 1'
_cell_length_a   7.49079700
_cell_length_b   7.49079708
_cell_length_c   3.85018300
_cell_angle_alpha   90.00000000
_cell_angle_beta   90.00000000
_cell_angle_gamma   120.00259388
_symmetry_Int_Tables_number   1
_chemical_formula_structural   GdDy2CoSn3Rh2
_chemical_formula_sum   'Gd1 Dy2 Co1 Sn3 Rh2'
_cell_volume   187.09264381
_cell_formula_units_Z   1
loop_
 _symmetry_equiv_pos_site_id
 _symmetry_equiv_pos_as_xyz
  1  'x, y, z'
loop_
 _atom_site_type_symbol
 _atom_site_label
 _atom_site_symmetry_multiplicity
 _atom_site_fract_x
 _atom_site_fract_y
 _atom_site_fract_z
 _atom_site_occupancy
  Gd  Gd0  1  0.405630  0.405630  0.500000  1
  Dy  Dy1  1  0.594376  0.999993  0.500000  1
  Dy  Dy2  1  0.999993  0.594376  0.500000  1
  Co  Co3  1  0.999967  0.999967  0.500000  1
  Sn  Sn4  1  0.748836  0.748836  0.000000  1
  Sn  Sn5  1  0.251169  0.999947  0.000000  1
  Sn  Sn6  1  0.999947  0.251169  0.000000  1
  Rh  Rh7  1  0.666727  0.333356  0.000000  1
  Rh  Rh8  1  0.333356  0.666727  0.000000  1
