# generated using pymatgen
data_Er8Ta4Nb8Si15Ge
_symmetry_space_group_name_H-M   'P 1'
_cell_length_a   6.84721475
_cell_length_b   7.04162288
_cell_length_c   13.38687507
_cell_angle_alpha   90.04850900
_cell_angle_beta   89.91499344
_cell_angle_gamma   90.00173320
_symmetry_Int_Tables_number   1
_chemical_formula_structural   Er8Ta4Nb8Si15Ge
_chemical_formula_sum   'Er8 Ta4 Nb8 Si15 Ge1'
_cell_volume   645.45398732
_cell_formula_units_Z   1
loop_
 _symmetry_equiv_pos_site_id
 _symmetry_equiv_pos_as_xyz
  1  'x, y, z'
loop_
 _atom_site_type_symbol
 _atom_site_label
 _atom_site_symmetry_multiplicity
 _atom_site_fract_x
 _atom_site_fract_y
 _atom_site_fract_z
 _atom_site_occupancy
  Er  Er0  1  0.503484  0.328259  0.095752  1
  Er  Er1  1  0.002548  0.171454  0.403723  1
  Er  Er2  1  0.499816  0.673947  0.596667  1
  Er  Er3  1  0.996289  0.827930  0.904682  1
  Er  Er4  1  0.496262  0.671683  0.904544  1
  Er  Er5  1  0.996359  0.828878  0.596149  1
  Er  Er6  1  0.504056  0.326758  0.403266  1
  Er  Er7  1  0.003527  0.172264  0.095514  1
  Ta  Ta8  1  0.661523  0.008012  0.750251  1
  Ta  Ta9  1  0.161457  0.490837  0.752062  1
  Ta  Ta10  1  0.338129  0.992043  0.249703  1
  Ta  Ta11  1  0.838411  0.508653  0.249816  1
  Nb  Nb12  1  0.835294  0.324468  0.625823  1
  Nb  Nb13  1  0.336693  0.174932  0.874915  1
  Nb  Nb14  1  0.163327  0.675282  0.125127  1
  Nb  Nb15  1  0.662942  0.825459  0.374166  1
  Nb  Nb16  1  0.161547  0.677761  0.372960  1
  Nb  Nb17  1  0.662362  0.824644  0.125172  1
  Nb  Nb18  1  0.836623  0.324678  0.874917  1
  Nb  Nb19  1  0.339232  0.171198  0.626649  1
  Si  Si20  1  0.795379  0.629341  0.750327  1
  Si  Si21  1  0.294214  0.869301  0.750706  1
  Si  Si22  1  0.205083  0.370709  0.249645  1
  Si  Si23  1  0.705267  0.129639  0.249465  1
  Si  Si24  1  0.540498  0.377485  0.750367  1
  Si  Si25  1  0.040451  0.122524  0.750143  1
  Si  Si26  1  0.459106  0.622675  0.249905  1
  Si  Si27  1  0.958510  0.878211  0.248941  1
  Si  Si28  1  0.664280  0.036095  0.540431  1
  Si  Si29  1  0.163183  0.464495  0.959267  1
  Si  Si30  1  0.336234  0.964793  0.040904  1
  Si  Si31  1  0.832542  0.536256  0.458488  1
  Si  Si32  1  0.336090  0.964042  0.459241  1
  Si  Si33  1  0.836647  0.535426  0.041076  1
  Si  Si34  1  0.663214  0.035325  0.959148  1
  Ge  Ge35  1  0.169423  0.464550  0.540094  1
