# generated using pymatgen
data_Yb2HoEr5(B6Ru)4
_symmetry_space_group_name_H-M   'P 1'
_cell_length_a   3.63531500
_cell_length_b   9.11040904
_cell_length_c   11.49762002
_cell_angle_alpha   89.82948590
_cell_angle_beta   90.00000000
_cell_angle_gamma   90.00000000
_symmetry_Int_Tables_number   1
_chemical_formula_structural   Yb2HoEr5(B6Ru)4
_chemical_formula_sum   'Yb2 Ho1 Er5 B24 Ru4'
_cell_volume   380.79036711
_cell_formula_units_Z   1
loop_
 _symmetry_equiv_pos_site_id
 _symmetry_equiv_pos_as_xyz
  1  'x, y, z'
loop_
 _atom_site_type_symbol
 _atom_site_label
 _atom_site_symmetry_multiplicity
 _atom_site_fract_x
 _atom_site_fract_y
 _atom_site_fract_z
 _atom_site_occupancy
  Yb  Yb0  1  0.000000  0.325030  0.414821  1
  Yb  Yb1  1  0.000000  0.674964  0.585190  1
  Ho  Ho2  1  0.000000  0.822545  0.086101  1
  Er  Er3  1  0.000000  0.177519  0.913897  1
  Er  Er4  1  0.000000  0.941963  0.369807  1
  Er  Er5  1  0.000000  0.058046  0.630249  1
  Er  Er6  1  0.000000  0.442803  0.130858  1
  Er  Er7  1  0.000000  0.557120  0.869094  1
  B  B8  1  0.500000  0.554394  0.432404  1
  B  B9  1  0.500000  0.445581  0.567613  1
  B  B10  1  0.500000  0.053907  0.066509  1
  B  B11  1  0.500000  0.946320  0.933363  1
  B  B12  1  0.500000  0.748311  0.417976  1
  B  B13  1  0.500000  0.251690  0.582044  1
  B  B14  1  0.500000  0.248478  0.080900  1
  B  B15  1  0.500000  0.751518  0.918905  1
  B  B16  1  0.500000  0.791429  0.264644  1
  B  B17  1  0.500000  0.208484  0.735513  1
  B  B18  1  0.500000  0.290234  0.234410  1
  B  B19  1  0.500000  0.709771  0.765561  1
  B  B20  1  0.500000  0.631479  0.185020  1
  B  B21  1  0.500000  0.368371  0.815082  1
  B  B22  1  0.500000  0.130848  0.314065  1
  B  B23  1  0.500000  0.869185  0.685937  1
  B  B24  1  0.500000  0.983226  0.211571  1
  B  B25  1  0.500000  0.016987  0.788499  1
  B  B26  1  0.500000  0.483945  0.288055  1
  B  B27  1  0.500000  0.516016  0.711943  1
  B  B28  1  0.500000  0.603465  0.028394  1
  B  B29  1  0.500000  0.396288  0.971533  1
  B  B30  1  0.500000  0.099471  0.472503  1
  B  B31  1  0.500000  0.900544  0.527516  1
  Ru  Ru32  1  0.000000  0.640061  0.318780  1
  Ru  Ru33  1  0.000000  0.359857  0.681304  1
  Ru  Ru34  1  0.000000  0.137185  0.177974  1
  Ru  Ru35  1  0.000000  0.862964  0.821964  1
