# generated using pymatgen
data_Dy4LuIrRu
_symmetry_space_group_name_H-M   'P 1'
_cell_length_a   6.37814208
_cell_length_b   7.23813982
_cell_length_c   8.47794522
_cell_angle_alpha   96.82650614
_cell_angle_beta   112.60060280
_cell_angle_gamma   89.94001338
_symmetry_Int_Tables_number   1
_chemical_formula_structural   Dy4LuIrRu
_chemical_formula_sum   'Dy8 Lu2 Ir2 Ru2'
_cell_volume   358.34818028
_cell_formula_units_Z   2
loop_
 _symmetry_equiv_pos_site_id
 _symmetry_equiv_pos_as_xyz
  1  'x, y, z'
loop_
 _atom_site_type_symbol
 _atom_site_label
 _atom_site_symmetry_multiplicity
 _atom_site_fract_x
 _atom_site_fract_y
 _atom_site_fract_z
 _atom_site_occupancy
  Dy  Dy0  1  0.523529  0.081008  0.815853  1
  Dy  Dy1  1  0.476471  0.918992  0.184147  1
  Dy  Dy2  1  0.710427  0.415889  0.185211  1
  Dy  Dy3  1  0.289573  0.584111  0.814789  1
  Dy  Dy4  1  0.293480  0.312392  0.434390  1
  Dy  Dy5  1  0.706520  0.687608  0.565610  1
  Dy  Dy6  1  0.862306  0.186263  0.566457  1
  Dy  Dy7  1  0.137694  0.813737  0.433543  1
  Lu  Lu8  1  0.073585  0.249642  0.999158  1
  Lu  Lu9  1  0.926415  0.750358  0.000842  1
  Ir  Ir10  1  0.319594  0.574276  0.218289  1
  Ir  Ir11  1  0.680406  0.425724  0.781711  1
  Ru  Ru12  1  0.103576  0.924858  0.784302  1
  Ru  Ru13  1  0.896424  0.075142  0.215698  1
