# generated using pymatgen
data_Mg4Co11(P4Rh3)3
_symmetry_space_group_name_H-M   'P 1'
_cell_length_a   3.64849100
_cell_length_b   10.56171500
_cell_length_c   11.98448999
_cell_angle_alpha   90.35703745
_cell_angle_beta   90.00000000
_cell_angle_gamma   90.00000000
_symmetry_Int_Tables_number   1
_chemical_formula_structural   Mg4Co11(P4Rh3)3
_chemical_formula_sum   'Mg4 Co11 P12 Rh9'
_cell_volume   461.80523146
_cell_formula_units_Z   1
loop_
 _symmetry_equiv_pos_site_id
 _symmetry_equiv_pos_as_xyz
  1  'x, y, z'
loop_
 _atom_site_type_symbol
 _atom_site_label
 _atom_site_symmetry_multiplicity
 _atom_site_fract_x
 _atom_site_fract_y
 _atom_site_fract_z
 _atom_site_occupancy
  Mg  Mg0  1  0.250000  0.583415  0.710561  1
  Mg  Mg1  1  0.250000  0.914985  0.211841  1
  Mg  Mg2  1  0.750000  0.420816  0.289703  1
  Mg  Mg3  1  0.750000  0.083183  0.788763  1
  Co  Co4  1  0.250000  0.274420  0.677508  1
  Co  Co5  1  0.750000  0.774395  0.821276  1
  Co  Co6  1  0.750000  0.723262  0.322824  1
  Co  Co7  1  0.250000  0.883172  0.700070  1
  Co  Co8  1  0.250000  0.619552  0.199446  1
  Co  Co9  1  0.750000  0.107191  0.301091  1
  Co  Co10  1  0.750000  0.384157  0.798895  1
  Co  Co11  1  0.250000  0.465623  0.925571  1
  Co  Co12  1  0.250000  0.032236  0.430941  1
  Co  Co13  1  0.750000  0.539587  0.069326  1
  Co  Co14  1  0.750000  0.964263  0.573171  1
  P  P15  1  0.250000  0.430977  0.108094  1
  P  P16  1  0.250000  0.077479  0.614009  1
  P  P17  1  0.750000  0.579052  0.885917  1
  P  P18  1  0.750000  0.918619  0.389340  1
  P  P19  1  0.250000  0.272364  0.860199  1
  P  P20  1  0.250000  0.225043  0.371110  1
  P  P21  1  0.750000  0.729920  0.139535  1
  P  P22  1  0.750000  0.772139  0.638999  1
  P  P23  1  0.250000  0.602968  0.380050  1
  P  P24  1  0.250000  0.895835  0.879572  1
  P  P25  1  0.750000  0.397594  0.620131  1
  P  P26  1  0.750000  0.098270  0.116982  1
  Rh  Rh27  1  0.250000  0.712748  0.987057  1
  Rh  Rh28  1  0.250000  0.786072  0.488965  1
  Rh  Rh29  1  0.750000  0.287468  0.007717  1
  Rh  Rh30  1  0.750000  0.213186  0.511442  1
  Rh  Rh31  1  0.250000  0.409031  0.476306  1
  Rh  Rh32  1  0.250000  0.091525  0.970153  1
  Rh  Rh33  1  0.750000  0.592838  0.526860  1
  Rh  Rh34  1  0.750000  0.905626  0.025165  1
  Rh  Rh35  1  0.250000  0.230989  0.181409  1
