# generated using pymatgen
data_Y3LuGa18(PtRh2)2
_symmetry_space_group_name_H-M   'P 1'
_cell_length_a   7.61417100
_cell_length_b   7.61400835
_cell_length_c   9.48398500
_cell_angle_alpha   90.00000000
_cell_angle_beta   90.00000000
_cell_angle_gamma   119.88215879
_symmetry_Int_Tables_number   1
_chemical_formula_structural   Y3LuGa18(PtRh2)2
_chemical_formula_sum   'Y3 Lu1 Ga18 Pt2 Rh4'
_cell_volume   476.72940711
_cell_formula_units_Z   1
loop_
 _symmetry_equiv_pos_site_id
 _symmetry_equiv_pos_as_xyz
  1  'x, y, z'
loop_
 _atom_site_type_symbol
 _atom_site_label
 _atom_site_symmetry_multiplicity
 _atom_site_fract_x
 _atom_site_fract_y
 _atom_site_fract_z
 _atom_site_occupancy
  Y  Y0  1  0.996613  0.673376  0.250000  1
  Y  Y1  1  0.003176  0.326365  0.750000  1
  Y  Y2  1  0.673133  0.996494  0.250000  1
  Lu  Lu3  1  0.326434  0.003236  0.750000  1
  Ga  Ga4  1  0.336093  0.549590  0.250000  1
  Ga  Ga5  1  0.662806  0.449251  0.750000  1
  Ga  Ga6  1  0.549476  0.335999  0.250000  1
  Ga  Ga7  1  0.450216  0.664303  0.750000  1
  Ga  Ga8  1  0.998722  0.339413  0.081372  1
  Ga  Ga9  1  0.002552  0.662001  0.917922  1
  Ga  Ga10  1  0.002552  0.662001  0.582078  1
  Ga  Ga11  1  0.339336  0.998746  0.419427  1
  Ga  Ga12  1  0.998722  0.339413  0.418628  1
  Ga  Ga13  1  0.659427  0.001289  0.582116  1
  Ga  Ga14  1  0.659427  0.001289  0.917884  1
  Ga  Ga15  1  0.339336  0.998746  0.080573  1
  Ga  Ga16  1  0.337274  0.336139  0.569465  1
  Ga  Ga17  1  0.662762  0.662797  0.431440  1
  Ga  Ga18  1  0.662762  0.662797  0.068560  1
  Ga  Ga19  1  0.337274  0.336139  0.930535  1
  Ga  Ga20  1  0.136941  0.136815  0.250000  1
  Ga  Ga21  1  0.863731  0.863144  0.750000  1
  Pt  Pt22  1  0.000501  0.000230  0.999462  1
  Pt  Pt23  1  0.000501  0.000230  0.500538  1
  Rh  Rh24  1  0.671156  0.328916  0.999615  1
  Rh  Rh25  1  0.328960  0.671183  0.999612  1
  Rh  Rh26  1  0.328960  0.671183  0.500388  1
  Rh  Rh27  1  0.671156  0.328916  0.500385  1
