# generated using pymatgen
data_CeNdSc2(ReB6)2
_symmetry_space_group_name_H-M   'P 1'
_cell_length_a   3.64444800
_cell_length_b   9.06438944
_cell_length_c   11.48999283
_cell_angle_alpha   89.93535418
_cell_angle_beta   90.00000000
_cell_angle_gamma   90.00000000
_symmetry_Int_Tables_number   1
_chemical_formula_structural   CeNdSc2(ReB6)2
_chemical_formula_sum   'Ce2 Nd2 Sc4 Re4 B24'
_cell_volume   379.56817824
_cell_formula_units_Z   2
loop_
 _symmetry_equiv_pos_site_id
 _symmetry_equiv_pos_as_xyz
  1  'x, y, z'
loop_
 _atom_site_type_symbol
 _atom_site_label
 _atom_site_symmetry_multiplicity
 _atom_site_fract_x
 _atom_site_fract_y
 _atom_site_fract_z
 _atom_site_occupancy
  Ce  Ce0  1  0.000000  0.820949  0.085478  1
  Ce  Ce1  1  0.000000  0.179051  0.914522  1
  Nd  Nd2  1  0.000000  0.321785  0.414427  1
  Nd  Nd3  1  0.000000  0.678215  0.585573  1
  Sc  Sc4  1  0.000000  0.944067  0.370758  1
  Sc  Sc5  1  0.000000  0.055933  0.629242  1
  Sc  Sc6  1  0.000000  0.444726  0.128208  1
  Sc  Sc7  1  0.000000  0.555274  0.871792  1
  Re  Re8  1  0.000000  0.643100  0.315494  1
  Re  Re9  1  0.000000  0.356900  0.684506  1
  Re  Re10  1  0.000000  0.139328  0.179966  1
  Re  Re11  1  0.000000  0.860672  0.820034  1
  B  B12  1  0.500000  0.556180  0.430030  1
  B  B13  1  0.500000  0.443820  0.569970  1
  B  B14  1  0.500000  0.055262  0.068892  1
  B  B15  1  0.500000  0.944738  0.931108  1
  B  B16  1  0.500000  0.754385  0.416026  1
  B  B17  1  0.500000  0.245615  0.583974  1
  B  B18  1  0.500000  0.253871  0.082600  1
  B  B19  1  0.500000  0.746129  0.917400  1
  B  B20  1  0.500000  0.794585  0.264648  1
  B  B21  1  0.500000  0.205415  0.735352  1
  B  B22  1  0.500000  0.294124  0.233392  1
  B  B23  1  0.500000  0.705876  0.766608  1
  B  B24  1  0.500000  0.629631  0.183033  1
  B  B25  1  0.500000  0.370369  0.816967  1
  B  B26  1  0.500000  0.128014  0.315649  1
  B  B27  1  0.500000  0.871986  0.684351  1
  B  B28  1  0.500000  0.982162  0.214074  1
  B  B29  1  0.500000  0.017838  0.785926  1
  B  B30  1  0.500000  0.483147  0.284545  1
  B  B31  1  0.500000  0.516853  0.715455  1
  B  B32  1  0.500000  0.597176  0.026212  1
  B  B33  1  0.500000  0.402824  0.973788  1
  B  B34  1  0.500000  0.094432  0.474309  1
  B  B35  1  0.500000  0.905568  0.525691  1
