# generated using pymatgen
data_TmLu9(SiSb)4
_symmetry_space_group_name_H-M   'P 1'
_cell_length_a   8.35645043
_cell_length_b   8.35380046
_cell_length_c   7.70647622
_cell_angle_alpha   89.98114040
_cell_angle_beta   89.99493793
_cell_angle_gamma   125.25799532
_symmetry_Int_Tables_number   1
_chemical_formula_structural   TmLu9(SiSb)4
_chemical_formula_sum   'Tm1 Lu9 Si4 Sb4'
_cell_volume   439.28904300
_cell_formula_units_Z   1
loop_
 _symmetry_equiv_pos_site_id
 _symmetry_equiv_pos_as_xyz
  1  'x, y, z'
loop_
 _atom_site_type_symbol
 _atom_site_label
 _atom_site_symmetry_multiplicity
 _atom_site_fract_x
 _atom_site_fract_y
 _atom_site_fract_z
 _atom_site_occupancy
  Tm  Tm0  1  0.040199  0.289902  0.335329  1
  Lu  Lu1  1  0.540362  0.789450  0.164554  1
  Lu  Lu2  1  0.289530  0.040316  0.335516  1
  Lu  Lu3  1  0.210558  0.459622  0.835438  1
  Lu  Lu4  1  0.959625  0.710416  0.664520  1
  Lu  Lu5  1  0.710461  0.959632  0.664556  1
  Lu  Lu6  1  0.459678  0.210520  0.835453  1
  Lu  Lu7  1  0.789422  0.540311  0.164489  1
  Lu  Lu8  1  0.500218  0.500098  0.500084  1
  Lu  Lu9  1  0.999981  0.999886  0.999852  1
  Si  Si10  1  0.633434  0.633458  0.867662  1
  Si  Si11  1  0.133511  0.133369  0.632638  1
  Si  Si12  1  0.866385  0.866198  0.367638  1
  Si  Si13  1  0.366924  0.366559  0.132157  1
  Sb  Sb14  1  0.294250  0.706518  0.500242  1
  Sb  Sb15  1  0.206069  0.793868  0.000032  1
  Sb  Sb16  1  0.705728  0.293920  0.500170  1
  Sb  Sb17  1  0.793667  0.205956  0.999669  1
