# generated using pymatgen
data_TmMnFe4P3
_symmetry_space_group_name_H-M   'P 1'
_cell_length_a   3.64537000
_cell_length_b   10.29967000
_cell_length_c   11.81581600
_cell_angle_alpha   90.00000000
_cell_angle_beta   90.00000000
_cell_angle_gamma   90.00000000
_symmetry_Int_Tables_number   1
_chemical_formula_structural   TmMnFe4P3
_chemical_formula_sum   'Tm4 Mn4 Fe16 P12'
_cell_volume   443.63790397
_cell_formula_units_Z   4
loop_
 _symmetry_equiv_pos_site_id
 _symmetry_equiv_pos_as_xyz
  1  'x, y, z'
loop_
 _atom_site_type_symbol
 _atom_site_label
 _atom_site_symmetry_multiplicity
 _atom_site_fract_x
 _atom_site_fract_y
 _atom_site_fract_z
 _atom_site_occupancy
  Tm  Tm0  1  0.250000  0.579891  0.705366  1
  Tm  Tm1  1  0.250000  0.920109  0.205366  1
  Tm  Tm2  1  0.750000  0.420109  0.294634  1
  Tm  Tm3  1  0.750000  0.079891  0.794634  1
  Mn  Mn4  1  0.250000  0.702396  0.988331  1
  Mn  Mn5  1  0.250000  0.797604  0.488331  1
  Mn  Mn6  1  0.750000  0.297604  0.011669  1
  Mn  Mn7  1  0.750000  0.202396  0.511669  1
  Fe  Fe8  1  0.250000  0.404584  0.487907  1
  Fe  Fe9  1  0.250000  0.095416  0.987907  1
  Fe  Fe10  1  0.750000  0.595416  0.512093  1
  Fe  Fe11  1  0.750000  0.904584  0.012093  1
  Fe  Fe12  1  0.250000  0.220220  0.172328  1
  Fe  Fe13  1  0.250000  0.279780  0.672328  1
  Fe  Fe14  1  0.750000  0.779780  0.827672  1
  Fe  Fe15  1  0.750000  0.720220  0.327672  1
  Fe  Fe16  1  0.250000  0.874538  0.701137  1
  Fe  Fe17  1  0.250000  0.625462  0.201137  1
  Fe  Fe18  1  0.750000  0.125462  0.298863  1
  Fe  Fe19  1  0.750000  0.374538  0.798863  1
  Fe  Fe20  1  0.250000  0.462394  0.932885  1
  Fe  Fe21  1  0.250000  0.037606  0.432885  1
  Fe  Fe22  1  0.750000  0.537606  0.067115  1
  Fe  Fe23  1  0.750000  0.962394  0.567115  1
  P  P24  1  0.250000  0.424308  0.114406  1
  P  P25  1  0.250000  0.075692  0.614406  1
  P  P26  1  0.750000  0.575692  0.885594  1
  P  P27  1  0.750000  0.924308  0.385594  1
  P  P28  1  0.250000  0.265291  0.865054  1
  P  P29  1  0.250000  0.234709  0.365054  1
  P  P30  1  0.750000  0.734709  0.134946  1
  P  P31  1  0.750000  0.765291  0.634946  1
  P  P32  1  0.250000  0.597551  0.392651  1
  P  P33  1  0.250000  0.902449  0.892651  1
  P  P34  1  0.750000  0.402449  0.607349  1
  P  P35  1  0.750000  0.097551  0.107349  1
