# generated using pymatgen
data_La5Pr5(Ga2Ru3)2
_symmetry_space_group_name_H-M   'P 1'
_cell_length_a   8.55559388
_cell_length_b   8.58398098
_cell_length_c   8.63255093
_cell_angle_alpha   109.38254289
_cell_angle_beta   109.30747124
_cell_angle_gamma   109.21560232
_symmetry_Int_Tables_number   1
_chemical_formula_structural   La5Pr5(Ga2Ru3)2
_chemical_formula_sum   'La5 Pr5 Ga4 Ru6'
_cell_volume   491.07621522
_cell_formula_units_Z   1
loop_
 _symmetry_equiv_pos_site_id
 _symmetry_equiv_pos_as_xyz
  1  'x, y, z'
loop_
 _atom_site_type_symbol
 _atom_site_label
 _atom_site_symmetry_multiplicity
 _atom_site_fract_x
 _atom_site_fract_y
 _atom_site_fract_z
 _atom_site_occupancy
  La  La0  1  0.253472  0.691545  0.442363  1
  La  La1  1  0.751547  0.811505  0.058526  1
  La  La2  1  0.441668  0.249639  0.689757  1
  La  La3  1  0.692606  0.442318  0.251844  1
  La  La4  1  0.061603  0.752079  0.811303  1
  Pr  Pr5  1  0.813719  0.062131  0.750290  1
  Pr  Pr6  1  0.218715  0.221147  0.219102  1
  Pr  Pr7  1  0.500426  0.997297  0.280896  1
  Pr  Pr8  1  0.282510  0.499721  0.997530  1
  Pr  Pr9  1  0.000085  0.282583  0.502986  1
  Ga  Ga10  1  0.589140  0.588397  0.588097  1
  Ga  Ga11  1  0.502055  0.003364  0.914890  1
  Ga  Ga12  1  0.915798  0.498043  0.000428  1
  Ga  Ga13  1  0.998929  0.914033  0.498781  1
  Ru  Ru14  1  0.245883  0.117613  0.863310  1
  Ru  Ru15  1  0.743673  0.375911  0.633371  1
  Ru  Ru16  1  0.864558  0.254666  0.126645  1
  Ru  Ru17  1  0.114323  0.865025  0.246773  1
  Ru  Ru18  1  0.627810  0.737707  0.373441  1
  Ru  Ru19  1  0.381480  0.635278  0.749667  1
