# generated using pymatgen
data_Er7LuTi11Si16Rh
_symmetry_space_group_name_H-M   'P 1'
_cell_length_a   7.00449520
_cell_length_b   7.00663458
_cell_length_c   12.79440308
_cell_angle_alpha   90.10352726
_cell_angle_beta   89.89931726
_cell_angle_gamma   89.73704451
_symmetry_Int_Tables_number   1
_chemical_formula_structural   Er7LuTi11Si16Rh
_chemical_formula_sum   'Er7 Lu1 Ti11 Si16 Rh1'
_cell_volume   627.91430764
_cell_formula_units_Z   1
loop_
 _symmetry_equiv_pos_site_id
 _symmetry_equiv_pos_as_xyz
  1  'x, y, z'
loop_
 _atom_site_type_symbol
 _atom_site_label
 _atom_site_symmetry_multiplicity
 _atom_site_fract_x
 _atom_site_fract_y
 _atom_site_fract_z
 _atom_site_occupancy
  Er  Er0  1  0.497973  0.841647  0.717846  1
  Er  Er1  1  0.500803  0.157709  0.215104  1
  Er  Er2  1  0.841436  0.498078  0.282148  1
  Er  Er3  1  0.157864  0.500791  0.784954  1
  Er  Er4  1  0.656918  0.998663  0.968090  1
  Er  Er5  1  0.002842  0.340903  0.532265  1
  Er  Er6  1  0.998673  0.656902  0.031977  1
  Lu  Lu7  1  0.341506  0.001750  0.467511  1
  Ti  Ti8  1  0.174644  0.827250  0.247840  1
  Ti  Ti9  1  0.827102  0.174530  0.752223  1
  Ti  Ti10  1  0.671865  0.672395  0.499977  1
  Ti  Ti11  1  0.150739  0.001673  0.875049  1
  Ti  Ti12  1  0.494299  0.655215  0.125501  1
  Ti  Ti13  1  0.506244  0.351047  0.627069  1
  Ti  Ti14  1  0.655127  0.494323  0.874618  1
  Ti  Ti15  1  0.351088  0.506630  0.372738  1
  Ti  Ti16  1  0.850576  0.994969  0.375134  1
  Ti  Ti17  1  0.001855  0.150596  0.125019  1
  Ti  Ti18  1  0.994946  0.850629  0.624645  1
  Si  Si19  1  0.203287  0.133680  0.684410  1
  Si  Si20  1  0.370811  0.704404  0.933786  1
  Si  Si21  1  0.631027  0.294278  0.432977  1
  Si  Si22  1  0.704356  0.370750  0.066292  1
  Si  Si23  1  0.295250  0.632740  0.566666  1
  Si  Si24  1  0.796393  0.867025  0.183545  1
  Si  Si25  1  0.134444  0.202450  0.315867  1
  Si  Si26  1  0.866999  0.796402  0.816507  1
  Si  Si27  1  0.287204  0.951211  0.063286  1
  Si  Si28  1  0.546411  0.792349  0.315291  1
  Si  Si29  1  0.448695  0.209809  0.817933  1
  Si  Si30  1  0.791775  0.546938  0.685013  1
  Si  Si31  1  0.209779  0.448684  0.182188  1
  Si  Si32  1  0.707682  0.047867  0.564977  1
  Si  Si33  1  0.951314  0.287143  0.936764  1
  Si  Si34  1  0.048684  0.709165  0.434680  1
  Rh  Rh35  1  0.329388  0.329402  0.000112  1
