# generated using pymatgen
data_MnCr20(OsC3)2
_symmetry_space_group_name_H-M   'P 1'
_cell_length_a   7.49540960
_cell_length_b   7.49567967
_cell_length_c   7.49531429
_cell_angle_alpha   60.00378502
_cell_angle_beta   60.00278883
_cell_angle_gamma   60.00409436
_symmetry_Int_Tables_number   1
_chemical_formula_structural   MnCr20(OsC3)2
_chemical_formula_sum   'Mn1 Cr20 Os2 C6'
_cell_volume   297.79421214
_cell_formula_units_Z   1
loop_
 _symmetry_equiv_pos_site_id
 _symmetry_equiv_pos_as_xyz
  1  'x, y, z'
loop_
 _atom_site_type_symbol
 _atom_site_label
 _atom_site_symmetry_multiplicity
 _atom_site_fract_x
 _atom_site_fract_y
 _atom_site_fract_z
 _atom_site_occupancy
  Mn  Mn0  1  0.000000  0.000000  0.000000  1
  Cr  Cr1  1  0.616401  0.616339  0.150865  1
  Cr  Cr2  1  0.616414  0.150822  0.616358  1
  Cr  Cr3  1  0.150787  0.616408  0.616412  1
  Cr  Cr4  1  0.616374  0.616386  0.616388  1
  Cr  Cr5  1  0.383599  0.383661  0.849135  1
  Cr  Cr6  1  0.383586  0.849178  0.383642  1
  Cr  Cr7  1  0.849213  0.383592  0.383588  1
  Cr  Cr8  1  0.383626  0.383614  0.383612  1
  Cr  Cr9  1  0.999996  0.999950  0.335605  1
  Cr  Cr10  1  0.664532  0.999907  0.335619  1
  Cr  Cr11  1  0.999979  0.664478  0.335572  1
  Cr  Cr12  1  0.664572  0.335531  0.999928  1
  Cr  Cr13  1  0.000015  0.335563  0.999978  1
  Cr  Cr14  1  0.000021  0.335522  0.664428  1
  Cr  Cr15  1  0.335428  0.664469  0.000072  1
  Cr  Cr16  1  0.335468  0.000093  0.664381  1
  Cr  Cr17  1  0.335443  0.000046  0.000053  1
  Cr  Cr18  1  0.000004  0.000050  0.664395  1
  Cr  Cr19  1  0.999985  0.664437  0.000022  1
  Cr  Cr20  1  0.664557  0.999954  0.999947  1
  Os  Os21  1  0.749983  0.750075  0.750011  1
  Os  Os22  1  0.250017  0.249925  0.249989  1
  C  C23  1  0.723900  0.723893  0.276101  1
  C  C24  1  0.276083  0.723914  0.276154  1
  C  C25  1  0.723968  0.276038  0.276101  1
  C  C26  1  0.276100  0.276107  0.723899  1
  C  C27  1  0.723917  0.276086  0.723846  1
  C  C28  1  0.276032  0.723962  0.723899  1
