# generated using pymatgen
data_LiLa3Mg2Pd2Ru
_symmetry_space_group_name_H-M   'P 1'
_cell_length_a   7.59509950
_cell_length_b   7.59604657
_cell_length_c   4.17211800
_cell_angle_alpha   90.00000000
_cell_angle_beta   90.00000000
_cell_angle_gamma   120.18671117
_symmetry_Int_Tables_number   1
_chemical_formula_structural   LiLa3Mg2Pd2Ru
_chemical_formula_sum   'Li1 La3 Mg2 Pd2 Ru1'
_cell_volume   208.05977757
_cell_formula_units_Z   1
loop_
 _symmetry_equiv_pos_site_id
 _symmetry_equiv_pos_as_xyz
  1  'x, y, z'
loop_
 _atom_site_type_symbol
 _atom_site_label
 _atom_site_symmetry_multiplicity
 _atom_site_fract_x
 _atom_site_fract_y
 _atom_site_fract_z
 _atom_site_occupancy
  Li  Li0  1  0.766418  0.768054  0.000000  1
  La  La1  1  0.435281  0.418722  0.500000  1
  La  La2  1  0.588716  0.015022  0.500000  1
  La  La3  1  0.981397  0.573299  0.500000  1
  Mg  Mg4  1  0.233981  0.998302  0.000000  1
  Mg  Mg5  1  0.000926  0.235473  0.000000  1
  Pd  Pd6  1  0.327235  0.663894  0.000000  1
  Pd  Pd7  1  0.003085  0.002935  0.500000  1
  Ru  Ru8  1  0.662961  0.324301  0.000000  1
