# generated using pymatgen
data_Ho9Er(Zn2Sb)2
_symmetry_space_group_name_H-M   'P 1'
_cell_length_a   8.50410216
_cell_length_b   8.50410257
_cell_length_c   8.50410301
_cell_angle_alpha   123.48633628
_cell_angle_beta   123.48634151
_cell_angle_gamma   84.06060897
_symmetry_Int_Tables_number   1
_chemical_formula_structural   Ho9Er(Zn2Sb)2
_chemical_formula_sum   'Ho9 Er1 Zn4 Sb2'
_cell_volume   409.55645178
_cell_formula_units_Z   1
loop_
 _symmetry_equiv_pos_site_id
 _symmetry_equiv_pos_as_xyz
  1  'x, y, z'
loop_
 _atom_site_type_symbol
 _atom_site_label
 _atom_site_symmetry_multiplicity
 _atom_site_fract_x
 _atom_site_fract_y
 _atom_site_fract_z
 _atom_site_occupancy
  Ho  Ho0  1  0.500000  0.500000  0.000000  1
  Ho  Ho1  1  0.510232  0.010172  0.809104  1
  Ho  Ho2  1  0.201069  0.701129  0.190896  1
  Ho  Ho3  1  0.010172  0.201069  0.499941  1
  Ho  Ho4  1  0.701129  0.510232  0.500059  1
  Ho  Ho5  1  0.489768  0.989828  0.190896  1
  Ho  Ho6  1  0.798931  0.298871  0.809104  1
  Ho  Ho7  1  0.989828  0.798931  0.500059  1
  Ho  Ho8  1  0.298871  0.489768  0.499941  1
  Er  Er9  1  0.000000  0.000000  0.000000  1
  Zn  Zn10  1  0.136494  0.636633  0.773129  1
  Zn  Zn11  1  0.863506  0.363367  0.226871  1
  Zn  Zn12  1  0.636633  0.863506  0.500139  1
  Zn  Zn13  1  0.363367  0.136494  0.499861  1
  Sb  Sb14  1  0.249906  0.249906  0.000000  1
  Sb  Sb15  1  0.750094  0.750094  0.000000  1
