# generated using pymatgen
data_Tb2MnSi2IrC
_symmetry_space_group_name_H-M   'P 1'
_cell_length_a   5.76884153
_cell_length_b   5.76884127
_cell_length_c   6.83711237
_cell_angle_alpha   126.42230613
_cell_angle_beta   126.42230607
_cell_angle_gamma   40.76471192
_symmetry_Int_Tables_number   1
_chemical_formula_structural   Tb2MnSi2IrC
_chemical_formula_sum   'Tb2 Mn1 Si2 Ir1 C1'
_cell_volume   114.96884350
_cell_formula_units_Z   1
loop_
 _symmetry_equiv_pos_site_id
 _symmetry_equiv_pos_as_xyz
  1  'x, y, z'
loop_
 _atom_site_type_symbol
 _atom_site_label
 _atom_site_symmetry_multiplicity
 _atom_site_fract_x
 _atom_site_fract_y
 _atom_site_fract_z
 _atom_site_occupancy
  Tb  Tb0  1  0.563569  0.563569  0.293894  1
  Tb  Tb1  1  0.437241  0.437241  0.703613  1
  Mn  Mn2  1  0.795226  0.795226  0.902260  1
  Si  Si3  1  0.852684  0.852684  0.300463  1
  Si  Si4  1  0.158978  0.158978  0.706354  1
  Ir  Ir5  1  0.205833  0.205833  0.104152  1
  C  C6  1  0.986467  0.986467  0.989261  1
