# generated using pymatgen
data_Ho2Lu2Sc(GaSi)2
_symmetry_space_group_name_H-M   'P 1'
_cell_length_a   7.25633000
_cell_length_b   7.56171700
_cell_length_c   14.57108800
_cell_angle_alpha   90.00000000
_cell_angle_beta   90.00000000
_cell_angle_gamma   90.00000000
_symmetry_Int_Tables_number   1
_chemical_formula_structural   Ho2Lu2Sc(GaSi)2
_chemical_formula_sum   'Ho8 Lu8 Sc4 Ga8 Si8'
_cell_volume   799.52017270
_cell_formula_units_Z   4
loop_
 _symmetry_equiv_pos_site_id
 _symmetry_equiv_pos_as_xyz
  1  'x, y, z'
loop_
 _atom_site_type_symbol
 _atom_site_label
 _atom_site_symmetry_multiplicity
 _atom_site_fract_x
 _atom_site_fract_y
 _atom_site_fract_z
 _atom_site_occupancy
  Ho  Ho0  1  0.012913  0.180295  0.100373  1
  Ho  Ho1  1  0.987087  0.819705  0.899627  1
  Ho  Ho2  1  0.487087  0.680295  0.899627  1
  Ho  Ho3  1  0.987087  0.819705  0.600373  1
  Ho  Ho4  1  0.512913  0.319705  0.100373  1
  Ho  Ho5  1  0.012913  0.180295  0.399627  1
  Ho  Ho6  1  0.512913  0.319705  0.399627  1
  Ho  Ho7  1  0.487087  0.680295  0.600373  1
  Lu  Lu8  1  0.329646  0.173822  0.624684  1
  Lu  Lu9  1  0.670354  0.826178  0.375316  1
  Lu  Lu10  1  0.170354  0.673822  0.375316  1
  Lu  Lu11  1  0.670354  0.826178  0.124684  1
  Lu  Lu12  1  0.829646  0.326178  0.624684  1
  Lu  Lu13  1  0.329646  0.173822  0.875316  1
  Lu  Lu14  1  0.829646  0.326178  0.875316  1
  Lu  Lu15  1  0.170354  0.673822  0.124684  1
  Sc  Sc16  1  0.164173  0.506518  0.750000  1
  Sc  Sc17  1  0.835827  0.493482  0.250000  1
  Sc  Sc18  1  0.335827  0.006518  0.250000  1
  Sc  Sc19  1  0.664173  0.993482  0.750000  1
  Ga  Ga20  1  0.161705  0.468060  0.540601  1
  Ga  Ga21  1  0.838295  0.531940  0.459399  1
  Ga  Ga22  1  0.338295  0.968060  0.459399  1
  Ga  Ga23  1  0.838295  0.531940  0.040601  1
  Ga  Ga24  1  0.661705  0.031940  0.540601  1
  Ga  Ga25  1  0.161705  0.468060  0.959399  1
  Ga  Ga26  1  0.661705  0.031940  0.959399  1
  Ga  Ga27  1  0.338295  0.968060  0.040601  1
  Si  Si28  1  0.028920  0.102464  0.750000  1
  Si  Si29  1  0.971080  0.897536  0.250000  1
  Si  Si30  1  0.471080  0.602464  0.250000  1
  Si  Si31  1  0.528920  0.397536  0.750000  1
  Si  Si32  1  0.282270  0.869436  0.750000  1
  Si  Si33  1  0.717730  0.130564  0.250000  1
  Si  Si34  1  0.217730  0.369436  0.250000  1
  Si  Si35  1  0.782270  0.630564  0.750000  1
