# generated using pymatgen
data_Yb5Pr(YSi2)4
_symmetry_space_group_name_H-M   'P 1'
_cell_length_a   7.43058400
_cell_length_b   7.84351718
_cell_length_c   15.11123713
_cell_angle_alpha   90.14452145
_cell_angle_beta   90.00000000
_cell_angle_gamma   90.00000000
_symmetry_Int_Tables_number   1
_chemical_formula_structural   Yb5Pr(YSi2)4
_chemical_formula_sum   'Yb10 Pr2 Y8 Si16'
_cell_volume   880.70900998
_cell_formula_units_Z   2
loop_
 _symmetry_equiv_pos_site_id
 _symmetry_equiv_pos_as_xyz
  1  'x, y, z'
loop_
 _atom_site_type_symbol
 _atom_site_label
 _atom_site_symmetry_multiplicity
 _atom_site_fract_x
 _atom_site_fract_y
 _atom_site_fract_z
 _atom_site_occupancy
  Yb  Yb0  1  0.528671  0.315494  0.597001  1
  Yb  Yb1  1  0.028671  0.184506  0.902999  1
  Yb  Yb2  1  0.029611  0.184111  0.596829  1
  Yb  Yb3  1  0.529611  0.315889  0.903171  1
  Yb  Yb4  1  0.470465  0.682993  0.402728  1
  Yb  Yb5  1  0.970465  0.817007  0.097272  1
  Yb  Yb6  1  0.353696  0.020750  0.749890  1
  Yb  Yb7  1  0.853696  0.479250  0.750110  1
  Yb  Yb8  1  0.145821  0.517063  0.250238  1
  Yb  Yb9  1  0.645821  0.982937  0.249762  1
  Pr  Pr10  1  0.970403  0.817078  0.403018  1
  Pr  Pr11  1  0.470403  0.682922  0.096982  1
  Y  Y12  1  0.314939  0.178435  0.121532  1
  Y  Y13  1  0.814939  0.321565  0.378468  1
  Y  Y14  1  0.186178  0.677969  0.878217  1
  Y  Y15  1  0.686178  0.822031  0.621783  1
  Y  Y16  1  0.314155  0.179061  0.378563  1
  Y  Y17  1  0.814155  0.320939  0.121437  1
  Y  Y18  1  0.186743  0.676611  0.622274  1
  Y  Y19  1  0.686743  0.823389  0.877726  1
  Si  Si20  1  0.857048  0.532582  0.537620  1
  Si  Si21  1  0.357048  0.967418  0.962380  1
  Si  Si22  1  0.642800  0.030073  0.461209  1
  Si  Si23  1  0.142800  0.469927  0.038791  1
  Si  Si24  1  0.141333  0.470350  0.461449  1
  Si  Si25  1  0.641333  0.029650  0.038551  1
  Si  Si26  1  0.355935  0.966903  0.537713  1
  Si  Si27  1  0.855935  0.533097  0.962287  1
  Si  Si28  1  0.978847  0.886583  0.750128  1
  Si  Si29  1  0.478847  0.613417  0.749872  1
  Si  Si30  1  0.522277  0.387393  0.249928  1
  Si  Si31  1  0.022277  0.112607  0.250072  1
  Si  Si32  1  0.249657  0.393191  0.750247  1
  Si  Si33  1  0.749657  0.106809  0.749753  1
  Si  Si34  1  0.251421  0.890381  0.249313  1
  Si  Si35  1  0.751421  0.609619  0.250687  1
