# generated using pymatgen
data_Pr16Mg3Ag(IrPt)2
_symmetry_space_group_name_H-M   'P 1'
_cell_length_a   10.07579317
_cell_length_b   10.07579329
_cell_length_c   10.06209392
_cell_angle_alpha   60.41976157
_cell_angle_beta   60.41976126
_cell_angle_gamma   60.48597136
_symmetry_Int_Tables_number   1
_chemical_formula_structural   Pr16Mg3Ag(IrPt)2
_chemical_formula_sum   'Pr16 Mg3 Ag1 Ir2 Pt2'
_cell_volume   729.53843796
_cell_formula_units_Z   1
loop_
 _symmetry_equiv_pos_site_id
 _symmetry_equiv_pos_as_xyz
  1  'x, y, z'
loop_
 _atom_site_type_symbol
 _atom_site_label
 _atom_site_symmetry_multiplicity
 _atom_site_fract_x
 _atom_site_fract_y
 _atom_site_fract_z
 _atom_site_occupancy
  Pr  Pr0  1  0.348054  0.348054  0.343600  1
  Pr  Pr1  1  0.349383  0.349383  0.956866  1
  Pr  Pr2  1  0.352949  0.953223  0.347835  1
  Pr  Pr3  1  0.953223  0.352949  0.347835  1
  Pr  Pr4  1  0.807267  0.189154  0.189243  1
  Pr  Pr5  1  0.188560  0.805826  0.812758  1
  Pr  Pr6  1  0.189154  0.807267  0.189243  1
  Pr  Pr7  1  0.805826  0.188560  0.812758  1
  Pr  Pr8  1  0.190097  0.190097  0.810009  1
  Pr  Pr9  1  0.810225  0.810225  0.187480  1
  Pr  Pr10  1  0.934472  0.564025  0.561137  1
  Pr  Pr11  1  0.562769  0.936828  0.935943  1
  Pr  Pr12  1  0.564025  0.934472  0.561137  1
  Pr  Pr13  1  0.936828  0.562769  0.935943  1
  Pr  Pr14  1  0.562585  0.562585  0.934022  1
  Pr  Pr15  1  0.936519  0.936519  0.561560  1
  Mg  Mg16  1  0.580125  0.580125  0.266913  1
  Mg  Mg17  1  0.579703  0.267368  0.579913  1
  Mg  Mg18  1  0.267368  0.579703  0.579913  1
  Ag  Ag19  1  0.581068  0.581068  0.580620  1
  Ir  Ir20  1  0.141813  0.573789  0.143811  1
  Ir  Ir21  1  0.573789  0.141813  0.143811  1
  Pt  Pt22  1  0.142090  0.142090  0.144319  1
  Pt  Pt23  1  0.142108  0.142108  0.573334  1
