# generated using pymatgen
data_Ho16Cd3AgRh4
_symmetry_space_group_name_H-M   'P 1'
_cell_length_a   9.54959040
_cell_length_b   9.54959058
_cell_length_c   9.56849133
_cell_angle_alpha   60.06532678
_cell_angle_beta   60.06532287
_cell_angle_gamma   59.99999753
_symmetry_Int_Tables_number   1
_chemical_formula_structural   Ho16Cd3AgRh4
_chemical_formula_sum   'Ho16 Cd3 Ag1 Rh4'
_cell_volume   617.62670934
_cell_formula_units_Z   1
loop_
 _symmetry_equiv_pos_site_id
 _symmetry_equiv_pos_as_xyz
  1  'x, y, z'
loop_
 _atom_site_type_symbol
 _atom_site_label
 _atom_site_symmetry_multiplicity
 _atom_site_fract_x
 _atom_site_fract_y
 _atom_site_fract_z
 _atom_site_occupancy
  Ho  Ho0  1  0.935618  0.935618  0.561911  1
  Ho  Ho1  1  0.564543  0.564543  0.935102  1
  Ho  Ho2  1  0.688215  0.688215  0.311953  1
  Ho  Ho3  1  0.149628  0.551220  0.149523  1
  Ho  Ho4  1  0.688151  0.311652  0.688544  1
  Ho  Ho5  1  0.149628  0.149628  0.149523  1
  Ho  Ho6  1  0.551220  0.149628  0.149523  1
  Ho  Ho7  1  0.688215  0.311617  0.311953  1
  Ho  Ho8  1  0.149883  0.149883  0.550351  1
  Ho  Ho9  1  0.311617  0.688215  0.311953  1
  Ho  Ho10  1  0.311652  0.688151  0.688544  1
  Ho  Ho11  1  0.935618  0.566853  0.561911  1
  Ho  Ho12  1  0.935811  0.564543  0.935102  1
  Ho  Ho13  1  0.566853  0.935618  0.561911  1
  Ho  Ho14  1  0.564543  0.935811  0.935102  1
  Ho  Ho15  1  0.311652  0.311652  0.688544  1
  Cd  Cd16  1  0.240987  0.919249  0.920514  1
  Cd  Cd17  1  0.919249  0.919249  0.920514  1
  Cd  Cd18  1  0.919249  0.240987  0.920514  1
  Ag  Ag19  1  0.917720  0.917720  0.246841  1
  Rh  Rh20  1  0.357202  0.357202  0.928394  1
  Rh  Rh21  1  0.357180  0.928383  0.357257  1
  Rh  Rh22  1  0.928383  0.357180  0.357257  1
  Rh  Rh23  1  0.357180  0.357180  0.357257  1
