# generated using pymatgen
data_Tb2HoAgSn3Ir2
_symmetry_space_group_name_H-M   'P 1'
_cell_length_a   7.68926165
_cell_length_b   7.70440196
_cell_length_c   3.88784400
_cell_angle_alpha   90.00000000
_cell_angle_beta   90.00000000
_cell_angle_gamma   119.98190886
_symmetry_Int_Tables_number   1
_chemical_formula_structural   Tb2HoAgSn3Ir2
_chemical_formula_sum   'Tb2 Ho1 Ag1 Sn3 Ir2'
_cell_volume   199.49966780
_cell_formula_units_Z   1
loop_
 _symmetry_equiv_pos_site_id
 _symmetry_equiv_pos_as_xyz
  1  'x, y, z'
loop_
 _atom_site_type_symbol
 _atom_site_label
 _atom_site_symmetry_multiplicity
 _atom_site_fract_x
 _atom_site_fract_y
 _atom_site_fract_z
 _atom_site_occupancy
  Tb  Tb0  1  0.385582  0.409572  0.500000  1
  Tb  Tb1  1  0.590085  0.976049  0.500000  1
  Ho  Ho2  1  0.025267  0.615601  0.500000  1
  Ag  Ag3  1  0.667760  0.334189  0.000000  1
  Sn  Sn4  1  0.744224  0.739130  0.000000  1
  Sn  Sn5  1  0.260035  0.003295  0.000000  1
  Sn  Sn6  1  0.995543  0.256735  0.000000  1
  Ir  Ir7  1  0.331312  0.666287  0.000000  1
  Ir  Ir8  1  0.000192  0.999143  0.500000  1
