# generated using pymatgen
data_Zr4Ta6ReRh
_symmetry_space_group_name_H-M   'P 1'
_cell_length_a   5.51087525
_cell_length_b   5.46295229
_cell_length_c   8.97557200
_cell_angle_alpha   90.00000000
_cell_angle_beta   90.00000000
_cell_angle_gamma   119.37526228
_symmetry_Int_Tables_number   1
_chemical_formula_structural   Zr4Ta6ReRh
_chemical_formula_sum   'Zr4 Ta6 Re1 Rh1'
_cell_volume   235.47265284
_cell_formula_units_Z   1
loop_
 _symmetry_equiv_pos_site_id
 _symmetry_equiv_pos_as_xyz
  1  'x, y, z'
loop_
 _atom_site_type_symbol
 _atom_site_label
 _atom_site_symmetry_multiplicity
 _atom_site_fract_x
 _atom_site_fract_y
 _atom_site_fract_z
 _atom_site_occupancy
  Zr  Zr0  1  0.332222  0.665406  0.438857  1
  Zr  Zr1  1  0.665700  0.328938  0.935676  1
  Zr  Zr2  1  0.665700  0.328938  0.564324  1
  Zr  Zr3  1  0.332222  0.665406  0.061143  1
  Ta  Ta4  1  0.658081  0.834443  0.750000  1
  Ta  Ta5  1  0.350093  0.183422  0.250000  1
  Ta  Ta6  1  0.833471  0.179826  0.250000  1
  Ta  Ta7  1  0.166491  0.341336  0.750000  1
  Ta  Ta8  1  0.997721  0.985290  0.495994  1
  Ta  Ta9  1  0.997721  0.985290  0.004006  1
  Re  Re10  1  0.167163  0.836113  0.750000  1
  Rh  Rh11  1  0.833414  0.665593  0.250000  1
