# generated using pymatgen
data_Tb3Y7Si5Ge
_symmetry_space_group_name_H-M   'P 1'
_cell_length_a   8.48121600
_cell_length_b   8.48330730
_cell_length_c   6.40245400
_cell_angle_alpha   90.00068434
_cell_angle_beta   89.99956904
_cell_angle_gamma   119.99209867
_symmetry_Int_Tables_number   1
_chemical_formula_structural   Tb3Y7Si5Ge
_chemical_formula_sum   'Tb3 Y7 Si5 Ge1'
_cell_volume   398.96518024
_cell_formula_units_Z   1
loop_
 _symmetry_equiv_pos_site_id
 _symmetry_equiv_pos_as_xyz
  1  'x, y, z'
loop_
 _atom_site_type_symbol
 _atom_site_label
 _atom_site_symmetry_multiplicity
 _atom_site_fract_x
 _atom_site_fract_y
 _atom_site_fract_z
 _atom_site_occupancy
  Tb  Tb0  1  0.333197  0.665837  0.499382  1
  Tb  Tb1  1  0.667364  0.334163  0.000624  1
  Tb  Tb2  1  0.667359  0.334164  0.499377  1
  Y  Y3  1  0.998945  0.755878  0.750024  1
  Y  Y4  1  0.999963  0.243327  0.249974  1
  Y  Y5  1  0.756604  0.756704  0.249974  1
  Y  Y6  1  0.757485  0.999967  0.750027  1
  Y  Y7  1  0.243031  0.244155  0.750025  1
  Y  Y8  1  0.242977  0.999965  0.249972  1
  Y  Y9  1  0.333195  0.665832  0.000629  1
  Si  Si10  1  0.394163  0.394193  0.249944  1
  Si  Si11  1  0.000136  0.605889  0.249945  1
  Si  Si12  1  0.000038  0.394240  0.750055  1
  Si  Si13  1  0.605711  0.605842  0.750057  1
  Si  Si14  1  0.605870  0.999915  0.249944  1
  Ge  Ge15  1  0.393961  0.999927  0.750046  1
