# generated using pymatgen
data_Dy12Y7Mg(Cd3Ru)2
_symmetry_space_group_name_H-M   'P 1'
_cell_length_a   9.58892000
_cell_length_b   9.58891886
_cell_length_c   9.75710600
_cell_angle_alpha   90.00000000
_cell_angle_beta   90.00000000
_cell_angle_gamma   120.00000393
_symmetry_Int_Tables_number   1
_chemical_formula_structural   Dy12Y7Mg(Cd3Ru)2
_chemical_formula_sum   'Dy12 Y7 Mg1 Cd6 Ru2'
_cell_volume   776.94625337
_cell_formula_units_Z   1
loop_
 _symmetry_equiv_pos_site_id
 _symmetry_equiv_pos_as_xyz
  1  'x, y, z'
loop_
 _atom_site_type_symbol
 _atom_site_label
 _atom_site_symmetry_multiplicity
 _atom_site_fract_x
 _atom_site_fract_y
 _atom_site_fract_z
 _atom_site_occupancy
  Dy  Dy0  1  0.207878  0.792122  0.439545  1
  Dy  Dy1  1  0.207878  0.415758  0.439545  1
  Dy  Dy2  1  0.584242  0.792122  0.439545  1
  Dy  Dy3  1  0.792122  0.207878  0.560455  1
  Dy  Dy4  1  0.792122  0.584242  0.560455  1
  Dy  Dy5  1  0.415758  0.207878  0.560455  1
  Dy  Dy6  1  0.789253  0.210747  0.941194  1
  Dy  Dy7  1  0.789253  0.578505  0.941194  1
  Dy  Dy8  1  0.421495  0.210747  0.941194  1
  Dy  Dy9  1  0.210747  0.789253  0.058806  1
  Dy  Dy10  1  0.210747  0.421495  0.058806  1
  Dy  Dy11  1  0.578505  0.789253  0.058806  1
  Y  Y12  1  0.000000  0.000000  0.000000  1
  Y  Y13  1  0.541161  0.458839  0.251745  1
  Y  Y14  1  0.541161  0.082321  0.251745  1
  Y  Y15  1  0.917679  0.458839  0.251745  1
  Y  Y16  1  0.458839  0.541161  0.748255  1
  Y  Y17  1  0.458839  0.917679  0.748255  1
  Y  Y18  1  0.082321  0.541161  0.748255  1
  Mg  Mg19  1  0.000000  0.000000  0.500000  1
  Cd  Cd20  1  0.887135  0.112865  0.256286  1
  Cd  Cd21  1  0.887135  0.774271  0.256286  1
  Cd  Cd22  1  0.225729  0.112865  0.256286  1
  Cd  Cd23  1  0.112865  0.887135  0.743714  1
  Cd  Cd24  1  0.112865  0.225729  0.743714  1
  Cd  Cd25  1  0.774271  0.887135  0.743714  1
  Ru  Ru26  1  0.333333  0.666667  0.250477  1
  Ru  Ru27  1  0.666667  0.333333  0.749523  1
