# generated using pymatgen
data_Dy6BiAuO14
_symmetry_space_group_name_H-M   'P 1'
_cell_length_a   6.53557145
_cell_length_b   6.53557163
_cell_length_c   7.56358126
_cell_angle_alpha   90.41910984
_cell_angle_beta   89.58089229
_cell_angle_gamma   109.35593174
_symmetry_Int_Tables_number   1
_chemical_formula_structural   Dy6BiAuO14
_chemical_formula_sum   'Dy6 Bi1 Au1 O14'
_cell_volume   304.79573160
_cell_formula_units_Z   1
loop_
 _symmetry_equiv_pos_site_id
 _symmetry_equiv_pos_as_xyz
  1  'x, y, z'
loop_
 _atom_site_type_symbol
 _atom_site_label
 _atom_site_symmetry_multiplicity
 _atom_site_fract_x
 _atom_site_fract_y
 _atom_site_fract_z
 _atom_site_occupancy
  Dy  Dy0  1  0.000434  0.469765  0.746273  1
  Dy  Dy1  1  0.500000  0.500000  0.000000  1
  Dy  Dy2  1  0.999566  0.530235  0.253727  1
  Dy  Dy3  1  0.469765  0.000434  0.253727  1
  Dy  Dy4  1  0.530235  0.999566  0.746273  1
  Dy  Dy5  1  0.500000  0.500000  0.500000  1
  Bi  Bi6  1  0.000000  0.000000  0.000000  1
  Au  Au7  1  0.000000  0.000000  0.500000  1
  O  O8  1  0.084431  0.330380  0.471424  1
  O  O9  1  0.917200  0.082800  0.739797  1
  O  O10  1  0.081683  0.337749  0.024378  1
  O  O11  1  0.915569  0.669620  0.528576  1
  O  O12  1  0.637026  0.362974  0.748372  1
  O  O13  1  0.669620  0.915569  0.471424  1
  O  O14  1  0.330380  0.084431  0.528576  1
  O  O15  1  0.337749  0.081683  0.975622  1
  O  O16  1  0.662251  0.918317  0.024378  1
  O  O17  1  0.918317  0.662251  0.975622  1
  O  O18  1  0.631839  0.368161  0.249839  1
  O  O19  1  0.362974  0.637026  0.251628  1
  O  O20  1  0.368161  0.631839  0.750161  1
  O  O21  1  0.082800  0.917200  0.260203  1
