# generated using pymatgen
data_HoTm4Cr3(Co4P3)4
_symmetry_space_group_name_H-M   'P 1'
_cell_length_a   11.95434100
_cell_length_b   11.95434126
_cell_length_c   3.65373000
_cell_angle_alpha   90.00000000
_cell_angle_beta   90.00000000
_cell_angle_gamma   120.00000206
_symmetry_Int_Tables_number   1
_chemical_formula_structural   HoTm4Cr3(Co4P3)4
_chemical_formula_sum   'Ho1 Tm4 Cr3 Co16 P12'
_cell_volume   452.18730257
_cell_formula_units_Z   1
loop_
 _symmetry_equiv_pos_site_id
 _symmetry_equiv_pos_as_xyz
  1  'x, y, z'
loop_
 _atom_site_type_symbol
 _atom_site_label
 _atom_site_symmetry_multiplicity
 _atom_site_fract_x
 _atom_site_fract_y
 _atom_site_fract_z
 _atom_site_occupancy
  Ho  Ho0  1  0.333333  0.666667  0.000000  1
  Tm  Tm1  1  0.666667  0.333333  0.000000  1
  Tm  Tm2  1  0.812905  0.812917  0.500000  1
  Tm  Tm3  1  0.187083  0.999988  0.500000  1
  Tm  Tm4  1  0.000012  0.187095  0.500000  1
  Cr  Cr5  1  0.445857  0.445722  0.000000  1
  Cr  Cr6  1  0.554278  0.000135  0.000000  1
  Cr  Cr7  1  0.999865  0.554143  0.000000  1
  Co  Co8  1  0.873161  0.355569  0.500000  1
  Co  Co9  1  0.644431  0.517592  0.500000  1
  Co  Co10  1  0.482408  0.126839  0.500000  1
  Co  Co11  1  0.355610  0.873988  0.500000  1
  Co  Co12  1  0.518378  0.644390  0.500000  1
  Co  Co13  1  0.126012  0.481622  0.500000  1
  Co  Co14  1  0.800474  0.177193  0.000000  1
  Co  Co15  1  0.822807  0.623279  0.000000  1
  Co  Co16  1  0.376721  0.199526  0.000000  1
  Co  Co17  1  0.176849  0.800668  0.000000  1
  Co  Co18  1  0.623818  0.823151  0.000000  1
  Co  Co19  1  0.199332  0.376182  0.000000  1
  Co  Co20  1  0.282112  0.281810  0.500000  1
  Co  Co21  1  0.718190  0.000303  0.500000  1
  Co  Co22  1  0.999697  0.717888  0.500000  1
  Co  Co23  1  0.000000  0.000000  0.000000  1
  P  P24  1  0.682512  0.163242  0.500000  1
  P  P25  1  0.836758  0.519270  0.500000  1
  P  P26  1  0.480730  0.317488  0.500000  1
  P  P27  1  0.162372  0.682443  0.500000  1
  P  P28  1  0.520071  0.837628  0.500000  1
  P  P29  1  0.317557  0.479929  0.500000  1
  P  P30  1  0.178543  0.178414  0.000000  1
  P  P31  1  0.821586  0.000129  0.000000  1
  P  P32  1  0.999871  0.821457  0.000000  1
  P  P33  1  0.634062  0.634078  0.000000  1
  P  P34  1  0.365922  0.999984  0.000000  1
  P  P35  1  0.000016  0.365938  0.000000  1
