# generated using pymatgen
data_Ca18YbCd8N7
_symmetry_space_group_name_H-M   'P 1'
_cell_length_a   10.44271442
_cell_length_b   10.44710234
_cell_length_c   10.44482579
_cell_angle_alpha   60.08012069
_cell_angle_beta   60.07837377
_cell_angle_gamma   60.07923352
_symmetry_Int_Tables_number   1
_chemical_formula_structural   Ca18YbCd8N7
_chemical_formula_sum   'Ca18 Yb1 Cd8 N7'
_cell_volume   807.18787394
_cell_formula_units_Z   1
loop_
 _symmetry_equiv_pos_site_id
 _symmetry_equiv_pos_as_xyz
  1  'x, y, z'
loop_
 _atom_site_type_symbol
 _atom_site_label
 _atom_site_symmetry_multiplicity
 _atom_site_fract_x
 _atom_site_fract_y
 _atom_site_fract_z
 _atom_site_occupancy
  Ca  Ca0  1  0.174941  0.499969  0.825086  1
  Ca  Ca1  1  0.499965  0.825030  0.174999  1
  Ca  Ca2  1  0.825013  0.174930  0.500066  1
  Ca  Ca3  1  0.165560  0.834394  0.165590  1
  Ca  Ca4  1  0.825059  0.500031  0.174914  1
  Ca  Ca5  1  0.174987  0.825070  0.499934  1
  Ca  Ca6  1  0.165527  0.165598  0.834432  1
  Ca  Ca7  1  0.174912  0.500056  0.500036  1
  Ca  Ca8  1  0.834473  0.834402  0.165568  1
  Ca  Ca9  1  0.834440  0.165606  0.834410  1
  Ca  Ca10  1  0.499923  0.825082  0.499903  1
  Ca  Ca11  1  0.500045  0.500085  0.174915  1
  Ca  Ca12  1  0.165534  0.834428  0.834466  1
  Ca  Ca13  1  0.500035  0.174970  0.825001  1
  Ca  Ca14  1  0.500077  0.174918  0.500097  1
  Ca  Ca15  1  0.825088  0.499944  0.499964  1
  Ca  Ca16  1  0.834466  0.165572  0.165534  1
  Ca  Ca17  1  0.499955  0.499915  0.825085  1
  Yb  Yb18  1  0.500000  0.500000  0.500000  1
  Cd  Cd19  1  0.174510  0.174491  0.476187  1
  Cd  Cd20  1  0.825509  0.523730  0.825519  1
  Cd  Cd21  1  0.476128  0.174505  0.174514  1
  Cd  Cd22  1  0.174491  0.476270  0.174481  1
  Cd  Cd23  1  0.523872  0.825495  0.825486  1
  Cd  Cd24  1  0.174651  0.174609  0.174631  1
  Cd  Cd25  1  0.825349  0.825391  0.825369  1
  Cd  Cd26  1  0.825490  0.825509  0.523813  1
  N  N27  1  0.672846  0.327239  0.672822  1
  N  N28  1  0.672799  0.327144  0.327116  1
  N  N29  1  0.327201  0.672856  0.672884  1
  N  N30  1  0.327154  0.672761  0.327178  1
  N  N31  1  0.327120  0.327174  0.672781  1
  N  N32  1  0.672880  0.672826  0.327219  1
  N  N33  1  0.000000  0.000000  0.000000  1
