# generated using pymatgen
data_Mn2AlV17Si11As
_symmetry_space_group_name_H-M   'P 1'
_cell_length_a   7.02522513
_cell_length_b   7.02742875
_cell_length_c   13.24173600
_cell_angle_alpha   90.00000000
_cell_angle_beta   90.00000000
_cell_angle_gamma   140.73676361
_symmetry_Int_Tables_number   1
_chemical_formula_structural   Mn2AlV17Si11As
_chemical_formula_sum   'Mn2 Al1 V17 Si11 As1'
_cell_volume   413.73845014
_cell_formula_units_Z   1
loop_
 _symmetry_equiv_pos_site_id
 _symmetry_equiv_pos_as_xyz
  1  'x, y, z'
loop_
 _atom_site_type_symbol
 _atom_site_label
 _atom_site_symmetry_multiplicity
 _atom_site_fract_x
 _atom_site_fract_y
 _atom_site_fract_z
 _atom_site_occupancy
  Mn  Mn0  1  0.498761  0.494245  0.500000  1
  Mn  Mn1  1  0.000715  0.001029  0.000000  1
  Al  Al2  1  0.500903  0.500991  0.000000  1
  V  V3  1  0.068753  0.422549  0.398929  1
  V  V4  1  0.569678  0.924355  0.900076  1
  V  V5  1  0.420442  0.070246  0.600718  1
  V  V6  1  0.924556  0.568978  0.099722  1
  V  V7  1  0.853144  0.654723  0.676227  1
  V  V8  1  0.353769  0.154205  0.177499  1
  V  V9  1  0.654367  0.852805  0.321881  1
  V  V10  1  0.153672  0.353612  0.823046  1
  V  V11  1  0.654367  0.852805  0.678119  1
  V  V12  1  0.153672  0.353612  0.176954  1
  V  V13  1  0.853144  0.654723  0.323773  1
  V  V14  1  0.353769  0.154205  0.822501  1
  V  V15  1  0.420442  0.070246  0.399282  1
  V  V16  1  0.924556  0.568978  0.900278  1
  V  V17  1  0.068753  0.422549  0.601071  1
  V  V18  1  0.569678  0.924355  0.099924  1
  V  V19  1  0.004219  0.999844  0.500000  1
  Si  Si20  1  0.249519  0.749829  0.750639  1
  Si  Si21  1  0.749860  0.250393  0.249438  1
  Si  Si22  1  0.749860  0.250393  0.750562  1
  Si  Si23  1  0.249519  0.749829  0.249361  1
  Si  Si24  1  0.256614  0.257743  0.663567  1
  Si  Si25  1  0.766736  0.765866  0.162642  1
  Si  Si26  1  0.256614  0.257743  0.336433  1
  Si  Si27  1  0.766736  0.765866  0.837358  1
  Si  Si28  1  0.073029  0.398237  0.000000  1
  Si  Si29  1  0.903578  0.576335  0.500000  1
  Si  Si30  1  0.398015  0.072624  0.000000  1
  As  As31  1  0.578558  0.906092  0.500000  1
