# generated using pymatgen
data_CeSmZnRu2
_symmetry_space_group_name_H-M   'P 1'
_cell_length_a   5.73217610
_cell_length_b   5.73217763
_cell_length_c   7.13400282
_cell_angle_alpha   86.13519201
_cell_angle_beta   93.86481070
_cell_angle_gamma   117.53619638
_symmetry_Int_Tables_number   1
_chemical_formula_structural   CeSmZnRu2
_chemical_formula_sum   'Ce2 Sm2 Zn2 Ru4'
_cell_volume   207.20725402
_cell_formula_units_Z   2
loop_
 _symmetry_equiv_pos_site_id
 _symmetry_equiv_pos_as_xyz
  1  'x, y, z'
loop_
 _atom_site_type_symbol
 _atom_site_label
 _atom_site_symmetry_multiplicity
 _atom_site_fract_x
 _atom_site_fract_y
 _atom_site_fract_z
 _atom_site_occupancy
  Ce  Ce0  1  0.172642  0.827358  0.579439  1
  Ce  Ce1  1  0.827358  0.172642  0.420561  1
  Sm  Sm2  1  0.347054  0.652946  0.091162  1
  Sm  Sm3  1  0.652946  0.347054  0.908838  1
  Zn  Zn4  1  0.000000  0.000000  0.000000  1
  Zn  Zn5  1  0.500000  0.500000  0.500000  1
  Ru  Ru6  1  0.870413  0.635906  0.268438  1
  Ru  Ru7  1  0.635906  0.870413  0.731562  1
  Ru  Ru8  1  0.129587  0.364094  0.731562  1
  Ru  Ru9  1  0.364094  0.129587  0.268438  1
