# generated using pymatgen
data_Tb6Tm10MgHg3Rh4
_symmetry_space_group_name_H-M   'P 1'
_cell_length_a   9.53801985
_cell_length_b   9.51856458
_cell_length_c   9.51856500
_cell_angle_alpha   60.00000201
_cell_angle_beta   60.06745380
_cell_angle_gamma   60.06745672
_symmetry_Int_Tables_number   1
_chemical_formula_structural   Tb6Tm10MgHg3Rh4
_chemical_formula_sum   'Tb6 Tm10 Mg1 Hg3 Rh4'
_cell_volume   611.68554847
_cell_formula_units_Z   1
loop_
 _symmetry_equiv_pos_site_id
 _symmetry_equiv_pos_as_xyz
  1  'x, y, z'
loop_
 _atom_site_type_symbol
 _atom_site_label
 _atom_site_symmetry_multiplicity
 _atom_site_fract_x
 _atom_site_fract_y
 _atom_site_fract_z
 _atom_site_occupancy
  Tb  Tb0  1  0.936525  0.563009  0.563009  1
  Tb  Tb1  1  0.561640  0.937649  0.937649  1
  Tb  Tb2  1  0.561640  0.937649  0.563063  1
  Tb  Tb3  1  0.936525  0.563009  0.937456  1
  Tb  Tb4  1  0.561640  0.563063  0.937649  1
  Tb  Tb5  1  0.936525  0.937456  0.563009  1
  Tm  Tm6  1  0.350923  0.348655  0.348655  1
  Tm  Tm7  1  0.350923  0.348655  0.951768  1
  Tm  Tm8  1  0.350923  0.951768  0.348655  1
  Tm  Tm9  1  0.941734  0.352756  0.352756  1
  Tm  Tm10  1  0.811471  0.188219  0.188219  1
  Tm  Tm11  1  0.184158  0.814806  0.814806  1
  Tm  Tm12  1  0.184158  0.814806  0.186229  1
  Tm  Tm13  1  0.811471  0.188219  0.812093  1
  Tm  Tm14  1  0.184158  0.186229  0.814806  1
  Tm  Tm15  1  0.811471  0.812093  0.188219  1
  Mg  Mg16  1  0.285744  0.571419  0.571419  1
  Hg  Hg17  1  0.581021  0.585637  0.585637  1
  Hg  Hg18  1  0.581021  0.585637  0.247706  1
  Hg  Hg19  1  0.581021  0.247706  0.585637  1
  Rh  Rh20  1  0.141337  0.143978  0.143978  1
  Rh  Rh21  1  0.141337  0.143978  0.570706  1
  Rh  Rh22  1  0.141337  0.570706  0.143978  1
  Rh  Rh23  1  0.571297  0.142901  0.142901  1
