# generated using pymatgen
data_DyBi3Ir3RhO14
_symmetry_space_group_name_H-M   'P 1'
_cell_length_a   7.34816203
_cell_length_b   7.33494967
_cell_length_c   7.34816200
_cell_angle_alpha   59.94039608
_cell_angle_beta   60.00000014
_cell_angle_gamma   59.94039343
_symmetry_Int_Tables_number   1
_chemical_formula_structural   DyBi3Ir3RhO14
_chemical_formula_sum   'Dy1 Bi3 Ir3 Rh1 O14'
_cell_volume   279.80001224
_cell_formula_units_Z   1
loop_
 _symmetry_equiv_pos_site_id
 _symmetry_equiv_pos_as_xyz
  1  'x, y, z'
loop_
 _atom_site_type_symbol
 _atom_site_label
 _atom_site_symmetry_multiplicity
 _atom_site_fract_x
 _atom_site_fract_y
 _atom_site_fract_z
 _atom_site_occupancy
  Dy  Dy0  1  0.125000  0.625000  0.125000  1
  Bi  Bi1  1  0.125000  0.125000  0.125000  1
  Bi  Bi2  1  0.625000  0.125000  0.125000  1
  Bi  Bi3  1  0.125000  0.125000  0.625000  1
  Ir  Ir4  1  0.625000  0.625000  0.625000  1
  Ir  Ir5  1  0.625000  0.625000  0.125000  1
  Ir  Ir6  1  0.125000  0.625000  0.625000  1
  Rh  Rh7  1  0.625000  0.125000  0.625000  1
  O  O8  1  0.246792  0.259625  0.246792  1
  O  O9  1  0.291114  0.701069  0.291114  1
  O  O10  1  0.961003  0.953632  0.542683  1
  O  O11  1  0.542683  0.953632  0.542683  1
  O  O12  1  0.716703  0.701069  0.291114  1
  O  O13  1  0.958886  0.548931  0.533297  1
  O  O14  1  0.707317  0.296368  0.707317  1
  O  O15  1  0.288997  0.296368  0.707317  1
  O  O16  1  0.707317  0.296368  0.288997  1
  O  O17  1  0.291114  0.701069  0.716703  1
  O  O18  1  0.958886  0.548931  0.958886  1
  O  O19  1  0.533297  0.548931  0.958886  1
  O  O20  1  0.003208  0.990375  0.003208  1
  O  O21  1  0.542683  0.953632  0.961003  1
