# generated using pymatgen
data_Mn3ZnP7N12
_symmetry_space_group_name_H-M   'P 1'
_cell_length_a   7.19214676
_cell_length_b   7.19214635
_cell_length_c   7.21790700
_cell_angle_alpha   109.54379335
_cell_angle_beta   109.54379218
_cell_angle_gamma   109.39855683
_symmetry_Int_Tables_number   1
_chemical_formula_structural   Mn3ZnP7N12
_chemical_formula_sum   'Mn3 Zn1 P7 N12'
_cell_volume   287.15518511
_cell_formula_units_Z   1
loop_
 _symmetry_equiv_pos_site_id
 _symmetry_equiv_pos_as_xyz
  1  'x, y, z'
loop_
 _atom_site_type_symbol
 _atom_site_label
 _atom_site_symmetry_multiplicity
 _atom_site_fract_x
 _atom_site_fract_y
 _atom_site_fract_z
 _atom_site_occupancy
  Mn  Mn0  1  0.000000  0.329310  0.997749  1
  Mn  Mn1  1  0.670690  0.670690  0.668440  1
  Mn  Mn2  1  0.329310  0.000000  0.997749  1
  Zn  Zn3  1  0.000000  0.000000  0.327951  1
  P  P4  1  0.750427  0.249300  0.499547  1
  P  P5  1  0.249300  0.750427  0.499547  1
  P  P6  1  0.501127  0.750700  0.250247  1
  P  P7  1  0.498873  0.249573  0.749120  1
  P  P8  1  0.750700  0.501127  0.250247  1
  P  P9  1  0.249573  0.498873  0.749120  1
  P  P10  1  0.000000  0.000000  0.006364  1
  N  N11  1  0.556817  0.274013  0.999877  1
  N  N12  1  0.445606  0.445606  0.718699  1
  N  N13  1  0.000000  0.271031  0.557488  1
  N  N14  1  0.271031  0.000000  0.557488  1
  N  N15  1  0.717195  0.443183  0.443060  1
  N  N16  1  0.000000  0.554394  0.273093  1
  N  N17  1  0.554394  0.000000  0.273093  1
  N  N18  1  0.443183  0.717195  0.443060  1
  N  N19  1  0.274013  0.556817  0.999877  1
  N  N20  1  0.725987  0.282805  0.725864  1
  N  N21  1  0.728969  0.728969  0.286456  1
  N  N22  1  0.282805  0.725987  0.725864  1
