# generated using pymatgen
data_DyThCoNi7B2
_symmetry_space_group_name_H-M   'P 1'
_cell_length_a   4.97754400
_cell_length_b   5.00269922
_cell_length_c   7.00838100
_cell_angle_alpha   90.00000000
_cell_angle_beta   90.00000000
_cell_angle_gamma   119.83380311
_symmetry_Int_Tables_number   1
_chemical_formula_structural   DyThCoNi7B2
_chemical_formula_sum   'Dy1 Th1 Co1 Ni7 B2'
_cell_volume   151.38844203
_cell_formula_units_Z   1
loop_
 _symmetry_equiv_pos_site_id
 _symmetry_equiv_pos_as_xyz
  1  'x, y, z'
loop_
 _atom_site_type_symbol
 _atom_site_label
 _atom_site_symmetry_multiplicity
 _atom_site_fract_x
 _atom_site_fract_y
 _atom_site_fract_z
 _atom_site_occupancy
  Dy  Dy0  1  0.500000  0.000000  0.501038  1
  Th  Th1  1  0.500000  0.000000  0.996134  1
  Co  Co2  1  0.000000  0.000000  0.702927  1
  Ni  Ni3  1  0.834862  0.669723  0.999876  1
  Ni  Ni4  1  0.165138  0.330277  0.999876  1
  Ni  Ni5  1  0.500000  0.500000  0.706606  1
  Ni  Ni6  1  0.000000  0.500000  0.706606  1
  Ni  Ni7  1  0.000000  0.000000  0.293787  1
  Ni  Ni8  1  0.500000  0.500000  0.294609  1
  Ni  Ni9  1  0.000000  0.500000  0.294609  1
  B  B10  1  0.835926  0.671850  0.501966  1
  B  B11  1  0.164074  0.328150  0.501966  1
