# generated using pymatgen
data_DyCu3PtAu
_symmetry_space_group_name_H-M   'P 1'
_cell_length_a   5.07970275
_cell_length_b   5.07970322
_cell_length_c   5.16657117
_cell_angle_alpha   60.55464959
_cell_angle_beta   60.55464050
_cell_angle_gamma   59.99999961
_symmetry_Int_Tables_number   1
_chemical_formula_structural   DyCu3PtAu
_chemical_formula_sum   'Dy1 Cu3 Pt1 Au1'
_cell_volume   95.05052532
_cell_formula_units_Z   1
loop_
 _symmetry_equiv_pos_site_id
 _symmetry_equiv_pos_as_xyz
  1  'x, y, z'
loop_
 _atom_site_type_symbol
 _atom_site_label
 _atom_site_symmetry_multiplicity
 _atom_site_fract_x
 _atom_site_fract_y
 _atom_site_fract_z
 _atom_site_occupancy
  Dy  Dy0  1  0.997829  0.997829  0.006512  1
  Cu  Cu1  1  0.626787  0.129825  0.616602  1
  Cu  Cu2  1  0.129825  0.626787  0.616602  1
  Cu  Cu3  1  0.626787  0.626787  0.616602  1
  Pt  Pt4  1  0.628053  0.628053  0.115841  1
  Au  Au5  1  0.240719  0.240719  0.277842  1
