# generated using pymatgen
data_Th2B(IrRh2)2
_symmetry_space_group_name_H-M   'P 1'
_cell_length_a   5.96505042
_cell_length_b   5.96504908
_cell_length_c   5.93842600
_cell_angle_alpha   60.14752019
_cell_angle_beta   60.14752755
_cell_angle_gamma   59.77160632
_symmetry_Int_Tables_number   1
_chemical_formula_structural   Th2B(IrRh2)2
_chemical_formula_sum   'Th2 B1 Ir2 Rh4'
_cell_volume   149.48263761
_cell_formula_units_Z   1
loop_
 _symmetry_equiv_pos_site_id
 _symmetry_equiv_pos_as_xyz
  1  'x, y, z'
loop_
 _atom_site_type_symbol
 _atom_site_label
 _atom_site_symmetry_multiplicity
 _atom_site_fract_x
 _atom_site_fract_y
 _atom_site_fract_z
 _atom_site_occupancy
  Th  Th0  1  0.750131  0.750131  0.749906  1
  Th  Th1  1  0.249869  0.249869  0.250168  1
  B  B2  1  0.000000  0.000000  0.999198  1
  Ir  Ir3  1  0.744179  0.255821  0.745134  1
  Ir  Ir4  1  0.255821  0.744179  0.745134  1
  Rh  Rh5  1  0.744321  0.744321  0.256036  1
  Rh  Rh6  1  0.254557  0.745443  0.254874  1
  Rh  Rh7  1  0.745443  0.254557  0.254874  1
  Rh  Rh8  1  0.255679  0.255679  0.744676  1
