# generated using pymatgen
data_K4PaSbBr12
_symmetry_space_group_name_H-M   'P 1'
_cell_length_a   7.86915800
_cell_length_b   7.86915800
_cell_length_c   11.69922200
_cell_angle_alpha   90.00000000
_cell_angle_beta   90.00000000
_cell_angle_gamma   90.00000000
_symmetry_Int_Tables_number   1
_chemical_formula_structural   K4PaSbBr12
_chemical_formula_sum   'K4 Pa1 Sb1 Br12'
_cell_volume   724.45850066
_cell_formula_units_Z   1
loop_
 _symmetry_equiv_pos_site_id
 _symmetry_equiv_pos_as_xyz
  1  'x, y, z'
loop_
 _atom_site_type_symbol
 _atom_site_label
 _atom_site_symmetry_multiplicity
 _atom_site_fract_x
 _atom_site_fract_y
 _atom_site_fract_z
 _atom_site_occupancy
  K  K0  1  0.500000  0.000000  0.812294  1
  K  K1  1  0.500000  0.000000  0.187706  1
  K  K2  1  0.000000  0.500000  0.187706  1
  K  K3  1  0.000000  0.500000  0.812294  1
  Pa  Pa4  1  0.500000  0.500000  0.500000  1
  Sb  Sb5  1  0.000000  0.000000  0.000000  1
  Br  Br6  1  0.749400  0.259233  0.000000  1
  Br  Br7  1  0.250600  0.740767  0.000000  1
  Br  Br8  1  0.500000  0.500000  0.264901  1
  Br  Br9  1  0.314146  0.209534  0.500000  1
  Br  Br10  1  0.259233  0.250600  0.000000  1
  Br  Br11  1  0.790466  0.314146  0.500000  1
  Br  Br12  1  0.000000  0.000000  0.241163  1
  Br  Br13  1  0.685854  0.790466  0.500000  1
  Br  Br14  1  0.209534  0.685854  0.500000  1
  Br  Br15  1  0.500000  0.500000  0.735099  1
  Br  Br16  1  0.740767  0.749400  0.000000  1
  Br  Br17  1  0.000000  0.000000  0.758837  1
