# generated using pymatgen
data_Ti2AlSnPt12
_symmetry_space_group_name_H-M   'P 1'
_cell_length_a   5.61246465
_cell_length_b   5.61246406
_cell_length_c   7.97934100
_cell_angle_alpha   90.00000000
_cell_angle_beta   90.00000000
_cell_angle_gamma   89.98678997
_symmetry_Int_Tables_number   1
_chemical_formula_structural   Ti2AlSnPt12
_chemical_formula_sum   'Ti2 Al1 Sn1 Pt12'
_cell_volume   251.34728919
_cell_formula_units_Z   1
loop_
 _symmetry_equiv_pos_site_id
 _symmetry_equiv_pos_as_xyz
  1  'x, y, z'
loop_
 _atom_site_type_symbol
 _atom_site_label
 _atom_site_symmetry_multiplicity
 _atom_site_fract_x
 _atom_site_fract_y
 _atom_site_fract_z
 _atom_site_occupancy
  Ti  Ti0  1  0.500000  0.000000  0.250020  1
  Ti  Ti1  1  0.000000  0.500000  0.250135  1
  Al  Al2  1  0.000000  0.500000  0.749868  1
  Sn  Sn3  1  0.500000  0.000000  0.750071  1
  Pt  Pt4  1  0.244670  0.255330  0.007308  1
  Pt  Pt5  1  0.750430  0.250430  0.007845  1
  Pt  Pt6  1  0.249570  0.749570  0.007845  1
  Pt  Pt7  1  0.755330  0.744670  0.007308  1
  Pt  Pt8  1  0.000000  0.000000  0.249979  1
  Pt  Pt9  1  0.500000  0.500000  0.249979  1
  Pt  Pt10  1  0.752711  0.252711  0.492376  1
  Pt  Pt11  1  0.247035  0.252965  0.492437  1
  Pt  Pt12  1  0.752965  0.747035  0.492437  1
  Pt  Pt13  1  0.247289  0.747289  0.492376  1
  Pt  Pt14  1  0.000000  0.000000  0.750008  1
  Pt  Pt15  1  0.500000  0.500000  0.750008  1
