# generated using pymatgen
data_TbYb7AsPd24
_symmetry_space_group_name_H-M   'P 1'
_cell_length_a   8.29293023
_cell_length_b   8.29293045
_cell_length_c   8.29293000
_cell_angle_alpha   89.98665183
_cell_angle_beta   90.01334817
_cell_angle_gamma   90.01335128
_symmetry_Int_Tables_number   1
_chemical_formula_structural   TbYb7AsPd24
_chemical_formula_sum   'Tb1 Yb7 As1 Pd24'
_cell_volume   570.32708737
_cell_formula_units_Z   1
loop_
 _symmetry_equiv_pos_site_id
 _symmetry_equiv_pos_as_xyz
  1  'x, y, z'
loop_
 _atom_site_type_symbol
 _atom_site_label
 _atom_site_symmetry_multiplicity
 _atom_site_fract_x
 _atom_site_fract_y
 _atom_site_fract_z
 _atom_site_occupancy
  Tb  Tb0  1  0.745870  0.254130  0.254130  1
  Yb  Yb1  1  0.252718  0.252721  0.252721  1
  Yb  Yb2  1  0.747013  0.747296  0.747296  1
  Yb  Yb3  1  0.747279  0.747282  0.252721  1
  Yb  Yb4  1  0.747279  0.252721  0.747282  1
  Yb  Yb5  1  0.252704  0.252987  0.747296  1
  Yb  Yb6  1  0.252704  0.747296  0.252987  1
  Yb  Yb7  1  0.253022  0.746978  0.746978  1
  As  As8  1  0.000560  0.999440  0.999440  1
  Pd  Pd9  1  0.260326  0.500376  0.000193  1
  Pd  Pd10  1  0.740007  0.500138  0.999613  1
  Pd  Pd11  1  0.000387  0.259993  0.500138  1
  Pd  Pd12  1  0.499862  0.259993  0.999613  1
  Pd  Pd13  1  0.999807  0.739674  0.500376  1
  Pd  Pd14  1  0.499624  0.739674  0.000193  1
  Pd  Pd15  1  0.499862  0.999613  0.259993  1
  Pd  Pd16  1  0.260326  0.000193  0.500376  1
  Pd  Pd17  1  0.499624  0.000193  0.739674  1
  Pd  Pd18  1  0.740007  0.999613  0.500138  1
  Pd  Pd19  1  0.000387  0.500138  0.259993  1
  Pd  Pd20  1  0.999807  0.500376  0.739674  1
  Pd  Pd21  1  0.252657  0.499833  0.499833  1
  Pd  Pd22  1  0.747301  0.500905  0.500905  1
  Pd  Pd23  1  0.499095  0.252699  0.500905  1
  Pd  Pd24  1  0.500167  0.747343  0.499833  1
  Pd  Pd25  1  0.499095  0.500905  0.252699  1
  Pd  Pd26  1  0.500167  0.499833  0.747343  1
  Pd  Pd27  1  0.290633  0.999948  0.999948  1
  Pd  Pd28  1  0.709589  0.998989  0.998989  1
  Pd  Pd29  1  0.001011  0.290411  0.998989  1
  Pd  Pd30  1  0.000052  0.709367  0.999948  1
  Pd  Pd31  1  0.001011  0.998989  0.290411  1
  Pd  Pd32  1  0.000052  0.999948  0.709367  1
