# generated using pymatgen
data_Tb9LuTl7InPt4
_symmetry_space_group_name_H-M   'P 1'
_cell_length_a   3.63898100
_cell_length_b   8.26515194
_cell_length_c   18.46435104
_cell_angle_alpha   89.87014059
_cell_angle_beta   90.00000000
_cell_angle_gamma   90.00000000
_symmetry_Int_Tables_number   1
_chemical_formula_structural   Tb9LuTl7InPt4
_chemical_formula_sum   'Tb9 Lu1 Tl7 In1 Pt4'
_cell_volume   555.34589044
_cell_formula_units_Z   1
loop_
 _symmetry_equiv_pos_site_id
 _symmetry_equiv_pos_as_xyz
  1  'x, y, z'
loop_
 _atom_site_type_symbol
 _atom_site_label
 _atom_site_symmetry_multiplicity
 _atom_site_fract_x
 _atom_site_fract_y
 _atom_site_fract_z
 _atom_site_occupancy
  Tb  Tb0  1  0.000000  0.884585  0.584691  1
  Tb  Tb1  1  0.000000  0.384801  0.913355  1
  Tb  Tb2  1  0.000000  0.615266  0.087467  1
  Tb  Tb3  1  0.000000  0.243451  0.221066  1
  Tb  Tb4  1  0.000000  0.757508  0.779343  1
  Tb  Tb5  1  0.000000  0.256613  0.719124  1
  Tb  Tb6  1  0.000000  0.741209  0.281885  1
  Tb  Tb7  1  0.000000  0.999846  0.000502  1
  Tb  Tb8  1  0.000000  0.502523  0.498764  1
  Lu  Lu9  1  0.000000  0.113759  0.411761  1
  Tl  Tl10  1  0.500000  0.418984  0.354151  1
  Tl  Tl11  1  0.500000  0.579714  0.646861  1
  Tl  Tl12  1  0.500000  0.079372  0.852335  1
  Tl  Tl13  1  0.500000  0.921414  0.149094  1
  Tl  Tl14  1  0.500000  0.292309  0.065540  1
  Tl  Tl15  1  0.500000  0.707505  0.934699  1
  Tl  Tl16  1  0.500000  0.206109  0.562180  1
  In  In17  1  0.500000  0.798283  0.434278  1
  Pt  Pt18  1  0.500000  0.023655  0.306587  1
  Pt  Pt19  1  0.500000  0.974296  0.695994  1
  Pt  Pt20  1  0.500000  0.473327  0.802555  1
  Pt  Pt21  1  0.500000  0.525469  0.197768  1
