# generated using pymatgen
data_Pr4Th4Ag7As16Au
_symmetry_space_group_name_H-M   'P 1'
_cell_length_a   5.84979054
_cell_length_b   5.84556100
_cell_length_c   20.75238775
_cell_angle_alpha   90.00000000
_cell_angle_beta   89.95179504
_cell_angle_gamma   90.00000000
_symmetry_Int_Tables_number   1
_chemical_formula_structural   Pr4Th4Ag7As16Au
_chemical_formula_sum   'Pr4 Th4 Ag7 As16 Au1'
_cell_volume   709.63402834
_cell_formula_units_Z   1
loop_
 _symmetry_equiv_pos_site_id
 _symmetry_equiv_pos_as_xyz
  1  'x, y, z'
loop_
 _atom_site_type_symbol
 _atom_site_label
 _atom_site_symmetry_multiplicity
 _atom_site_fract_x
 _atom_site_fract_y
 _atom_site_fract_z
 _atom_site_occupancy
  Pr  Pr0  1  0.751331  0.491705  0.611917  1
  Pr  Pr1  1  0.250114  0.507387  0.388885  1
  Pr  Pr2  1  0.248669  0.491705  0.888083  1
  Pr  Pr3  1  0.749886  0.507387  0.111115  1
  Th  Th4  1  0.247974  0.995011  0.613410  1
  Th  Th5  1  0.749795  0.006960  0.387506  1
  Th  Th6  1  0.752026  0.995011  0.886590  1
  Th  Th7  1  0.250205  0.006960  0.112494  1
  Ag  Ag8  1  0.500000  0.737888  0.750000  1
  Ag  Ag9  1  0.000000  0.262498  0.250000  1
  Ag  Ag10  1  0.500000  0.262605  0.250000  1
  Ag  Ag11  1  0.000000  0.734073  0.750000  1
  Ag  Ag12  1  0.500000  0.238873  0.750000  1
  Ag  Ag13  1  0.000000  0.762225  0.250000  1
  Ag  Ag14  1  0.500000  0.762143  0.250000  1
  As  As15  1  0.749167  0.991829  0.658004  1
  As  As16  1  0.249957  0.008406  0.341734  1
  As  As17  1  0.250833  0.991829  0.841996  1
  As  As18  1  0.750043  0.008406  0.158266  1
  As  As19  1  0.250220  0.492553  0.658533  1
  As  As20  1  0.750008  0.508417  0.341313  1
  As  As21  1  0.749780  0.492553  0.841467  1
  As  As22  1  0.249992  0.508417  0.158687  1
  As  As23  1  0.002455  0.241207  0.500275  1
  As  As24  1  0.502233  0.759168  0.500505  1
  As  As25  1  0.997545  0.241207  0.999725  1
  As  As26  1  0.497767  0.759168  0.999495  1
  As  As27  1  0.997429  0.759303  0.500364  1
  As  As28  1  0.497163  0.241401  0.500491  1
  As  As29  1  0.002571  0.759303  0.999636  1
  As  As30  1  0.502837  0.241401  0.999509  1
  Au  Au31  1  0.000000  0.233004  0.750000  1
