# generated using pymatgen
data_Nd2Fe2(Tc5C)3
_symmetry_space_group_name_H-M   'P 1'
_cell_length_a   6.95707429
_cell_length_b   6.95707488
_cell_length_c   6.95525718
_cell_angle_alpha   82.64268132
_cell_angle_beta   82.64267950
_cell_angle_gamma   82.99888538
_symmetry_Int_Tables_number   1
_chemical_formula_structural   Nd2Fe2(Tc5C)3
_chemical_formula_sum   'Nd2 Fe2 Tc15 C3'
_cell_volume   329.21036361
_cell_formula_units_Z   1
loop_
 _symmetry_equiv_pos_site_id
 _symmetry_equiv_pos_as_xyz
  1  'x, y, z'
loop_
 _atom_site_type_symbol
 _atom_site_label
 _atom_site_symmetry_multiplicity
 _atom_site_fract_x
 _atom_site_fract_y
 _atom_site_fract_z
 _atom_site_occupancy
  Nd  Nd0  1  0.649866  0.649866  0.649272  1
  Nd  Nd1  1  0.350134  0.350134  0.350728  1
  Fe  Fe2  1  0.500000  0.000000  0.000000  1
  Fe  Fe3  1  0.000000  0.500000  0.000000  1
  Tc  Tc4  1  0.000000  0.000000  0.500000  1
  Tc  Tc5  1  0.723201  0.276799  0.000000  1
  Tc  Tc6  1  0.000980  0.720368  0.273648  1
  Tc  Tc7  1  0.279632  0.999020  0.726352  1
  Tc  Tc8  1  0.999020  0.279632  0.726352  1
  Tc  Tc9  1  0.720368  0.000980  0.273648  1
  Tc  Tc10  1  0.276799  0.723201  0.000000  1
  Tc  Tc11  1  0.350198  0.863645  0.344637  1
  Tc  Tc12  1  0.345267  0.345267  0.865662  1
  Tc  Tc13  1  0.863645  0.350198  0.344637  1
  Tc  Tc14  1  0.649802  0.136355  0.655363  1
  Tc  Tc15  1  0.654733  0.654733  0.134338  1
  Tc  Tc16  1  0.136355  0.649802  0.655363  1
  Tc  Tc17  1  0.901286  0.901286  0.902506  1
  Tc  Tc18  1  0.098714  0.098714  0.097494  1
  C  C19  1  0.500000  0.500000  0.000000  1
  C  C20  1  0.000000  0.500000  0.500000  1
  C  C21  1  0.500000  0.000000  0.500000  1
