# generated using pymatgen
data_Nd2TmAl4Ni9B2
_symmetry_space_group_name_H-M   'P 1'
_cell_length_a   5.23737401
_cell_length_b   5.23518698
_cell_length_c   10.63215305
_cell_angle_alpha   89.99602206
_cell_angle_beta   90.00419587
_cell_angle_gamma   119.87416140
_symmetry_Int_Tables_number   1
_chemical_formula_structural   Nd2TmAl4Ni9B2
_chemical_formula_sum   'Nd2 Tm1 Al4 Ni9 B2'
_cell_volume   252.78246275
_cell_formula_units_Z   1
loop_
 _symmetry_equiv_pos_site_id
 _symmetry_equiv_pos_as_xyz
  1  'x, y, z'
loop_
 _atom_site_type_symbol
 _atom_site_label
 _atom_site_symmetry_multiplicity
 _atom_site_fract_x
 _atom_site_fract_y
 _atom_site_fract_z
 _atom_site_occupancy
  Nd  Nd0  1  0.999924  0.999899  0.334841  1
  Nd  Nd1  1  0.999937  0.999951  0.665102  1
  Tm  Tm2  1  0.000082  0.000126  0.000000  1
  Al  Al3  1  0.333302  0.666485  0.314638  1
  Al  Al4  1  0.666609  0.333370  0.314652  1
  Al  Al5  1  0.666542  0.333400  0.685395  1
  Al  Al6  1  0.333347  0.666531  0.685386  1
  Ni  Ni7  1  0.499919  0.999914  0.499975  1
  Ni  Ni8  1  0.499924  0.499909  0.499985  1
  Ni  Ni9  1  0.999921  0.499901  0.499973  1
  Ni  Ni10  1  0.500123  0.000020  0.126865  1
  Ni  Ni11  1  0.500076  0.500031  0.126860  1
  Ni  Ni12  1  0.000067  0.500031  0.126757  1
  Ni  Ni13  1  0.499976  0.000080  0.873143  1
  Ni  Ni14  1  0.500037  0.500099  0.873113  1
  Ni  Ni15  1  0.000014  0.500135  0.873317  1
  B  B16  1  0.333537  0.666903  0.000009  1
  B  B17  1  0.666564  0.333213  0.999988  1
