# generated using pymatgen
data_Tm12InCo2Si2Hg
_symmetry_space_group_name_H-M   'P 1'
_cell_length_a   8.34244805
_cell_length_b   8.34244705
_cell_length_c   8.34244782
_cell_angle_alpha   113.56785789
_cell_angle_beta   110.69531110
_cell_angle_gamma   104.28627131
_symmetry_Int_Tables_number   1
_chemical_formula_structural   Tm12InCo2Si2Hg
_chemical_formula_sum   'Tm12 In1 Co2 Si2 Hg1'
_cell_volume   443.92947404
_cell_formula_units_Z   1
loop_
 _symmetry_equiv_pos_site_id
 _symmetry_equiv_pos_as_xyz
  1  'x, y, z'
loop_
 _atom_site_type_symbol
 _atom_site_label
 _atom_site_symmetry_multiplicity
 _atom_site_fract_x
 _atom_site_fract_y
 _atom_site_fract_z
 _atom_site_occupancy
  Tm  Tm0  1  0.439265  0.238720  0.200545  1
  Tm  Tm1  1  0.560735  0.761280  0.799455  1
  Tm  Tm2  1  0.038175  0.238720  0.799455  1
  Tm  Tm3  1  0.961825  0.761280  0.200545  1
  Tm  Tm4  1  0.187473  0.288138  0.475612  1
  Tm  Tm5  1  0.812527  0.711862  0.524388  1
  Tm  Tm6  1  0.187473  0.711862  0.899336  1
  Tm  Tm7  1  0.812527  0.288138  0.100664  1
  Tm  Tm8  1  0.305474  0.616063  0.310589  1
  Tm  Tm9  1  0.694526  0.383937  0.689411  1
  Tm  Tm10  1  0.305474  0.994885  0.689411  1
  Tm  Tm11  1  0.694526  0.005115  0.310589  1
  In  In12  1  0.500000  0.500000  0.000000  1
  Co  Co13  1  0.109012  0.609012  0.500000  1
  Co  Co14  1  0.890988  0.390988  0.500000  1
  Si  Si15  1  0.363722  0.000000  0.363722  1
  Si  Si16  1  0.636278  0.000000  0.636278  1
  Hg  Hg17  1  0.000000  0.000000  0.000000  1
