# generated using pymatgen
data_Tb27Y5B8(C8I19)2
_symmetry_space_group_name_H-M   'P 1'
_cell_length_a   12.66315958
_cell_length_b   14.52392406
_cell_length_c   19.85467377
_cell_angle_alpha   104.70958016
_cell_angle_beta   89.59630165
_cell_angle_gamma   112.84858914
_symmetry_Int_Tables_number   1
_chemical_formula_structural   Tb27Y5B8(C8I19)2
_chemical_formula_sum   'Tb27 Y5 B8 C16 I38'
_cell_volume   3237.61263567
_cell_formula_units_Z   1
loop_
 _symmetry_equiv_pos_site_id
 _symmetry_equiv_pos_as_xyz
  1  'x, y, z'
loop_
 _atom_site_type_symbol
 _atom_site_label
 _atom_site_symmetry_multiplicity
 _atom_site_fract_x
 _atom_site_fract_y
 _atom_site_fract_z
 _atom_site_occupancy
  Tb  Tb0  1  0.314892  0.341315  0.220833  1
  Tb  Tb1  1  0.570205  0.347127  0.221763  1
  Tb  Tb2  1  0.685214  0.658849  0.779203  1
  Tb  Tb3  1  0.397741  0.264834  0.042814  1
  Tb  Tb4  1  0.321596  0.711362  0.544078  1
  Tb  Tb5  1  0.859466  0.728453  0.541935  1
  Tb  Tb6  1  0.640060  0.504840  0.408679  1
  Tb  Tb7  1  0.443366  0.651034  0.279051  1
  Tb  Tb8  1  0.397863  0.263943  0.372830  1
  Tb  Tb9  1  0.138676  0.276490  0.955982  1
  Tb  Tb10  1  0.325656  0.715040  0.041977  1
  Tb  Tb11  1  0.404901  0.262909  0.872439  1
  Tb  Tb12  1  0.861356  0.723476  0.044045  1
  Tb  Tb13  1  0.678613  0.288827  0.456058  1
  Tb  Tb14  1  0.602269  0.735211  0.957170  1
  Tb  Tb15  1  0.595026  0.737043  0.127415  1
  Tb  Tb16  1  0.638415  0.502147  0.091541  1
  Tb  Tb17  1  0.361682  0.497790  0.908364  1
  Tb  Tb18  1  0.140385  0.271398  0.458091  1
  Tb  Tb19  1  0.700079  0.660425  0.278053  1
  Tb  Tb20  1  0.405383  0.264660  0.542938  1
  Tb  Tb21  1  0.365660  0.496834  0.407757  1
  Tb  Tb22  1  0.365442  0.497384  0.092130  1
  Tb  Tb23  1  0.634478  0.502548  0.907818  1
  Tb  Tb24  1  0.429841  0.652934  0.778289  1
  Tb  Tb25  1  0.360135  0.495272  0.591459  1
  Tb  Tb26  1  0.674320  0.284990  0.958045  1
  Y  Y27  1  0.594886  0.734685  0.456945  1
  Y  Y28  1  0.633266  0.503456  0.591859  1
  Y  Y29  1  0.556048  0.348920  0.720962  1
  Y  Y30  1  0.300769  0.340309  0.722043  1
  Y  Y31  1  0.601834  0.735235  0.626925  1
  B  B32  1  0.508031  0.501102  0.205442  1
  B  B33  1  0.470794  0.430208  0.486899  1
  B  B34  1  0.492054  0.498929  0.794632  1
  B  B35  1  0.470750  0.430291  0.986980  1
  B  B36  1  0.529257  0.569712  0.013021  1
  B  B37  1  0.492387  0.500760  0.705405  1
  B  B38  1  0.507651  0.499369  0.294639  1
  B  B39  1  0.529149  0.569729  0.512901  1
  C  C40  1  0.665673  0.635831  0.525239  1
  C  C41  1  0.461084  0.392035  0.315651  1
  C  C42  1  0.449693  0.392003  0.815908  1
  C  C43  1  0.445533  0.630172  0.025014  1
  C  C44  1  0.553489  0.368761  0.475721  1
  C  C45  1  0.539242  0.608154  0.684579  1
  C  C46  1  0.334327  0.363463  0.975541  1
  C  C47  1  0.451077  0.395263  0.644495  1
  C  C48  1  0.554435  0.369805  0.974941  1
  C  C49  1  0.665683  0.636559  0.024451  1
  C  C50  1  0.550263  0.608031  0.184140  1
  C  C51  1  0.461589  0.395322  0.144735  1
  C  C52  1  0.446558  0.631163  0.524204  1
  C  C53  1  0.334373  0.364234  0.474768  1
  C  C54  1  0.549596  0.604999  0.355409  1
  C  C55  1  0.538401  0.604715  0.855278  1
  I  I56  1  0.456684  0.086030  0.947194  1
  I  I57  1  0.617458  0.867201  0.833818  1
  I  I58  1  0.503480  0.904865  0.640821  1
  I  I59  1  0.111870  0.352957  0.824551  1
  I  I60  1  0.615102  0.205570  0.584497  1
  I  I61  1  0.869337  0.194121  0.437791  1
  I  I62  1  0.845635  0.911590  0.143294  1
  I  I63  1  0.873002  0.505898  0.949985  1
  I  I64  1  0.862423  0.812200  0.702245  1
  I  I65  1  0.382539  0.132847  0.166280  1
  I  I66  1  0.137237  0.187989  0.297729  1
  I  I67  1  0.771544  0.366665  0.324962  1
  I  I68  1  0.866768  0.807717  0.916574  1
  I  I69  1  0.751136  0.338893  0.114300  1
  I  I70  1  0.543378  0.913961  0.052796  1
  I  I71  1  0.108794  0.325437  0.615313  1
  I  I72  1  0.891932  0.674459  0.385119  1
  I  I73  1  0.817398  0.921162  0.538857  1
  I  I74  1  0.135406  0.810274  0.057248  1
  I  I75  1  0.804948  0.509143  0.748769  1
  I  I76  1  0.864608  0.189761  0.942723  1
  I  I77  1  0.127430  0.491333  0.451016  1
  I  I78  1  0.248881  0.661101  0.885682  1
  I  I79  1  0.130762  0.805885  0.562253  1
  I  I80  1  0.624029  0.212406  0.797675  1
  I  I81  1  0.194408  0.490279  0.251119  1
  I  I82  1  0.181439  0.078408  0.460869  1
  I  I83  1  0.497275  0.094727  0.359395  1
  I  I84  1  0.385337  0.794771  0.415940  1
  I  I85  1  0.154338  0.088413  0.856745  1
  I  I86  1  0.871888  0.508720  0.549344  1
  I  I87  1  0.683242  0.867917  0.327970  1
  I  I88  1  0.133258  0.192312  0.083436  1
  I  I89  1  0.126958  0.494063  0.049984  1
  I  I90  1  0.228485  0.633356  0.675032  1
  I  I91  1  0.375939  0.788120  0.202041  1
  I  I92  1  0.316418  0.132317  0.672141  1
  I  I93  1  0.888617  0.646782  0.175010  1
