# generated using pymatgen
data_Sm7Er9(TmPb4)4
_symmetry_space_group_name_H-M   'P 1'
_cell_length_a   8.19513433
_cell_length_b   8.30436947
_cell_length_c   15.63671830
_cell_angle_alpha   90.20787678
_cell_angle_beta   90.31247539
_cell_angle_gamma   89.80190010
_symmetry_Int_Tables_number   1
_chemical_formula_structural   Sm7Er9(TmPb4)4
_chemical_formula_sum   'Sm7 Er9 Tm4 Pb16'
_cell_volume   1064.13436651
_cell_formula_units_Z   1
loop_
 _symmetry_equiv_pos_site_id
 _symmetry_equiv_pos_as_xyz
  1  'x, y, z'
loop_
 _atom_site_type_symbol
 _atom_site_label
 _atom_site_symmetry_multiplicity
 _atom_site_fract_x
 _atom_site_fract_y
 _atom_site_fract_z
 _atom_site_occupancy
  Sm  Sm0  1  0.974187  0.821409  0.902098  1
  Sm  Sm1  1  0.525044  0.321864  0.096544  1
  Sm  Sm2  1  0.027767  0.178108  0.402571  1
  Sm  Sm3  1  0.527432  0.323444  0.403091  1
  Sm  Sm4  1  0.025297  0.177991  0.096798  1
  Sm  Sm5  1  0.475863  0.677733  0.903594  1
  Sm  Sm6  1  0.973084  0.821612  0.597664  1
  Er  Er7  1  0.632460  0.157487  0.622411  1
  Er  Er8  1  0.134548  0.341961  0.877006  1
  Er  Er9  1  0.366292  0.842252  0.122841  1
  Er  Er10  1  0.868646  0.657842  0.378123  1
  Er  Er11  1  0.369215  0.842072  0.378324  1
  Er  Er12  1  0.866296  0.657986  0.122516  1
  Er  Er13  1  0.633308  0.156935  0.876243  1
  Er  Er14  1  0.131309  0.342635  0.622241  1
  Er  Er15  1  0.468591  0.676267  0.598913  1
  Tm  Tm16  1  0.799490  0.495165  0.749361  1
  Tm  Tm17  1  0.300036  0.005272  0.749318  1
  Tm  Tm18  1  0.200294  0.505442  0.250583  1
  Tm  Tm19  1  0.700306  0.994436  0.250156  1
  Pb  Pb20  1  0.709734  0.961935  0.456886  1
  Pb  Pb21  1  0.206731  0.540367  0.042990  1
  Pb  Pb22  1  0.292592  0.039763  0.956464  1
  Pb  Pb23  1  0.786238  0.464653  0.544282  1
  Pb  Pb24  1  0.292171  0.037798  0.543788  1
  Pb  Pb25  1  0.793708  0.458343  0.956760  1
  Pb  Pb26  1  0.707480  0.959688  0.042598  1
  Pb  Pb27  1  0.210680  0.540893  0.458458  1
  Pb  Pb28  1  0.437993  0.374105  0.749097  1
  Pb  Pb29  1  0.938150  0.127174  0.749665  1
  Pb  Pb30  1  0.562307  0.627173  0.250558  1
  Pb  Pb31  1  0.063229  0.873004  0.250457  1
  Pb  Pb32  1  0.659101  0.843506  0.748231  1
  Pb  Pb33  1  0.163664  0.653423  0.749660  1
  Pb  Pb34  1  0.338466  0.153386  0.249858  1
  Pb  Pb35  1  0.838290  0.346877  0.249849  1
