# generated using pymatgen
data_Tb2Ta2Mn3Fe5P6
_symmetry_space_group_name_H-M   'P 1'
_cell_length_a   3.69477000
_cell_length_b   10.61459800
_cell_length_c   12.35272500
_cell_angle_alpha   90.00000000
_cell_angle_beta   90.00000000
_cell_angle_gamma   90.00000000
_symmetry_Int_Tables_number   1
_chemical_formula_structural   Tb2Ta2Mn3Fe5P6
_chemical_formula_sum   'Tb4 Ta4 Mn6 Fe10 P12'
_cell_volume   484.45532383
_cell_formula_units_Z   2
loop_
 _symmetry_equiv_pos_site_id
 _symmetry_equiv_pos_as_xyz
  1  'x, y, z'
loop_
 _atom_site_type_symbol
 _atom_site_label
 _atom_site_symmetry_multiplicity
 _atom_site_fract_x
 _atom_site_fract_y
 _atom_site_fract_z
 _atom_site_occupancy
  Tb  Tb0  1  0.250000  0.585935  0.712923  1
  Tb  Tb1  1  0.250000  0.914065  0.212923  1
  Tb  Tb2  1  0.750000  0.417868  0.288000  1
  Tb  Tb3  1  0.750000  0.082132  0.788000  1
  Ta  Ta4  1  0.250000  0.702487  0.991263  1
  Ta  Ta5  1  0.250000  0.797513  0.491263  1
  Ta  Ta6  1  0.750000  0.296606  0.009643  1
  Ta  Ta7  1  0.750000  0.203394  0.509643  1
  Mn  Mn8  1  0.250000  0.411222  0.491714  1
  Mn  Mn9  1  0.250000  0.088778  0.991714  1
  Mn  Mn10  1  0.750000  0.594444  0.507453  1
  Mn  Mn11  1  0.750000  0.905556  0.007453  1
  Mn  Mn12  1  0.250000  0.215454  0.174108  1
  Mn  Mn13  1  0.250000  0.284546  0.674108  1
  Fe  Fe14  1  0.750000  0.784038  0.829719  1
  Fe  Fe15  1  0.750000  0.715962  0.329719  1
  Fe  Fe16  1  0.250000  0.877976  0.699140  1
  Fe  Fe17  1  0.250000  0.622024  0.199140  1
  Fe  Fe18  1  0.750000  0.122039  0.298574  1
  Fe  Fe19  1  0.750000  0.377961  0.798574  1
  Fe  Fe20  1  0.250000  0.463515  0.932181  1
  Fe  Fe21  1  0.250000  0.036485  0.432181  1
  Fe  Fe22  1  0.750000  0.536754  0.065591  1
  Fe  Fe23  1  0.750000  0.963246  0.565591  1
  P  P24  1  0.250000  0.430373  0.112131  1
  P  P25  1  0.250000  0.069627  0.612131  1
  P  P26  1  0.750000  0.572867  0.886873  1
  P  P27  1  0.750000  0.927133  0.386873  1
  P  P28  1  0.250000  0.269146  0.862259  1
  P  P29  1  0.250000  0.230854  0.362259  1
  P  P30  1  0.750000  0.726351  0.143022  1
  P  P31  1  0.750000  0.773649  0.643022  1
  P  P32  1  0.250000  0.593732  0.379598  1
  P  P33  1  0.250000  0.906268  0.879598  1
  P  P34  1  0.750000  0.413182  0.615807  1
  P  P35  1  0.750000  0.086818  0.115807  1
