# generated using pymatgen
data_Tb8Hf9Ta(Si8W)2
_symmetry_space_group_name_H-M   'P 1'
_cell_length_a   7.21323284
_cell_length_b   7.21323316
_cell_length_c   13.20804502
_cell_angle_alpha   90.08242709
_cell_angle_beta   90.08242851
_cell_angle_gamma   90.11623000
_symmetry_Int_Tables_number   1
_chemical_formula_structural   Tb8Hf9Ta(Si8W)2
_chemical_formula_sum   'Tb8 Hf9 Ta1 Si16 W2'
_cell_volume   687.22138892
_cell_formula_units_Z   1
loop_
 _symmetry_equiv_pos_site_id
 _symmetry_equiv_pos_as_xyz
  1  'x, y, z'
loop_
 _atom_site_type_symbol
 _atom_site_label
 _atom_site_symmetry_multiplicity
 _atom_site_fract_x
 _atom_site_fract_y
 _atom_site_fract_z
 _atom_site_occupancy
  Tb  Tb0  1  0.998733  0.343564  0.215179  1
  Tb  Tb1  1  0.003313  0.656866  0.714639  1
  Tb  Tb2  1  0.154745  0.499170  0.464527  1
  Tb  Tb3  1  0.500830  0.845255  0.035473  1
  Tb  Tb4  1  0.845819  0.502018  0.967550  1
  Tb  Tb5  1  0.497982  0.154181  0.532450  1
  Tb  Tb6  1  0.343134  0.996687  0.785361  1
  Tb  Tb7  1  0.656436  0.001267  0.284821  1
  Hf  Hf8  1  0.675347  0.324653  0.750000  1
  Hf  Hf9  1  0.146735  0.993312  0.373999  1
  Hf  Hf10  1  0.854365  0.005004  0.876445  1
  Hf  Hf11  1  0.506330  0.650022  0.621572  1
  Hf  Hf12  1  0.349978  0.493670  0.878428  1
  Hf  Hf13  1  0.492936  0.351386  0.124862  1
  Hf  Hf14  1  0.648614  0.507064  0.375138  1
  Hf  Hf15  1  0.994996  0.145635  0.623555  1
  Hf  Hf16  1  0.006688  0.853265  0.126001  1
  Ta  Ta17  1  0.324105  0.675895  0.250000  1
  Si  Si18  1  0.361021  0.297567  0.316558  1
  Si  Si19  1  0.637609  0.704877  0.817167  1
  Si  Si20  1  0.202979  0.861761  0.565678  1
  Si  Si21  1  0.138239  0.797021  0.934322  1
  Si  Si22  1  0.797658  0.137955  0.067056  1
  Si  Si23  1  0.862045  0.202342  0.432944  1
  Si  Si24  1  0.295123  0.362391  0.682833  1
  Si  Si25  1  0.702433  0.638979  0.183442  1
  Si  Si26  1  0.295722  0.050466  0.183935  1
  Si  Si27  1  0.705137  0.947762  0.682047  1
  Si  Si28  1  0.450167  0.795498  0.432907  1
  Si  Si29  1  0.204502  0.549833  0.067093  1
  Si  Si30  1  0.546882  0.203217  0.936375  1
  Si  Si31  1  0.796783  0.453118  0.563625  1
  Si  Si32  1  0.052238  0.294863  0.817953  1
  Si  Si33  1  0.949534  0.704278  0.316065  1
  W  W34  1  0.176606  0.175764  0.001026  1
  W  W35  1  0.824236  0.823394  0.498974  1
