# generated using pymatgen
data_Tb2Er3In4CuPt
_symmetry_space_group_name_H-M   'P 1'
_cell_length_a   3.62063600
_cell_length_b   8.06845001
_cell_length_c   18.17604674
_cell_angle_alpha   90.11926165
_cell_angle_beta   90.00000000
_cell_angle_gamma   90.00000000
_symmetry_Int_Tables_number   1
_chemical_formula_structural   Tb2Er3In4CuPt
_chemical_formula_sum   'Tb4 Er6 In8 Cu2 Pt2'
_cell_volume   530.97425975
_cell_formula_units_Z   2
loop_
 _symmetry_equiv_pos_site_id
 _symmetry_equiv_pos_as_xyz
  1  'x, y, z'
loop_
 _atom_site_type_symbol
 _atom_site_label
 _atom_site_symmetry_multiplicity
 _atom_site_fract_x
 _atom_site_fract_y
 _atom_site_fract_z
 _atom_site_occupancy
  Tb  Tb0  1  0.000000  0.117797  0.416113  1
  Tb  Tb1  1  0.000000  0.882203  0.583887  1
  Tb  Tb2  1  0.000000  0.000000  0.000000  1
  Tb  Tb3  1  0.000000  0.500000  0.500000  1
  Er  Er4  1  0.000000  0.382896  0.915448  1
  Er  Er5  1  0.000000  0.617104  0.084552  1
  Er  Er6  1  0.000000  0.248628  0.218938  1
  Er  Er7  1  0.000000  0.751372  0.781062  1
  Er  Er8  1  0.000000  0.262369  0.720765  1
  Er  Er9  1  0.000000  0.737631  0.279235  1
  In  In10  1  0.500000  0.421479  0.351286  1
  In  In11  1  0.500000  0.578521  0.648714  1
  In  In12  1  0.500000  0.075142  0.848910  1
  In  In13  1  0.500000  0.924858  0.151090  1
  In  In14  1  0.500000  0.293811  0.066528  1
  In  In15  1  0.500000  0.706189  0.933472  1
  In  In16  1  0.500000  0.208084  0.570385  1
  In  In17  1  0.500000  0.791916  0.429615  1
  Cu  Cu18  1  0.500000  0.025681  0.301101  1
  Cu  Cu19  1  0.500000  0.974319  0.698899  1
  Pt  Pt20  1  0.500000  0.472534  0.803091  1
  Pt  Pt21  1  0.500000  0.527466  0.196909  1
