# generated using pymatgen
data_YbZr2UN4
_symmetry_space_group_name_H-M   'P 1'
_cell_length_a   5.76394729
_cell_length_b   5.76394731
_cell_length_c   5.76394657
_cell_angle_alpha   131.65313096
_cell_angle_beta   131.65313715
_cell_angle_gamma   70.77742097
_symmetry_Int_Tables_number   1
_chemical_formula_structural   YbZr2UN4
_chemical_formula_sum   'Yb1 Zr2 U1 N4'
_cell_volume   104.71632096
_cell_formula_units_Z   1
loop_
 _symmetry_equiv_pos_site_id
 _symmetry_equiv_pos_as_xyz
  1  'x, y, z'
loop_
 _atom_site_type_symbol
 _atom_site_label
 _atom_site_symmetry_multiplicity
 _atom_site_fract_x
 _atom_site_fract_y
 _atom_site_fract_z
 _atom_site_occupancy
  Yb  Yb0  1  0.500000  0.500000  0.000000  1
  Zr  Zr1  1  0.000000  0.000000  0.000000  1
  Zr  Zr2  1  0.750000  0.250000  0.500000  1
  U  U3  1  0.250000  0.750000  0.500000  1
  N  N4  1  0.756460  0.756460  0.000000  1
  N  N5  1  0.243540  0.243540  0.000000  1
  N  N6  1  0.008392  0.508392  0.500000  1
  N  N7  1  0.491608  0.991608  0.500000  1
