# generated using pymatgen
data_HoEr3Sc2(AlPt2)2
_symmetry_space_group_name_H-M   'P 1'
_cell_length_a   4.40060300
_cell_length_b   7.11614339
_cell_length_c   8.04356419
_cell_angle_alpha   90.06728272
_cell_angle_beta   90.00000000
_cell_angle_gamma   90.00000000
_symmetry_Int_Tables_number   1
_chemical_formula_structural   HoEr3Sc2(AlPt2)2
_chemical_formula_sum   'Ho1 Er3 Sc2 Al2 Pt4'
_cell_volume   251.88662849
_cell_formula_units_Z   1
loop_
 _symmetry_equiv_pos_site_id
 _symmetry_equiv_pos_as_xyz
  1  'x, y, z'
loop_
 _atom_site_type_symbol
 _atom_site_label
 _atom_site_symmetry_multiplicity
 _atom_site_fract_x
 _atom_site_fract_y
 _atom_site_fract_z
 _atom_site_occupancy
  Ho  Ho0  1  0.250000  0.517518  0.828617  1
  Er  Er1  1  0.750000  0.448539  0.177498  1
  Er  Er2  1  0.250000  0.050797  0.676923  1
  Er  Er3  1  0.750000  0.982376  0.328667  1
  Sc  Sc4  1  0.750000  0.870806  0.935854  1
  Sc  Sc5  1  0.250000  0.628862  0.435519  1
  Al  Al6  1  0.750000  0.360279  0.564660  1
  Al  Al7  1  0.250000  0.139614  0.064839  1
  Pt  Pt8  1  0.750000  0.735466  0.615369  1
  Pt  Pt9  1  0.750000  0.242311  0.877992  1
  Pt  Pt10  1  0.250000  0.257369  0.377863  1
  Pt  Pt11  1  0.250000  0.766061  0.116195  1
