# generated using pymatgen
data_Pr5Nd3(Y3Si4)4
_symmetry_space_group_name_H-M   'P 1'
_cell_length_a   7.78345313
_cell_length_b   7.78392520
_cell_length_c   14.53476023
_cell_angle_alpha   89.98170141
_cell_angle_beta   90.00902110
_cell_angle_gamma   89.98140682
_symmetry_Int_Tables_number   1
_chemical_formula_structural   Pr5Nd3(Y3Si4)4
_chemical_formula_sum   'Pr5 Nd3 Y12 Si16'
_cell_volume   880.60022050
_cell_formula_units_Z   1
loop_
 _symmetry_equiv_pos_site_id
 _symmetry_equiv_pos_as_xyz
  1  'x, y, z'
loop_
 _atom_site_type_symbol
 _atom_site_label
 _atom_site_symmetry_multiplicity
 _atom_site_fract_x
 _atom_site_fract_y
 _atom_site_fract_z
 _atom_site_occupancy
  Pr  Pr0  1  0.634895  0.989761  0.454854  1
  Pr  Pr1  1  0.364989  0.010269  0.954977  1
  Pr  Pr2  1  0.989730  0.634840  0.545034  1
  Pr  Pr3  1  0.489781  0.864962  0.204906  1
  Pr  Pr4  1  0.510254  0.135053  0.705036  1
  Nd  Nd5  1  0.865878  0.490325  0.795519  1
  Nd  Nd6  1  0.134237  0.509633  0.295268  1
  Nd  Nd7  1  0.009754  0.365862  0.045384  1
  Y  Y8  1  0.487987  0.365022  0.124875  1
  Y  Y9  1  0.987829  0.135214  0.625166  1
  Y  Y10  1  0.865038  0.012125  0.874978  1
  Y  Y11  1  0.135198  0.988053  0.374780  1
  Y  Y12  1  0.511756  0.634841  0.625034  1
  Y  Y13  1  0.364977  0.487824  0.875085  1
  Y  Y14  1  0.635009  0.511920  0.374917  1
  Y  Y15  1  0.012122  0.864962  0.125050  1
  Y  Y16  1  0.314186  0.314473  0.499973  1
  Y  Y17  1  0.185435  0.814208  0.750073  1
  Y  Y18  1  0.814617  0.185921  0.249937  1
  Y  Y19  1  0.686057  0.685332  0.999960  1
  Si  Si20  1  0.287055  0.930397  0.561296  1
  Si  Si21  1  0.713388  0.069985  0.061312  1
  Si  Si22  1  0.930994  0.287542  0.438445  1
  Si  Si23  1  0.429948  0.213408  0.311262  1
  Si  Si24  1  0.569862  0.786588  0.811350  1
  Si  Si25  1  0.212144  0.430932  0.688821  1
  Si  Si26  1  0.788224  0.568724  0.188630  1
  Si  Si27  1  0.068703  0.711816  0.938618  1
  Si  Si28  1  0.801040  0.839665  0.694217  1
  Si  Si29  1  0.198490  0.160763  0.193755  1
  Si  Si30  1  0.841068  0.800191  0.306092  1
  Si  Si31  1  0.339999  0.698810  0.443559  1
  Si  Si32  1  0.660721  0.301554  0.943800  1
  Si  Si33  1  0.699278  0.340382  0.555943  1
  Si  Si34  1  0.300311  0.659030  0.056027  1
  Si  Si35  1  0.159047  0.199612  0.806068  1
