# generated using pymatgen
data_Zr3Nb2GaGe2C
_symmetry_space_group_name_H-M   'P 1'
_cell_length_a   7.96288400
_cell_length_b   7.96288352
_cell_length_c   5.45661000
_cell_angle_alpha   90.00000000
_cell_angle_beta   90.00000000
_cell_angle_gamma   120.01460937
_symmetry_Int_Tables_number   1
_chemical_formula_structural   Zr3Nb2GaGe2C
_chemical_formula_sum   'Zr6 Nb4 Ga2 Ge4 C2'
_cell_volume   299.59209205
_cell_formula_units_Z   2
loop_
 _symmetry_equiv_pos_site_id
 _symmetry_equiv_pos_as_xyz
  1  'x, y, z'
loop_
 _atom_site_type_symbol
 _atom_site_label
 _atom_site_symmetry_multiplicity
 _atom_site_fract_x
 _atom_site_fract_y
 _atom_site_fract_z
 _atom_site_occupancy
  Zr  Zr0  1  0.238693  0.000282  0.250000  1
  Zr  Zr1  1  0.761307  0.999718  0.750000  1
  Zr  Zr2  1  0.000282  0.238693  0.250000  1
  Zr  Zr3  1  0.999718  0.761307  0.750000  1
  Zr  Zr4  1  0.764034  0.764034  0.250000  1
  Zr  Zr5  1  0.235966  0.235966  0.750000  1
  Nb  Nb6  1  0.331361  0.668639  0.000000  1
  Nb  Nb7  1  0.668639  0.331361  0.000000  1
  Nb  Nb8  1  0.668639  0.331361  0.500000  1
  Nb  Nb9  1  0.331361  0.668639  0.500000  1
  Ga  Ga10  1  0.408766  0.408766  0.250000  1
  Ga  Ga11  1  0.591234  0.591234  0.750000  1
  Ge  Ge12  1  0.595067  0.998797  0.250000  1
  Ge  Ge13  1  0.404933  0.001203  0.750000  1
  Ge  Ge14  1  0.998797  0.595067  0.250000  1
  Ge  Ge15  1  0.001203  0.404933  0.750000  1
  C  C16  1  0.000000  0.000000  0.000000  1
  C  C17  1  0.000000  0.000000  0.500000  1
