# generated using pymatgen
data_Yb2TmSc(Ga2Ag)4
_symmetry_space_group_name_H-M   'P 1'
_cell_length_a   4.29549800
_cell_length_b   6.92359439
_cell_length_c   10.29119560
_cell_angle_alpha   90.50131693
_cell_angle_beta   90.00000000
_cell_angle_gamma   90.00000000
_symmetry_Int_Tables_number   1
_chemical_formula_structural   Yb2TmSc(Ga2Ag)4
_chemical_formula_sum   'Yb2 Tm1 Sc1 Ga8 Ag4'
_cell_volume   306.05138356
_cell_formula_units_Z   1
loop_
 _symmetry_equiv_pos_site_id
 _symmetry_equiv_pos_as_xyz
  1  'x, y, z'
loop_
 _atom_site_type_symbol
 _atom_site_label
 _atom_site_symmetry_multiplicity
 _atom_site_fract_x
 _atom_site_fract_y
 _atom_site_fract_z
 _atom_site_occupancy
  Yb  Yb0  1  0.750000  0.225314  0.172685  1
  Yb  Yb1  1  0.750000  0.725063  0.326047  1
  Tm  Tm2  1  0.250000  0.277960  0.674309  1
  Sc  Sc3  1  0.250000  0.779528  0.829812  1
  Ga  Ga4  1  0.250000  0.707194  0.540111  1
  Ga  Ga5  1  0.750000  0.300005  0.467568  1
  Ga  Ga6  1  0.750000  0.794205  0.029322  1
  Ga  Ga7  1  0.250000  0.196847  0.963965  1
  Ga  Ga8  1  0.250000  0.926762  0.148045  1
  Ga  Ga9  1  0.750000  0.065088  0.842667  1
  Ga  Ga10  1  0.750000  0.578135  0.659273  1
  Ga  Ga11  1  0.250000  0.429602  0.351631  1
  Ag  Ag12  1  0.250000  0.540160  0.097037  1
  Ag  Ag13  1  0.750000  0.454502  0.899597  1
  Ag  Ag14  1  0.750000  0.958152  0.597768  1
  Ag  Ag15  1  0.250000  0.041483  0.400165  1
