# generated using pymatgen
data_TbHo3Se3N2
_symmetry_space_group_name_H-M   'P 1'
_cell_length_a   6.91933078
_cell_length_b   6.91933100
_cell_length_c   10.30064703
_cell_angle_alpha   52.12544241
_cell_angle_beta   52.12544335
_cell_angle_gamma   32.98592719
_symmetry_Int_Tables_number   1
_chemical_formula_structural   TbHo3Se3N2
_chemical_formula_sum   'Tb1 Ho3 Se3 N2'
_cell_volume   206.24279925
_cell_formula_units_Z   1
loop_
 _symmetry_equiv_pos_site_id
 _symmetry_equiv_pos_as_xyz
  1  'x, y, z'
loop_
 _atom_site_type_symbol
 _atom_site_label
 _atom_site_symmetry_multiplicity
 _atom_site_fract_x
 _atom_site_fract_y
 _atom_site_fract_z
 _atom_site_occupancy
  Tb  Tb0  1  0.244640  0.244640  0.638726  1
  Ho  Ho1  1  0.442287  0.442287  0.849470  1
  Ho  Ho2  1  0.557948  0.557948  0.150618  1
  Ho  Ho3  1  0.756530  0.756530  0.360696  1
  Se  Se4  1  0.835061  0.835061  0.773379  1
  Se  Se5  1  0.999375  0.999375  0.000694  1
  Se  Se6  1  0.164477  0.164477  0.228839  1
  N  N7  1  0.351643  0.351643  0.360479  1
  N  N8  1  0.648040  0.648040  0.637100  1
