# generated using pymatgen
data_Er2Pa2SnPd4Pb
_symmetry_space_group_name_H-M   'P 1'
_cell_length_a   7.82456701
_cell_length_b   7.79498901
_cell_length_c   3.67065100
_cell_angle_alpha   90.00000000
_cell_angle_beta   90.00000000
_cell_angle_gamma   89.99523134
_symmetry_Int_Tables_number   1
_chemical_formula_structural   Er2Pa2SnPd4Pb
_chemical_formula_sum   'Er2 Pa2 Sn1 Pd4 Pb1'
_cell_volume   223.88186393
_cell_formula_units_Z   1
loop_
 _symmetry_equiv_pos_site_id
 _symmetry_equiv_pos_as_xyz
  1  'x, y, z'
loop_
 _atom_site_type_symbol
 _atom_site_label
 _atom_site_symmetry_multiplicity
 _atom_site_fract_x
 _atom_site_fract_y
 _atom_site_fract_z
 _atom_site_occupancy
  Er  Er0  1  0.830140  0.676542  0.500000  1
  Er  Er1  1  0.322686  0.829460  0.500000  1
  Pa  Pa2  1  0.673896  0.167872  0.500000  1
  Pa  Pa3  1  0.168425  0.325778  0.500000  1
  Sn  Sn4  1  0.002133  0.990164  0.000000  1
  Pd  Pd5  1  0.369338  0.133783  0.000000  1
  Pd  Pd6  1  0.125425  0.618689  0.000000  1
  Pd  Pd7  1  0.631000  0.886320  0.000000  1
  Pd  Pd8  1  0.874314  0.360960  0.000000  1
  Pb  Pb9  1  0.502644  0.510433  0.000000  1
