# generated using pymatgen
data_Nd8Dy12Si15Au
_symmetry_space_group_name_H-M   'P 1'
_cell_length_a   7.55277002
_cell_length_b   7.80107288
_cell_length_c   14.83833162
_cell_angle_alpha   89.95516219
_cell_angle_beta   89.65980288
_cell_angle_gamma   90.22656413
_symmetry_Int_Tables_number   1
_chemical_formula_structural   Nd8Dy12Si15Au
_chemical_formula_sum   'Nd8 Dy12 Si15 Au1'
_cell_volume   874.24765614
_cell_formula_units_Z   1
loop_
 _symmetry_equiv_pos_site_id
 _symmetry_equiv_pos_as_xyz
  1  'x, y, z'
loop_
 _atom_site_type_symbol
 _atom_site_label
 _atom_site_symmetry_multiplicity
 _atom_site_fract_x
 _atom_site_fract_y
 _atom_site_fract_z
 _atom_site_occupancy
  Nd  Nd0  1  0.976187  0.821314  0.099883  1
  Nd  Nd1  1  0.473603  0.680822  0.401353  1
  Nd  Nd2  1  0.522320  0.319661  0.899965  1
  Nd  Nd3  1  0.027400  0.180333  0.598675  1
  Nd  Nd4  1  0.027311  0.176357  0.900429  1
  Nd  Nd5  1  0.526967  0.318903  0.598688  1
  Nd  Nd6  1  0.474031  0.679804  0.100468  1
  Nd  Nd7  1  0.972504  0.818826  0.400589  1
  Dy  Dy8  1  0.648938  0.990918  0.249860  1
  Dy  Dy9  1  0.149888  0.510812  0.248775  1
  Dy  Dy10  1  0.848638  0.490682  0.751036  1
  Dy  Dy11  1  0.349429  0.011110  0.750316  1
  Dy  Dy12  1  0.677141  0.823629  0.876935  1
  Dy  Dy13  1  0.181326  0.679736  0.622516  1
  Dy  Dy14  1  0.820436  0.324770  0.123038  1
  Dy  Dy15  1  0.317743  0.177970  0.376838  1
  Dy  Dy16  1  0.321052  0.177591  0.123664  1
  Dy  Dy17  1  0.818326  0.321032  0.377055  1
  Dy  Dy18  1  0.182044  0.675708  0.877736  1
  Dy  Dy19  1  0.682357  0.822208  0.622946  1
  Si  Si20  1  0.766291  0.622564  0.250926  1
  Si  Si21  1  0.267636  0.878371  0.250837  1
  Si  Si22  1  0.733676  0.121111  0.749653  1
  Si  Si23  1  0.231434  0.379418  0.748208  1
  Si  Si24  1  0.022888  0.110973  0.250099  1
  Si  Si25  1  0.524575  0.389444  0.251152  1
  Si  Si26  1  0.473972  0.610735  0.747978  1
  Si  Si27  1  0.976282  0.887573  0.748793  1
  Si  Si28  1  0.356776  0.969560  0.539676  1
  Si  Si29  1  0.644579  0.030618  0.040728  1
  Si  Si30  1  0.143640  0.468892  0.460374  1
  Si  Si31  1  0.154905  0.467517  0.042623  1
  Si  Si32  1  0.643312  0.030588  0.460033  1
  Si  Si33  1  0.355677  0.968425  0.960906  1
  Si  Si34  1  0.857288  0.530803  0.539274  1
  Au  Au35  1  0.849428  0.531221  0.957977  1
