# generated using pymatgen
data_Lu6CrFe(Co4P3)4
_symmetry_space_group_name_H-M   'P 1'
_cell_length_a   3.64806200
_cell_length_b   10.46348900
_cell_length_c   12.08226400
_cell_angle_alpha   90.00000000
_cell_angle_beta   90.00000000
_cell_angle_gamma   90.00000000
_symmetry_Int_Tables_number   1
_chemical_formula_structural   Lu6CrFe(Co4P3)4
_chemical_formula_sum   'Lu6 Cr1 Fe1 Co16 P12'
_cell_volume   461.19761601
_cell_formula_units_Z   1
loop_
 _symmetry_equiv_pos_site_id
 _symmetry_equiv_pos_as_xyz
  1  'x, y, z'
loop_
 _atom_site_type_symbol
 _atom_site_label
 _atom_site_symmetry_multiplicity
 _atom_site_fract_x
 _atom_site_fract_y
 _atom_site_fract_z
 _atom_site_occupancy
  Lu  Lu0  1  0.000000  0.500000  0.522994  1
  Lu  Lu1  1  0.500000  0.000000  0.476381  1
  Lu  Lu2  1  0.500000  0.818761  0.204806  1
  Lu  Lu3  1  0.500000  0.181239  0.204806  1
  Lu  Lu4  1  0.000000  0.681744  0.794097  1
  Lu  Lu5  1  0.000000  0.318256  0.794097  1
  Cr  Cr6  1  0.000000  0.000000  0.845035  1
  Fe  Fe7  1  0.500000  0.500000  0.157632  1
  Co  Co8  1  0.500000  0.500000  0.702276  1
  Co  Co9  1  0.000000  0.000000  0.298536  1
  Co  Co10  1  0.000000  0.500000  0.986103  1
  Co  Co11  1  0.500000  0.000000  0.012924  1
  Co  Co12  1  0.500000  0.332251  0.993282  1
  Co  Co13  1  0.500000  0.667749  0.993282  1
  Co  Co14  1  0.000000  0.167161  0.007205  1
  Co  Co15  1  0.000000  0.832839  0.007205  1
  Co  Co16  1  0.500000  0.296958  0.431585  1
  Co  Co17  1  0.500000  0.703042  0.431585  1
  Co  Co18  1  0.000000  0.203289  0.569248  1
  Co  Co19  1  0.000000  0.796711  0.569248  1
  Co  Co20  1  0.500000  0.878582  0.708265  1
  Co  Co21  1  0.500000  0.121418  0.708265  1
  Co  Co22  1  0.000000  0.622554  0.291788  1
  Co  Co23  1  0.000000  0.377446  0.291788  1
  P  P24  1  0.500000  0.500000  0.881171  1
  P  P25  1  0.000000  0.000000  0.119673  1
  P  P26  1  0.500000  0.500000  0.345072  1
  P  P27  1  0.000000  0.000000  0.650989  1
  P  P28  1  0.500000  0.313007  0.616747  1
  P  P29  1  0.500000  0.686993  0.616747  1
  P  P30  1  0.000000  0.187440  0.383180  1
  P  P31  1  0.000000  0.812560  0.383180  1
  P  P32  1  0.500000  0.845505  0.891223  1
  P  P33  1  0.500000  0.154495  0.891223  1
  P  P34  1  0.000000  0.652771  0.109181  1
  P  P35  1  0.000000  0.347229  0.109181  1
