# generated using pymatgen
data_LiY3Tl3NiAg
_symmetry_space_group_name_H-M   'P 1'
_cell_length_a   7.95670400
_cell_length_b   7.95670504
_cell_length_c   3.71338500
_cell_angle_alpha   90.00000000
_cell_angle_beta   90.00000000
_cell_angle_gamma   119.99999566
_symmetry_Int_Tables_number   1
_chemical_formula_structural   LiY3Tl3NiAg
_chemical_formula_sum   'Li1 Y3 Tl3 Ni1 Ag1'
_cell_volume   203.59499173
_cell_formula_units_Z   1
loop_
 _symmetry_equiv_pos_site_id
 _symmetry_equiv_pos_as_xyz
  1  'x, y, z'
loop_
 _atom_site_type_symbol
 _atom_site_label
 _atom_site_symmetry_multiplicity
 _atom_site_fract_x
 _atom_site_fract_y
 _atom_site_fract_z
 _atom_site_occupancy
  Li  Li0  1  0.000000  0.000000  0.500000  1
  Y  Y1  1  0.028345  0.604526  0.500000  1
  Y  Y2  1  0.576180  0.971655  0.500000  1
  Y  Y3  1  0.395474  0.423820  0.500000  1
  Tl  Tl4  1  0.996818  0.260494  0.000000  1
  Tl  Tl5  1  0.263676  0.003182  0.000000  1
  Tl  Tl6  1  0.739506  0.736324  0.000000  1
  Ni  Ni7  1  0.333333  0.666667  0.000000  1
  Ag  Ag8  1  0.666667  0.333333  0.000000  1
