# generated using pymatgen
data_Th8Zr12Sn3Sb13
_symmetry_space_group_name_H-M   'P 1'
_cell_length_a   7.93188500
_cell_length_b   7.85338882
_cell_length_c   14.95195300
_cell_angle_alpha   90.00000000
_cell_angle_beta   90.00000000
_cell_angle_gamma   89.83947303
_symmetry_Int_Tables_number   1
_chemical_formula_structural   Th8Zr12Sn3Sb13
_chemical_formula_sum   'Th8 Zr12 Sn3 Sb13'
_cell_volume   931.38604732
_cell_formula_units_Z   1
loop_
 _symmetry_equiv_pos_site_id
 _symmetry_equiv_pos_as_xyz
  1  'x, y, z'
loop_
 _atom_site_type_symbol
 _atom_site_label
 _atom_site_symmetry_multiplicity
 _atom_site_fract_x
 _atom_site_fract_y
 _atom_site_fract_z
 _atom_site_occupancy
  Th  Th0  1  0.518143  0.325163  0.908044  1
  Th  Th1  1  0.019216  0.174650  0.593165  1
  Th  Th2  1  0.482902  0.676086  0.407980  1
  Th  Th3  1  0.983204  0.823988  0.091877  1
  Th  Th4  1  0.482902  0.676086  0.092020  1
  Th  Th5  1  0.983204  0.823988  0.408123  1
  Th  Th6  1  0.518143  0.325163  0.591956  1
  Th  Th7  1  0.019216  0.174650  0.906835  1
  Zr  Zr8  1  0.347292  0.846355  0.873854  1
  Zr  Zr9  1  0.847550  0.655624  0.624062  1
  Zr  Zr10  1  0.650257  0.156986  0.375240  1
  Zr  Zr11  1  0.151628  0.342786  0.124632  1
  Zr  Zr12  1  0.650257  0.156986  0.124760  1
  Zr  Zr13  1  0.151628  0.342786  0.375368  1
  Zr  Zr14  1  0.347292  0.846355  0.626146  1
  Zr  Zr15  1  0.847550  0.655624  0.875938  1
  Zr  Zr16  1  0.174329  0.507276  0.750000  1
  Zr  Zr17  1  0.672407  0.991224  0.750000  1
  Zr  Zr18  1  0.826400  0.491175  0.250000  1
  Zr  Zr19  1  0.326743  0.008275  0.250000  1
  Sn  Sn20  1  0.819645  0.351388  0.750000  1
  Sn  Sn21  1  0.681036  0.850374  0.250000  1
  Sn  Sn22  1  0.180093  0.649490  0.250000  1
  Sb  Sb23  1  0.311609  0.046436  0.045510  1
  Sb  Sb24  1  0.811803  0.452297  0.454208  1
  Sb  Sb25  1  0.688798  0.953899  0.545613  1
  Sb  Sb26  1  0.188999  0.547634  0.954227  1
  Sb  Sb27  1  0.688798  0.953899  0.954387  1
  Sb  Sb28  1  0.188999  0.547634  0.545773  1
  Sb  Sb29  1  0.311609  0.046436  0.454490  1
  Sb  Sb30  1  0.811803  0.452297  0.045792  1
  Sb  Sb31  1  0.543905  0.626285  0.750000  1
  Sb  Sb32  1  0.038852  0.868042  0.750000  1
  Sb  Sb33  1  0.455649  0.373470  0.250000  1
  Sb  Sb34  1  0.955765  0.127022  0.250000  1
  Sb  Sb35  1  0.322371  0.152170  0.750000  1
