# generated using pymatgen
data_Yb5Tm11(HfIr3)4
_symmetry_space_group_name_H-M   'P 1'
_cell_length_a   10.77777499
_cell_length_b   10.69185933
_cell_length_c   6.23333258
_cell_angle_alpha   90.11876939
_cell_angle_beta   90.03075627
_cell_angle_gamma   89.96161469
_symmetry_Int_Tables_number   1
_chemical_formula_structural   Yb5Tm11(HfIr3)4
_chemical_formula_sum   'Yb5 Tm11 Hf4 Ir12'
_cell_volume   718.29286957
_cell_formula_units_Z   1
loop_
 _symmetry_equiv_pos_site_id
 _symmetry_equiv_pos_as_xyz
  1  'x, y, z'
loop_
 _atom_site_type_symbol
 _atom_site_label
 _atom_site_symmetry_multiplicity
 _atom_site_fract_x
 _atom_site_fract_y
 _atom_site_fract_z
 _atom_site_occupancy
  Yb  Yb0  1  0.288095  0.086018  0.370505  1
  Yb  Yb1  1  0.289196  0.914100  0.870672  1
  Yb  Yb2  1  0.712254  0.083903  0.870618  1
  Yb  Yb3  1  0.711709  0.915280  0.370146  1
  Yb  Yb4  1  0.586429  0.790897  0.869384  1
  Tm  Tm5  1  0.582394  0.206201  0.373034  1
  Tm  Tm6  1  0.415824  0.794721  0.373332  1
  Tm  Tm7  1  0.415222  0.206985  0.873273  1
  Tm  Tm8  1  0.210841  0.415517  0.627826  1
  Tm  Tm9  1  0.210863  0.584741  0.128431  1
  Tm  Tm10  1  0.788572  0.415253  0.128164  1
  Tm  Tm11  1  0.789151  0.583797  0.626850  1
  Tm  Tm12  1  0.916537  0.710745  0.129533  1
  Tm  Tm13  1  0.915439  0.289074  0.627875  1
  Tm  Tm14  1  0.084523  0.710697  0.628084  1
  Tm  Tm15  1  0.084110  0.289378  0.128113  1
  Hf  Hf16  1  0.000647  0.000228  0.498789  1
  Hf  Hf17  1  0.000768  0.000198  0.999735  1
  Hf  Hf18  1  0.499456  0.500630  0.999249  1
  Hf  Hf19  1  0.499767  0.499239  0.498882  1
  Ir  Ir20  1  0.862277  0.149648  0.252643  1
  Ir  Ir21  1  0.866602  0.850574  0.749904  1
  Ir  Ir22  1  0.137886  0.150044  0.753117  1
  Ir  Ir23  1  0.138632  0.849532  0.252078  1
  Ir  Ir24  1  0.643281  0.359350  0.748513  1
  Ir  Ir25  1  0.643343  0.639438  0.253853  1
  Ir  Ir26  1  0.356426  0.359471  0.245864  1
  Ir  Ir27  1  0.352241  0.637834  0.743522  1
  Ir  Ir28  1  0.498974  0.003582  0.123046  1
  Ir  Ir29  1  0.499230  0.003049  0.623515  1
  Ir  Ir30  1  0.999705  0.499997  0.880830  1
  Ir  Ir31  1  0.999607  0.499877  0.380619  1
