# generated using pymatgen
data_TbTh3Al13Ga5Ir6
_symmetry_space_group_name_H-M   'P 1'
_cell_length_a   7.62129309
_cell_length_b   7.62449814
_cell_length_c   9.57774700
_cell_angle_alpha   90.00000000
_cell_angle_beta   90.00000000
_cell_angle_gamma   119.54923115
_symmetry_Int_Tables_number   1
_chemical_formula_structural   TbTh3Al13Ga5Ir6
_chemical_formula_sum   'Tb1 Th3 Al13 Ga5 Ir6'
_cell_volume   484.15979710
_cell_formula_units_Z   1
loop_
 _symmetry_equiv_pos_site_id
 _symmetry_equiv_pos_as_xyz
  1  'x, y, z'
loop_
 _atom_site_type_symbol
 _atom_site_label
 _atom_site_symmetry_multiplicity
 _atom_site_fract_x
 _atom_site_fract_y
 _atom_site_fract_z
 _atom_site_occupancy
  Tb  Tb0  1  0.329723  0.007033  0.750000  1
  Th  Th1  1  0.994746  0.670639  0.250000  1
  Th  Th2  1  0.000629  0.327053  0.750000  1
  Th  Th3  1  0.670226  0.995490  0.250000  1
  Al  Al4  1  0.006092  0.335856  0.073120  1
  Al  Al5  1  0.000768  0.669366  0.924107  1
  Al  Al6  1  0.000768  0.669366  0.575893  1
  Al  Al7  1  0.335036  0.004000  0.432475  1
  Al  Al8  1  0.006092  0.335856  0.426880  1
  Al  Al9  1  0.659363  0.994796  0.575574  1
  Al  Al10  1  0.659363  0.994796  0.924426  1
  Al  Al11  1  0.335036  0.004000  0.067525  1
  Al  Al12  1  0.336130  0.333507  0.556760  1
  Al  Al13  1  0.663458  0.663319  0.453214  1
  Al  Al14  1  0.663458  0.663319  0.046786  1
  Al  Al15  1  0.336130  0.333507  0.943240  1
  Al  Al16  1  0.452066  0.662415  0.750000  1
  Ga  Ga17  1  0.136839  0.134210  0.250000  1
  Ga  Ga18  1  0.868958  0.865741  0.750000  1
  Ga  Ga19  1  0.342671  0.544276  0.250000  1
  Ga  Ga20  1  0.656086  0.451858  0.750000  1
  Ga  Ga21  1  0.543530  0.339954  0.250000  1
  Ir  Ir22  1  0.674216  0.328475  0.000503  1
  Ir  Ir23  1  0.328231  0.670671  0.998164  1
  Ir  Ir24  1  0.328231  0.670671  0.501836  1
  Ir  Ir25  1  0.674216  0.328475  0.499497  1
  Ir  Ir26  1  0.998970  0.000677  0.000646  1
  Ir  Ir27  1  0.998970  0.000677  0.499354  1
