# generated using pymatgen
data_Ba5Mn4CO13
_symmetry_space_group_name_H-M   'P 1'
_cell_length_a   3.95046400
_cell_length_b   9.27160115
_cell_length_c   9.26376261
_cell_angle_alpha   90.09828734
_cell_angle_beta   90.00000000
_cell_angle_gamma   90.00000000
_symmetry_Int_Tables_number   1
_chemical_formula_structural   Ba5Mn4CO13
_chemical_formula_sum   'Ba5 Mn4 C1 O13'
_cell_volume   339.30450620
_cell_formula_units_Z   1
loop_
 _symmetry_equiv_pos_site_id
 _symmetry_equiv_pos_as_xyz
  1  'x, y, z'
loop_
 _atom_site_type_symbol
 _atom_site_label
 _atom_site_symmetry_multiplicity
 _atom_site_fract_x
 _atom_site_fract_y
 _atom_site_fract_z
 _atom_site_occupancy
  Ba  Ba0  1  0.000000  0.002377  0.000488  1
  Ba  Ba1  1  0.000000  0.185134  0.396104  1
  Ba  Ba2  1  0.000000  0.813053  0.608760  1
  Ba  Ba3  1  0.000000  0.398347  0.810243  1
  Ba  Ba4  1  0.000000  0.611117  0.184368  1
  Mn  Mn5  1  0.500000  0.299445  0.086774  1
  Mn  Mn6  1  0.500000  0.705806  0.911393  1
  Mn  Mn7  1  0.500000  0.089415  0.704398  1
  Mn  Mn8  1  0.500000  0.914395  0.297554  1
  C  C9  1  0.500000  0.505732  0.522178  1
  O  O10  1  0.500000  0.121994  0.197722  1
  O  O11  1  0.500000  0.885354  0.804457  1
  O  O12  1  0.500000  0.201599  0.881709  1
  O  O13  1  0.500000  0.807232  0.118792  1
  O  O14  1  0.000000  0.319268  0.117762  1
  O  O15  1  0.000000  0.690328  0.891369  1
  O  O16  1  0.000000  0.112573  0.688037  1
  O  O17  1  0.000000  0.888703  0.316653  1
  O  O18  1  0.500000  0.500878  0.998753  1
  O  O19  1  0.500000  0.999068  0.501551  1
  O  O20  1  0.500000  0.578807  0.643183  1
  O  O21  1  0.500000  0.365401  0.527538  1
  O  O22  1  0.500000  0.573975  0.400212  1
