# generated using pymatgen
data_Rb3Ho2(BO3)3
_symmetry_space_group_name_H-M   'P 1'
_cell_length_a   8.81202900
_cell_length_b   9.68968200
_cell_length_c   12.37772600
_cell_angle_alpha   90.00000000
_cell_angle_beta   90.00000000
_cell_angle_gamma   90.00000000
_symmetry_Int_Tables_number   1
_chemical_formula_structural   Rb3Ho2(BO3)3
_chemical_formula_sum   'Rb12 Ho8 B12 O36'
_cell_volume   1056.88152654
_cell_formula_units_Z   4
loop_
 _symmetry_equiv_pos_site_id
 _symmetry_equiv_pos_as_xyz
  1  'x, y, z'
loop_
 _atom_site_type_symbol
 _atom_site_label
 _atom_site_symmetry_multiplicity
 _atom_site_fract_x
 _atom_site_fract_y
 _atom_site_fract_z
 _atom_site_occupancy
  Rb  Rb0  1  0.352573  0.358610  0.742728  1
  Rb  Rb1  1  0.203826  0.033417  0.576945  1
  Rb  Rb2  1  0.796174  0.966583  0.076945  1
  Rb  Rb3  1  0.092511  0.694494  0.592839  1
  Rb  Rb4  1  0.147427  0.858610  0.242728  1
  Rb  Rb5  1  0.852573  0.141390  0.742728  1
  Rb  Rb6  1  0.296174  0.533417  0.076945  1
  Rb  Rb7  1  0.907489  0.305506  0.092839  1
  Rb  Rb8  1  0.703826  0.466583  0.576945  1
  Rb  Rb9  1  0.647427  0.641390  0.242728  1
  Rb  Rb10  1  0.592511  0.805506  0.592839  1
  Rb  Rb11  1  0.407489  0.194494  0.092839  1
  Ho  Ho12  1  0.011287  0.508727  0.329667  1
  Ho  Ho13  1  0.643572  0.613421  0.898620  1
  Ho  Ho14  1  0.988713  0.491273  0.829667  1
  Ho  Ho15  1  0.488713  0.008727  0.829667  1
  Ho  Ho16  1  0.356428  0.386579  0.398620  1
  Ho  Ho17  1  0.856428  0.113421  0.398620  1
  Ho  Ho18  1  0.143572  0.886579  0.898620  1
  Ho  Ho19  1  0.511287  0.991273  0.329667  1
  B  B20  1  0.136787  0.174849  0.905942  1
  B  B21  1  0.363213  0.674849  0.405942  1
  B  B22  1  0.169877  0.196065  0.290073  1
  B  B23  1  0.863213  0.825151  0.405942  1
  B  B24  1  0.330123  0.696065  0.790073  1
  B  B25  1  0.669877  0.303935  0.290073  1
  B  B26  1  0.034367  0.348457  0.563631  1
  B  B27  1  0.465633  0.848457  0.063631  1
  B  B28  1  0.965633  0.651543  0.063631  1
  B  B29  1  0.830123  0.803935  0.790073  1
  B  B30  1  0.534367  0.151543  0.563631  1
  B  B31  1  0.636787  0.325151  0.905942  1
  O  O32  1  0.477436  0.905252  0.166675  1
  O  O33  1  0.539267  0.378306  0.277135  1
  O  O34  1  0.381391  0.918473  0.985211  1
  O  O35  1  0.881391  0.581527  0.985211  1
  O  O36  1  0.305316  0.140216  0.331992  1
  O  O37  1  0.250257  0.610069  0.342324  1
  O  O38  1  0.960191  0.227406  0.536869  1
  O  O39  1  0.615046  0.182775  0.905918  1
  O  O40  1  0.618609  0.081527  0.485211  1
  O  O41  1  0.805316  0.359784  0.331992  1
  O  O42  1  0.977436  0.594748  0.166675  1
  O  O43  1  0.953197  0.913207  0.466345  1
  O  O44  1  0.674606  0.162415  0.263316  1
  O  O45  1  0.884954  0.682775  0.405918  1
  O  O46  1  0.460191  0.272594  0.536869  1
  O  O47  1  0.453197  0.586793  0.466345  1
  O  O48  1  0.325394  0.837585  0.763316  1
  O  O49  1  0.546803  0.413207  0.966345  1
  O  O50  1  0.174606  0.337585  0.263316  1
  O  O51  1  0.249743  0.110069  0.842324  1
  O  O52  1  0.046803  0.086793  0.966345  1
  O  O53  1  0.522564  0.094748  0.666675  1
  O  O54  1  0.039267  0.121694  0.277135  1
  O  O55  1  0.118609  0.418473  0.485211  1
  O  O56  1  0.384954  0.817225  0.405918  1
  O  O57  1  0.694684  0.859784  0.831992  1
  O  O58  1  0.825394  0.662415  0.763316  1
  O  O59  1  0.194684  0.640216  0.831992  1
  O  O60  1  0.750257  0.889931  0.342324  1
  O  O61  1  0.960733  0.878306  0.777135  1
  O  O62  1  0.039809  0.772594  0.036869  1
  O  O63  1  0.022564  0.405252  0.666675  1
  O  O64  1  0.115046  0.317225  0.905918  1
  O  O65  1  0.749743  0.389931  0.842324  1
  O  O66  1  0.460733  0.621694  0.777135  1
  O  O67  1  0.539809  0.727406  0.036869  1
