# generated using pymatgen
data_DyLu2Fe8Ru
_symmetry_space_group_name_H-M   'P 1'
_cell_length_a   5.07138491
_cell_length_b   5.07138383
_cell_length_c   8.69920612
_cell_angle_alpha   73.05309607
_cell_angle_beta   73.05309935
_cell_angle_gamma   60.00000043
_symmetry_Int_Tables_number   1
_chemical_formula_structural   DyLu2Fe8Ru
_chemical_formula_sum   'Dy1 Lu2 Fe8 Ru1'
_cell_volume   182.45482492
_cell_formula_units_Z   1
loop_
 _symmetry_equiv_pos_site_id
 _symmetry_equiv_pos_as_xyz
  1  'x, y, z'
loop_
 _atom_site_type_symbol
 _atom_site_label
 _atom_site_symmetry_multiplicity
 _atom_site_fract_x
 _atom_site_fract_y
 _atom_site_fract_z
 _atom_site_occupancy
  Dy  Dy0  1  0.000000  0.000000  0.000000  1
  Lu  Lu1  1  0.142025  0.142025  0.573927  1
  Lu  Lu2  1  0.857975  0.857975  0.426073  1
  Fe  Fe3  1  0.077099  0.583221  0.756460  1
  Fe  Fe4  1  0.583221  0.583221  0.756460  1
  Fe  Fe5  1  0.583221  0.077099  0.756460  1
  Fe  Fe6  1  0.922901  0.416779  0.243540  1
  Fe  Fe7  1  0.416779  0.416779  0.243540  1
  Fe  Fe8  1  0.416779  0.922901  0.243540  1
  Fe  Fe9  1  0.333191  0.333191  0.000426  1
  Fe  Fe10  1  0.666808  0.666808  0.999574  1
  Ru  Ru11  1  0.500000  0.500000  0.500000  1
