# generated using pymatgen
data_TbDy2Tm5Pt4
_symmetry_space_group_name_H-M   'P 1'
_cell_length_a   4.74255400
_cell_length_b   7.09538006
_cell_length_c   8.71270700
_cell_angle_alpha   89.96679357
_cell_angle_beta   90.00000000
_cell_angle_gamma   90.00000000
_symmetry_Int_Tables_number   1
_chemical_formula_structural   TbDy2Tm5Pt4
_chemical_formula_sum   'Tb1 Dy2 Tm5 Pt4'
_cell_volume   293.18448528
_cell_formula_units_Z   1
loop_
 _symmetry_equiv_pos_site_id
 _symmetry_equiv_pos_as_xyz
  1  'x, y, z'
loop_
 _atom_site_type_symbol
 _atom_site_label
 _atom_site_symmetry_multiplicity
 _atom_site_fract_x
 _atom_site_fract_y
 _atom_site_fract_z
 _atom_site_occupancy
  Tb  Tb0  1  0.250000  0.510441  0.170802  1
  Dy  Dy1  1  0.750000  0.989260  0.669534  1
  Dy  Dy2  1  0.750000  0.489395  0.829741  1
  Tm  Tm3  1  0.250000  0.143920  0.921395  1
  Tm  Tm4  1  0.250000  0.644495  0.578699  1
  Tm  Tm5  1  0.750000  0.856364  0.080071  1
  Tm  Tm6  1  0.750000  0.355091  0.421015  1
  Tm  Tm7  1  0.250000  0.010730  0.331335  1
  Pt  Pt8  1  0.250000  0.242730  0.591859  1
  Pt  Pt9  1  0.250000  0.743289  0.906212  1
  Pt  Pt10  1  0.750000  0.758114  0.405918  1
  Pt  Pt11  1  0.750000  0.256170  0.093420  1
