# generated using pymatgen
data_Y3LuCo4(CuO5)4
_symmetry_space_group_name_H-M   'P 1'
_cell_length_a   5.61595700
_cell_length_b   7.43642597
_cell_length_c   8.35987098
_cell_angle_alpha   89.81330601
_cell_angle_beta   90.00000000
_cell_angle_gamma   90.00000000
_symmetry_Int_Tables_number   1
_chemical_formula_structural   Y3LuCo4(CuO5)4
_chemical_formula_sum   'Y3 Lu1 Co4 Cu4 O20'
_cell_volume   349.12849977
_cell_formula_units_Z   1
loop_
 _symmetry_equiv_pos_site_id
 _symmetry_equiv_pos_as_xyz
  1  'x, y, z'
loop_
 _atom_site_type_symbol
 _atom_site_label
 _atom_site_symmetry_multiplicity
 _atom_site_fract_x
 _atom_site_fract_y
 _atom_site_fract_z
 _atom_site_occupancy
  Y  Y0  1  0.500000  0.647251  0.671967  1
  Y  Y1  1  0.500000  0.148570  0.826795  1
  Y  Y2  1  0.500000  0.851940  0.173450  1
  Lu  Lu3  1  0.500000  0.350438  0.326580  1
  Co  Co4  1  0.242824  0.002347  0.499155  1
  Co  Co5  1  0.757176  0.002347  0.499155  1
  Co  Co6  1  0.756913  0.499045  0.001056  1
  Co  Co7  1  0.243087  0.499045  0.001056  1
  Cu  Cu8  1  0.000000  0.076531  0.154046  1
  Cu  Cu9  1  0.000000  0.926927  0.846523  1
  Cu  Cu10  1  0.000000  0.424870  0.652527  1
  Cu  Cu11  1  0.000000  0.567880  0.345946  1
  O  O12  1  0.227634  0.999548  0.000922  1
  O  O13  1  0.772366  0.999548  0.000922  1
  O  O14  1  0.769093  0.494990  0.497301  1
  O  O15  1  0.230907  0.494990  0.497301  1
  O  O16  1  0.000000  0.350850  0.060762  1
  O  O17  1  0.000000  0.648335  0.941485  1
  O  O18  1  0.000000  0.148952  0.560963  1
  O  O19  1  0.000000  0.853634  0.437273  1
  O  O20  1  0.259683  0.100227  0.292050  1
  O  O21  1  0.741490  0.907439  0.707811  1
  O  O22  1  0.258510  0.907439  0.707811  1
  O  O23  1  0.741905  0.407374  0.791914  1
  O  O24  1  0.740317  0.100227  0.292050  1
  O  O25  1  0.260857  0.589056  0.210000  1
  O  O26  1  0.739143  0.589056  0.210000  1
  O  O27  1  0.258095  0.407374  0.791914  1
  O  O28  1  0.500000  0.335969  0.055816  1
  O  O29  1  0.500000  0.661994  0.948153  1
  O  O30  1  0.500000  0.166171  0.550155  1
  O  O31  1  0.500000  0.839636  0.447142  1
