# generated using pymatgen
data_HoEr15(In3Ir)2
_symmetry_space_group_name_H-M   'P 1'
_cell_length_a   10.34113600
_cell_length_b   10.34191307
_cell_length_c   7.00425201
_cell_angle_alpha   90.00361303
_cell_angle_beta   90.00062108
_cell_angle_gamma   119.99946196
_symmetry_Int_Tables_number   1
_chemical_formula_structural   HoEr15(In3Ir)2
_chemical_formula_sum   'Ho1 Er15 In6 Ir2'
_cell_volume   648.72984901
_cell_formula_units_Z   1
loop_
 _symmetry_equiv_pos_site_id
 _symmetry_equiv_pos_as_xyz
  1  'x, y, z'
loop_
 _atom_site_type_symbol
 _atom_site_label
 _atom_site_symmetry_multiplicity
 _atom_site_fract_x
 _atom_site_fract_y
 _atom_site_fract_z
 _atom_site_occupancy
  Ho  Ho0  1  0.533032  0.066064  0.792964  1
  Er  Er1  1  0.933800  0.466918  0.792943  1
  Er  Er2  1  0.533117  0.466920  0.792910  1
  Er  Er3  1  0.466832  0.933678  0.292977  1
  Er  Er4  1  0.066266  0.533147  0.292933  1
  Er  Er5  1  0.466883  0.533139  0.292928  1
  Er  Er6  1  0.823365  0.646730  0.499778  1
  Er  Er7  1  0.353146  0.176628  0.499650  1
  Er  Er8  1  0.823478  0.176620  0.499663  1
  Er  Er9  1  0.176627  0.353255  0.999766  1
  Er  Er10  1  0.646799  0.823308  0.999824  1
  Er  Er11  1  0.176520  0.823312  0.999814  1
  Er  Er12  1  0.666721  0.333432  0.174033  1
  Er  Er13  1  0.333293  0.666598  0.673992  1
  Er  Er14  1  0.999984  0.999974  0.778551  1
  Er  Er15  1  0.999992  0.000015  0.278566  1
  In  In16  1  0.837206  0.674413  0.039175  1
  In  In17  1  0.325504  0.162804  0.039268  1
  In  In18  1  0.837305  0.162810  0.039268  1
  In  In19  1  0.162786  0.325574  0.539197  1
  In  In20  1  0.674422  0.837195  0.539179  1
  In  In21  1  0.162780  0.837192  0.539172  1
  Ir  Ir22  1  0.666785  0.333582  0.569598  1
  Ir  Ir23  1  0.333356  0.666693  0.069753  1
