# generated using pymatgen
data_Ho(Zn2Pt)2
_symmetry_space_group_name_H-M   'P 1'
_cell_length_a   7.50713900
_cell_length_b   7.50713900
_cell_length_c   4.28896400
_cell_angle_alpha   90.00000000
_cell_angle_beta   90.00000000
_cell_angle_gamma   90.00000000
_symmetry_Int_Tables_number   1
_chemical_formula_structural   Ho(Zn2Pt)2
_chemical_formula_sum   'Ho2 Zn8 Pt4'
_cell_volume   241.71372730
_cell_formula_units_Z   2
loop_
 _symmetry_equiv_pos_site_id
 _symmetry_equiv_pos_as_xyz
  1  'x, y, z'
loop_
 _atom_site_type_symbol
 _atom_site_label
 _atom_site_symmetry_multiplicity
 _atom_site_fract_x
 _atom_site_fract_y
 _atom_site_fract_z
 _atom_site_occupancy
  Ho  Ho0  1  0.500000  0.500000  0.500000  1
  Ho  Ho1  1  0.000000  0.000000  0.000000  1
  Zn  Zn2  1  0.352661  0.100054  0.500000  1
  Zn  Zn3  1  0.647339  0.899946  0.500000  1
  Zn  Zn4  1  0.852661  0.399946  0.000000  1
  Zn  Zn5  1  0.147339  0.600054  0.000000  1
  Zn  Zn6  1  0.100054  0.352661  0.500000  1
  Zn  Zn7  1  0.899946  0.647339  0.500000  1
  Zn  Zn8  1  0.399946  0.852661  0.000000  1
  Zn  Zn9  1  0.600054  0.147339  0.000000  1
  Pt  Pt10  1  0.786448  0.213552  0.500000  1
  Pt  Pt11  1  0.213552  0.786448  0.500000  1
  Pt  Pt12  1  0.286448  0.286448  0.000000  1
  Pt  Pt13  1  0.713552  0.713552  0.000000  1
