# generated using pymatgen
data_Pa2Hg2C
_symmetry_space_group_name_H-M   'P 1'
_cell_length_a   3.40766100
_cell_length_b   3.40766349
_cell_length_c   10.90158400
_cell_angle_alpha   90.00000000
_cell_angle_beta   90.00000000
_cell_angle_gamma   120.00000497
_symmetry_Int_Tables_number   1
_chemical_formula_structural   Pa2Hg2C
_chemical_formula_sum   'Pa2 Hg2 C1'
_cell_volume   109.63098099
_cell_formula_units_Z   1
loop_
 _symmetry_equiv_pos_site_id
 _symmetry_equiv_pos_as_xyz
  1  'x, y, z'
loop_
 _atom_site_type_symbol
 _atom_site_label
 _atom_site_symmetry_multiplicity
 _atom_site_fract_x
 _atom_site_fract_y
 _atom_site_fract_z
 _atom_site_occupancy
  Pa  Pa0  1  0.333333  0.666666  0.366386  1
  Pa  Pa1  1  0.666665  0.333333  0.633615  1
  Hg  Hg2  1  0.666665  0.333333  0.117069  1
  Hg  Hg3  1  0.333333  0.666666  0.882931  1
  C  C4  1  0.000000  0.000000  0.500000  1
