# generated using pymatgen
data_Tb6Co23
_symmetry_space_group_name_H-M   'P 1'
_cell_length_a   8.34516252
_cell_length_b   8.34516067
_cell_length_c   8.34517100
_cell_angle_alpha   59.99995508
_cell_angle_beta   59.99996241
_cell_angle_gamma   60.00008766
_symmetry_Int_Tables_number   1
_chemical_formula_structural   Tb6Co23
_chemical_formula_sum   'Tb6 Co23'
_cell_volume   410.95073401
_cell_formula_units_Z   1
loop_
 _symmetry_equiv_pos_site_id
 _symmetry_equiv_pos_as_xyz
  1  'x, y, z'
loop_
 _atom_site_type_symbol
 _atom_site_label
 _atom_site_symmetry_multiplicity
 _atom_site_fract_x
 _atom_site_fract_y
 _atom_site_fract_z
 _atom_site_occupancy
  Tb  Tb0  1  0.786276  0.786275  0.213725  1
  Tb  Tb1  1  0.213724  0.786276  0.213725  1
  Tb  Tb2  1  0.786276  0.213724  0.213724  1
  Tb  Tb3  1  0.213724  0.213725  0.786275  1
  Tb  Tb4  1  0.786276  0.213724  0.786275  1
  Tb  Tb5  1  0.213724  0.786276  0.786276  1
  Co  Co6  1  0.500000  0.500000  0.500000  1
  Co  Co7  1  0.000000  0.000000  0.500000  1
  Co  Co8  1  0.500000  0.000000  0.500000  1
  Co  Co9  1  0.000000  0.500000  0.500000  1
  Co  Co10  1  0.500000  0.500000  0.000000  1
  Co  Co11  1  0.000000  0.500000  0.000000  1
  Co  Co12  1  0.500000  0.000000  0.000000  1
  Co  Co13  1  0.623684  0.623684  0.128948  1
  Co  Co14  1  0.623684  0.128947  0.623684  1
  Co  Co15  1  0.128947  0.623684  0.623684  1
  Co  Co16  1  0.623684  0.623684  0.623684  1
  Co  Co17  1  0.376316  0.376316  0.871052  1
  Co  Co18  1  0.376316  0.871053  0.376316  1
  Co  Co19  1  0.871053  0.376316  0.376316  1
  Co  Co20  1  0.376316  0.376316  0.376316  1
  Co  Co21  1  0.822314  0.822314  0.533055  1
  Co  Co22  1  0.822315  0.533055  0.822314  1
  Co  Co23  1  0.533055  0.822315  0.822314  1
  Co  Co24  1  0.822314  0.822314  0.822315  1
  Co  Co25  1  0.177686  0.177686  0.466945  1
  Co  Co26  1  0.177685  0.466945  0.177686  1
  Co  Co27  1  0.466945  0.177685  0.177686  1
  Co  Co28  1  0.177686  0.177686  0.177685  1
