# generated using pymatgen
data_Ho12TlFe2AgRu
_symmetry_space_group_name_H-M   'P 1'
_cell_length_a   8.30491121
_cell_length_b   8.30490906
_cell_length_c   8.30490999
_cell_angle_alpha   107.12524039
_cell_angle_beta   110.35062462
_cell_angle_gamma   110.96360291
_symmetry_Int_Tables_number   1
_chemical_formula_structural   Ho12TlFe2AgRu
_chemical_formula_sum   'Ho12 Tl1 Fe2 Ag1 Ru1'
_cell_volume   440.37858011
_cell_formula_units_Z   1
loop_
 _symmetry_equiv_pos_site_id
 _symmetry_equiv_pos_as_xyz
  1  'x, y, z'
loop_
 _atom_site_type_symbol
 _atom_site_label
 _atom_site_symmetry_multiplicity
 _atom_site_fract_x
 _atom_site_fract_y
 _atom_site_fract_z
 _atom_site_occupancy
  Ho  Ho0  1  0.446062  0.194569  0.251494  1
  Ho  Ho1  1  0.553938  0.805431  0.748506  1
  Ho  Ho2  1  0.943077  0.194569  0.748506  1
  Ho  Ho3  1  0.191359  0.960640  0.769279  1
  Ho  Ho4  1  0.056923  0.805431  0.251494  1
  Ho  Ho5  1  0.808641  0.039360  0.230721  1
  Ho  Ho6  1  0.191359  0.422078  0.230719  1
  Ho  Ho7  1  0.808641  0.577922  0.769281  1
  Ho  Ho8  1  0.308710  0.308637  0.617345  1
  Ho  Ho9  1  0.691290  0.691363  0.382655  1
  Ho  Ho10  1  0.308709  0.691363  0.000073  1
  Ho  Ho11  1  0.691291  0.308637  0.999927  1
  Tl  Tl12  1  0.000000  0.500000  0.500000  1
  Fe  Fe13  1  0.383932  0.383931  0.999999  1
  Fe  Fe14  1  0.616068  0.616069  0.000001  1
  Ag  Ag15  1  0.500000  0.000000  0.500000  1
  Ru  Ru16  1  0.000000  0.000000  0.000000  1
