# generated using pymatgen
data_CsNd2HoSe5
_symmetry_space_group_name_H-M   'P 1'
_cell_length_a   4.25794500
_cell_length_b   12.92864300
_cell_length_c   22.63228400
_cell_angle_alpha   90.00000000
_cell_angle_beta   90.00000000
_cell_angle_gamma   90.00000000
_symmetry_Int_Tables_number   1
_chemical_formula_structural   CsNd2HoSe5
_chemical_formula_sum   'Cs4 Nd8 Ho4 Se20'
_cell_volume   1245.89480497
_cell_formula_units_Z   4
loop_
 _symmetry_equiv_pos_site_id
 _symmetry_equiv_pos_as_xyz
  1  'x, y, z'
loop_
 _atom_site_type_symbol
 _atom_site_label
 _atom_site_symmetry_multiplicity
 _atom_site_fract_x
 _atom_site_fract_y
 _atom_site_fract_z
 _atom_site_occupancy
  Cs  Cs0  1  0.250000  0.847317  0.094157  1
  Cs  Cs1  1  0.750000  0.152683  0.905843  1
  Cs  Cs2  1  0.750000  0.347317  0.405843  1
  Cs  Cs3  1  0.250000  0.652683  0.594157  1
  Nd  Nd4  1  0.750000  0.798735  0.829838  1
  Nd  Nd5  1  0.250000  0.201265  0.170162  1
  Nd  Nd6  1  0.250000  0.298735  0.670162  1
  Nd  Nd7  1  0.750000  0.701265  0.329838  1
  Nd  Nd8  1  0.250000  0.959471  0.698029  1
  Nd  Nd9  1  0.750000  0.040529  0.301971  1
  Nd  Nd10  1  0.750000  0.459471  0.801971  1
  Nd  Nd11  1  0.250000  0.540529  0.198029  1
  Ho  Ho12  1  0.750000  0.394366  0.052202  1
  Ho  Ho13  1  0.250000  0.605634  0.947798  1
  Ho  Ho14  1  0.250000  0.894366  0.447798  1
  Ho  Ho15  1  0.750000  0.105634  0.552202  1
  Se  Se16  1  0.250000  0.953221  0.567388  1
  Se  Se17  1  0.750000  0.046779  0.432612  1
  Se  Se18  1  0.750000  0.453221  0.932612  1
  Se  Se19  1  0.250000  0.546779  0.067388  1
  Se  Se20  1  0.750000  0.753275  0.957683  1
  Se  Se21  1  0.250000  0.246725  0.042317  1
  Se  Se22  1  0.250000  0.253275  0.542317  1
  Se  Se23  1  0.750000  0.746725  0.457683  1
  Se  Se24  1  0.250000  0.952257  0.828938  1
  Se  Se25  1  0.750000  0.047743  0.171062  1
  Se  Se26  1  0.750000  0.452257  0.671062  1
  Se  Se27  1  0.250000  0.547743  0.328938  1
  Se  Se28  1  0.750000  0.127727  0.680780  1
  Se  Se29  1  0.250000  0.872273  0.319220  1
  Se  Se30  1  0.250000  0.627727  0.819220  1
  Se  Se31  1  0.750000  0.372273  0.180780  1
  Se  Se32  1  0.750000  0.692691  0.198792  1
  Se  Se33  1  0.250000  0.307309  0.801208  1
  Se  Se34  1  0.250000  0.192691  0.301208  1
  Se  Se35  1  0.750000  0.807309  0.698792  1
