# generated using pymatgen
data_K12Ga2AsP5
_symmetry_space_group_name_H-M   'P 1'
_cell_length_a   8.86996436
_cell_length_b   8.83808913
_cell_length_c   10.04765058
_cell_angle_alpha   81.57202107
_cell_angle_beta   107.07206615
_cell_angle_gamma   119.21759955
_symmetry_Int_Tables_number   1
_chemical_formula_structural   K12Ga2AsP5
_chemical_formula_sum   'K12 Ga2 As1 P5'
_cell_volume   657.16024004
_cell_formula_units_Z   1
loop_
 _symmetry_equiv_pos_site_id
 _symmetry_equiv_pos_as_xyz
  1  'x, y, z'
loop_
 _atom_site_type_symbol
 _atom_site_label
 _atom_site_symmetry_multiplicity
 _atom_site_fract_x
 _atom_site_fract_y
 _atom_site_fract_z
 _atom_site_occupancy
  K  K0  1  0.733430  0.123955  0.618206  1
  K  K1  1  0.254340  0.859719  0.392761  1
  K  K2  1  0.965173  0.816555  0.629622  1
  K  K3  1  0.026170  0.195169  0.394633  1
  K  K4  1  0.624469  0.446420  0.399032  1
  K  K5  1  0.402865  0.563295  0.597336  1
  K  K6  1  0.864752  0.484311  0.137564  1
  K  K7  1  0.107098  0.500717  0.840537  1
  K  K8  1  0.742439  0.091816  0.986789  1
  K  K9  1  0.251406  0.881740  0.003371  1
  K  K10  1  0.568369  0.628471  0.946350  1
  K  K11  1  0.247293  0.205534  0.108168  1
  Ga  Ga12  1  0.595138  0.837022  0.256597  1
  Ga  Ga13  1  0.417944  0.174192  0.748857  1
  As  As14  1  0.299801  0.564065  0.228765  1
  P  P15  1  0.699493  0.424096  0.762738  1
  P  P16  1  0.601182  0.106748  0.264111  1
  P  P17  1  0.385056  0.887325  0.736728  1
  P  P18  1  0.851598  0.822899  0.245668  1
  P  P19  1  0.171361  0.202691  0.763548  1
