# generated using pymatgen
data_Ba3(OsO5)2
_symmetry_space_group_name_H-M   'P 1'
_cell_length_a   8.23315210
_cell_length_b   8.23315195
_cell_length_c   8.46664676
_cell_angle_alpha   72.74230314
_cell_angle_beta   72.74231230
_cell_angle_gamma   89.47554705
_symmetry_Int_Tables_number   1
_chemical_formula_structural   Ba3(OsO5)2
_chemical_formula_sum   'Ba6 Os4 O20'
_cell_volume   521.43796213
_cell_formula_units_Z   2
loop_
 _symmetry_equiv_pos_site_id
 _symmetry_equiv_pos_as_xyz
  1  'x, y, z'
loop_
 _atom_site_type_symbol
 _atom_site_label
 _atom_site_symmetry_multiplicity
 _atom_site_fract_x
 _atom_site_fract_y
 _atom_site_fract_z
 _atom_site_occupancy
  Ba  Ba0  1  0.958332  0.745068  0.008058  1
  Ba  Ba1  1  0.254932  0.041668  0.491942  1
  Ba  Ba2  1  0.041668  0.254932  0.991942  1
  Ba  Ba3  1  0.745068  0.958332  0.508058  1
  Ba  Ba4  1  0.500000  0.500000  0.000000  1
  Ba  Ba5  1  0.500000  0.500000  0.500000  1
  Os  Os6  1  0.047090  0.416272  0.346329  1
  Os  Os7  1  0.583728  0.952910  0.153671  1
  Os  Os8  1  0.952910  0.583728  0.653671  1
  Os  Os9  1  0.416272  0.047090  0.846329  1
  O  O10  1  0.953276  0.359275  0.596434  1
  O  O11  1  0.640725  0.046724  0.903566  1
  O  O12  1  0.046724  0.640725  0.403566  1
  O  O13  1  0.359275  0.953276  0.096434  1
  O  O14  1  0.842254  0.471653  0.312642  1
  O  O15  1  0.528347  0.157746  0.187358  1
  O  O16  1  0.157746  0.528347  0.687358  1
  O  O17  1  0.471653  0.842254  0.812642  1
  O  O18  1  0.154323  0.505516  0.097763  1
  O  O19  1  0.494484  0.845677  0.402237  1
  O  O20  1  0.845677  0.494484  0.902237  1
  O  O21  1  0.505516  0.154323  0.597763  1
  O  O22  1  0.020721  0.189276  0.344713  1
  O  O23  1  0.810724  0.979279  0.155287  1
  O  O24  1  0.979279  0.810724  0.655287  1
  O  O25  1  0.189276  0.020721  0.844713  1
  O  O26  1  0.733808  0.600783  0.635422  1
  O  O27  1  0.399217  0.266192  0.864578  1
  O  O28  1  0.266192  0.399217  0.364578  1
  O  O29  1  0.600783  0.733808  0.135422  1
