# generated using pymatgen
data_Yb2YGa9Ag2
_symmetry_space_group_name_H-M   'P 1'
_cell_length_a   8.29133659
_cell_length_b   8.29133524
_cell_length_c   8.29133624
_cell_angle_alpha   148.86359859
_cell_angle_beta   110.59966614
_cell_angle_gamma   78.00800791
_symmetry_Int_Tables_number   1
_chemical_formula_structural   Yb2YGa9Ag2
_chemical_formula_sum   'Yb2 Y1 Ga9 Ag2'
_cell_volume   270.70578960
_cell_formula_units_Z   1
loop_
 _symmetry_equiv_pos_site_id
 _symmetry_equiv_pos_as_xyz
  1  'x, y, z'
loop_
 _atom_site_type_symbol
 _atom_site_label
 _atom_site_symmetry_multiplicity
 _atom_site_fract_x
 _atom_site_fract_y
 _atom_site_fract_z
 _atom_site_occupancy
  Yb  Yb0  1  0.297491  0.297491  0.000000  1
  Yb  Yb1  1  0.702509  0.702509  0.000000  1
  Y  Y2  1  0.000000  0.000000  0.000000  1
  Ga  Ga3  1  0.708834  0.342093  0.366741  1
  Ga  Ga4  1  0.291166  0.657907  0.633259  1
  Ga  Ga5  1  0.975353  0.342093  0.633259  1
  Ga  Ga6  1  0.024647  0.657907  0.366741  1
  Ga  Ga7  1  0.427814  0.146099  0.281715  1
  Ga  Ga8  1  0.572186  0.853901  0.718285  1
  Ga  Ga9  1  0.864384  0.146099  0.718285  1
  Ga  Ga10  1  0.135616  0.853901  0.281715  1
  Ga  Ga11  1  0.500000  0.000000  0.500000  1
  Ag  Ag12  1  0.682725  0.500000  0.182725  1
  Ag  Ag13  1  0.317275  0.500000  0.817275  1
