# generated using pymatgen
data_CaSmGaO4
_symmetry_space_group_name_H-M   'P 1'
_cell_length_a   11.63231000
_cell_length_b   5.36793700
_cell_length_c   6.72210400
_cell_angle_alpha   89.99993826
_cell_angle_beta   89.99999032
_cell_angle_gamma   89.99959689
_symmetry_Int_Tables_number   1
_chemical_formula_structural   CaSmGaO4
_chemical_formula_sum   'Ca4 Sm4 Ga4 O16'
_cell_volume   419.73830561
_cell_formula_units_Z   4
loop_
 _symmetry_equiv_pos_site_id
 _symmetry_equiv_pos_as_xyz
  1  'x, y, z'
loop_
 _atom_site_type_symbol
 _atom_site_label
 _atom_site_symmetry_multiplicity
 _atom_site_fract_x
 _atom_site_fract_y
 _atom_site_fract_z
 _atom_site_occupancy
  Ca  Ca0  1  0.499998  0.500008  0.487146  1
  Ca  Ca1  1  0.500002  0.500000  0.987147  1
  Ca  Ca2  1  0.999999  0.000001  0.987143  1
  Ca  Ca3  1  0.000001  0.999989  0.487139  1
  Sm  Sm4  1  0.221284  0.505963  0.237127  1
  Sm  Sm5  1  0.778716  0.494038  0.737129  1
  Sm  Sm6  1  0.278715  0.005962  0.737130  1
  Sm  Sm7  1  0.721284  0.994039  0.237131  1
  Ga  Ga8  1  0.405930  0.062294  0.237159  1
  Ga  Ga9  1  0.594072  0.937706  0.737161  1
  Ga  Ga10  1  0.094070  0.562292  0.737155  1
  Ga  Ga11  1  0.905931  0.437706  0.237155  1
  O  O12  1  0.403086  0.722305  0.237151  1
  O  O13  1  0.596912  0.277694  0.737150  1
  O  O14  1  0.096911  0.222307  0.737142  1
  O  O15  1  0.903089  0.777694  0.237142  1
  O  O16  1  0.166965  0.730121  0.521861  1
  O  O17  1  0.833033  0.269870  0.021852  1
  O  O18  1  0.333033  0.230128  0.021854  1
  O  O19  1  0.666965  0.769880  0.521864  1
  O  O20  1  0.333011  0.230140  0.452417  1
  O  O21  1  0.666986  0.769869  0.952409  1
  O  O22  1  0.166985  0.730130  0.952403  1
  O  O23  1  0.833014  0.269863  0.452413  1
  O  O24  1  0.552173  0.215172  0.237161  1
  O  O25  1  0.447831  0.784835  0.737162  1
  O  O26  1  0.947832  0.715166  0.737152  1
  O  O27  1  0.052175  0.284825  0.237151  1
