# generated using pymatgen
data_Li3Ta8TiN12
_symmetry_space_group_name_H-M   'P 1'
_cell_length_a   5.22345600
_cell_length_b   5.22345549
_cell_length_c   10.31863700
_cell_angle_alpha   90.00000000
_cell_angle_beta   90.00000000
_cell_angle_gamma   120.00000324
_symmetry_Int_Tables_number   1
_chemical_formula_structural   Li3Ta8TiN12
_chemical_formula_sum   'Li3 Ta8 Ti1 N12'
_cell_volume   243.81969916
_cell_formula_units_Z   1
loop_
 _symmetry_equiv_pos_site_id
 _symmetry_equiv_pos_as_xyz
  1  'x, y, z'
loop_
 _atom_site_type_symbol
 _atom_site_label
 _atom_site_symmetry_multiplicity
 _atom_site_fract_x
 _atom_site_fract_y
 _atom_site_fract_z
 _atom_site_occupancy
  Li  Li0  1  0.333333  0.666667  0.500000  1
  Li  Li1  1  0.666667  0.333333  0.500000  1
  Li  Li2  1  0.666667  0.333333  0.000000  1
  Ta  Ta3  1  0.997485  0.341195  0.250248  1
  Ta  Ta4  1  0.658805  0.002515  0.749752  1
  Ta  Ta5  1  0.343709  0.341195  0.749752  1
  Ta  Ta6  1  0.000000  0.000000  0.500000  1
  Ta  Ta7  1  0.000000  0.000000  0.000000  1
  Ta  Ta8  1  0.658805  0.656291  0.250248  1
  Ta  Ta9  1  0.343709  0.002515  0.250248  1
  Ta  Ta10  1  0.997485  0.656291  0.749752  1
  Ti  Ti11  1  0.333333  0.666667  0.000000  1
  N  N12  1  0.675197  0.676587  0.623983  1
  N  N13  1  0.666924  0.669390  0.881205  1
  N  N14  1  0.330610  0.333076  0.118795  1
  N  N15  1  0.323413  0.324803  0.376017  1
  N  N16  1  0.330610  0.997534  0.881205  1
  N  N17  1  0.323413  0.998610  0.623983  1
  N  N18  1  0.001390  0.676587  0.376017  1
  N  N19  1  0.002466  0.669390  0.118795  1
  N  N20  1  0.666924  0.997534  0.118795  1
  N  N21  1  0.675197  0.998610  0.376017  1
  N  N22  1  0.002466  0.333076  0.881205  1
  N  N23  1  0.001390  0.324803  0.623983  1
