# generated using pymatgen
data_Dy2B6MoW
_symmetry_space_group_name_H-M   'P 1'
_cell_length_a   3.16729900
_cell_length_b   5.46410250
_cell_length_c   6.84567539
_cell_angle_alpha   77.91575744
_cell_angle_beta   90.00000000
_cell_angle_gamma   90.00000000
_symmetry_Int_Tables_number   1
_chemical_formula_structural   Dy2B6MoW
_chemical_formula_sum   'Dy2 B6 Mo1 W1'
_cell_volume   115.84902388
_cell_formula_units_Z   1
loop_
 _symmetry_equiv_pos_site_id
 _symmetry_equiv_pos_as_xyz
  1  'x, y, z'
loop_
 _atom_site_type_symbol
 _atom_site_label
 _atom_site_symmetry_multiplicity
 _atom_site_fract_x
 _atom_site_fract_y
 _atom_site_fract_z
 _atom_site_occupancy
  Dy  Dy0  1  0.250000  0.324541  0.708937  1
  Dy  Dy1  1  0.750000  0.675406  0.290845  1
  B  B2  1  0.250000  0.919707  0.524457  1
  B  B3  1  0.750000  0.080435  0.474791  1
  B  B4  1  0.250000  0.912864  0.004607  1
  B  B5  1  0.750000  0.087316  0.995809  1
  B  B6  1  0.250000  0.583065  0.006672  1
  B  B7  1  0.750000  0.416585  0.993668  1
  Mo  Mo8  1  0.750000  0.811653  0.780706  1
  W  W9  1  0.250000  0.188428  0.219508  1
