# generated using pymatgen
data_Hf16Co5RePd2
_symmetry_space_group_name_H-M   'P 1'
_cell_length_a   8.54584904
_cell_length_b   8.60674612
_cell_length_c   8.57580700
_cell_angle_alpha   60.11884622
_cell_angle_beta   59.88397308
_cell_angle_gamma   60.13422708
_symmetry_Int_Tables_number   1
_chemical_formula_structural   Hf16Co5RePd2
_chemical_formula_sum   'Hf16 Co5 Re1 Pd2'
_cell_volume   446.47636047
_cell_formula_units_Z   1
loop_
 _symmetry_equiv_pos_site_id
 _symmetry_equiv_pos_as_xyz
  1  'x, y, z'
loop_
 _atom_site_type_symbol
 _atom_site_label
 _atom_site_symmetry_multiplicity
 _atom_site_fract_x
 _atom_site_fract_y
 _atom_site_fract_z
 _atom_site_occupancy
  Hf  Hf0  1  0.186455  0.604446  0.604549  1
  Hf  Hf1  1  0.607232  0.172676  0.610046  1
  Hf  Hf2  1  0.603152  0.604362  0.188236  1
  Hf  Hf3  1  0.603152  0.604362  0.604251  1
  Hf  Hf4  1  0.814422  0.814301  0.185639  1
  Hf  Hf5  1  0.184078  0.192181  0.811870  1
  Hf  Hf6  1  0.813319  0.196578  0.812374  1
  Hf  Hf7  1  0.196101  0.815002  0.176109  1
  Hf  Hf8  1  0.196101  0.815002  0.812788  1
  Hf  Hf9  1  0.813319  0.196578  0.177730  1
  Hf  Hf10  1  0.449556  0.447681  0.051381  1
  Hf  Hf11  1  0.057195  0.058200  0.442303  1
  Hf  Hf12  1  0.442119  0.057559  0.443392  1
  Hf  Hf13  1  0.056104  0.441601  0.055972  1
  Hf  Hf14  1  0.056104  0.441601  0.446323  1
  Hf  Hf15  1  0.442119  0.057559  0.056929  1
  Co  Co16  1  0.818471  0.387488  0.397019  1
  Co  Co17  1  0.391511  0.823852  0.392318  1
  Co  Co18  1  0.395966  0.388066  0.818297  1
  Co  Co19  1  0.395966  0.388066  0.397669  1
  Co  Co20  1  0.485688  0.828249  0.843032  1
  Re  Re21  1  0.828943  0.501596  0.834731  1
  Pd  Pd22  1  0.831466  0.831495  0.499709  1
  Pd  Pd23  1  0.831466  0.831495  0.837331  1
