# generated using pymatgen
data_Tm2LuGaSn3Rh2
_symmetry_space_group_name_H-M   'P 1'
_cell_length_a   7.40594601
_cell_length_b   7.41196554
_cell_length_c   4.02015500
_cell_angle_alpha   90.00000000
_cell_angle_beta   90.00000000
_cell_angle_gamma   119.96653435
_symmetry_Int_Tables_number   1
_chemical_formula_structural   Tm2LuGaSn3Rh2
_chemical_formula_sum   'Tm2 Lu1 Ga1 Sn3 Rh2'
_cell_volume   191.17615295
_cell_formula_units_Z   1
loop_
 _symmetry_equiv_pos_site_id
 _symmetry_equiv_pos_as_xyz
  1  'x, y, z'
loop_
 _atom_site_type_symbol
 _atom_site_label
 _atom_site_symmetry_multiplicity
 _atom_site_fract_x
 _atom_site_fract_y
 _atom_site_fract_z
 _atom_site_occupancy
  Tm  Tm0  1  0.395772  0.410399  0.500000  1
  Tm  Tm1  1  0.589688  0.985541  0.500000  1
  Lu  Lu2  1  0.015065  0.604728  0.500000  1
  Ga  Ga3  1  0.666948  0.333543  0.000000  1
  Sn  Sn4  1  0.741915  0.744865  0.000000  1
  Sn  Sn5  1  0.254996  0.996679  0.000000  1
  Sn  Sn6  1  0.003108  0.258416  0.000000  1
  Rh  Rh7  1  0.332577  0.666374  0.000000  1
  Rh  Rh8  1  0.999930  0.999456  0.500000  1
