# generated using pymatgen
data_Tm4CdInPd4
_symmetry_space_group_name_H-M   'P 1'
_cell_length_a   7.68248600
_cell_length_b   7.68248600
_cell_length_c   3.68213900
_cell_angle_alpha   90.00000000
_cell_angle_beta   90.00000000
_cell_angle_gamma   90.00000000
_symmetry_Int_Tables_number   1
_chemical_formula_structural   Tm4CdInPd4
_chemical_formula_sum   'Tm4 Cd1 In1 Pd4'
_cell_volume   217.32202044
_cell_formula_units_Z   1
loop_
 _symmetry_equiv_pos_site_id
 _symmetry_equiv_pos_as_xyz
  1  'x, y, z'
loop_
 _atom_site_type_symbol
 _atom_site_label
 _atom_site_symmetry_multiplicity
 _atom_site_fract_x
 _atom_site_fract_y
 _atom_site_fract_z
 _atom_site_occupancy
  Tm  Tm0  1  0.674196  0.164239  0.500000  1
  Tm  Tm1  1  0.325804  0.835761  0.500000  1
  Tm  Tm2  1  0.164239  0.325804  0.500000  1
  Tm  Tm3  1  0.835761  0.674196  0.500000  1
  Cd  Cd4  1  0.500000  0.500000  0.000000  1
  In  In5  1  0.000000  0.000000  0.000000  1
  Pd  Pd6  1  0.132381  0.627329  0.000000  1
  Pd  Pd7  1  0.867619  0.372671  0.000000  1
  Pd  Pd8  1  0.627329  0.867619  0.000000  1
  Pd  Pd9  1  0.372671  0.132381  0.000000  1
