# generated using pymatgen
data_GaHg3AsSBr4
_symmetry_space_group_name_H-M   'P 1'
_cell_length_a   7.64552200
_cell_length_b   7.64552176
_cell_length_c   12.98080100
_cell_angle_alpha   90.00000000
_cell_angle_beta   90.00000000
_cell_angle_gamma   120.00000104
_symmetry_Int_Tables_number   1
_chemical_formula_structural   GaHg3AsSBr4
_chemical_formula_sum   'Ga2 Hg6 As2 S2 Br8'
_cell_volume   657.12257942
_cell_formula_units_Z   2
loop_
 _symmetry_equiv_pos_site_id
 _symmetry_equiv_pos_as_xyz
  1  'x, y, z'
loop_
 _atom_site_type_symbol
 _atom_site_label
 _atom_site_symmetry_multiplicity
 _atom_site_fract_x
 _atom_site_fract_y
 _atom_site_fract_z
 _atom_site_occupancy
  Ga  Ga0  1  0.000000  0.000000  0.261009  1
  Ga  Ga1  1  0.000000  0.000000  0.761009  1
  Hg  Hg2  1  0.501417  0.002835  0.466776  1
  Hg  Hg3  1  0.501417  0.498583  0.466776  1
  Hg  Hg4  1  0.997165  0.498583  0.466776  1
  Hg  Hg5  1  0.498583  0.997165  0.966776  1
  Hg  Hg6  1  0.498583  0.501417  0.966776  1
  Hg  Hg7  1  0.002835  0.501417  0.966776  1
  As  As8  1  0.666667  0.333333  0.566039  1
  As  As9  1  0.333333  0.666667  0.066039  1
  S  S10  1  0.333333  0.666667  0.382663  1
  S  S11  1  0.666667  0.333333  0.882663  1
  Br  Br12  1  0.340131  0.170065  0.207464  1
  Br  Br13  1  0.829935  0.659869  0.207464  1
  Br  Br14  1  0.829935  0.170065  0.207464  1
  Br  Br15  1  0.659869  0.829935  0.707464  1
  Br  Br16  1  0.170065  0.340131  0.707464  1
  Br  Br17  1  0.170065  0.829935  0.707464  1
  Br  Br18  1  0.000000  0.000000  0.445434  1
  Br  Br19  1  0.000000  0.000000  0.945434  1
