# generated using pymatgen
data_YErZr3Sn4
_symmetry_space_group_name_H-M   'P 1'
_cell_length_a   7.77703300
_cell_length_b   7.82661100
_cell_length_c   14.73077700
_cell_angle_alpha   90.00000000
_cell_angle_beta   90.00000000
_cell_angle_gamma   90.00000000
_symmetry_Int_Tables_number   1
_chemical_formula_structural   YErZr3Sn4
_chemical_formula_sum   'Y4 Er4 Zr12 Sn16'
_cell_volume   896.63016542
_cell_formula_units_Z   4
loop_
 _symmetry_equiv_pos_site_id
 _symmetry_equiv_pos_as_xyz
  1  'x, y, z'
loop_
 _atom_site_type_symbol
 _atom_site_label
 _atom_site_symmetry_multiplicity
 _atom_site_fract_x
 _atom_site_fract_y
 _atom_site_fract_z
 _atom_site_occupancy
  Y  Y0  1  0.487155  0.677633  0.092747  1
  Y  Y1  1  0.987155  0.822367  0.407253  1
  Y  Y2  1  0.512845  0.322367  0.592747  1
  Y  Y3  1  0.012845  0.177633  0.907253  1
  Er  Er4  1  0.513076  0.322190  0.906997  1
  Er  Er5  1  0.013076  0.177810  0.593003  1
  Er  Er6  1  0.486924  0.677810  0.406997  1
  Er  Er7  1  0.986924  0.822190  0.093003  1
  Zr  Zr8  1  0.349574  0.837144  0.871026  1
  Zr  Zr9  1  0.849574  0.662856  0.628974  1
  Zr  Zr10  1  0.650426  0.162856  0.371026  1
  Zr  Zr11  1  0.150426  0.337144  0.128974  1
  Zr  Zr12  1  0.650459  0.162763  0.128907  1
  Zr  Zr13  1  0.150459  0.337237  0.371093  1
  Zr  Zr14  1  0.349541  0.837237  0.628907  1
  Zr  Zr15  1  0.849541  0.662763  0.871093  1
  Zr  Zr16  1  0.171820  0.509648  0.749970  1
  Zr  Zr17  1  0.671820  0.990352  0.750030  1
  Zr  Zr18  1  0.828180  0.490352  0.249970  1
  Zr  Zr19  1  0.328180  0.009648  0.250030  1
  Sn  Sn20  1  0.310798  0.040296  0.042284  1
  Sn  Sn21  1  0.810798  0.459704  0.457716  1
  Sn  Sn22  1  0.689202  0.959704  0.542284  1
  Sn  Sn23  1  0.189202  0.540296  0.957716  1
  Sn  Sn24  1  0.688741  0.959768  0.957792  1
  Sn  Sn25  1  0.188741  0.540232  0.542208  1
  Sn  Sn26  1  0.311259  0.040232  0.457792  1
  Sn  Sn27  1  0.811259  0.459768  0.042208  1
  Sn  Sn28  1  0.544518  0.615278  0.750108  1
  Sn  Sn29  1  0.044518  0.884722  0.749892  1
  Sn  Sn30  1  0.455482  0.384722  0.250108  1
  Sn  Sn31  1  0.955482  0.115278  0.249892  1
  Sn  Sn32  1  0.317990  0.154548  0.750186  1
  Sn  Sn33  1  0.817990  0.345452  0.749814  1
  Sn  Sn34  1  0.682010  0.845452  0.250186  1
  Sn  Sn35  1  0.182010  0.654548  0.249814  1
