# generated using pymatgen
data_Y4Ga3SiRu4
_symmetry_space_group_name_H-M   'P 1'
_cell_length_a   4.45267200
_cell_length_b   7.12952747
_cell_length_c   7.19833498
_cell_angle_alpha   90.16825460
_cell_angle_beta   90.00000000
_cell_angle_gamma   90.00000000
_symmetry_Int_Tables_number   1
_chemical_formula_structural   Y4Ga3SiRu4
_chemical_formula_sum   'Y4 Ga3 Si1 Ru4'
_cell_volume   228.51337872
_cell_formula_units_Z   1
loop_
 _symmetry_equiv_pos_site_id
 _symmetry_equiv_pos_as_xyz
  1  'x, y, z'
loop_
 _atom_site_type_symbol
 _atom_site_label
 _atom_site_symmetry_multiplicity
 _atom_site_fract_x
 _atom_site_fract_y
 _atom_site_fract_z
 _atom_site_occupancy
  Y  Y0  1  0.750000  0.013753  0.195432  1
  Y  Y1  1  0.250000  0.480109  0.693423  1
  Y  Y2  1  0.750000  0.513833  0.306847  1
  Y  Y3  1  0.250000  0.988184  0.808315  1
  Ga  Ga4  1  0.250000  0.304027  0.106276  1
  Ga  Ga5  1  0.250000  0.801935  0.398650  1
  Ga  Ga6  1  0.750000  0.692455  0.893924  1
  Si  Si7  1  0.750000  0.196311  0.599577  1
  Ru  Ru8  1  0.250000  0.661495  0.066786  1
  Ru  Ru9  1  0.250000  0.163661  0.444597  1
  Ru  Ru10  1  0.750000  0.856568  0.567322  1
  Ru  Ru11  1  0.750000  0.327669  0.918849  1
