# generated using pymatgen
data_Ho3LuNbOs7
_symmetry_space_group_name_H-M   'P 1'
_cell_length_a   5.28436761
_cell_length_b   5.28436592
_cell_length_c   8.91487054
_cell_angle_alpha   90.03398680
_cell_angle_beta   89.96601216
_cell_angle_gamma   117.55401016
_symmetry_Int_Tables_number   1
_chemical_formula_structural   Ho3LuNbOs7
_chemical_formula_sum   'Ho3 Lu1 Nb1 Os7'
_cell_volume   220.70715123
_cell_formula_units_Z   1
loop_
 _symmetry_equiv_pos_site_id
 _symmetry_equiv_pos_as_xyz
  1  'x, y, z'
loop_
 _atom_site_type_symbol
 _atom_site_label
 _atom_site_symmetry_multiplicity
 _atom_site_fract_x
 _atom_site_fract_y
 _atom_site_fract_z
 _atom_site_occupancy
  Ho  Ho0  1  0.666854  0.333146  0.568018  1
  Ho  Ho1  1  0.666718  0.333282  0.931531  1
  Ho  Ho2  1  0.328793  0.671207  0.060586  1
  Lu  Lu3  1  0.328451  0.671549  0.439565  1
  Nb  Nb4  1  0.836073  0.163927  0.250657  1
  Os  Os5  1  0.998181  0.001819  0.506181  1
  Os  Os6  1  0.997654  0.002346  0.993346  1
  Os  Os7  1  0.822005  0.653978  0.251496  1
  Os  Os8  1  0.346022  0.177995  0.251496  1
  Os  Os9  1  0.176863  0.823137  0.748574  1
  Os  Os10  1  0.174376  0.341987  0.749275  1
  Os  Os11  1  0.658013  0.825624  0.749275  1
