# generated using pymatgen
data_Er4ZnGe(B2Rh5)2
_symmetry_space_group_name_H-M   'P 1'
_cell_length_a   9.41803800
_cell_length_b   9.41803800
_cell_length_c   3.21703700
_cell_angle_alpha   90.00000000
_cell_angle_beta   90.00000000
_cell_angle_gamma   90.00000000
_symmetry_Int_Tables_number   1
_chemical_formula_structural   Er4ZnGe(B2Rh5)2
_chemical_formula_sum   'Er4 Zn1 Ge1 B4 Rh10'
_cell_volume   285.34937962
_cell_formula_units_Z   1
loop_
 _symmetry_equiv_pos_site_id
 _symmetry_equiv_pos_as_xyz
  1  'x, y, z'
loop_
 _atom_site_type_symbol
 _atom_site_label
 _atom_site_symmetry_multiplicity
 _atom_site_fract_x
 _atom_site_fract_y
 _atom_site_fract_z
 _atom_site_occupancy
  Er  Er0  1  0.825929  0.324610  0.000000  1
  Er  Er1  1  0.324610  0.174071  0.000000  1
  Er  Er2  1  0.675390  0.825929  0.000000  1
  Er  Er3  1  0.174071  0.675390  0.000000  1
  Zn  Zn4  1  0.000000  0.000000  0.000000  1
  Ge  Ge5  1  0.500000  0.500000  0.000000  1
  B  B6  1  0.623679  0.121440  0.000000  1
  B  B7  1  0.121440  0.376321  0.000000  1
  B  B8  1  0.878560  0.623679  0.000000  1
  B  B9  1  0.376321  0.878560  0.000000  1
  Rh  Rh10  1  0.071860  0.219639  0.500000  1
  Rh  Rh11  1  0.219639  0.928140  0.500000  1
  Rh  Rh12  1  0.780361  0.071860  0.500000  1
  Rh  Rh13  1  0.928140  0.780361  0.500000  1
  Rh  Rh14  1  0.429947  0.716620  0.500000  1
  Rh  Rh15  1  0.570053  0.283380  0.500000  1
  Rh  Rh16  1  0.716620  0.570053  0.500000  1
  Rh  Rh17  1  0.283380  0.429947  0.500000  1
  Rh  Rh18  1  0.500000  0.000000  0.500000  1
  Rh  Rh19  1  0.000000  0.500000  0.500000  1
