# generated using pymatgen
data_YTmNi2(B2Ir)2
_symmetry_space_group_name_H-M   'P 1'
_cell_length_a   5.07785963
_cell_length_b   5.07785987
_cell_length_c   7.26972679
_cell_angle_alpha   58.58619524
_cell_angle_beta   58.58618978
_cell_angle_gamma   62.04082969
_symmetry_Int_Tables_number   1
_chemical_formula_structural   YTmNi2(B2Ir)2
_chemical_formula_sum   'Y1 Tm1 Ni2 B4 Ir2'
_cell_volume   131.42626107
_cell_formula_units_Z   1
loop_
 _symmetry_equiv_pos_site_id
 _symmetry_equiv_pos_as_xyz
  1  'x, y, z'
loop_
 _atom_site_type_symbol
 _atom_site_label
 _atom_site_symmetry_multiplicity
 _atom_site_fract_x
 _atom_site_fract_y
 _atom_site_fract_z
 _atom_site_occupancy
  Y  Y0  1  0.874883  0.125117  0.750000  1
  Tm  Tm1  1  0.110614  0.889386  0.250000  1
  Ni  Ni2  1  0.528522  0.731442  0.793559  1
  Ni  Ni3  1  0.268558  0.471478  0.706441  1
  B  B4  1  0.167843  0.494176  0.005854  1
  B  B5  1  0.505824  0.832157  0.494146  1
  B  B6  1  0.842183  0.488379  0.971831  1
  B  B7  1  0.511621  0.157817  0.528169  1
  Ir  Ir8  1  0.461555  0.271601  0.198541  1
  Ir  Ir9  1  0.728399  0.538445  0.301459  1
