# generated using pymatgen
data_Ac5SiGeSe3
_symmetry_space_group_name_H-M   'P 1'
_cell_length_a   7.81685534
_cell_length_b   7.81685557
_cell_length_c   7.81334300
_cell_angle_alpha   99.09207382
_cell_angle_beta   99.79297806
_cell_angle_gamma   132.22448172
_symmetry_Int_Tables_number   1
_chemical_formula_structural   Ac5SiGeSe3
_chemical_formula_sum   'Ac5 Si1 Ge1 Se3'
_cell_volume   323.21742300
_cell_formula_units_Z   1
loop_
 _symmetry_equiv_pos_site_id
 _symmetry_equiv_pos_as_xyz
  1  'x, y, z'
loop_
 _atom_site_type_symbol
 _atom_site_label
 _atom_site_symmetry_multiplicity
 _atom_site_fract_x
 _atom_site_fract_y
 _atom_site_fract_z
 _atom_site_occupancy
  Ac  Ac0  1  0.396640  0.791390  0.188031  1
  Ac  Ac1  1  0.001972  0.996484  0.998457  1
  Ac  Ac2  1  0.597519  0.204909  0.802427  1
  Ac  Ac3  1  0.205338  0.407494  0.612832  1
  Ac  Ac4  1  0.798530  0.599590  0.398122  1
  Si  Si5  1  0.502399  0.501634  0.004032  1
  Ge  Ge6  1  0.097109  0.698311  0.795419  1
  Se  Se7  1  0.696498  0.899569  0.596066  1
  Se  Se8  1  0.300336  0.099556  0.399893  1
  Se  Se9  1  0.903658  0.301062  0.204721  1
