# generated using pymatgen
data_Rb4Ti6PBr18
_symmetry_space_group_name_H-M   'P 1'
_cell_length_a   10.47597477
_cell_length_b   10.73506979
_cell_length_c   10.84902596
_cell_angle_alpha   118.35424391
_cell_angle_beta   100.39505840
_cell_angle_gamma   104.20531599
_symmetry_Int_Tables_number   1
_chemical_formula_structural   Rb4Ti6PBr18
_chemical_formula_sum   'Rb4 Ti6 P1 Br18'
_cell_volume   975.77497302
_cell_formula_units_Z   1
loop_
 _symmetry_equiv_pos_site_id
 _symmetry_equiv_pos_as_xyz
  1  'x, y, z'
loop_
 _atom_site_type_symbol
 _atom_site_label
 _atom_site_symmetry_multiplicity
 _atom_site_fract_x
 _atom_site_fract_y
 _atom_site_fract_z
 _atom_site_occupancy
  Rb  Rb0  1  0.658695  0.537647  0.229718  1
  Rb  Rb1  1  0.341305  0.462353  0.770282  1
  Rb  Rb2  1  0.694435  0.228230  0.565212  1
  Rb  Rb3  1  0.305565  0.771770  0.434788  1
  Ti  Ti4  1  0.148639  0.055220  0.224829  1
  Ti  Ti5  1  0.851361  0.944780  0.775171  1
  Ti  Ti6  1  0.863307  0.121618  0.127936  1
  Ti  Ti7  1  0.136693  0.878382  0.872064  1
  Ti  Ti8  1  0.144016  0.234296  0.044663  1
  Ti  Ti9  1  0.855984  0.765704  0.955337  1
  P  P10  1  0.000000  0.000000  0.000000  1
  Br  Br11  1  0.007724  0.389931  0.187036  1
  Br  Br12  1  0.992276  0.610069  0.812964  1
  Br  Br13  1  0.319242  0.319591  0.298044  1
  Br  Br14  1  0.680758  0.680409  0.701956  1
  Br  Br15  1  0.310799  0.502364  0.096886  1
  Br  Br16  1  0.689201  0.497636  0.903114  1
  Br  Br17  1  0.004246  0.804865  0.199444  1
  Br  Br18  1  0.995754  0.195135  0.800556  1
  Br  Br19  1  0.711261  0.258000  0.270918  1
  Br  Br20  1  0.288739  0.742000  0.729082  1
  Br  Br21  1  0.306387  0.124226  0.909933  1
  Br  Br22  1  0.693613  0.875774  0.090067  1
  Br  Br23  1  0.014570  0.194275  0.387838  1
  Br  Br24  1  0.985430  0.805725  0.612162  1
  Br  Br25  1  0.309939  0.929015  0.106975  1
  Br  Br26  1  0.690061  0.070985  0.893025  1
  Br  Br27  1  0.322528  0.118201  0.482198  1
  Br  Br28  1  0.677472  0.881799  0.517802  1
