# generated using pymatgen
data_Rb16YPaSb8
_symmetry_space_group_name_H-M   'P 1'
_cell_length_a   12.22244896
_cell_length_b   12.22244937
_cell_length_c   12.22245000
_cell_angle_alpha   59.99999828
_cell_angle_beta   59.99999720
_cell_angle_gamma   59.99999922
_symmetry_Int_Tables_number   1
_chemical_formula_structural   Rb16YPaSb8
_chemical_formula_sum   'Rb16 Y1 Pa1 Sb8'
_cell_volume   1291.09956071
_cell_formula_units_Z   1
loop_
 _symmetry_equiv_pos_site_id
 _symmetry_equiv_pos_as_xyz
  1  'x, y, z'
loop_
 _atom_site_type_symbol
 _atom_site_label
 _atom_site_symmetry_multiplicity
 _atom_site_fract_x
 _atom_site_fract_y
 _atom_site_fract_z
 _atom_site_occupancy
  Rb  Rb0  1  0.623195  0.130415  0.623195  1
  Rb  Rb1  1  0.623195  0.623195  0.130415  1
  Rb  Rb2  1  0.130415  0.623195  0.623195  1
  Rb  Rb3  1  0.623195  0.623195  0.623195  1
  Rb  Rb4  1  0.034217  0.034217  0.465783  1
  Rb  Rb5  1  0.774670  0.225330  0.225330  1
  Rb  Rb6  1  0.225330  0.774670  0.774670  1
  Rb  Rb7  1  0.774670  0.774670  0.225330  1
  Rb  Rb8  1  0.774670  0.225330  0.774670  1
  Rb  Rb9  1  0.225330  0.774670  0.225330  1
  Rb  Rb10  1  0.465783  0.034217  0.465783  1
  Rb  Rb11  1  0.465783  0.034217  0.034217  1
  Rb  Rb12  1  0.034217  0.465783  0.465783  1
  Rb  Rb13  1  0.034217  0.465783  0.034217  1
  Rb  Rb14  1  0.225330  0.225330  0.774670  1
  Rb  Rb15  1  0.465783  0.465783  0.034217  1
  Y  Y16  1  0.500000  0.500000  0.500000  1
  Pa  Pa17  1  0.750000  0.750000  0.750000  1
  Sb  Sb18  1  0.396894  0.809321  0.396894  1
  Sb  Sb19  1  0.849988  0.849988  0.450037  1
  Sb  Sb20  1  0.450037  0.849988  0.849988  1
  Sb  Sb21  1  0.849988  0.849988  0.849988  1
  Sb  Sb22  1  0.809321  0.396894  0.396894  1
  Sb  Sb23  1  0.396894  0.396894  0.396894  1
  Sb  Sb24  1  0.396894  0.396894  0.809321  1
  Sb  Sb25  1  0.849988  0.450037  0.849988  1
