# generated using pymatgen
data_BaUN2O
_symmetry_space_group_name_H-M   'P 1'
_cell_length_a   6.09686900
_cell_length_b   6.09681500
_cell_length_c   8.96148100
_cell_angle_alpha   90.00000000
_cell_angle_beta   90.00000000
_cell_angle_gamma   90.00000000
_symmetry_Int_Tables_number   1
_chemical_formula_structural   BaUN2O
_chemical_formula_sum   'Ba4 U4 N8 O4'
_cell_volume   333.11153302
_cell_formula_units_Z   4
loop_
 _symmetry_equiv_pos_site_id
 _symmetry_equiv_pos_as_xyz
  1  'x, y, z'
loop_
 _atom_site_type_symbol
 _atom_site_label
 _atom_site_symmetry_multiplicity
 _atom_site_fract_x
 _atom_site_fract_y
 _atom_site_fract_z
 _atom_site_occupancy
  Ba  Ba0  1  0.002646  0.000287  0.750000  1
  Ba  Ba1  1  0.497355  0.500287  0.250000  1
  Ba  Ba2  1  0.502645  0.499713  0.750000  1
  Ba  Ba3  1  0.997355  0.999713  0.250000  1
  U  U4  1  0.000000  0.500000  0.000000  1
  U  U5  1  0.000000  0.500000  0.500000  1
  U  U6  1  0.500000  0.000000  0.500000  1
  U  U7  1  0.500000  0.000000  0.000000  1
  N  N8  1  0.231934  0.265924  0.010355  1
  N  N9  1  0.731934  0.234076  0.489645  1
  N  N10  1  0.731934  0.234076  0.010355  1
  N  N11  1  0.768066  0.734076  0.510355  1
  N  N12  1  0.231934  0.265924  0.489645  1
  N  N13  1  0.268066  0.765924  0.989645  1
  N  N14  1  0.268066  0.765924  0.510355  1
  N  N15  1  0.768066  0.734076  0.989645  1
  O  O16  1  0.500246  0.977258  0.250000  1
  O  O17  1  0.000246  0.522742  0.250000  1
  O  O18  1  0.499754  0.022742  0.750000  1
  O  O19  1  0.999754  0.477258  0.750000  1
