# generated using pymatgen
data_Sr2Ti3Si7Pt9
_symmetry_space_group_name_H-M   'P 1'
_cell_length_a   10.01382500
_cell_length_b   10.01382352
_cell_length_c   3.98225000
_cell_angle_alpha   90.00000000
_cell_angle_beta   90.00000000
_cell_angle_gamma   119.99999497
_symmetry_Int_Tables_number   1
_chemical_formula_structural   Sr2Ti3Si7Pt9
_chemical_formula_sum   'Sr2 Ti3 Si7 Pt9'
_cell_volume   345.82716587
_cell_formula_units_Z   1
loop_
 _symmetry_equiv_pos_site_id
 _symmetry_equiv_pos_as_xyz
  1  'x, y, z'
loop_
 _atom_site_type_symbol
 _atom_site_label
 _atom_site_symmetry_multiplicity
 _atom_site_fract_x
 _atom_site_fract_y
 _atom_site_fract_z
 _atom_site_occupancy
  Sr  Sr0  1  0.000000  0.000000  0.000000  1
  Sr  Sr1  1  0.333333  0.666667  0.500000  1
  Ti  Ti2  1  0.882780  0.450893  0.500000  1
  Ti  Ti3  1  0.568113  0.117220  0.500000  1
  Ti  Ti4  1  0.549107  0.431887  0.500000  1
  Si  Si5  1  0.259202  0.215064  0.500000  1
  Si  Si6  1  0.784936  0.044139  0.500000  1
  Si  Si7  1  0.955861  0.740798  0.500000  1
  Si  Si8  1  0.554310  0.635692  0.000000  1
  Si  Si9  1  0.364308  0.918617  0.000000  1
  Si  Si10  1  0.081383  0.445690  0.000000  1
  Si  Si11  1  0.666667  0.333333  0.000000  1
  Pt  Pt12  1  0.229486  0.943122  0.500000  1
  Pt  Pt13  1  0.056878  0.286366  0.500000  1
  Pt  Pt14  1  0.713634  0.770514  0.500000  1
  Pt  Pt15  1  0.304677  0.401186  0.000000  1
  Pt  Pt16  1  0.598814  0.903491  0.000000  1
  Pt  Pt17  1  0.096509  0.695323  0.000000  1
  Pt  Pt18  1  0.394580  0.175854  0.000000  1
  Pt  Pt19  1  0.824146  0.218726  0.000000  1
  Pt  Pt20  1  0.781274  0.605420  0.000000  1
