# generated using pymatgen
data_LuZr5(ZnRh2)6
_symmetry_space_group_name_H-M   'P 1'
_cell_length_a   4.50126500
_cell_length_b   6.31884500
_cell_length_c   13.43558000
_cell_angle_alpha   90.00000000
_cell_angle_beta   90.00138247
_cell_angle_gamma   90.00000000
_symmetry_Int_Tables_number   1
_chemical_formula_structural   LuZr5(ZnRh2)6
_chemical_formula_sum   'Lu1 Zr5 Zn6 Rh12'
_cell_volume   382.14545886
_cell_formula_units_Z   1
loop_
 _symmetry_equiv_pos_site_id
 _symmetry_equiv_pos_as_xyz
  1  'x, y, z'
loop_
 _atom_site_type_symbol
 _atom_site_label
 _atom_site_symmetry_multiplicity
 _atom_site_fract_x
 _atom_site_fract_y
 _atom_site_fract_z
 _atom_site_occupancy
  Lu  Lu0  1  0.000000  0.000000  0.000000  1
  Zr  Zr1  1  0.499976  0.499999  0.166361  1
  Zr  Zr2  1  0.999972  0.000000  0.333309  1
  Zr  Zr3  1  0.500001  0.499999  0.500000  1
  Zr  Zr4  1  0.000028  0.000000  0.666691  1
  Zr  Zr5  1  0.500023  0.499999  0.833639  1
  Zn  Zn6  1  0.000000  0.499999  0.000000  1
  Zn  Zn7  1  0.499986  0.000000  0.166840  1
  Zn  Zn8  1  0.999969  0.499999  0.333725  1
  Zn  Zn9  1  0.500001  0.000000  0.500000  1
  Zn  Zn10  1  0.000031  0.499999  0.666275  1
  Zn  Zn11  1  0.500015  0.000000  0.833160  1
  Rh  Rh12  1  0.500001  0.254463  0.000000  1
  Rh  Rh13  1  0.500001  0.745538  0.000000  1
  Rh  Rh14  1  0.999976  0.252147  0.168999  1
  Rh  Rh15  1  0.999976  0.747853  0.168999  1
  Rh  Rh16  1  0.499970  0.249770  0.333726  1
  Rh  Rh17  1  0.499970  0.750229  0.333726  1
  Rh  Rh18  1  0.000000  0.250105  0.500000  1
  Rh  Rh19  1  0.000000  0.749895  0.500000  1
  Rh  Rh20  1  0.500029  0.249770  0.666274  1
  Rh  Rh21  1  0.500029  0.750229  0.666274  1
  Rh  Rh22  1  0.000024  0.252147  0.831001  1
  Rh  Rh23  1  0.000024  0.747853  0.831001  1
