# generated using pymatgen
data_DyPu5F18
_symmetry_space_group_name_H-M   'P 1'
_cell_length_a   7.12380025
_cell_length_b   7.12380124
_cell_length_c   7.17977572
_cell_angle_alpha   91.19438787
_cell_angle_beta   88.80561203
_cell_angle_gamma   120.04455468
_symmetry_Int_Tables_number   1
_chemical_formula_structural   DyPu5F18
_chemical_formula_sum   'Dy1 Pu5 F18'
_cell_volume   315.31461546
_cell_formula_units_Z   1
loop_
 _symmetry_equiv_pos_site_id
 _symmetry_equiv_pos_as_xyz
  1  'x, y, z'
loop_
 _atom_site_type_symbol
 _atom_site_label
 _atom_site_symmetry_multiplicity
 _atom_site_fract_x
 _atom_site_fract_y
 _atom_site_fract_z
 _atom_site_occupancy
  Dy  Dy0  1  0.348708  0.348708  0.250000  1
  Pu  Pu1  1  0.339562  0.003037  0.752478  1
  Pu  Pu2  1  0.660100  0.000168  0.249518  1
  Pu  Pu3  1  0.003037  0.339562  0.747522  1
  Pu  Pu4  1  0.000168  0.660100  0.250482  1
  Pu  Pu5  1  0.655866  0.655866  0.750000  1
  F  F6  1  0.996723  0.996723  0.750000  1
  F  F7  1  0.012899  0.012899  0.250000  1
  F  F8  1  0.334218  0.666405  0.694193  1
  F  F9  1  0.657375  0.334592  0.311455  1
  F  F10  1  0.666405  0.334218  0.805807  1
  F  F11  1  0.334592  0.657375  0.188545  1
  F  F12  1  0.359407  0.306507  0.572254  1
  F  F13  1  0.629510  0.682914  0.420162  1
  F  F14  1  0.693630  0.057444  0.576485  1
  F  F15  1  0.306507  0.359407  0.927746  1
  F  F16  1  0.313793  0.935443  0.424144  1
  F  F17  1  0.682914  0.629510  0.079838  1
  F  F18  1  0.943876  0.630451  0.578324  1
  F  F19  1  0.057444  0.693630  0.923515  1
  F  F20  1  0.067701  0.369671  0.416280  1
  F  F21  1  0.935443  0.313793  0.075856  1
  F  F22  1  0.630451  0.943876  0.921676  1
  F  F23  1  0.369671  0.067701  0.083720  1
