# generated using pymatgen
data_Tm6RuO12
_symmetry_space_group_name_H-M   'P 1'
_cell_length_a   6.37544538
_cell_length_b   6.37544607
_cell_length_c   6.37544564
_cell_angle_alpha   98.72932841
_cell_angle_beta   98.72932416
_cell_angle_gamma   98.72933518
_symmetry_Int_Tables_number   1
_chemical_formula_structural   Tm6RuO12
_chemical_formula_sum   'Tm6 Ru1 O12'
_cell_volume   249.08426446
_cell_formula_units_Z   1
loop_
 _symmetry_equiv_pos_site_id
 _symmetry_equiv_pos_as_xyz
  1  'x, y, z'
loop_
 _atom_site_type_symbol
 _atom_site_label
 _atom_site_symmetry_multiplicity
 _atom_site_fract_x
 _atom_site_fract_y
 _atom_site_fract_z
 _atom_site_occupancy
  Tm  Tm0  1  0.683875  0.856740  0.389536  1
  Tm  Tm1  1  0.389536  0.683875  0.856740  1
  Tm  Tm2  1  0.856740  0.389536  0.683875  1
  Tm  Tm3  1  0.316125  0.143260  0.610464  1
  Tm  Tm4  1  0.610464  0.316125  0.143260  1
  Tm  Tm5  1  0.143260  0.610464  0.316125  1
  Ru  Ru6  1  0.000000  0.000000  0.000000  1
  O  O7  1  0.430608  0.589646  0.177588  1
  O  O8  1  0.177588  0.430608  0.589646  1
  O  O9  1  0.589646  0.177588  0.430608  1
  O  O10  1  0.569392  0.410354  0.822412  1
  O  O11  1  0.822412  0.569392  0.410354  1
  O  O12  1  0.410354  0.822412  0.569392  1
  O  O13  1  0.921781  0.037991  0.699714  1
  O  O14  1  0.962009  0.300286  0.078219  1
  O  O15  1  0.300286  0.078219  0.962009  1
  O  O16  1  0.078219  0.962009  0.300286  1
  O  O17  1  0.037991  0.699714  0.921781  1
  O  O18  1  0.699714  0.921781  0.037991  1
