# generated using pymatgen
data_TbYAl2IrPd
_symmetry_space_group_name_H-M   'P 1'
_cell_length_a   4.36529200
_cell_length_b   6.89571306
_cell_length_c   7.88092645
_cell_angle_alpha   90.19405224
_cell_angle_beta   90.00000000
_cell_angle_gamma   90.00000000
_symmetry_Int_Tables_number   1
_chemical_formula_structural   TbYAl2IrPd
_chemical_formula_sum   'Tb2 Y2 Al4 Ir2 Pd2'
_cell_volume   237.22871964
_cell_formula_units_Z   2
loop_
 _symmetry_equiv_pos_site_id
 _symmetry_equiv_pos_as_xyz
  1  'x, y, z'
loop_
 _atom_site_type_symbol
 _atom_site_label
 _atom_site_symmetry_multiplicity
 _atom_site_fract_x
 _atom_site_fract_y
 _atom_site_fract_z
 _atom_site_occupancy
  Tb  Tb0  1  0.250000  0.027440  0.677172  1
  Tb  Tb1  1  0.750000  0.972560  0.322828  1
  Y  Y2  1  0.250000  0.535573  0.815784  1
  Y  Y3  1  0.750000  0.464427  0.184216  1
  Al  Al4  1  0.250000  0.637765  0.440231  1
  Al  Al5  1  0.750000  0.362235  0.559769  1
  Al  Al6  1  0.250000  0.144969  0.064373  1
  Al  Al7  1  0.750000  0.855031  0.935627  1
  Ir  Ir8  1  0.750000  0.732126  0.619192  1
  Ir  Ir9  1  0.250000  0.267874  0.380808  1
  Pd  Pd10  1  0.750000  0.227055  0.881340  1
  Pd  Pd11  1  0.250000  0.772945  0.118660  1
