# generated using pymatgen
data_ErLu9(Bi3S)2
_symmetry_space_group_name_H-M   'P 1'
_cell_length_a   9.03692300
_cell_length_b   9.03076522
_cell_length_c   6.47092900
_cell_angle_alpha   90.00000000
_cell_angle_beta   90.00000000
_cell_angle_gamma   119.97747059
_symmetry_Int_Tables_number   1
_chemical_formula_structural   ErLu9(Bi3S)2
_chemical_formula_sum   'Er1 Lu9 Bi6 S2'
_cell_volume   457.44717459
_cell_formula_units_Z   1
loop_
 _symmetry_equiv_pos_site_id
 _symmetry_equiv_pos_as_xyz
  1  'x, y, z'
loop_
 _atom_site_type_symbol
 _atom_site_label
 _atom_site_symmetry_multiplicity
 _atom_site_fract_x
 _atom_site_fract_y
 _atom_site_fract_z
 _atom_site_occupancy
  Er  Er0  1  0.000000  0.751123  0.750000  1
  Lu  Lu1  1  0.666803  0.333636  0.499897  1
  Lu  Lu2  1  0.333197  0.666835  0.499897  1
  Lu  Lu3  1  0.333197  0.666835  0.000103  1
  Lu  Lu4  1  0.666803  0.333636  0.000103  1
  Lu  Lu5  1  0.752539  0.752880  0.250000  1
  Lu  Lu6  1  0.247461  0.000340  0.250000  1
  Lu  Lu7  1  0.000000  0.248004  0.250000  1
  Lu  Lu8  1  0.246650  0.245864  0.750000  1
  Lu  Lu9  1  0.753350  0.999214  0.750000  1
  Bi  Bi10  1  0.396457  0.396469  0.250000  1
  Bi  Bi11  1  0.603543  0.000011  0.250000  1
  Bi  Bi12  1  0.000000  0.603704  0.250000  1
  Bi  Bi13  1  0.601669  0.602931  0.750000  1
  Bi  Bi14  1  0.398331  0.001262  0.750000  1
  Bi  Bi15  1  0.000000  0.394328  0.750000  1
  S  S16  1  0.000000  0.001464  0.499024  1
  S  S17  1  0.000000  0.001464  0.000976  1
