# generated using pymatgen
data_Hf3Si2GeMo2N
_symmetry_space_group_name_H-M   'P 1'
_cell_length_a   7.68862100
_cell_length_b   7.68928454
_cell_length_c   5.32252700
_cell_angle_alpha   90.00000000
_cell_angle_beta   90.00000000
_cell_angle_gamma   119.99714974
_symmetry_Int_Tables_number   1
_chemical_formula_structural   Hf3Si2GeMo2N
_chemical_formula_sum   'Hf6 Si4 Ge2 Mo4 N2'
_cell_volume   272.51810692
_cell_formula_units_Z   2
loop_
 _symmetry_equiv_pos_site_id
 _symmetry_equiv_pos_as_xyz
  1  'x, y, z'
loop_
 _atom_site_type_symbol
 _atom_site_label
 _atom_site_symmetry_multiplicity
 _atom_site_fract_x
 _atom_site_fract_y
 _atom_site_fract_z
 _atom_site_occupancy
  Hf  Hf0  1  0.233177  0.000000  0.250000  1
  Hf  Hf1  1  0.766823  0.000000  0.750000  1
  Hf  Hf2  1  0.003264  0.238264  0.250000  1
  Hf  Hf3  1  0.996736  0.761736  0.750000  1
  Hf  Hf4  1  0.765000  0.761736  0.250000  1
  Hf  Hf5  1  0.235000  0.238264  0.750000  1
  Si  Si6  1  0.001089  0.590736  0.250000  1
  Si  Si7  1  0.998911  0.409264  0.750000  1
  Si  Si8  1  0.410353  0.409264  0.250000  1
  Si  Si9  1  0.589647  0.590736  0.750000  1
  Ge  Ge10  1  0.592547  0.000000  0.250000  1
  Ge  Ge11  1  0.407453  0.000000  0.750000  1
  Mo  Mo12  1  0.329805  0.659610  0.000000  1
  Mo  Mo13  1  0.670195  0.340390  0.000000  1
  Mo  Mo14  1  0.670195  0.340390  0.500000  1
  Mo  Mo15  1  0.329805  0.659610  0.500000  1
  N  N16  1  0.000000  0.000000  0.000000  1
  N  N17  1  0.000000  0.000000  0.500000  1
