# generated using pymatgen
data_Rb16Ti12Se61
_symmetry_space_group_name_H-M   'P 1'
_cell_length_a   12.46198186
_cell_length_b   14.72666828
_cell_length_c   15.14370400
_cell_angle_alpha   73.71743968
_cell_angle_beta   76.89499378
_cell_angle_gamma   71.36115685
_symmetry_Int_Tables_number   1
_chemical_formula_structural   Rb16Ti12Se61
_chemical_formula_sum   'Rb16 Ti12 Se61'
_cell_volume   2498.93965388
_cell_formula_units_Z   1
loop_
 _symmetry_equiv_pos_site_id
 _symmetry_equiv_pos_as_xyz
  1  'x, y, z'
loop_
 _atom_site_type_symbol
 _atom_site_label
 _atom_site_symmetry_multiplicity
 _atom_site_fract_x
 _atom_site_fract_y
 _atom_site_fract_z
 _atom_site_occupancy
  Rb  Rb0  1  0.992781  0.032132  0.183640  1
  Rb  Rb1  1  0.137610  0.622964  0.339162  1
  Rb  Rb2  1  0.286448  0.298315  0.145136  1
  Rb  Rb3  1  0.211870  0.254797  0.825201  1
  Rb  Rb4  1  0.157810  0.635094  0.643316  1
  Rb  Rb5  1  0.596667  0.109200  0.334297  1
  Rb  Rb6  1  0.375368  0.828984  0.317329  1
  Rb  Rb7  1  0.424287  0.456894  0.845996  1
  Rb  Rb8  1  0.577515  0.543447  0.151974  1
  Rb  Rb9  1  0.624631  0.166973  0.682080  1
  Rb  Rb10  1  0.408341  0.888678  0.664948  1
  Rb  Rb11  1  0.859360  0.371436  0.339350  1
  Rb  Rb12  1  0.793624  0.741039  0.180763  1
  Rb  Rb13  1  0.715460  0.702155  0.854869  1
  Rb  Rb14  1  0.901245  0.383869  0.656902  1
  Rb  Rb15  1  0.005970  0.967246  0.816518  1
  Ti  Ti16  1  0.117977  0.068533  0.502528  1
  Ti  Ti17  1  0.081564  0.580344  0.005036  1
  Ti  Ti18  1  0.254320  0.250167  0.499525  1
  Ti  Ti19  1  0.238601  0.744502  0.005742  1
  Ti  Ti20  1  0.398857  0.425396  0.488360  1
  Ti  Ti21  1  0.379595  0.928076  0.008490  1
  Ti  Ti22  1  0.619841  0.070599  0.993642  1
  Ti  Ti23  1  0.586716  0.571183  0.517505  1
  Ti  Ti24  1  0.761478  0.254851  0.992978  1
  Ti  Ti25  1  0.743451  0.747594  0.500667  1
  Ti  Ti26  1  0.918714  0.418390  0.997776  1
  Ti  Ti27  1  0.880232  0.931454  0.497277  1
  Se  Se28  1  0.018506  0.774248  0.013627  1
  Se  Se29  1  0.063643  0.533398  0.179158  1
  Se  Se30  1  0.077561  0.392952  0.446652  1
  Se  Se31  1  0.139682  0.245590  0.379130  1
  Se  Se32  1  0.106720  0.157866  0.629866  1
  Se  Se33  1  0.273354  0.085178  0.067067  1
  Se  Se34  1  0.255284  0.066807  0.340226  1
  Se  Se35  1  0.086314  0.801374  0.142641  1
  Se  Se36  1  0.069037  0.821358  0.422687  1
  Se  Se37  1  0.245950  0.557026  0.098641  1
  Se  Se38  1  0.016988  0.710544  0.857117  1
  Se  Se39  1  0.455005  0.009206  0.118083  1
  Se  Se40  1  0.336122  0.070191  0.471204  1
  Se  Se41  1  0.012642  0.928945  0.610581  1
  Se  Se42  1  0.290116  0.010230  0.853087  1
  Se  Se43  1  0.212364  0.395634  0.593402  1
  Se  Se44  1  0.137701  0.427843  0.953246  1
  Se  Se45  1  0.308247  0.394916  0.362147  1
  Se  Se46  1  0.366440  0.132720  0.633618  1
  Se  Se47  1  0.208569  0.880995  0.546037  1
  Se  Se48  1  0.219102  0.671158  0.868949  1
  Se  Se49  1  0.353733  0.768493  0.129384  1
  Se  Se50  1  0.373174  0.386077  0.664007  1
  Se  Se51  1  0.468870  0.225515  0.502536  1
  Se  Se52  1  0.376313  0.600067  0.458069  1
  Se  Se53  1  0.604957  0.191219  0.112579  1
  Se  Se54  1  0.563925  0.369130  0.049177  1
  Se  Se55  1  0.169508  0.937098  0.989603  1
  Se  Se56  1  0.517496  0.367624  0.338017  1
  Se  Se57  1  0.452679  0.219815  0.935150  1
  Se  Se58  1  0.546623  0.779483  0.067437  1
  Se  Se59  1  0.466076  0.648161  0.655911  1
  Se  Se60  1  0.830432  0.061879  0.010450  1
  Se  Se61  1  0.614372  0.392456  0.496196  1
  Se  Se62  1  0.436816  0.629963  0.950322  1
  Se  Se63  1  0.395761  0.808299  0.887775  1
  Se  Se64  1  0.527606  0.772993  0.490774  1
  Se  Se65  1  0.630449  0.609898  0.337183  1
  Se  Se66  1  0.645363  0.228413  0.871849  1
  Se  Se67  1  0.630272  0.409625  0.643304  1
  Se  Se68  1  0.782646  0.325538  0.131644  1
  Se  Se69  1  0.789577  0.119850  0.455210  1
  Se  Se70  1  0.638861  0.861832  0.361661  1
  Se  Se71  1  0.670139  0.620070  0.646105  1
  Se  Se72  1  0.863193  0.569931  0.051446  1
  Se  Se73  1  0.782072  0.593901  0.418857  1
  Se  Se74  1  0.712388  0.988425  0.147355  1
  Se  Se75  1  0.984836  0.072529  0.389524  1
  Se  Se76  1  0.662630  0.927377  0.528945  1
  Se  Se77  1  0.544443  0.989102  0.884266  1
  Se  Se78  1  0.985644  0.284656  0.142086  1
  Se  Se79  1  0.755379  0.443817  0.902401  1
  Se  Se80  1  0.930255  0.182572  0.575890  1
  Se  Se81  1  0.911825  0.200017  0.854660  1
  Se  Se82  1  0.742583  0.931027  0.659663  1
  Se  Se83  1  0.725620  0.912639  0.936001  1
  Se  Se84  1  0.892984  0.842608  0.369455  1
  Se  Se85  1  0.864340  0.751839  0.617690  1
  Se  Se86  1  0.927809  0.610992  0.544731  1
  Se  Se87  1  0.937158  0.471210  0.824880  1
  Se  Se88  1  0.981458  0.224768  0.983321  1
