# generated using pymatgen
data_Cu5AgF18
_symmetry_space_group_name_H-M   'P 1'
_cell_length_a   5.05180800
_cell_length_b   5.05179933
_cell_length_c   13.45660300
_cell_angle_alpha   89.99935224
_cell_angle_beta   89.99947678
_cell_angle_gamma   59.99837703
_symmetry_Int_Tables_number   1
_chemical_formula_structural   Cu5AgF18
_chemical_formula_sum   'Cu5 Ag1 F18'
_cell_volume   297.40748592
_cell_formula_units_Z   1
loop_
 _symmetry_equiv_pos_site_id
 _symmetry_equiv_pos_as_xyz
  1  'x, y, z'
loop_
 _atom_site_type_symbol
 _atom_site_label
 _atom_site_symmetry_multiplicity
 _atom_site_fract_x
 _atom_site_fract_y
 _atom_site_fract_z
 _atom_site_occupancy
  Cu  Cu0  1  0.999999  0.000002  0.004595  1
  Cu  Cu1  1  0.666667  0.666673  0.166567  1
  Cu  Cu2  1  0.333327  0.333343  0.328852  1
  Cu  Cu3  1  0.999992  0.000008  0.489572  1
  Cu  Cu4  1  0.333327  0.333336  0.843859  1
  Ag  Ag5  1  0.666658  0.666676  0.666762  1
  F  F6  1  0.333051  0.947706  0.085589  1
  F  F7  1  0.719244  0.333064  0.085589  1
  F  F8  1  0.947702  0.719252  0.085591  1
  F  F9  1  0.385949  0.613588  0.247613  1
  F  F10  1  0.613578  0.000468  0.247615  1
  F  F11  1  0.000464  0.385956  0.247615  1
  F  F12  1  0.666356  0.285596  0.409631  1
  F  F13  1  0.285573  0.048069  0.409636  1
  F  F14  1  0.048043  0.666382  0.409631  1
  F  F15  1  0.714234  0.969114  0.573764  1
  F  F16  1  0.969084  0.316663  0.573761  1
  F  F17  1  0.316649  0.714258  0.573764  1
  F  F18  1  0.619249  0.364104  0.759573  1
  F  F19  1  0.364087  0.016656  0.759573  1
  F  F20  1  0.016643  0.619259  0.759570  1
  F  F21  1  0.048266  0.284581  0.923689  1
  F  F22  1  0.284574  0.667151  0.923689  1
  F  F23  1  0.667151  0.048271  0.923692  1
