# generated using pymatgen
data_ZnCr20(OsC3)2
_symmetry_space_group_name_H-M   'P 1'
_cell_length_a   7.50407165
_cell_length_b   7.50407239
_cell_length_c   7.50407200
_cell_angle_alpha   59.99999292
_cell_angle_beta   59.99998963
_cell_angle_gamma   59.99999383
_symmetry_Int_Tables_number   1
_chemical_formula_structural   ZnCr20(OsC3)2
_chemical_formula_sum   'Zn1 Cr20 Os2 C6'
_cell_volume   298.79677397
_cell_formula_units_Z   1
loop_
 _symmetry_equiv_pos_site_id
 _symmetry_equiv_pos_as_xyz
  1  'x, y, z'
loop_
 _atom_site_type_symbol
 _atom_site_label
 _atom_site_symmetry_multiplicity
 _atom_site_fract_x
 _atom_site_fract_y
 _atom_site_fract_z
 _atom_site_occupancy
  Zn  Zn0  1  0.000000  0.000000  0.000000  1
  Cr  Cr1  1  0.616188  0.616188  0.151435  1
  Cr  Cr2  1  0.616188  0.151434  0.616188  1
  Cr  Cr3  1  0.151435  0.616188  0.616188  1
  Cr  Cr4  1  0.616188  0.616188  0.616188  1
  Cr  Cr5  1  0.383812  0.383812  0.848565  1
  Cr  Cr6  1  0.383812  0.848565  0.383812  1
  Cr  Cr7  1  0.848565  0.383812  0.383812  1
  Cr  Cr8  1  0.383812  0.383812  0.383812  1
  Cr  Cr9  1  0.000000  0.000000  0.342197  1
  Cr  Cr10  1  0.657803  0.000000  0.342197  1
  Cr  Cr11  1  0.000000  0.657803  0.342197  1
  Cr  Cr12  1  0.657803  0.342197  0.000000  1
  Cr  Cr13  1  0.000000  0.342197  0.000000  1
  Cr  Cr14  1  0.000000  0.342197  0.657803  1
  Cr  Cr15  1  0.342197  0.657803  0.000000  1
  Cr  Cr16  1  0.342197  0.000000  0.657803  1
  Cr  Cr17  1  0.342197  0.000000  0.000000  1
  Cr  Cr18  1  0.000000  0.000000  0.657803  1
  Cr  Cr19  1  0.000000  0.657803  0.000000  1
  Cr  Cr20  1  0.657803  0.000000  0.000000  1
  Os  Os21  1  0.750000  0.750000  0.750000  1
  Os  Os22  1  0.250000  0.250000  0.250000  1
  C  C23  1  0.722588  0.722588  0.277412  1
  C  C24  1  0.277412  0.722588  0.277412  1
  C  C25  1  0.722588  0.277412  0.277412  1
  C  C26  1  0.277412  0.277412  0.722588  1
  C  C27  1  0.722588  0.277412  0.722588  1
  C  C28  1  0.277412  0.722588  0.722588  1
