# generated using pymatgen
data_Dy17Ho3(SnPb)8
_symmetry_space_group_name_H-M   'P 1'
_cell_length_a   8.12372100
_cell_length_b   8.19858708
_cell_length_c   15.56192200
_cell_angle_alpha   90.00000000
_cell_angle_beta   90.00000000
_cell_angle_gamma   90.00821847
_symmetry_Int_Tables_number   1
_chemical_formula_structural   Dy17Ho3(SnPb)8
_chemical_formula_sum   'Dy17 Ho3 Sn8 Pb8'
_cell_volume   1036.47121046
_cell_formula_units_Z   1
loop_
 _symmetry_equiv_pos_site_id
 _symmetry_equiv_pos_as_xyz
  1  'x, y, z'
loop_
 _atom_site_type_symbol
 _atom_site_label
 _atom_site_symmetry_multiplicity
 _atom_site_fract_x
 _atom_site_fract_y
 _atom_site_fract_z
 _atom_site_occupancy
  Dy  Dy0  1  0.378405  0.839655  0.877177  1
  Dy  Dy1  1  0.878213  0.660479  0.622833  1
  Dy  Dy2  1  0.621660  0.160391  0.376974  1
  Dy  Dy3  1  0.121653  0.339606  0.123083  1
  Dy  Dy4  1  0.621660  0.160391  0.123026  1
  Dy  Dy5  1  0.121653  0.339606  0.376917  1
  Dy  Dy6  1  0.378405  0.839655  0.622823  1
  Dy  Dy7  1  0.878213  0.660479  0.877167  1
  Dy  Dy8  1  0.534919  0.323404  0.897277  1
  Dy  Dy9  1  0.034786  0.176459  0.602731  1
  Dy  Dy10  1  0.465178  0.676511  0.397075  1
  Dy  Dy11  1  0.965199  0.823472  0.102893  1
  Dy  Dy12  1  0.465178  0.676511  0.102925  1
  Dy  Dy13  1  0.965199  0.823472  0.397107  1
  Dy  Dy14  1  0.534919  0.323404  0.602723  1
  Dy  Dy15  1  0.034786  0.176459  0.897269  1
  Dy  Dy16  1  0.209316  0.503645  0.750000  1
  Ho  Ho17  1  0.709566  0.996357  0.750000  1
  Ho  Ho18  1  0.790526  0.496315  0.250000  1
  Ho  Ho19  1  0.290538  0.003648  0.250000  1
  Sn  Sn20  1  0.575109  0.622572  0.750000  1
  Sn  Sn21  1  0.074743  0.877913  0.750000  1
  Sn  Sn22  1  0.425289  0.377435  0.250000  1
  Sn  Sn23  1  0.925091  0.122523  0.250000  1
  Sn  Sn24  1  0.342806  0.148482  0.750000  1
  Sn  Sn25  1  0.842523  0.351068  0.750000  1
  Sn  Sn26  1  0.657229  0.851069  0.250000  1
  Sn  Sn27  1  0.157147  0.648940  0.250000  1
  Pb  Pb28  1  0.281882  0.033427  0.041989  1
  Pb  Pb29  1  0.781924  0.466597  0.458021  1
  Pb  Pb30  1  0.718124  0.966594  0.541646  1
  Pb  Pb31  1  0.218116  0.533422  0.958507  1
  Pb  Pb32  1  0.718124  0.966594  0.958354  1
  Pb  Pb33  1  0.218116  0.533422  0.541493  1
  Pb  Pb34  1  0.281882  0.033427  0.458011  1
  Pb  Pb35  1  0.781924  0.466597  0.041979  1
