# generated using pymatgen
data_Ca2Al7Si2Rh3
_symmetry_space_group_name_H-M   'P 1'
_cell_length_a   7.49528652
_cell_length_b   7.47234494
_cell_length_c   9.52756481
_cell_angle_alpha   89.89034192
_cell_angle_beta   90.12473411
_cell_angle_gamma   119.57978394
_symmetry_Int_Tables_number   1
_chemical_formula_structural   Ca2Al7Si2Rh3
_chemical_formula_sum   'Ca4 Al14 Si4 Rh6'
_cell_volume   464.06615813
_cell_formula_units_Z   2
loop_
 _symmetry_equiv_pos_site_id
 _symmetry_equiv_pos_as_xyz
  1  'x, y, z'
loop_
 _atom_site_type_symbol
 _atom_site_label
 _atom_site_symmetry_multiplicity
 _atom_site_fract_x
 _atom_site_fract_y
 _atom_site_fract_z
 _atom_site_occupancy
  Ca  Ca0  1  0.000547  0.669383  0.749971  1
  Ca  Ca1  1  0.006835  0.341312  0.253689  1
  Ca  Ca2  1  0.670520  0.000244  0.749858  1
  Ca  Ca3  1  0.319383  0.991425  0.246232  1
  Al  Al4  1  0.130818  0.127578  0.750259  1
  Al  Al5  1  0.871678  0.869810  0.249876  1
  Al  Al6  1  0.000505  0.330250  0.930480  1
  Al  Al7  1  0.668355  0.000452  0.074598  1
  Al  Al8  1  0.663396  0.998246  0.424894  1
  Al  Al9  1  0.338890  0.003968  0.569589  1
  Al  Al10  1  0.333122  0.334223  0.052372  1
  Al  Al11  1  0.664680  0.668063  0.947687  1
  Al  Al12  1  0.664369  0.667821  0.552355  1
  Al  Al13  1  0.334917  0.332509  0.447307  1
  Al  Al14  1  0.336921  0.546811  0.749782  1
  Al  Al15  1  0.660840  0.449583  0.251638  1
  Al  Al16  1  0.547842  0.342510  0.749908  1
  Al  Al17  1  0.455960  0.660262  0.248928  1
  Si  Si18  1  0.003405  0.328435  0.574999  1
  Si  Si19  1  0.995025  0.669701  0.431535  1
  Si  Si20  1  0.990420  0.659408  0.068829  1
  Si  Si21  1  0.341413  0.008932  0.925217  1
  Rh  Rh22  1  0.687545  0.337232  0.503364  1
  Rh  Rh23  1  0.312690  0.662621  0.497406  1
  Rh  Rh24  1  0.320324  0.678541  0.999449  1
  Rh  Rh25  1  0.671008  0.329990  0.000010  1
  Rh  Rh26  1  0.000870  0.999004  0.500195  1
  Rh  Rh27  1  0.007721  0.991686  0.999575  1
