# generated using pymatgen
data_Tb3HoAl24IrPt8
_symmetry_space_group_name_H-M   'P 1'
_cell_length_a   7.52672193
_cell_length_b   7.55084957
_cell_length_c   13.17948440
_cell_angle_alpha   84.61641804
_cell_angle_beta   79.10451949
_cell_angle_gamma   59.91299117
_symmetry_Int_Tables_number   1
_chemical_formula_structural   Tb3HoAl24IrPt8
_chemical_formula_sum   'Tb3 Ho1 Al24 Ir1 Pt8'
_cell_volume   636.42739125
_cell_formula_units_Z   1
loop_
 _symmetry_equiv_pos_site_id
 _symmetry_equiv_pos_as_xyz
  1  'x, y, z'
loop_
 _atom_site_type_symbol
 _atom_site_label
 _atom_site_symmetry_multiplicity
 _atom_site_fract_x
 _atom_site_fract_y
 _atom_site_fract_z
 _atom_site_occupancy
  Tb  Tb0  1  0.393577  0.168381  0.808911  1
  Tb  Tb1  1  0.606480  0.831641  0.191115  1
  Tb  Tb2  1  0.733613  0.498309  0.808883  1
  Ho  Ho3  1  0.266124  0.501648  0.191433  1
  Al  Al4  1  0.686921  0.830743  0.945742  1
  Al  Al5  1  0.313073  0.169579  0.054581  1
  Al  Al6  1  0.146600  0.832012  0.561496  1
  Al  Al7  1  0.853438  0.167983  0.438394  1
  Al  Al8  1  0.480040  0.166689  0.558921  1
  Al  Al9  1  0.519969  0.833327  0.440982  1
  Al  Al10  1  0.217256  0.165383  0.328344  1
  Al  Al11  1  0.782855  0.834791  0.671346  1
  Al  Al12  1  0.436437  0.507088  0.671243  1
  Al  Al13  1  0.563430  0.492916  0.328438  1
  Al  Al14  1  0.109545  0.159947  0.669064  1
  Al  Al15  1  0.890763  0.839863  0.330617  1
  Al  Al16  1  0.349365  0.499385  0.946083  1
  Al  Al17  1  0.650117  0.500664  0.054464  1
  Al  Al18  1  0.014942  0.171009  0.955245  1
  Al  Al19  1  0.985231  0.828723  0.045154  1
  Al  Al20  1  0.186677  0.499220  0.441119  1
  Al  Al21  1  0.813383  0.500774  0.558724  1
  Al  Al22  1  0.734457  0.164079  0.183144  1
  Al  Al23  1  0.265093  0.836353  0.816845  1
  Al  Al24  1  0.061014  0.629820  0.817458  1
  Al  Al25  1  0.939486  0.370117  0.182574  1
  Al  Al26  1  0.856126  0.041346  0.816457  1
  Al  Al27  1  0.143867  0.958119  0.183516  1
  Ir  Ir28  1  0.000029  0.500064  0.000163  1
  Pt  Pt29  1  0.120005  0.492344  0.638533  1
  Pt  Pt30  1  0.880289  0.507676  0.361259  1
  Pt  Pt31  1  0.657373  0.171324  0.999971  1
  Pt  Pt32  1  0.342516  0.828687  0.000212  1
  Pt  Pt33  1  0.537498  0.167117  0.361731  1
  Pt  Pt34  1  0.462316  0.833124  0.638070  1
  Pt  Pt35  1  0.778989  0.174812  0.636887  1
  Pt  Pt36  1  0.221107  0.824944  0.362881  1
