# generated using pymatgen
data_LiCaTb3Al17Pd6
_symmetry_space_group_name_H-M   'P 1'
_cell_length_a   7.63751770
_cell_length_b   7.63009006
_cell_length_c   9.50360600
_cell_angle_alpha   90.00000000
_cell_angle_beta   90.00000000
_cell_angle_gamma   119.26769950
_symmetry_Int_Tables_number   1
_chemical_formula_structural   LiCaTb3Al17Pd6
_chemical_formula_sum   'Li1 Ca1 Tb3 Al17 Pd6'
_cell_volume   483.12399147
_cell_formula_units_Z   1
loop_
 _symmetry_equiv_pos_site_id
 _symmetry_equiv_pos_as_xyz
  1  'x, y, z'
loop_
 _atom_site_type_symbol
 _atom_site_label
 _atom_site_symmetry_multiplicity
 _atom_site_fract_x
 _atom_site_fract_y
 _atom_site_fract_z
 _atom_site_occupancy
  Li  Li0  1  0.128726  0.129802  0.250000  1
  Ca  Ca1  1  0.995300  0.667391  0.250000  1
  Tb  Tb2  1  0.005961  0.330203  0.750000  1
  Tb  Tb3  1  0.665495  0.995591  0.250000  1
  Tb  Tb4  1  0.328236  0.005001  0.750000  1
  Al  Al5  1  0.866747  0.867116  0.750000  1
  Al  Al6  1  0.002117  0.328958  0.081822  1
  Al  Al7  1  0.999658  0.664908  0.924747  1
  Al  Al8  1  0.999658  0.664908  0.575253  1
  Al  Al9  1  0.329309  0.001826  0.419430  1
  Al  Al10  1  0.002117  0.328958  0.418178  1
  Al  Al11  1  0.665131  0.000173  0.575508  1
  Al  Al12  1  0.665131  0.000173  0.924492  1
  Al  Al13  1  0.329309  0.001826  0.080570  1
  Al  Al14  1  0.334693  0.334654  0.546242  1
  Al  Al15  1  0.671028  0.671231  0.441725  1
  Al  Al16  1  0.671028  0.671231  0.058275  1
  Al  Al17  1  0.334693  0.334654  0.953758  1
  Al  Al18  1  0.342809  0.542396  0.250000  1
  Al  Al19  1  0.659034  0.452378  0.750000  1
  Al  Al20  1  0.540067  0.337400  0.250000  1
  Al  Al21  1  0.453755  0.659044  0.750000  1
  Pd  Pd22  1  0.674587  0.329152  0.999171  1
  Pd  Pd23  1  0.329855  0.674773  0.998931  1
  Pd  Pd24  1  0.329855  0.674773  0.501069  1
  Pd  Pd25  1  0.674587  0.329152  0.500829  1
  Pd  Pd26  1  0.000557  0.001162  0.992012  1
  Pd  Pd27  1  0.000557  0.001162  0.507988  1
