# generated using pymatgen
data_HoTmTcB6
_symmetry_space_group_name_H-M   'P 1'
_cell_length_a   3.65305400
_cell_length_b   9.11121900
_cell_length_c   11.48979600
_cell_angle_alpha   90.00000000
_cell_angle_beta   90.00000000
_cell_angle_gamma   90.00000000
_symmetry_Int_Tables_number   1
_chemical_formula_structural   HoTmTcB6
_chemical_formula_sum   'Ho4 Tm4 Tc4 B24'
_cell_volume   382.42378501
_cell_formula_units_Z   4
loop_
 _symmetry_equiv_pos_site_id
 _symmetry_equiv_pos_as_xyz
  1  'x, y, z'
loop_
 _atom_site_type_symbol
 _atom_site_label
 _atom_site_symmetry_multiplicity
 _atom_site_fract_x
 _atom_site_fract_y
 _atom_site_fract_z
 _atom_site_occupancy
  Ho  Ho0  1  0.000000  0.323637  0.414225  1
  Ho  Ho1  1  0.000000  0.676363  0.585775  1
  Ho  Ho2  1  0.000000  0.823637  0.085775  1
  Ho  Ho3  1  0.000000  0.176363  0.914225  1
  Tm  Tm4  1  0.000000  0.943193  0.369974  1
  Tm  Tm5  1  0.000000  0.056807  0.630026  1
  Tm  Tm6  1  0.000000  0.443193  0.130026  1
  Tm  Tm7  1  0.000000  0.556807  0.869974  1
  Tc  Tc8  1  0.000000  0.639162  0.320081  1
  Tc  Tc9  1  0.000000  0.360838  0.679919  1
  Tc  Tc10  1  0.000000  0.139162  0.179919  1
  Tc  Tc11  1  0.000000  0.860838  0.820081  1
  B  B12  1  0.500000  0.553510  0.432909  1
  B  B13  1  0.500000  0.446490  0.567091  1
  B  B14  1  0.500000  0.053510  0.067091  1
  B  B15  1  0.500000  0.946490  0.932909  1
  B  B16  1  0.500000  0.749674  0.418675  1
  B  B17  1  0.500000  0.250326  0.581325  1
  B  B18  1  0.500000  0.249674  0.081325  1
  B  B19  1  0.500000  0.750326  0.918675  1
  B  B20  1  0.500000  0.792737  0.265355  1
  B  B21  1  0.500000  0.207263  0.734645  1
  B  B22  1  0.500000  0.292737  0.234645  1
  B  B23  1  0.500000  0.707263  0.765355  1
  B  B24  1  0.500000  0.630537  0.185030  1
  B  B25  1  0.500000  0.369463  0.814970  1
  B  B26  1  0.500000  0.130537  0.314970  1
  B  B27  1  0.500000  0.869463  0.685030  1
  B  B28  1  0.500000  0.981672  0.212259  1
  B  B29  1  0.500000  0.018328  0.787741  1
  B  B30  1  0.500000  0.481672  0.287741  1
  B  B31  1  0.500000  0.518328  0.712259  1
  B  B32  1  0.500000  0.599570  0.027715  1
  B  B33  1  0.500000  0.400430  0.972285  1
  B  B34  1  0.500000  0.099570  0.472285  1
  B  B35  1  0.500000  0.900430  0.527715  1
