# generated using pymatgen
data_Re2Tc2(As2S)3
_symmetry_space_group_name_H-M   'P 1'
_cell_length_a   7.08570179
_cell_length_b   7.08353131
_cell_length_c   7.08570086
_cell_angle_alpha   59.85156229
_cell_angle_beta   59.90872691
_cell_angle_gamma   59.85156299
_symmetry_Int_Tables_number   1
_chemical_formula_structural   Re2Tc2(As2S)3
_chemical_formula_sum   'Re2 Tc2 As6 S3'
_cell_volume   250.73983474
_cell_formula_units_Z   1
loop_
 _symmetry_equiv_pos_site_id
 _symmetry_equiv_pos_as_xyz
  1  'x, y, z'
loop_
 _atom_site_type_symbol
 _atom_site_label
 _atom_site_symmetry_multiplicity
 _atom_site_fract_x
 _atom_site_fract_y
 _atom_site_fract_z
 _atom_site_occupancy
  Re  Re0  1  0.795301  0.398960  0.399128  1
  Re  Re1  1  0.399128  0.398960  0.795301  1
  Tc  Tc2  1  0.400216  0.401095  0.400216  1
  Tc  Tc3  1  0.397976  0.796551  0.397976  1
  As  As4  1  0.999153  0.001215  0.999153  1
  As  As5  1  0.143771  0.142205  0.143771  1
  As  As6  1  0.143828  0.566823  0.143828  1
  As  As7  1  0.567000  0.143430  0.143447  1
  As  As8  1  0.143447  0.143430  0.567000  1
  As  As9  1  0.639537  0.639343  0.639537  1
  S  S10  1  0.631250  0.107261  0.631250  1
  S  S11  1  0.107586  0.630364  0.631809  1
  S  S12  1  0.631809  0.630364  0.107586  1
