# generated using pymatgen
data_Ba8Na4Al3GaP12
_symmetry_space_group_name_H-M   'P 1'
_cell_length_a   8.42304971
_cell_length_b   8.42305175
_cell_length_c   12.18541052
_cell_angle_alpha   75.89088071
_cell_angle_beta   75.89087628
_cell_angle_gamma   67.53558499
_symmetry_Int_Tables_number   1
_chemical_formula_structural   Ba8Na4Al3GaP12
_chemical_formula_sum   'Ba8 Na4 Al3 Ga1 P12'
_cell_volume   763.80331487
_cell_formula_units_Z   1
loop_
 _symmetry_equiv_pos_site_id
 _symmetry_equiv_pos_as_xyz
  1  'x, y, z'
loop_
 _atom_site_type_symbol
 _atom_site_label
 _atom_site_symmetry_multiplicity
 _atom_site_fract_x
 _atom_site_fract_y
 _atom_site_fract_z
 _atom_site_occupancy
  Ba  Ba0  1  0.746443  0.193149  0.686584  1
  Ba  Ba1  1  0.254900  0.806663  0.313291  1
  Ba  Ba2  1  0.193149  0.746443  0.686584  1
  Ba  Ba3  1  0.500459  0.999259  0.499588  1
  Ba  Ba4  1  0.806663  0.254900  0.313291  1
  Ba  Ba5  1  0.000029  0.500102  0.000125  1
  Ba  Ba6  1  0.500102  0.000029  0.000125  1
  Ba  Ba7  1  0.999259  0.500459  0.499588  1
  Na  Na8  1  0.300320  0.699490  0.999506  1
  Na  Na9  1  0.357459  0.357459  0.228761  1
  Na  Na10  1  0.642114  0.642114  0.771519  1
  Na  Na11  1  0.699490  0.300320  0.999506  1
  Al  Al12  1  0.091773  0.091773  0.884200  1
  Al  Al13  1  0.909249  0.909249  0.115814  1
  Al  Al14  1  0.301793  0.301793  0.738780  1
  Ga  Ga15  1  0.696358  0.696358  0.261710  1
  P  P16  1  0.015602  0.620105  0.226189  1
  P  P17  1  0.587157  0.587157  0.136627  1
  P  P18  1  0.986878  0.381530  0.772950  1
  P  P19  1  0.083225  0.083225  0.487541  1
  P  P20  1  0.582350  0.582350  0.486550  1
  P  P21  1  0.916395  0.916395  0.912160  1
  P  P22  1  0.084388  0.084388  0.087808  1
  P  P23  1  0.410817  0.410817  0.861297  1
  P  P24  1  0.620105  0.015602  0.226189  1
  P  P25  1  0.917114  0.917114  0.511699  1
  P  P26  1  0.381530  0.986878  0.772950  1
  P  P27  1  0.414881  0.414881  0.519069  1
