# generated using pymatgen
data_Ce12AlSi5Ru6
_symmetry_space_group_name_H-M   'P 1'
_cell_length_a   7.64037100
_cell_length_b   7.64037042
_cell_length_c   9.82163400
_cell_angle_alpha   90.00000000
_cell_angle_beta   90.00000000
_cell_angle_gamma   119.99999818
_symmetry_Int_Tables_number   1
_chemical_formula_structural   Ce12AlSi5Ru6
_chemical_formula_sum   'Ce12 Al1 Si5 Ru6'
_cell_volume   496.52743281
_cell_formula_units_Z   1
loop_
 _symmetry_equiv_pos_site_id
 _symmetry_equiv_pos_as_xyz
  1  'x, y, z'
loop_
 _atom_site_type_symbol
 _atom_site_label
 _atom_site_symmetry_multiplicity
 _atom_site_fract_x
 _atom_site_fract_y
 _atom_site_fract_z
 _atom_site_occupancy
  Ce  Ce0  1  0.000000  0.592690  0.503590  1
  Ce  Ce1  1  0.592690  0.000000  0.503590  1
  Ce  Ce2  1  0.407310  0.407310  0.503590  1
  Ce  Ce3  1  0.000000  0.412336  0.005370  1
  Ce  Ce4  1  0.412336  0.000000  0.005370  1
  Ce  Ce5  1  0.587664  0.587664  0.005370  1
  Ce  Ce6  1  0.000000  0.735431  0.174947  1
  Ce  Ce7  1  0.735431  0.000000  0.174947  1
  Ce  Ce8  1  0.264569  0.264569  0.174947  1
  Ce  Ce9  1  0.000000  0.263064  0.670525  1
  Ce  Ce10  1  0.263064  0.000000  0.670525  1
  Ce  Ce11  1  0.736936  0.736936  0.670525  1
  Al  Al12  1  0.000000  0.000000  0.918637  1
  Si  Si13  1  0.666667  0.333333  0.275779  1
  Si  Si14  1  0.333333  0.666667  0.275779  1
  Si  Si15  1  0.333333  0.666667  0.772235  1
  Si  Si16  1  0.666667  0.333333  0.772235  1
  Si  Si17  1  0.000000  0.000000  0.417717  1
  Ru  Ru18  1  0.000000  0.340385  0.340244  1
  Ru  Ru19  1  0.340385  0.000000  0.340244  1
  Ru  Ru20  1  0.659615  0.659615  0.340244  1
  Ru  Ru21  1  0.000000  0.653582  0.837614  1
  Ru  Ru22  1  0.653582  0.000000  0.837614  1
  Ru  Ru23  1  0.346418  0.346418  0.837614  1
