# generated using pymatgen
data_Y4Al24Ir2Pt7
_symmetry_space_group_name_H-M   'P 1'
_cell_length_a   7.51407316
_cell_length_b   7.51479118
_cell_length_c   13.20803733
_cell_angle_alpha   84.53784985
_cell_angle_beta   100.89512224
_cell_angle_gamma   119.78407365
_symmetry_Int_Tables_number   1
_chemical_formula_structural   Y4Al24Ir2Pt7
_chemical_formula_sum   'Y4 Al24 Ir2 Pt7'
_cell_volume   635.62641388
_cell_formula_units_Z   1
loop_
 _symmetry_equiv_pos_site_id
 _symmetry_equiv_pos_as_xyz
  1  'x, y, z'
loop_
 _atom_site_type_symbol
 _atom_site_label
 _atom_site_symmetry_multiplicity
 _atom_site_fract_x
 _atom_site_fract_y
 _atom_site_fract_z
 _atom_site_occupancy
  Y  Y0  1  0.731919  0.998500  0.189988  1
  Y  Y1  1  0.267444  0.001501  0.809884  1
  Y  Y2  1  0.061945  0.668729  0.190381  1
  Y  Y3  1  0.938510  0.331599  0.809835  1
  Al  Al4  1  0.809854  0.870060  0.817689  1
  Al  Al5  1  0.190629  0.129207  0.182282  1
  Al  Al6  1  0.985395  0.669192  0.946543  1
  Al  Al7  1  0.020460  0.334296  0.053239  1
  Al  Al8  1  0.396770  0.663061  0.818934  1
  Al  Al9  1  0.601336  0.335725  0.182821  1
  Al  Al10  1  0.882248  0.665149  0.672598  1
  Al  Al11  1  0.117870  0.334699  0.326712  1
  Al  Al12  1  0.603148  0.458682  0.816792  1
  Al  Al13  1  0.397324  0.543530  0.181446  1
  Al  Al14  1  0.231027  0.340554  0.670327  1
  Al  Al15  1  0.769139  0.659514  0.329729  1
  Al  Al16  1  0.853293  0.333475  0.559032  1
  Al  Al17  1  0.186412  0.999401  0.558931  1
  Al  Al18  1  0.814257  0.000166  0.441053  1
  Al  Al19  1  0.348521  0.996477  0.053482  1
  Al  Al20  1  0.648097  0.997719  0.946842  1
  Al  Al21  1  0.556636  0.992134  0.673197  1
  Al  Al22  1  0.443599  0.007453  0.327306  1
  Al  Al23  1  0.521575  0.668569  0.561579  1
  Al  Al24  1  0.478415  0.331708  0.438261  1
  Al  Al25  1  0.681874  0.671164  0.042316  1
  Al  Al26  1  0.314638  0.332314  0.957694  1
  Al  Al27  1  0.146942  0.665850  0.441147  1
  Ir  Ir28  1  0.328726  0.671285  0.000004  1
  Ir  Ir29  1  0.999757  0.000263  0.999977  1
  Pt  Pt30  1  0.545786  0.324749  0.636811  1
  Pt  Pt31  1  0.454216  0.674696  0.362764  1
  Pt  Pt32  1  0.887502  0.008031  0.638243  1
  Pt  Pt33  1  0.112597  0.991865  0.361779  1
  Pt  Pt34  1  0.671453  0.328646  0.999974  1
  Pt  Pt35  1  0.204481  0.667087  0.638464  1
  Pt  Pt36  1  0.796202  0.332949  0.361946  1
