# generated using pymatgen
data_TbEu2ErH9
_symmetry_space_group_name_H-M   'P 1'
_cell_length_a   6.57784654
_cell_length_b   6.57784691
_cell_length_c   6.57784620
_cell_angle_alpha   132.15187665
_cell_angle_beta   132.15188108
_cell_angle_gamma   69.98925826
_symmetry_Int_Tables_number   1
_chemical_formula_structural   TbEu2ErH9
_chemical_formula_sum   'Tb1 Eu2 Er1 H9'
_cell_volume   153.37003599
_cell_formula_units_Z   1
loop_
 _symmetry_equiv_pos_site_id
 _symmetry_equiv_pos_as_xyz
  1  'x, y, z'
loop_
 _atom_site_type_symbol
 _atom_site_label
 _atom_site_symmetry_multiplicity
 _atom_site_fract_x
 _atom_site_fract_y
 _atom_site_fract_z
 _atom_site_occupancy
  Tb  Tb0  1  0.263979  0.263979  0.000000  1
  Eu  Eu1  1  0.499976  0.999976  0.500000  1
  Eu  Eu2  1  0.999976  0.499976  0.500000  1
  Er  Er3  1  0.736568  0.736568  0.000000  1
  H  H4  1  0.897593  0.378367  0.000000  1
  H  H5  1  0.378367  0.897593  0.000000  1
  H  H6  1  0.626937  0.097112  0.000000  1
  H  H7  1  0.097112  0.097112  0.470175  1
  H  H8  1  0.378367  0.378367  0.480774  1
  H  H9  1  0.499483  0.499483  0.000000  1
  H  H10  1  0.097112  0.626937  0.000000  1
  H  H11  1  0.626937  0.626937  0.529825  1
  H  H12  1  0.897593  0.897593  0.519226  1
