# generated using pymatgen
data_Tb4Ga11GeRu
_symmetry_space_group_name_H-M   'P 1'
_cell_length_a   7.50103279
_cell_length_b   7.50103244
_cell_length_c   7.50103313
_cell_angle_alpha   109.48184807
_cell_angle_beta   109.44997249
_cell_angle_gamma   109.48184624
_symmetry_Int_Tables_number   1
_chemical_formula_structural   Tb4Ga11GeRu
_chemical_formula_sum   'Tb4 Ga11 Ge1 Ru1'
_cell_volume   324.89366306
_cell_formula_units_Z   1
loop_
 _symmetry_equiv_pos_site_id
 _symmetry_equiv_pos_as_xyz
  1  'x, y, z'
loop_
 _atom_site_type_symbol
 _atom_site_label
 _atom_site_symmetry_multiplicity
 _atom_site_fract_x
 _atom_site_fract_y
 _atom_site_fract_z
 _atom_site_occupancy
  Tb  Tb0  1  0.493935  0.000000  0.001446  1
  Tb  Tb1  1  0.001446  0.000000  0.493935  1
  Tb  Tb2  1  0.493935  0.492489  0.493935  1
  Tb  Tb3  1  0.001446  0.507511  0.001446  1
  Ga  Ga4  1  0.503088  0.248750  0.751838  1
  Ga  Ga5  1  0.995671  0.708844  0.704516  1
  Ga  Ga6  1  0.713915  0.000000  0.713915  1
  Ga  Ga7  1  0.749401  0.500000  0.249401  1
  Ga  Ga8  1  0.254338  0.751250  0.503088  1
  Ga  Ga9  1  0.751838  0.248750  0.503088  1
  Ga  Ga10  1  0.704516  0.708844  0.995671  1
  Ga  Ga11  1  0.249401  0.500000  0.749401  1
  Ga  Ga12  1  0.503088  0.751250  0.254338  1
  Ga  Ga13  1  0.286827  0.291156  0.995671  1
  Ga  Ga14  1  0.995671  0.291156  0.286827  1
  Ge  Ge15  1  0.294392  0.000000  0.294392  1
  Ru  Ru16  1  0.007091  0.000000  0.007091  1
