# generated using pymatgen
data_Li25Si8Pt
_symmetry_space_group_name_H-M   'P 1'
_cell_length_a   7.93093465
_cell_length_b   14.96646788
_cell_length_c   4.40426100
_cell_angle_alpha   90.00000000
_cell_angle_beta   90.00000000
_cell_angle_gamma   89.88208487
_symmetry_Int_Tables_number   1
_chemical_formula_structural   Li25Si8Pt
_chemical_formula_sum   'Li25 Si8 Pt1'
_cell_volume   522.77621166
_cell_formula_units_Z   1
loop_
 _symmetry_equiv_pos_site_id
 _symmetry_equiv_pos_as_xyz
  1  'x, y, z'
loop_
 _atom_site_type_symbol
 _atom_site_label
 _atom_site_symmetry_multiplicity
 _atom_site_fract_x
 _atom_site_fract_y
 _atom_site_fract_z
 _atom_site_occupancy
  Li  Li0  1  0.159285  0.019375  0.000000  1
  Li  Li1  1  0.767337  0.150720  0.000000  1
  Li  Li2  1  0.093837  0.191071  0.000000  1
  Li  Li3  1  0.595053  0.306921  0.000000  1
  Li  Li4  1  0.267056  0.348649  0.000000  1
  Li  Li5  1  0.651664  0.474698  0.000000  1
  Li  Li6  1  0.999974  0.499991  0.000000  1
  Li  Li7  1  0.348288  0.525282  0.000000  1
  Li  Li8  1  0.732912  0.651321  0.000000  1
  Li  Li9  1  0.404910  0.693087  0.000000  1
  Li  Li10  1  0.906107  0.808908  0.000000  1
  Li  Li11  1  0.232619  0.849251  0.000000  1
  Li  Li12  1  0.840957  0.980620  0.000000  1
  Li  Li13  1  0.275648  0.082071  0.500000  1
  Li  Li14  1  0.601955  0.089342  0.500000  1
  Li  Li15  1  0.900688  0.245104  0.500000  1
  Li  Li16  1  0.410291  0.252020  0.500000  1
  Li  Li17  1  0.095527  0.392933  0.500000  1
  Li  Li18  1  0.758836  0.406989  0.500000  1
  Li  Li19  1  0.241122  0.592985  0.500000  1
  Li  Li20  1  0.904437  0.607041  0.500000  1
  Li  Li21  1  0.589616  0.747993  0.500000  1
  Li  Li22  1  0.099287  0.754870  0.500000  1
  Li  Li23  1  0.398066  0.910722  0.500000  1
  Li  Li24  1  0.724380  0.917978  0.500000  1
  Si  Si25  1  0.422892  0.154520  0.000000  1
  Si  Si26  1  0.916079  0.339387  0.000000  1
  Si  Si27  1  0.083878  0.660589  0.000000  1
  Si  Si28  1  0.577104  0.845485  0.000000  1
  Si  Si29  1  0.944901  0.072563  0.500000  1
  Si  Si30  1  0.425488  0.430031  0.500000  1
  Si  Si31  1  0.574485  0.569962  0.500000  1
  Si  Si32  1  0.055174  0.927448  0.500000  1
  Pt  Pt33  1  0.500157  0.000071  0.000000  1
