# generated using pymatgen
data_InI15
_symmetry_space_group_name_H-M   'P 1'
_cell_length_a   7.76265051
_cell_length_b   12.25322784
_cell_length_c   12.99491200
_cell_angle_alpha   58.22145702
_cell_angle_beta   86.36482504
_cell_angle_gamma   94.96546017
_symmetry_Int_Tables_number   1
_chemical_formula_structural   InI15
_chemical_formula_sum   'In1 I15'
_cell_volume   1038.10096321
_cell_formula_units_Z   1
loop_
 _symmetry_equiv_pos_site_id
 _symmetry_equiv_pos_as_xyz
  1  'x, y, z'
loop_
 _atom_site_type_symbol
 _atom_site_label
 _atom_site_symmetry_multiplicity
 _atom_site_fract_x
 _atom_site_fract_y
 _atom_site_fract_z
 _atom_site_occupancy
  In  In0  1  0.527521  0.161913  0.486867  1
  I  I1  1  0.846260  0.203253  0.973060  1
  I  I2  1  0.557165  0.809928  0.483851  1
  I  I3  1  0.034615  0.720246  0.045698  1
  I  I4  1  0.814063  0.420019  0.734416  1
  I  I5  1  0.397399  0.599120  0.771281  1
  I  I6  1  0.281706  0.766072  0.209585  1
  I  I7  1  0.620949  0.382980  0.267661  1
  I  I8  1  0.253905  0.406164  0.002565  1
  I  I9  1  0.813042  0.649829  0.483164  1
  I  I10  1  0.787344  0.658150  0.928482  1
  I  I11  1  0.287961  0.234861  0.611762  1
  I  I12  1  0.551165  0.991313  0.074156  1
  I  I13  1  0.295180  0.985781  0.460566  1
  I  I14  1  0.176034  0.980156  0.829101  1
  I  I15  1  0.755691  0.030217  0.637788  1
