# generated using pymatgen
data_Er5P12Ir16Os3
_symmetry_space_group_name_H-M   'P 1'
_cell_length_a   12.66054900
_cell_length_b   12.66054833
_cell_length_c   3.98167800
_cell_angle_alpha   90.00000000
_cell_angle_beta   90.00000000
_cell_angle_gamma   120.00000436
_symmetry_Int_Tables_number   1
_chemical_formula_structural   Er5P12Ir16Os3
_chemical_formula_sum   'Er5 P12 Ir16 Os3'
_cell_volume   552.71570142
_cell_formula_units_Z   1
loop_
 _symmetry_equiv_pos_site_id
 _symmetry_equiv_pos_as_xyz
  1  'x, y, z'
loop_
 _atom_site_type_symbol
 _atom_site_label
 _atom_site_symmetry_multiplicity
 _atom_site_fract_x
 _atom_site_fract_y
 _atom_site_fract_z
 _atom_site_occupancy
  Er  Er0  1  0.666667  0.333333  0.000000  1
  Er  Er1  1  0.333333  0.666667  0.000000  1
  Er  Er2  1  0.817372  0.817372  0.500000  1
  Er  Er3  1  0.182628  0.000000  0.500000  1
  Er  Er4  1  0.000000  0.182628  0.500000  1
  P  P5  1  0.689995  0.171013  0.500000  1
  P  P6  1  0.828987  0.518981  0.500000  1
  P  P7  1  0.481019  0.310005  0.500000  1
  P  P8  1  0.171013  0.689995  0.500000  1
  P  P9  1  0.518981  0.828987  0.500000  1
  P  P10  1  0.310005  0.481019  0.500000  1
  P  P11  1  0.642539  0.642539  0.000000  1
  P  P12  1  0.357461  0.000000  0.000000  1
  P  P13  1  0.000000  0.357461  0.000000  1
  P  P14  1  0.180776  0.180776  0.000000  1
  P  P15  1  0.819224  0.000000  0.000000  1
  P  P16  1  0.000000  0.819224  0.000000  1
  Ir  Ir17  1  0.805799  0.182982  0.000000  1
  Ir  Ir18  1  0.817018  0.622818  0.000000  1
  Ir  Ir19  1  0.377182  0.194201  0.000000  1
  Ir  Ir20  1  0.182982  0.805799  0.000000  1
  Ir  Ir21  1  0.622818  0.817018  0.000000  1
  Ir  Ir22  1  0.194201  0.377182  0.000000  1
  Ir  Ir23  1  0.460590  0.460590  0.000000  1
  Ir  Ir24  1  0.539410  0.000000  0.000000  1
  Ir  Ir25  1  0.000000  0.539410  0.000000  1
  Ir  Ir26  1  0.867829  0.362622  0.500000  1
  Ir  Ir27  1  0.637378  0.505207  0.500000  1
  Ir  Ir28  1  0.494793  0.132171  0.500000  1
  Ir  Ir29  1  0.362622  0.867829  0.500000  1
  Ir  Ir30  1  0.505207  0.637378  0.500000  1
  Ir  Ir31  1  0.132171  0.494793  0.500000  1
  Ir  Ir32  1  0.000000  0.000000  0.000000  1
  Os  Os33  1  0.285253  0.285253  0.500000  1
  Os  Os34  1  0.714747  0.000000  0.500000  1
  Os  Os35  1  0.000000  0.714747  0.500000  1
