# generated using pymatgen
data_CsNd2(FeH6)2
_symmetry_space_group_name_H-M   'P 1'
_cell_length_a   5.05588300
_cell_length_b   5.05588352
_cell_length_c   9.28535100
_cell_angle_alpha   90.00000000
_cell_angle_beta   90.00000000
_cell_angle_gamma   119.99999009
_symmetry_Int_Tables_number   1
_chemical_formula_structural   CsNd2(FeH6)2
_chemical_formula_sum   'Cs1 Nd2 Fe2 H12'
_cell_volume   205.55264765
_cell_formula_units_Z   1
loop_
 _symmetry_equiv_pos_site_id
 _symmetry_equiv_pos_as_xyz
  1  'x, y, z'
loop_
 _atom_site_type_symbol
 _atom_site_label
 _atom_site_symmetry_multiplicity
 _atom_site_fract_x
 _atom_site_fract_y
 _atom_site_fract_z
 _atom_site_occupancy
  Cs  Cs0  1  0.000000  0.000000  0.000000  1
  Nd  Nd1  1  0.666667  0.333333  0.369259  1
  Nd  Nd2  1  0.333333  0.666667  0.630741  1
  Fe  Fe3  1  0.666667  0.333333  0.696137  1
  Fe  Fe4  1  0.333333  0.666667  0.303863  1
  H  H5  1  0.180355  0.819645  0.399156  1
  H  H6  1  0.639290  0.819645  0.399156  1
  H  H7  1  0.180355  0.360710  0.399156  1
  H  H8  1  0.819645  0.180355  0.600844  1
  H  H9  1  0.360710  0.180355  0.600844  1
  H  H10  1  0.819645  0.639290  0.600844  1
  H  H11  1  0.529288  0.058575  0.806005  1
  H  H12  1  0.529288  0.470712  0.806005  1
  H  H13  1  0.941425  0.470712  0.806005  1
  H  H14  1  0.470712  0.941425  0.193995  1
  H  H15  1  0.470712  0.529288  0.193995  1
  H  H16  1  0.058575  0.529288  0.193995  1
