# generated using pymatgen
data_YbZr3AlGa17Ir6
_symmetry_space_group_name_H-M   'P 1'
_cell_length_a   7.51973721
_cell_length_b   7.52424035
_cell_length_c   9.36329008
_cell_angle_alpha   89.97522933
_cell_angle_beta   89.98058964
_cell_angle_gamma   119.96613602
_symmetry_Int_Tables_number   1
_chemical_formula_structural   YbZr3AlGa17Ir6
_chemical_formula_sum   'Yb1 Zr3 Al1 Ga17 Ir6'
_cell_volume   458.95742433
_cell_formula_units_Z   1
loop_
 _symmetry_equiv_pos_site_id
 _symmetry_equiv_pos_as_xyz
  1  'x, y, z'
loop_
 _atom_site_type_symbol
 _atom_site_label
 _atom_site_symmetry_multiplicity
 _atom_site_fract_x
 _atom_site_fract_y
 _atom_site_fract_z
 _atom_site_occupancy
  Yb  Yb0  1  0.997576  0.670012  0.249845  1
  Zr  Zr1  1  0.005138  0.330567  0.749672  1
  Zr  Zr2  1  0.668661  0.995861  0.249307  1
  Zr  Zr3  1  0.326374  0.001595  0.749671  1
  Al  Al4  1  0.334862  0.334504  0.941615  1
  Ga  Ga5  1  0.126018  0.126285  0.249094  1
  Ga  Ga6  1  0.873895  0.873678  0.749039  1
  Ga  Ga7  1  0.996163  0.333981  0.080021  1
  Ga  Ga8  1  0.002320  0.664865  0.917194  1
  Ga  Ga9  1  0.001591  0.664324  0.582445  1
  Ga  Ga10  1  0.334996  0.997370  0.418579  1
  Ga  Ga11  1  0.996678  0.333931  0.417942  1
  Ga  Ga12  1  0.664744  0.002819  0.583983  1
  Ga  Ga13  1  0.665353  0.003621  0.915483  1
  Ga  Ga14  1  0.335078  0.996892  0.079445  1
  Ga  Ga15  1  0.329837  0.329392  0.572597  1
  Ga  Ga16  1  0.669774  0.670070  0.428618  1
  Ga  Ga17  1  0.673202  0.673679  0.071196  1
  Ga  Ga18  1  0.339815  0.550591  0.249928  1
  Ga  Ga19  1  0.657053  0.446336  0.750058  1
  Ga  Ga20  1  0.549083  0.338152  0.249948  1
  Ga  Ga21  1  0.448764  0.656622  0.750027  1
  Ir  Ir22  1  0.669238  0.326786  0.997745  1
  Ir  Ir23  1  0.329323  0.670676  0.997266  1
  Ir  Ir24  1  0.328688  0.672216  0.501799  1
  Ir  Ir25  1  0.670838  0.326259  0.501363  1
  Ir  Ir26  1  0.004833  0.006718  0.995345  1
  Ir  Ir27  1  0.000100  0.002195  0.500773  1
