# generated using pymatgen
data_Ce2Co2SnAu
_symmetry_space_group_name_H-M   'P 1'
_cell_length_a   6.17295461
_cell_length_b   6.17295431
_cell_length_c   4.73608558
_cell_angle_alpha   74.83458234
_cell_angle_beta   74.83458881
_cell_angle_gamma   43.78949509
_symmetry_Int_Tables_number   1
_chemical_formula_structural   Ce2Co2SnAu
_chemical_formula_sum   'Ce2 Co2 Sn1 Au1'
_cell_volume   119.82084863
_cell_formula_units_Z   1
loop_
 _symmetry_equiv_pos_site_id
 _symmetry_equiv_pos_as_xyz
  1  'x, y, z'
loop_
 _atom_site_type_symbol
 _atom_site_label
 _atom_site_symmetry_multiplicity
 _atom_site_fract_x
 _atom_site_fract_y
 _atom_site_fract_z
 _atom_site_occupancy
  Ce  Ce0  1  0.866481  0.866481  0.337370  1
  Ce  Ce1  1  0.134276  0.134276  0.671634  1
  Co  Co2  1  0.194494  0.194494  0.158965  1
  Co  Co3  1  0.801869  0.801869  0.816056  1
  Sn  Sn4  1  0.580704  0.580704  0.202779  1
  Au  Au5  1  0.422179  0.422179  0.813195  1
