# generated using pymatgen
data_Pr2Co9As7Ru3
_symmetry_space_group_name_H-M   'P 1'
_cell_length_a   3.86744200
_cell_length_b   9.44115642
_cell_length_c   9.44115600
_cell_angle_alpha   119.99999759
_cell_angle_beta   90.00000000
_cell_angle_gamma   90.00000000
_symmetry_Int_Tables_number   1
_chemical_formula_structural   Pr2Co9As7Ru3
_chemical_formula_sum   'Pr2 Co9 As7 Ru3'
_cell_volume   298.54157408
_cell_formula_units_Z   1
loop_
 _symmetry_equiv_pos_site_id
 _symmetry_equiv_pos_as_xyz
  1  'x, y, z'
loop_
 _atom_site_type_symbol
 _atom_site_label
 _atom_site_symmetry_multiplicity
 _atom_site_fract_x
 _atom_site_fract_y
 _atom_site_fract_z
 _atom_site_occupancy
  Pr  Pr0  1  0.000000  0.666667  0.333333  1
  Pr  Pr1  1  0.500000  0.333333  0.666667  1
  Co  Co2  1  0.000000  0.572572  0.941892  1
  Co  Co3  1  0.000000  0.369320  0.427428  1
  Co  Co4  1  0.000000  0.058108  0.630680  1
  Co  Co5  1  0.000000  0.875497  0.153665  1
  Co  Co6  1  0.000000  0.278168  0.124503  1
  Co  Co7  1  0.000000  0.846335  0.721832  1
  Co  Co8  1  0.500000  0.947769  0.380969  1
  Co  Co9  1  0.500000  0.433199  0.052231  1
  Co  Co10  1  0.500000  0.619031  0.566801  1
  As  As11  1  0.000000  0.000000  0.000000  1
  As  As12  1  0.500000  0.707169  0.111266  1
  As  As13  1  0.500000  0.404097  0.292831  1
  As  As14  1  0.500000  0.888734  0.595903  1
  As  As15  1  0.000000  0.591895  0.699449  1
  As  As16  1  0.000000  0.107555  0.408105  1
  As  As17  1  0.000000  0.300551  0.892445  1
  Ru  Ru18  1  0.500000  0.785295  0.900193  1
  Ru  Ru19  1  0.500000  0.114898  0.214705  1
  Ru  Ru20  1  0.500000  0.099807  0.885102  1
