# generated using pymatgen
data_Na5LuBr8
_symmetry_space_group_name_H-M   'P 1'
_cell_length_a   7.40589340
_cell_length_b   7.40589197
_cell_length_c   8.60282900
_cell_angle_alpha   90.00000000
_cell_angle_beta   90.00000000
_cell_angle_gamma   109.26154048
_symmetry_Int_Tables_number   1
_chemical_formula_structural   Na5LuBr8
_chemical_formula_sum   'Na5 Lu1 Br8'
_cell_volume   445.42902029
_cell_formula_units_Z   1
loop_
 _symmetry_equiv_pos_site_id
 _symmetry_equiv_pos_as_xyz
  1  'x, y, z'
loop_
 _atom_site_type_symbol
 _atom_site_label
 _atom_site_symmetry_multiplicity
 _atom_site_fract_x
 _atom_site_fract_y
 _atom_site_fract_z
 _atom_site_occupancy
  Na  Na0  1  0.500000  0.000000  0.235062  1
  Na  Na1  1  0.000000  0.500000  0.764938  1
  Na  Na2  1  0.500000  0.000000  0.764938  1
  Na  Na3  1  0.000000  0.500000  0.235062  1
  Na  Na4  1  0.500000  0.500000  0.000000  1
  Lu  Lu5  1  0.500000  0.500000  0.500000  1
  Br  Br6  1  0.274886  0.274886  0.270724  1
  Br  Br7  1  0.725114  0.725114  0.270724  1
  Br  Br8  1  0.270005  0.729995  0.500000  1
  Br  Br9  1  0.274886  0.274886  0.729276  1
  Br  Br10  1  0.725114  0.725114  0.729276  1
  Br  Br11  1  0.256413  0.743587  0.000000  1
  Br  Br12  1  0.729995  0.270005  0.500000  1
  Br  Br13  1  0.743587  0.256413  0.000000  1
