# generated using pymatgen
data_LuFe3NiMoP3
_symmetry_space_group_name_H-M   'P 1'
_cell_length_a   3.68754600
_cell_length_b   10.25874700
_cell_length_c   12.05642800
_cell_angle_alpha   90.00000000
_cell_angle_beta   90.00000000
_cell_angle_gamma   90.00000000
_symmetry_Int_Tables_number   1
_chemical_formula_structural   LuFe3NiMoP3
_chemical_formula_sum   'Lu4 Fe12 Ni4 Mo4 P12'
_cell_volume   456.08986633
_cell_formula_units_Z   4
loop_
 _symmetry_equiv_pos_site_id
 _symmetry_equiv_pos_as_xyz
  1  'x, y, z'
loop_
 _atom_site_type_symbol
 _atom_site_label
 _atom_site_symmetry_multiplicity
 _atom_site_fract_x
 _atom_site_fract_y
 _atom_site_fract_z
 _atom_site_occupancy
  Lu  Lu0  1  0.250000  0.583282  0.710577  1
  Lu  Lu1  1  0.250000  0.916718  0.210577  1
  Lu  Lu2  1  0.750000  0.416718  0.289423  1
  Lu  Lu3  1  0.750000  0.083282  0.789423  1
  Fe  Fe4  1  0.250000  0.216748  0.172786  1
  Fe  Fe5  1  0.250000  0.283252  0.672786  1
  Fe  Fe6  1  0.750000  0.783252  0.827214  1
  Fe  Fe7  1  0.750000  0.716748  0.327214  1
  Fe  Fe8  1  0.250000  0.884229  0.699230  1
  Fe  Fe9  1  0.250000  0.615771  0.199230  1
  Fe  Fe10  1  0.750000  0.115771  0.300770  1
  Fe  Fe11  1  0.750000  0.384229  0.800770  1
  Fe  Fe12  1  0.250000  0.464665  0.935094  1
  Fe  Fe13  1  0.250000  0.035335  0.435094  1
  Fe  Fe14  1  0.750000  0.535335  0.064906  1
  Fe  Fe15  1  0.750000  0.964665  0.564906  1
  Ni  Ni16  1  0.250000  0.409846  0.482419  1
  Ni  Ni17  1  0.250000  0.090154  0.982419  1
  Ni  Ni18  1  0.750000  0.590154  0.517581  1
  Ni  Ni19  1  0.750000  0.909846  0.017581  1
  Mo  Mo20  1  0.250000  0.706035  0.992100  1
  Mo  Mo21  1  0.250000  0.793965  0.492100  1
  Mo  Mo22  1  0.750000  0.293965  0.007900  1
  Mo  Mo23  1  0.750000  0.206035  0.507900  1
  P  P24  1  0.250000  0.420913  0.113972  1
  P  P25  1  0.250000  0.079087  0.613972  1
  P  P26  1  0.750000  0.579087  0.886028  1
  P  P27  1  0.750000  0.920913  0.386028  1
  P  P28  1  0.250000  0.272637  0.856565  1
  P  P29  1  0.250000  0.227363  0.356565  1
  P  P30  1  0.750000  0.727363  0.143435  1
  P  P31  1  0.750000  0.772637  0.643435  1
  P  P32  1  0.250000  0.598073  0.383049  1
  P  P33  1  0.250000  0.901927  0.883049  1
  P  P34  1  0.750000  0.401927  0.616951  1
  P  P35  1  0.750000  0.098073  0.116951  1
