# generated using pymatgen
data_Tb3Lu(ScPt)4
_symmetry_space_group_name_H-M   'P 1'
_cell_length_a   4.60341400
_cell_length_b   6.97370083
_cell_length_c   8.45445523
_cell_angle_alpha   89.86510127
_cell_angle_beta   90.00000000
_cell_angle_gamma   90.00000000
_symmetry_Int_Tables_number   1
_chemical_formula_structural   Tb3Lu(ScPt)4
_chemical_formula_sum   'Tb3 Lu1 Sc4 Pt4'
_cell_volume   271.41120402
_cell_formula_units_Z   1
loop_
 _symmetry_equiv_pos_site_id
 _symmetry_equiv_pos_as_xyz
  1  'x, y, z'
loop_
 _atom_site_type_symbol
 _atom_site_label
 _atom_site_symmetry_multiplicity
 _atom_site_fract_x
 _atom_site_fract_y
 _atom_site_fract_z
 _atom_site_occupancy
  Tb  Tb0  1  0.250000  0.519593  0.177266  1
  Tb  Tb1  1  0.750000  0.480544  0.824358  1
  Tb  Tb2  1  0.750000  0.980350  0.674503  1
  Lu  Lu3  1  0.250000  0.021083  0.325277  1
  Sc  Sc4  1  0.250000  0.640841  0.569370  1
  Sc  Sc5  1  0.750000  0.358614  0.428588  1
  Sc  Sc6  1  0.750000  0.860208  0.074101  1
  Sc  Sc7  1  0.250000  0.139152  0.930568  1
  Pt  Pt8  1  0.250000  0.754460  0.897836  1
  Pt  Pt9  1  0.750000  0.243415  0.103649  1
  Pt  Pt10  1  0.750000  0.748085  0.396275  1
  Pt  Pt11  1  0.250000  0.253657  0.598210  1
