# generated using pymatgen
data_ThMn2O6
_symmetry_space_group_name_H-M   'P 1'
_cell_length_a   6.98545596
_cell_length_b   6.98545537
_cell_length_c   5.09055424
_cell_angle_alpha   70.05982379
_cell_angle_beta   70.05982811
_cell_angle_gamma   75.48500601
_symmetry_Int_Tables_number   1
_chemical_formula_structural   ThMn2O6
_chemical_formula_sum   'Th2 Mn4 O12'
_cell_volume   216.95994304
_cell_formula_units_Z   2
loop_
 _symmetry_equiv_pos_site_id
 _symmetry_equiv_pos_as_xyz
  1  'x, y, z'
loop_
 _atom_site_type_symbol
 _atom_site_label
 _atom_site_symmetry_multiplicity
 _atom_site_fract_x
 _atom_site_fract_y
 _atom_site_fract_z
 _atom_site_occupancy
  Th  Th0  1  0.221601  0.778399  0.250000  1
  Th  Th1  1  0.778399  0.221601  0.750000  1
  Mn  Mn2  1  0.336837  0.171886  0.462725  1
  Mn  Mn3  1  0.828114  0.663163  0.037275  1
  Mn  Mn4  1  0.663163  0.828114  0.537275  1
  Mn  Mn5  1  0.171885  0.336837  0.962725  1
  O  O6  1  0.400252  0.886126  0.468446  1
  O  O7  1  0.113874  0.599748  0.031554  1
  O  O8  1  0.599748  0.113874  0.531554  1
  O  O9  1  0.886126  0.400252  0.968446  1
  O  O10  1  0.437568  0.273465  0.043470  1
  O  O11  1  0.726535  0.562432  0.456530  1
  O  O12  1  0.911452  0.810722  0.630644  1
  O  O13  1  0.189278  0.088548  0.869356  1
  O  O14  1  0.088548  0.189278  0.369356  1
  O  O15  1  0.810722  0.911452  0.130644  1
  O  O16  1  0.273465  0.437568  0.543470  1
  O  O17  1  0.562432  0.726535  0.956530  1
