# generated using pymatgen
data_Sm2Dy6Si12PtRh3
_symmetry_space_group_name_H-M   'P 1'
_cell_length_a   8.19292200
_cell_length_b   8.19292323
_cell_length_c   7.99772800
_cell_angle_alpha   90.00000000
_cell_angle_beta   90.00000000
_cell_angle_gamma   119.99999505
_symmetry_Int_Tables_number   1
_chemical_formula_structural   Sm2Dy6Si12PtRh3
_chemical_formula_sum   'Sm2 Dy6 Si12 Pt1 Rh3'
_cell_volume   464.91653106
_cell_formula_units_Z   1
loop_
 _symmetry_equiv_pos_site_id
 _symmetry_equiv_pos_as_xyz
  1  'x, y, z'
loop_
 _atom_site_type_symbol
 _atom_site_label
 _atom_site_symmetry_multiplicity
 _atom_site_fract_x
 _atom_site_fract_y
 _atom_site_fract_z
 _atom_site_occupancy
  Sm  Sm0  1  0.000000  0.000000  0.251039  1
  Sm  Sm1  1  0.000000  0.000000  0.749440  1
  Dy  Dy2  1  0.016035  0.508017  0.252121  1
  Dy  Dy3  1  0.491983  0.508017  0.252121  1
  Dy  Dy4  1  0.509532  0.019064  0.747497  1
  Dy  Dy5  1  0.491983  0.983965  0.252121  1
  Dy  Dy6  1  0.509532  0.490468  0.747497  1
  Dy  Dy7  1  0.980936  0.490468  0.747497  1
  Si  Si8  1  0.165192  0.330384  0.001049  1
  Si  Si9  1  0.669616  0.834808  0.001049  1
  Si  Si10  1  0.167635  0.335269  0.499852  1
  Si  Si11  1  0.337423  0.168712  0.998466  1
  Si  Si12  1  0.165192  0.834808  0.001049  1
  Si  Si13  1  0.664731  0.832365  0.499852  1
  Si  Si14  1  0.831288  0.662577  0.998466  1
  Si  Si15  1  0.335322  0.167661  0.500241  1
  Si  Si16  1  0.167635  0.832365  0.499852  1
  Si  Si17  1  0.832339  0.664678  0.500241  1
  Si  Si18  1  0.831288  0.168712  0.998466  1
  Si  Si19  1  0.832339  0.167661  0.500241  1
  Pt  Pt20  1  0.333333  0.666667  0.968268  1
  Rh  Rh21  1  0.333333  0.666667  0.533683  1
  Rh  Rh22  1  0.666667  0.333333  0.036959  1
  Rh  Rh23  1  0.666667  0.333333  0.462941  1
