# generated using pymatgen
data_BaNaIn2Au3
_symmetry_space_group_name_H-M   'P 1'
_cell_length_a   4.70294100
_cell_length_b   8.34100200
_cell_length_c   9.28111300
_cell_angle_alpha   90.00000000
_cell_angle_beta   90.00000000
_cell_angle_gamma   90.00000000
_symmetry_Int_Tables_number   1
_chemical_formula_structural   BaNaIn2Au3
_chemical_formula_sum   'Ba2 Na2 In4 Au6'
_cell_volume   364.07244978
_cell_formula_units_Z   2
loop_
 _symmetry_equiv_pos_site_id
 _symmetry_equiv_pos_as_xyz
  1  'x, y, z'
loop_
 _atom_site_type_symbol
 _atom_site_label
 _atom_site_symmetry_multiplicity
 _atom_site_fract_x
 _atom_site_fract_y
 _atom_site_fract_z
 _atom_site_occupancy
  Ba  Ba0  1  0.500000  0.000000  0.722267  1
  Ba  Ba1  1  0.000000  0.500000  0.277733  1
  Na  Na2  1  0.000000  0.000000  0.349465  1
  Na  Na3  1  0.500000  0.500000  0.650535  1
  In  In4  1  0.000000  0.312191  0.886543  1
  In  In5  1  0.500000  0.187809  0.113457  1
  In  In6  1  0.000000  0.687809  0.886543  1
  In  In7  1  0.500000  0.812191  0.113457  1
  Au  Au8  1  0.000000  0.739520  0.586829  1
  Au  Au9  1  0.500000  0.760480  0.413171  1
  Au  Au10  1  0.500000  0.500000  0.980659  1
  Au  Au11  1  0.000000  0.000000  0.019341  1
  Au  Au12  1  0.500000  0.239520  0.413171  1
  Au  Au13  1  0.000000  0.260480  0.586829  1
