# generated using pymatgen
data_DyHo9Si5Sn
_symmetry_space_group_name_H-M   'P 1'
_cell_length_a   8.48374505
_cell_length_b   8.50750276
_cell_length_c   6.36601500
_cell_angle_alpha   90.00000000
_cell_angle_beta   90.00000000
_cell_angle_gamma   119.89583322
_symmetry_Int_Tables_number   1
_chemical_formula_structural   DyHo9Si5Sn
_chemical_formula_sum   'Dy1 Ho9 Si5 Sn1'
_cell_volume   398.32989254
_cell_formula_units_Z   1
loop_
 _symmetry_equiv_pos_site_id
 _symmetry_equiv_pos_as_xyz
  1  'x, y, z'
loop_
 _atom_site_type_symbol
 _atom_site_label
 _atom_site_symmetry_multiplicity
 _atom_site_fract_x
 _atom_site_fract_y
 _atom_site_fract_z
 _atom_site_occupancy
  Dy  Dy0  1  0.998906  0.242532  0.250000  1
  Ho  Ho1  1  0.989508  0.749156  0.750000  1
  Ho  Ho2  1  0.756320  0.757385  0.250000  1
  Ho  Ho3  1  0.765145  0.999967  0.750000  1
  Ho  Ho4  1  0.240422  0.250897  0.750000  1
  Ho  Ho5  1  0.241176  0.999983  0.250000  1
  Ho  Ho6  1  0.331619  0.658177  0.496892  1
  Ho  Ho7  1  0.673429  0.341862  0.003108  1
  Ho  Ho8  1  0.673429  0.341862  0.496892  1
  Ho  Ho9  1  0.331619  0.658177  0.003108  1
  Si  Si10  1  0.393754  0.392435  0.250000  1
  Si  Si11  1  0.001248  0.607667  0.250000  1
  Si  Si12  1  0.998792  0.394354  0.750000  1
  Si  Si13  1  0.604423  0.605622  0.750000  1
  Si  Si14  1  0.605481  0.999932  0.250000  1
  Sn  Sn15  1  0.394729  0.999994  0.750000  1
