# generated using pymatgen
data_ScU3PaGa15
_symmetry_space_group_name_H-M   'P 1'
_cell_length_a   12.48662601
_cell_length_b   12.48662551
_cell_length_c   12.48662400
_cell_angle_alpha   28.34239255
_cell_angle_beta   28.34238719
_cell_angle_gamma   28.34239071
_symmetry_Int_Tables_number   1
_chemical_formula_structural   ScU3PaGa15
_chemical_formula_sum   'Sc1 U3 Pa1 Ga15'
_cell_volume   387.73351595
_cell_formula_units_Z   1
loop_
 _symmetry_equiv_pos_site_id
 _symmetry_equiv_pos_as_xyz
  1  'x, y, z'
loop_
 _atom_site_type_symbol
 _atom_site_label
 _atom_site_symmetry_multiplicity
 _atom_site_fract_x
 _atom_site_fract_y
 _atom_site_fract_z
 _atom_site_occupancy
  Sc  Sc0  1  0.599949  0.599949  0.599949  1
  U  U1  1  0.132604  0.132604  0.132604  1
  U  U2  1  0.869651  0.869651  0.869651  1
  U  U3  1  0.399212  0.399212  0.399212  1
  Pa  Pa4  1  0.998951  0.998951  0.998951  1
  Ga  Ga5  1  0.428250  0.884993  0.884993  1
  Ga  Ga6  1  0.884993  0.884993  0.428250  1
  Ga  Ga7  1  0.884993  0.428250  0.884993  1
  Ga  Ga8  1  0.114474  0.570720  0.114474  1
  Ga  Ga9  1  0.114474  0.114474  0.570720  1
  Ga  Ga10  1  0.570720  0.114474  0.114474  1
  Ga  Ga11  1  0.129670  0.636439  0.636439  1
  Ga  Ga12  1  0.636439  0.636439  0.129670  1
  Ga  Ga13  1  0.636439  0.129670  0.636439  1
  Ga  Ga14  1  0.367604  0.869673  0.367604  1
  Ga  Ga15  1  0.367604  0.367604  0.869673  1
  Ga  Ga16  1  0.869673  0.367604  0.367604  1
  Ga  Ga17  1  0.499096  0.499096  0.996107  1
  Ga  Ga18  1  0.499096  0.996107  0.499096  1
  Ga  Ga19  1  0.996107  0.499096  0.499096  1
