# generated using pymatgen
data_MnNi(BrO3)6
_symmetry_space_group_name_H-M   'P 1'
_cell_length_a   8.95759600
_cell_length_b   8.95759540
_cell_length_c   5.66802700
_cell_angle_alpha   90.00000000
_cell_angle_beta   90.00000000
_cell_angle_gamma   120.00000222
_symmetry_Int_Tables_number   1
_chemical_formula_structural   MnNi(BrO3)6
_chemical_formula_sum   'Mn1 Ni1 Br6 O18'
_cell_volume   393.86323695
_cell_formula_units_Z   1
loop_
 _symmetry_equiv_pos_site_id
 _symmetry_equiv_pos_as_xyz
  1  'x, y, z'
loop_
 _atom_site_type_symbol
 _atom_site_label
 _atom_site_symmetry_multiplicity
 _atom_site_fract_x
 _atom_site_fract_y
 _atom_site_fract_z
 _atom_site_occupancy
  Mn  Mn0  1  0.666667  0.333333  0.693927  1
  Ni  Ni1  1  0.333333  0.666667  0.187844  1
  Br  Br2  1  0.681085  0.024668  0.366018  1
  Br  Br3  1  0.325430  0.979677  0.853870  1
  Br  Br4  1  0.020323  0.345753  0.853870  1
  Br  Br5  1  0.343583  0.318915  0.366018  1
  Br  Br6  1  0.975332  0.656417  0.366018  1
  Br  Br7  1  0.654247  0.674570  0.853870  1
  O  O8  1  0.780622  0.826161  0.038197  1
  O  O9  1  0.936617  0.778655  0.539975  1
  O  O10  1  0.842037  0.063383  0.539975  1
  O  O11  1  0.173839  0.954461  0.038197  1
  O  O12  1  0.045539  0.219378  0.038197  1
  O  O13  1  0.221345  0.157963  0.539975  1
  O  O14  1  0.726505  0.523419  0.907436  1
  O  O15  1  0.182319  0.714071  0.422745  1
  O  O16  1  0.555082  0.427368  0.499243  1
  O  O17  1  0.114044  0.545232  0.977726  1
  O  O18  1  0.431187  0.885956  0.977726  1
  O  O19  1  0.572632  0.127713  0.499243  1
  O  O20  1  0.872287  0.444918  0.499243  1
  O  O21  1  0.454768  0.568813  0.977726  1
  O  O22  1  0.285929  0.468249  0.422745  1
  O  O23  1  0.796915  0.273495  0.907436  1
  O  O24  1  0.476581  0.203085  0.907436  1
  O  O25  1  0.531751  0.817681  0.422745  1
