# generated using pymatgen
data_NaMnGaF6
_symmetry_space_group_name_H-M   'P 1'
_cell_length_a   9.10338400
_cell_length_b   9.10338467
_cell_length_c   5.06278600
_cell_angle_alpha   90.00000000
_cell_angle_beta   90.00000000
_cell_angle_gamma   120.00000484
_symmetry_Int_Tables_number   1
_chemical_formula_structural   NaMnGaF6
_chemical_formula_sum   'Na3 Mn3 Ga3 F18'
_cell_volume   363.35064722
_cell_formula_units_Z   3
loop_
 _symmetry_equiv_pos_site_id
 _symmetry_equiv_pos_as_xyz
  1  'x, y, z'
loop_
 _atom_site_type_symbol
 _atom_site_label
 _atom_site_symmetry_multiplicity
 _atom_site_fract_x
 _atom_site_fract_y
 _atom_site_fract_z
 _atom_site_occupancy
  Na  Na0  1  0.626496  0.000000  0.000000  1
  Na  Na1  1  0.000000  0.626496  0.000000  1
  Na  Na2  1  0.373504  0.373504  0.000000  1
  Mn  Mn3  1  0.297039  0.000000  0.500000  1
  Mn  Mn4  1  0.000000  0.297039  0.500000  1
  Mn  Mn5  1  0.702961  0.702961  0.500000  1
  Ga  Ga6  1  0.333333  0.666667  0.499324  1
  Ga  Ga7  1  0.666667  0.333333  0.500676  1
  Ga  Ga8  1  0.000000  0.000000  0.000000  1
  F  F9  1  0.133125  0.537998  0.287222  1
  F  F10  1  0.462002  0.595126  0.287222  1
  F  F11  1  0.537998  0.133125  0.712778  1
  F  F12  1  0.404874  0.866875  0.287222  1
  F  F13  1  0.595126  0.462002  0.712778  1
  F  F14  1  0.866875  0.404874  0.712778  1
  F  F15  1  0.104296  0.199694  0.219322  1
  F  F16  1  0.800306  0.904602  0.219322  1
  F  F17  1  0.199694  0.104296  0.780678  1
  F  F18  1  0.095398  0.895704  0.219322  1
  F  F19  1  0.904602  0.800306  0.780678  1
  F  F20  1  0.895704  0.095398  0.780678  1
  F  F21  1  0.461747  0.233701  0.290022  1
  F  F22  1  0.766299  0.228046  0.290022  1
  F  F23  1  0.233701  0.461747  0.709978  1
  F  F24  1  0.771954  0.538253  0.290022  1
  F  F25  1  0.228046  0.766299  0.709978  1
  F  F26  1  0.538253  0.771954  0.709978  1
