# generated using pymatgen
data_Ca7Ac9(YbSi4)4
_symmetry_space_group_name_H-M   'P 1'
_cell_length_a   7.78449861
_cell_length_b   8.18852876
_cell_length_c   15.73148286
_cell_angle_alpha   90.03659222
_cell_angle_beta   90.10225167
_cell_angle_gamma   90.03505985
_symmetry_Int_Tables_number   1
_chemical_formula_structural   Ca7Ac9(YbSi4)4
_chemical_formula_sum   'Ca7 Ac9 Yb4 Si16'
_cell_volume   1002.77921542
_cell_formula_units_Z   1
loop_
 _symmetry_equiv_pos_site_id
 _symmetry_equiv_pos_as_xyz
  1  'x, y, z'
loop_
 _atom_site_type_symbol
 _atom_site_label
 _atom_site_symmetry_multiplicity
 _atom_site_fract_x
 _atom_site_fract_y
 _atom_site_fract_z
 _atom_site_occupancy
  Ca  Ca0  1  0.313007  0.181426  0.124811  1
  Ca  Ca1  1  0.815095  0.320079  0.377616  1
  Ca  Ca2  1  0.185330  0.679732  0.878459  1
  Ca  Ca3  1  0.685447  0.820649  0.620463  1
  Ca  Ca4  1  0.315286  0.180332  0.377569  1
  Ca  Ca5  1  0.815295  0.320286  0.123453  1
  Ca  Ca6  1  0.184763  0.680529  0.621474  1
  Ac  Ac7  1  0.683571  0.815837  0.876024  1
  Ac  Ac8  1  0.966609  0.816244  0.400738  1
  Ac  Ac9  1  0.464216  0.684130  0.102688  1
  Ac  Ac10  1  0.532650  0.316794  0.597037  1
  Ac  Ac11  1  0.035313  0.184891  0.900572  1
  Ac  Ac12  1  0.034106  0.182856  0.595811  1
  Ac  Ac13  1  0.530972  0.316484  0.901807  1
  Ac  Ac14  1  0.466645  0.683630  0.400617  1
  Ac  Ac15  1  0.967401  0.816005  0.101135  1
  Yb  Yb16  1  0.358951  0.001416  0.746931  1
  Yb  Yb17  1  0.864234  0.496259  0.745845  1
  Yb  Yb18  1  0.138176  0.495706  0.251131  1
  Yb  Yb19  1  0.638559  0.004464  0.251207  1
  Si  Si20  1  0.863717  0.528472  0.538168  1
  Si  Si21  1  0.358802  0.974700  0.964661  1
  Si  Si22  1  0.637071  0.028002  0.461122  1
  Si  Si23  1  0.139939  0.470129  0.039214  1
  Si  Si24  1  0.137359  0.472684  0.461485  1
  Si  Si25  1  0.632655  0.029710  0.041736  1
  Si  Si26  1  0.364490  0.972113  0.537953  1
  Si  Si27  1  0.869492  0.526871  0.963042  1
  Si  Si28  1  0.979641  0.905937  0.747316  1
  Si  Si29  1  0.472209  0.594235  0.751087  1
  Si  Si30  1  0.524496  0.401554  0.250584  1
  Si  Si31  1  0.023974  0.098684  0.250675  1
  Si  Si32  1  0.249969  0.380070  0.748586  1
  Si  Si33  1  0.752334  0.119092  0.748234  1
  Si  Si34  1  0.248411  0.883309  0.250500  1
  Si  Si35  1  0.749813  0.616690  0.250248  1
