# generated using pymatgen
data_Tb4Er2Lu6Co5Sn
_symmetry_space_group_name_H-M   'P 1'
_cell_length_a   8.20854046
_cell_length_b   8.20854020
_cell_length_c   8.19286593
_cell_angle_alpha   111.21219930
_cell_angle_beta   110.51528533
_cell_angle_gamma   106.80287132
_symmetry_Int_Tables_number   1
_chemical_formula_structural   Tb4Er2Lu6Co5Sn
_chemical_formula_sum   'Tb4 Er2 Lu6 Co5 Sn1'
_cell_volume   423.80579536
_cell_formula_units_Z   1
loop_
 _symmetry_equiv_pos_site_id
 _symmetry_equiv_pos_as_xyz
  1  'x, y, z'
loop_
 _atom_site_type_symbol
 _atom_site_label
 _atom_site_symmetry_multiplicity
 _atom_site_fract_x
 _atom_site_fract_y
 _atom_site_fract_z
 _atom_site_occupancy
  Tb  Tb0  1  0.593569  0.788842  0.806510  1
  Tb  Tb1  1  0.406431  0.211158  0.193490  1
  Tb  Tb2  1  0.982333  0.787060  0.193490  1
  Tb  Tb3  1  0.017667  0.212940  0.806510  1
  Er  Er4  1  0.816486  0.709797  0.526283  1
  Er  Er5  1  0.183514  0.290203  0.473717  1
  Lu  Lu6  1  0.184698  0.709742  0.894441  1
  Lu  Lu7  1  0.815302  0.290258  0.105559  1
  Lu  Lu8  1  0.685471  0.377114  0.693174  1
  Lu  Lu9  1  0.314529  0.622886  0.306826  1
  Lu  Lu10  1  0.683940  0.992297  0.306826  1
  Lu  Lu11  1  0.316060  0.007703  0.693174  1
  Co  Co12  1  0.622794  0.000897  0.623691  1
  Co  Co13  1  0.377206  0.999103  0.376309  1
  Co  Co14  1  0.112844  0.612844  0.500000  1
  Co  Co15  1  0.887156  0.387156  0.500000  1
  Co  Co16  1  0.000000  0.000000  0.000000  1
  Sn  Sn17  1  0.500000  0.500000  0.000000  1
