# generated using pymatgen
data_BaSn3As4
_symmetry_space_group_name_H-M   'P 1'
_cell_length_a   9.72539000
_cell_length_b   4.17244400
_cell_length_c   23.35779300
_cell_angle_alpha   90.00000000
_cell_angle_beta   90.00000000
_cell_angle_gamma   90.00000000
_symmetry_Int_Tables_number   1
_chemical_formula_structural   BaSn3As4
_chemical_formula_sum   'Ba4 Sn12 As16'
_cell_volume   947.82759371
_cell_formula_units_Z   4
loop_
 _symmetry_equiv_pos_site_id
 _symmetry_equiv_pos_as_xyz
  1  'x, y, z'
loop_
 _atom_site_type_symbol
 _atom_site_label
 _atom_site_symmetry_multiplicity
 _atom_site_fract_x
 _atom_site_fract_y
 _atom_site_fract_z
 _atom_site_occupancy
  Ba  Ba0  1  0.044574  0.249999  0.128755  1
  Ba  Ba1  1  0.544574  0.249999  0.371245  1
  Ba  Ba2  1  0.455426  0.750000  0.628755  1
  Ba  Ba3  1  0.955426  0.750000  0.871245  1
  Sn  Sn4  1  0.339979  0.249999  0.014294  1
  Sn  Sn5  1  0.527429  0.750000  0.153131  1
  Sn  Sn6  1  0.769295  0.249999  0.249260  1
  Sn  Sn7  1  0.269295  0.249999  0.250740  1
  Sn  Sn8  1  0.027428  0.750000  0.346869  1
  Sn  Sn9  1  0.839979  0.249999  0.485706  1
  Sn  Sn10  1  0.160021  0.750000  0.514295  1
  Sn  Sn11  1  0.972572  0.249999  0.653131  1
  Sn  Sn12  1  0.730705  0.750000  0.749260  1
  Sn  Sn13  1  0.230705  0.750000  0.750740  1
  Sn  Sn14  1  0.472572  0.249999  0.846869  1
  Sn  Sn15  1  0.660022  0.750000  0.985706  1
  As  As16  1  0.940533  0.750000  0.020983  1
  As  As17  1  0.297634  0.750000  0.091654  1
  As  As18  1  0.693076  0.249999  0.134272  1
  As  As19  1  0.955523  0.750000  0.236296  1
  As  As20  1  0.455523  0.750000  0.263704  1
  As  As21  1  0.193075  0.249999  0.365728  1
  As  As22  1  0.797633  0.750000  0.408346  1
  As  As23  1  0.440532  0.750000  0.479017  1
  As  As24  1  0.559468  0.249999  0.520983  1
  As  As25  1  0.202367  0.249999  0.591654  1
  As  As26  1  0.806925  0.750000  0.634272  1
  As  As27  1  0.544477  0.249999  0.736296  1
  As  As28  1  0.044477  0.249999  0.763704  1
  As  As29  1  0.306925  0.750000  0.865728  1
  As  As30  1  0.702367  0.249999  0.908346  1
  As  As31  1  0.059468  0.249999  0.979017  1
