# generated using pymatgen
data_Ti10Nb2As4C3N
_symmetry_space_group_name_H-M   'P 1'
_cell_length_a   5.48451271
_cell_length_b   5.48451284
_cell_length_c   16.23664036
_cell_angle_alpha   89.98141687
_cell_angle_beta   89.98141792
_cell_angle_gamma   34.71508424
_symmetry_Int_Tables_number   1
_chemical_formula_structural   Ti10Nb2As4C3N
_chemical_formula_sum   'Ti10 Nb2 As4 C3 N1'
_cell_volume   278.13964165
_cell_formula_units_Z   1
loop_
 _symmetry_equiv_pos_site_id
 _symmetry_equiv_pos_as_xyz
  1  'x, y, z'
loop_
 _atom_site_type_symbol
 _atom_site_label
 _atom_site_symmetry_multiplicity
 _atom_site_fract_x
 _atom_site_fract_y
 _atom_site_fract_z
 _atom_site_occupancy
  Ti  Ti0  1  0.129947  0.129947  0.278432  1
  Ti  Ti1  1  0.132294  0.132294  0.775562  1
  Ti  Ti2  1  0.871901  0.871901  0.026698  1
  Ti  Ti3  1  0.873139  0.873139  0.526262  1
  Ti  Ti4  1  0.127358  0.127358  0.474173  1
  Ti  Ti5  1  0.128541  0.128541  0.973450  1
  Ti  Ti6  1  0.553732  0.553732  0.125545  1
  Ti  Ti7  1  0.554442  0.554442  0.623261  1
  Ti  Ti8  1  0.445915  0.445915  0.377038  1
  Ti  Ti9  1  0.446727  0.446727  0.874546  1
  Nb  Nb10  1  0.866640  0.866640  0.224573  1
  Nb  Nb11  1  0.868830  0.868830  0.721593  1
  As  As12  1  0.242953  0.242953  0.121765  1
  As  As13  1  0.242954  0.242954  0.620588  1
  As  As14  1  0.753819  0.753819  0.377948  1
  As  As15  1  0.754384  0.754384  0.876230  1
  C  C16  1  0.502326  0.502326  0.252384  1
  C  C17  1  0.504525  0.504525  0.749372  1
  C  C18  1  0.499756  0.499756  0.000270  1
  N  N19  1  0.499815  0.499815  0.500309  1
