# generated using pymatgen
data_AcGePd4
_symmetry_space_group_name_H-M   'P 1'
_cell_length_a   5.30673821
_cell_length_b   5.78552542
_cell_length_c   4.48982700
_cell_angle_alpha   90.00000000
_cell_angle_beta   90.00000000
_cell_angle_gamma   123.03226078
_symmetry_Int_Tables_number   1
_chemical_formula_structural   AcGePd4
_chemical_formula_sum   'Ac1 Ge1 Pd4'
_cell_volume   115.56666480
_cell_formula_units_Z   1
loop_
 _symmetry_equiv_pos_site_id
 _symmetry_equiv_pos_as_xyz
  1  'x, y, z'
loop_
 _atom_site_type_symbol
 _atom_site_label
 _atom_site_symmetry_multiplicity
 _atom_site_fract_x
 _atom_site_fract_y
 _atom_site_fract_z
 _atom_site_occupancy
  Ac  Ac0  1  0.000000  0.000000  0.000000  1
  Ge  Ge1  1  0.000000  0.500000  0.500000  1
  Pd  Pd2  1  0.683326  0.341663  0.000000  1
  Pd  Pd3  1  0.500000  0.000000  0.500000  1
  Pd  Pd4  1  0.500000  0.500000  0.500000  1
  Pd  Pd5  1  0.316674  0.658337  0.000000  1
