# generated using pymatgen
data_Li8Nd5Dy3SnBi7
_symmetry_space_group_name_H-M   'P 1'
_cell_length_a   9.84624400
_cell_length_b   9.84624449
_cell_length_c   7.16283000
_cell_angle_alpha   90.00000000
_cell_angle_beta   90.00000000
_cell_angle_gamma   119.99999836
_symmetry_Int_Tables_number   1
_chemical_formula_structural   Li8Nd5Dy3SnBi7
_chemical_formula_sum   'Li8 Nd5 Dy3 Sn1 Bi7'
_cell_volume   601.39040112
_cell_formula_units_Z   1
loop_
 _symmetry_equiv_pos_site_id
 _symmetry_equiv_pos_as_xyz
  1  'x, y, z'
loop_
 _atom_site_type_symbol
 _atom_site_label
 _atom_site_symmetry_multiplicity
 _atom_site_fract_x
 _atom_site_fract_y
 _atom_site_fract_z
 _atom_site_occupancy
  Li  Li0  1  0.167850  0.335699  0.278189  1
  Li  Li1  1  0.167850  0.832150  0.278189  1
  Li  Li2  1  0.664301  0.832150  0.278189  1
  Li  Li3  1  0.830602  0.661203  0.742503  1
  Li  Li4  1  0.830602  0.169398  0.742503  1
  Li  Li5  1  0.338797  0.169398  0.742503  1
  Li  Li6  1  0.333333  0.666667  0.697629  1
  Li  Li7  1  0.666667  0.333333  0.221301  1
  Nd  Nd8  1  0.498735  0.997470  0.994504  1
  Nd  Nd9  1  0.498735  0.501265  0.994504  1
  Nd  Nd10  1  0.002530  0.501265  0.994504  1
  Nd  Nd11  1  0.000000  0.000000  0.501807  1
  Nd  Nd12  1  0.000000  0.000000  0.001313  1
  Dy  Dy13  1  0.507760  0.015522  0.498030  1
  Dy  Dy14  1  0.507760  0.492240  0.498030  1
  Dy  Dy15  1  0.984478  0.492240  0.498030  1
  Sn  Sn16  1  0.666667  0.333333  0.745697  1
  Bi  Bi17  1  0.168050  0.336101  0.738980  1
  Bi  Bi18  1  0.168050  0.831950  0.738980  1
  Bi  Bi19  1  0.663899  0.831950  0.738980  1
  Bi  Bi20  1  0.832098  0.664197  0.251235  1
  Bi  Bi21  1  0.832098  0.167902  0.251235  1
  Bi  Bi22  1  0.335803  0.167902  0.251235  1
  Bi  Bi23  1  0.333333  0.666667  0.263911  1
