# generated using pymatgen
data_Ti6GePN2
_symmetry_space_group_name_H-M   'P 1'
_cell_length_a   5.41146590
_cell_length_b   5.41146496
_cell_length_c   7.96977800
_cell_angle_alpha   90.00000000
_cell_angle_beta   90.00000000
_cell_angle_gamma   145.83699453
_symmetry_Int_Tables_number   1
_chemical_formula_structural   Ti6GePN2
_chemical_formula_sum   'Ti6 Ge1 P1 N2'
_cell_volume   131.05809182
_cell_formula_units_Z   1
loop_
 _symmetry_equiv_pos_site_id
 _symmetry_equiv_pos_as_xyz
  1  'x, y, z'
loop_
 _atom_site_type_symbol
 _atom_site_label
 _atom_site_symmetry_multiplicity
 _atom_site_fract_x
 _atom_site_fract_y
 _atom_site_fract_z
 _atom_site_occupancy
  Ti  Ti0  1  0.951226  0.048774  0.250000  1
  Ti  Ti1  1  0.061864  0.938136  0.750000  1
  Ti  Ti2  1  0.628261  0.371739  0.456442  1
  Ti  Ti3  1  0.367644  0.632356  0.559537  1
  Ti  Ti4  1  0.628261  0.371739  0.043558  1
  Ti  Ti5  1  0.367644  0.632356  0.940463  1
  Ge  Ge6  1  0.253105  0.746895  0.250000  1
  P  P7  1  0.744251  0.255749  0.750000  1
  N  N8  1  0.998873  0.001127  0.503281  1
  N  N9  1  0.998873  0.001127  0.996719  1
