# generated using pymatgen
data_PuNi6(BIr)6
_symmetry_space_group_name_H-M   'P 1'
_cell_length_a   6.30234391
_cell_length_b   6.30234476
_cell_length_c   6.30234417
_cell_angle_alpha   103.51840826
_cell_angle_beta   103.51840571
_cell_angle_gamma   103.51842208
_symmetry_Int_Tables_number   1
_chemical_formula_structural   PuNi6(BIr)6
_chemical_formula_sum   'Pu1 Ni6 B6 Ir6'
_cell_volume   225.36668496
_cell_formula_units_Z   1
loop_
 _symmetry_equiv_pos_site_id
 _symmetry_equiv_pos_as_xyz
  1  'x, y, z'
loop_
 _atom_site_type_symbol
 _atom_site_label
 _atom_site_symmetry_multiplicity
 _atom_site_fract_x
 _atom_site_fract_y
 _atom_site_fract_z
 _atom_site_occupancy
  Pu  Pu0  1  0.000000  0.000000  0.000000  1
  Ni  Ni1  1  0.800236  0.545248  0.545248  1
  Ni  Ni2  1  0.545248  0.545248  0.800236  1
  Ni  Ni3  1  0.545248  0.800236  0.545248  1
  Ni  Ni4  1  0.199764  0.454752  0.454752  1
  Ni  Ni5  1  0.454752  0.454752  0.199764  1
  Ni  Ni6  1  0.454752  0.199764  0.454752  1
  B  B7  1  0.347741  0.768418  0.768418  1
  B  B8  1  0.768418  0.768418  0.347741  1
  B  B9  1  0.768418  0.347741  0.768418  1
  B  B10  1  0.652259  0.231582  0.231582  1
  B  B11  1  0.231582  0.231582  0.652259  1
  B  B12  1  0.231582  0.652259  0.231582  1
  Ir  Ir13  1  0.862117  0.137883  0.500000  1
  Ir  Ir14  1  0.137883  0.500000  0.862117  1
  Ir  Ir15  1  0.500000  0.862117  0.137883  1
  Ir  Ir16  1  0.862117  0.500000  0.137883  1
  Ir  Ir17  1  0.500000  0.137883  0.862117  1
  Ir  Ir18  1  0.137883  0.862117  0.500000  1
