# generated using pymatgen
data_CsTb4Nd6(C2Br9)2
_symmetry_space_group_name_H-M   'P 1'
_cell_length_a   10.91157068
_cell_length_b   10.98796189
_cell_length_c   11.14995877
_cell_angle_alpha   113.07891955
_cell_angle_beta   87.76062347
_cell_angle_gamma   118.64215610
_symmetry_Int_Tables_number   1
_chemical_formula_structural   CsTb4Nd6(C2Br9)2
_chemical_formula_sum   'Cs1 Tb4 Nd6 C4 Br18'
_cell_volume   1060.85197556
_cell_formula_units_Z   1
loop_
 _symmetry_equiv_pos_site_id
 _symmetry_equiv_pos_as_xyz
  1  'x, y, z'
loop_
 _atom_site_type_symbol
 _atom_site_label
 _atom_site_symmetry_multiplicity
 _atom_site_fract_x
 _atom_site_fract_y
 _atom_site_fract_z
 _atom_site_occupancy
  Cs  Cs0  1  0.499634  0.997624  0.499066  1
  Tb  Tb1  1  0.660113  0.715728  0.701371  1
  Tb  Tb2  1  0.278610  0.363633  0.015669  1
  Tb  Tb3  1  0.095176  0.408760  0.302290  1
  Tb  Tb4  1  0.963059  0.039668  0.330830  1
  Nd  Nd5  1  0.909073  0.585835  0.694251  1
  Nd  Nd6  1  0.115356  0.942182  0.001568  1
  Nd  Nd7  1  0.038506  0.962041  0.662812  1
  Nd  Nd8  1  0.344269  0.286040  0.302486  1
  Nd  Nd9  1  0.715267  0.630543  0.986716  1
  Nd  Nd10  1  0.884627  0.060084  0.999704  1
  C  C11  1  0.156376  0.231968  0.128336  1
  C  C12  1  0.840083  0.768336  0.870436  1
  C  C13  1  0.915848  0.845326  0.792632  1
  C  C14  1  0.080218  0.154562  0.206384  1
  Br  Br15  1  0.449331  0.531008  0.829778  1
  Br  Br16  1  0.388125  0.036557  0.162774  1
  Br  Br17  1  0.771235  0.856535  0.500757  1
  Br  Br18  1  0.842354  0.320157  0.162107  1
  Br  Br19  1  0.543869  0.468223  0.165075  1
  Br  Br20  1  0.219913  0.141825  0.496011  1
  Br  Br21  1  0.315333  0.106619  0.835512  1
  Br  Br22  1  0.690135  0.904414  0.174129  1
  Br  Br23  1  0.977759  0.768056  0.177941  1
  Br  Br24  1  0.934639  0.298337  0.495422  1
  Br  Br25  1  0.028832  0.243580  0.831418  1
  Br  Br26  1  0.071903  0.696343  0.495908  1
  Br  Br27  1  0.259696  0.619235  0.188125  1
  Br  Br28  1  0.736987  0.368483  0.808615  1
  Br  Br29  1  0.635655  0.436425  0.501578  1
  Br  Br30  1  0.167548  0.686841  0.845812  1
  Br  Br31  1  0.611731  0.954323  0.832857  1
  Br  Br32  1  0.358742  0.570710  0.501630  1
