# generated using pymatgen
data_Tb6Lu10Cd4Ir3Rh
_symmetry_space_group_name_H-M   'P 1'
_cell_length_a   9.53801833
_cell_length_b   9.53801784
_cell_length_c   9.53801944
_cell_angle_alpha   59.94866976
_cell_angle_beta   59.94867283
_cell_angle_gamma   59.94867150
_symmetry_Int_Tables_number   1
_chemical_formula_structural   Tb6Lu10Cd4Ir3Rh
_chemical_formula_sum   'Tb6 Lu10 Cd4 Ir3 Rh1'
_cell_volume   612.84919727
_cell_formula_units_Z   1
loop_
 _symmetry_equiv_pos_site_id
 _symmetry_equiv_pos_as_xyz
  1  'x, y, z'
loop_
 _atom_site_type_symbol
 _atom_site_label
 _atom_site_symmetry_multiplicity
 _atom_site_fract_x
 _atom_site_fract_y
 _atom_site_fract_z
 _atom_site_occupancy
  Tb  Tb0  1  0.190612  0.810099  0.810099  1
  Tb  Tb1  1  0.811258  0.189363  0.189363  1
  Tb  Tb2  1  0.810099  0.190612  0.810099  1
  Tb  Tb3  1  0.189363  0.811258  0.189363  1
  Tb  Tb4  1  0.810099  0.810099  0.190612  1
  Tb  Tb5  1  0.189363  0.189363  0.811258  1
  Lu  Lu6  1  0.597882  0.597882  0.597882  1
  Lu  Lu7  1  0.599411  0.599411  0.204633  1
  Lu  Lu8  1  0.599411  0.204633  0.599411  1
  Lu  Lu9  1  0.204633  0.599411  0.599411  1
  Lu  Lu10  1  0.060581  0.437592  0.437592  1
  Lu  Lu11  1  0.436227  0.062472  0.062472  1
  Lu  Lu12  1  0.437592  0.060581  0.437592  1
  Lu  Lu13  1  0.062472  0.436227  0.062472  1
  Lu  Lu14  1  0.437592  0.437592  0.060581  1
  Lu  Lu15  1  0.062472  0.062472  0.436227  1
  Cd  Cd16  1  0.830184  0.830184  0.830184  1
  Cd  Cd17  1  0.830101  0.830101  0.509610  1
  Cd  Cd18  1  0.830101  0.509610  0.830101  1
  Cd  Cd19  1  0.509610  0.830101  0.830101  1
  Ir  Ir20  1  0.392182  0.392182  0.824672  1
  Ir  Ir21  1  0.392182  0.824672  0.392182  1
  Ir  Ir22  1  0.824672  0.392182  0.392182  1
  Rh  Rh23  1  0.391905  0.391905  0.391905  1
