# generated using pymatgen
data_Zr5Sc4Re4P
_symmetry_space_group_name_H-M   'P 1'
_cell_length_a   8.67336433
_cell_length_b   8.68354370
_cell_length_c   8.62840887
_cell_angle_alpha   90.00000274
_cell_angle_beta   90.01694443
_cell_angle_gamma   120.03883323
_symmetry_Int_Tables_number   1
_chemical_formula_structural   Zr5Sc4Re4P
_chemical_formula_sum   'Zr10 Sc8 Re8 P2'
_cell_volume   562.56904297
_cell_formula_units_Z   2
loop_
 _symmetry_equiv_pos_site_id
 _symmetry_equiv_pos_as_xyz
  1  'x, y, z'
loop_
 _atom_site_type_symbol
 _atom_site_label
 _atom_site_symmetry_multiplicity
 _atom_site_fract_x
 _atom_site_fract_y
 _atom_site_fract_z
 _atom_site_occupancy
  Zr  Zr0  1  0.609012  0.804505  0.455943  1
  Zr  Zr1  1  0.805356  0.198291  0.545605  1
  Zr  Zr2  1  0.805356  0.607067  0.545605  1
  Zr  Zr3  1  0.390667  0.195335  0.546749  1
  Zr  Zr4  1  0.802472  0.196612  0.954241  1
  Zr  Zr5  1  0.802472  0.605863  0.954241  1
  Zr  Zr6  1  0.392928  0.196464  0.953240  1
  Zr  Zr7  1  0.195905  0.803306  0.046511  1
  Zr  Zr8  1  0.195905  0.392598  0.046511  1
  Zr  Zr9  1  0.607541  0.803771  0.046171  1
  Sc  Sc10  1  0.196412  0.802169  0.452459  1
  Sc  Sc11  1  0.196412  0.394243  0.452459  1
  Sc  Sc12  1  0.539138  0.460045  0.251594  1
  Sc  Sc13  1  0.539138  0.079095  0.251594  1
  Sc  Sc14  1  0.918754  0.459377  0.249461  1
  Sc  Sc15  1  0.459580  0.539139  0.750012  1
  Sc  Sc16  1  0.459580  0.920441  0.750012  1
  Sc  Sc17  1  0.079365  0.539682  0.751010  1
  Re  Re18  1  0.892117  0.108263  0.250096  1
  Re  Re19  1  0.892117  0.783853  0.250096  1
  Re  Re20  1  0.215804  0.107901  0.248976  1
  Re  Re21  1  0.107164  0.892125  0.750572  1
  Re  Re22  1  0.107164  0.215040  0.750572  1
  Re  Re23  1  0.785407  0.892704  0.749099  1
  Re  Re24  1  0.003386  0.001694  0.497667  1
  Re  Re25  1  0.998933  0.999466  0.000150  1
  P  P26  1  0.335374  0.667688  0.250381  1
  P  P27  1  0.666538  0.333268  0.748972  1
