# generated using pymatgen
data_TbEr4Cd2(InPd)2
_symmetry_space_group_name_H-M   'P 1'
_cell_length_a   3.59299100
_cell_length_b   8.05829200
_cell_length_c   18.37826900
_cell_angle_alpha   90.00000000
_cell_angle_beta   90.00000000
_cell_angle_gamma   90.00000000
_symmetry_Int_Tables_number   1
_chemical_formula_structural   TbEr4Cd2(InPd)2
_chemical_formula_sum   'Tb2 Er8 Cd4 In4 Pd4'
_cell_volume   532.11283392
_cell_formula_units_Z   2
loop_
 _symmetry_equiv_pos_site_id
 _symmetry_equiv_pos_as_xyz
  1  'x, y, z'
loop_
 _atom_site_type_symbol
 _atom_site_label
 _atom_site_symmetry_multiplicity
 _atom_site_fract_x
 _atom_site_fract_y
 _atom_site_fract_z
 _atom_site_occupancy
  Tb  Tb0  1  0.000000  0.500000  0.500000  1
  Tb  Tb1  1  0.000000  0.000000  0.000000  1
  Er  Er2  1  0.000000  0.745172  0.280428  1
  Er  Er3  1  0.000000  0.254828  0.719572  1
  Er  Er4  1  0.000000  0.754828  0.780428  1
  Er  Er5  1  0.000000  0.245172  0.219572  1
  Er  Er6  1  0.000000  0.613948  0.084077  1
  Er  Er7  1  0.000000  0.386052  0.915923  1
  Er  Er8  1  0.000000  0.886052  0.584077  1
  Er  Er9  1  0.000000  0.113948  0.415923  1
  Cd  Cd10  1  0.500000  0.709353  0.931301  1
  Cd  Cd11  1  0.500000  0.290647  0.068699  1
  Cd  Cd12  1  0.500000  0.790647  0.431301  1
  Cd  Cd13  1  0.500000  0.209353  0.568699  1
  In  In14  1  0.500000  0.572204  0.647940  1
  In  In15  1  0.500000  0.427796  0.352060  1
  In  In16  1  0.500000  0.927796  0.147940  1
  In  In17  1  0.500000  0.072204  0.852060  1
  Pd  Pd18  1  0.500000  0.527360  0.196792  1
  Pd  Pd19  1  0.500000  0.472640  0.803208  1
  Pd  Pd20  1  0.500000  0.972640  0.696792  1
  Pd  Pd21  1  0.500000  0.027360  0.303208  1
