# generated using pymatgen
data_YbScTcB6
_symmetry_space_group_name_H-M   'P 1'
_cell_length_a   3.55212500
_cell_length_b   9.05548600
_cell_length_c   11.38311700
_cell_angle_alpha   90.00000000
_cell_angle_beta   90.00000000
_cell_angle_gamma   90.00000000
_symmetry_Int_Tables_number   1
_chemical_formula_structural   YbScTcB6
_chemical_formula_sum   'Yb4 Sc4 Tc4 B24'
_cell_volume   366.15182531
_cell_formula_units_Z   4
loop_
 _symmetry_equiv_pos_site_id
 _symmetry_equiv_pos_as_xyz
  1  'x, y, z'
loop_
 _atom_site_type_symbol
 _atom_site_label
 _atom_site_symmetry_multiplicity
 _atom_site_fract_x
 _atom_site_fract_y
 _atom_site_fract_z
 _atom_site_occupancy
  Yb  Yb0  1  0.500000  0.324055  0.414615  1
  Yb  Yb1  1  0.500000  0.675945  0.585385  1
  Yb  Yb2  1  0.500000  0.175945  0.914615  1
  Yb  Yb3  1  0.500000  0.824055  0.085385  1
  Sc  Sc4  1  0.500000  0.442801  0.132966  1
  Sc  Sc5  1  0.500000  0.557199  0.867034  1
  Sc  Sc6  1  0.500000  0.057199  0.632966  1
  Sc  Sc7  1  0.500000  0.942801  0.367034  1
  Tc  Tc8  1  0.500000  0.143224  0.182028  1
  Tc  Tc9  1  0.500000  0.856776  0.817972  1
  Tc  Tc10  1  0.500000  0.356776  0.682028  1
  Tc  Tc11  1  0.500000  0.643224  0.317972  1
  B  B12  1  0.000000  0.092122  0.475209  1
  B  B13  1  0.000000  0.907878  0.524791  1
  B  B14  1  0.000000  0.407878  0.975209  1
  B  B15  1  0.000000  0.592122  0.024791  1
  B  B16  1  0.000000  0.130113  0.317766  1
  B  B17  1  0.000000  0.869887  0.682234  1
  B  B18  1  0.000000  0.369887  0.817766  1
  B  B19  1  0.000000  0.630113  0.182234  1
  B  B20  1  0.000000  0.054222  0.067171  1
  B  B21  1  0.000000  0.945778  0.932829  1
  B  B22  1  0.000000  0.445778  0.567171  1
  B  B23  1  0.000000  0.554222  0.432829  1
  B  B24  1  0.000000  0.481727  0.286675  1
  B  B25  1  0.000000  0.518273  0.713325  1
  B  B26  1  0.000000  0.018273  0.786675  1
  B  B27  1  0.000000  0.981727  0.213325  1
  B  B28  1  0.000000  0.254605  0.081798  1
  B  B29  1  0.000000  0.745395  0.918202  1
  B  B30  1  0.000000  0.245395  0.581798  1
  B  B31  1  0.000000  0.754605  0.418202  1
  B  B32  1  0.000000  0.296256  0.236597  1
  B  B33  1  0.000000  0.703744  0.763403  1
  B  B34  1  0.000000  0.203744  0.736597  1
  B  B35  1  0.000000  0.796256  0.263403  1
