# generated using pymatgen
data_Li2HoErB28
_symmetry_space_group_name_H-M   'P 1'
_cell_length_a   7.24448824
_cell_length_b   7.24448747
_cell_length_c   7.24448819
_cell_angle_alpha   132.18718451
_cell_angle_beta   110.90070919
_cell_angle_gamma   88.37805253
_symmetry_Int_Tables_number   1
_chemical_formula_structural   Li2HoErB28
_chemical_formula_sum   'Li2 Ho1 Er1 B28'
_cell_volume   250.62270678
_cell_formula_units_Z   1
loop_
 _symmetry_equiv_pos_site_id
 _symmetry_equiv_pos_as_xyz
  1  'x, y, z'
loop_
 _atom_site_type_symbol
 _atom_site_label
 _atom_site_symmetry_multiplicity
 _atom_site_fract_x
 _atom_site_fract_y
 _atom_site_fract_z
 _atom_site_occupancy
  Li  Li0  1  0.500020  0.500045  0.500065  1
  Li  Li1  1  0.500020  0.999955  0.999975  1
  Ho  Ho2  1  0.120834  0.750000  0.370834  1
  Er  Er3  1  0.878425  0.250000  0.628425  1
  B  B4  1  0.139087  0.166014  0.973074  1
  B  B5  1  0.860880  0.834001  0.026878  1
  B  B6  1  0.692878  0.665999  0.026878  1
  B  B7  1  0.307060  0.333986  0.973074  1
  B  B8  1  0.277674  0.649551  0.628125  1
  B  B9  1  0.722449  0.350359  0.372089  1
  B  B10  1  0.521730  0.149641  0.372089  1
  B  B11  1  0.478574  0.850449  0.628125  1
  B  B12  1  0.415208  0.588889  0.826319  1
  B  B13  1  0.584984  0.411124  0.173861  1
  B  B14  1  0.262738  0.088876  0.173861  1
  B  B15  1  0.737429  0.911111  0.826319  1
  B  B16  1  0.899004  0.901162  0.681480  1
  B  B17  1  0.100922  0.782226  0.001771  1
  B  B18  1  0.719545  0.400851  0.001771  1
  B  B19  1  0.280319  0.282476  0.681480  1
  B  B20  1  0.100922  0.099149  0.318695  1
  B  B21  1  0.899004  0.217524  0.997844  1
  B  B22  1  0.280319  0.598838  0.997844  1
  B  B23  1  0.719545  0.717774  0.318695  1
  B  B24  1  0.533663  0.330078  0.703358  1
  B  B25  1  0.466473  0.169798  0.796596  1
  B  B26  1  0.126799  0.830122  0.796596  1
  B  B27  1  0.873280  0.669696  0.703358  1
  B  B28  1  0.466473  0.669878  0.296676  1
  B  B29  1  0.533663  0.830304  0.203584  1
  B  B30  1  0.873280  0.169922  0.203584  1
  B  B31  1  0.126799  0.330202  0.296676  1
