# generated using pymatgen
data_Zr2Fe11MoP7
_symmetry_space_group_name_H-M   'P 1'
_cell_length_a   8.93360637
_cell_length_b   8.94840704
_cell_length_c   3.62513600
_cell_angle_alpha   90.00000000
_cell_angle_beta   90.00000000
_cell_angle_gamma   120.13412785
_symmetry_Int_Tables_number   1
_chemical_formula_structural   Zr2Fe11MoP7
_chemical_formula_sum   'Zr2 Fe11 Mo1 P7'
_cell_volume   250.63338282
_cell_formula_units_Z   1
loop_
 _symmetry_equiv_pos_site_id
 _symmetry_equiv_pos_as_xyz
  1  'x, y, z'
loop_
 _atom_site_type_symbol
 _atom_site_label
 _atom_site_symmetry_multiplicity
 _atom_site_fract_x
 _atom_site_fract_y
 _atom_site_fract_z
 _atom_site_occupancy
  Zr  Zr0  1  0.999328  0.001911  0.000000  1
  Zr  Zr1  1  0.332441  0.666652  0.500000  1
  Fe  Fe2  1  0.299039  0.392725  0.000000  1
  Fe  Fe3  1  0.100856  0.706389  0.000000  1
  Fe  Fe4  1  0.545800  0.430245  0.500000  1
  Fe  Fe5  1  0.388837  0.176157  0.000000  1
  Fe  Fe6  1  0.783960  0.612472  0.000000  1
  Fe  Fe7  1  0.820398  0.209259  0.000000  1
  Fe  Fe8  1  0.232026  0.950790  0.500000  1
  Fe  Fe9  1  0.053409  0.278788  0.500000  1
  Fe  Fe10  1  0.716306  0.770120  0.500000  1
  Fe  Fe11  1  0.569052  0.112325  0.500000  1
  Fe  Fe12  1  0.604883  0.902594  0.000000  1
  Mo  Mo13  1  0.884765  0.450582  0.500000  1
  P  P14  1  0.660459  0.330497  0.000000  1
  P  P15  1  0.085200  0.446627  0.000000  1
  P  P16  1  0.263253  0.217588  0.500000  1
  P  P17  1  0.781601  0.043078  0.500000  1
  P  P18  1  0.958036  0.748126  0.500000  1
  P  P19  1  0.550226  0.631868  0.000000  1
  P  P20  1  0.370125  0.921210  0.000000  1
