# generated using pymatgen
data_HoTm3Pu2(Si3Ru)8
_symmetry_space_group_name_H-M   'P 1'
_cell_length_a   10.10188962
_cell_length_b   10.10188988
_cell_length_c   8.12521300
_cell_angle_alpha   89.97731914
_cell_angle_beta   90.02267827
_cell_angle_gamma   132.61235417
_symmetry_Int_Tables_number   1
_chemical_formula_structural   HoTm3Pu2(Si3Ru)8
_chemical_formula_sum   'Ho1 Tm3 Pu2 Si24 Ru8'
_cell_volume   610.22350794
_cell_formula_units_Z   1
loop_
 _symmetry_equiv_pos_site_id
 _symmetry_equiv_pos_as_xyz
  1  'x, y, z'
loop_
 _atom_site_type_symbol
 _atom_site_label
 _atom_site_symmetry_multiplicity
 _atom_site_fract_x
 _atom_site_fract_y
 _atom_site_fract_z
 _atom_site_occupancy
  Ho  Ho0  1  0.002046  0.502046  0.750000  1
  Tm  Tm1  1  0.500277  0.500250  0.502865  1
  Tm  Tm2  1  0.000250  0.000277  0.997135  1
  Tm  Tm3  1  0.502056  0.002056  0.750000  1
  Pu  Pu4  1  0.996207  0.496207  0.250000  1
  Pu  Pu5  1  0.496248  0.996248  0.250000  1
  Si  Si6  1  0.792655  0.206380  0.494844  1
  Si  Si7  1  0.293235  0.706914  0.005143  1
  Si  Si8  1  0.206914  0.793235  0.494857  1
  Si  Si9  1  0.706380  0.292655  0.005156  1
  Si  Si10  1  0.332999  0.333510  0.833785  1
  Si  Si11  1  0.667205  0.668459  0.168964  1
  Si  Si12  1  0.168459  0.167205  0.331036  1
  Si  Si13  1  0.833510  0.832999  0.666215  1
  Si  Si14  1  0.122281  0.888872  0.722456  1
  Si  Si15  1  0.110589  0.873424  0.265570  1
  Si  Si16  1  0.611504  0.374424  0.234225  1
  Si  Si17  1  0.621378  0.388130  0.777851  1
  Si  Si18  1  0.874424  0.111504  0.265775  1
  Si  Si19  1  0.888130  0.121378  0.722149  1
  Si  Si20  1  0.388872  0.622281  0.777544  1
  Si  Si21  1  0.373424  0.610589  0.234430  1
  Si  Si22  1  0.346309  0.110693  0.504300  1
  Si  Si23  1  0.889279  0.654567  0.493049  1
  Si  Si24  1  0.389690  0.155247  0.006063  1
  Si  Si25  1  0.846381  0.610811  0.996512  1
  Si  Si26  1  0.655247  0.889690  0.493937  1
  Si  Si27  1  0.110811  0.346381  0.503488  1
  Si  Si28  1  0.610693  0.846309  0.995700  1
  Si  Si29  1  0.154567  0.389279  0.006951  1
  Ru  Ru30  1  0.667436  0.332133  0.510049  1
  Ru  Ru31  1  0.168437  0.833063  0.990076  1
  Ru  Ru32  1  0.333063  0.668437  0.509924  1
  Ru  Ru33  1  0.832133  0.167436  0.989951  1
  Ru  Ru34  1  0.128082  0.128215  0.623520  1
  Ru  Ru35  1  0.875278  0.875333  0.372332  1
  Ru  Ru36  1  0.375333  0.375278  0.127668  1
  Ru  Ru37  1  0.628215  0.628082  0.876480  1
