# generated using pymatgen
data_SrTm3(Al8Pt3)3
_symmetry_space_group_name_H-M   'P 1'
_cell_length_a   7.53455975
_cell_length_b   7.55040562
_cell_length_c   13.22909265
_cell_angle_alpha   84.60317392
_cell_angle_beta   79.11463798
_cell_angle_gamma   59.94823772
_symmetry_Int_Tables_number   1
_chemical_formula_structural   SrTm3(Al8Pt3)3
_chemical_formula_sum   'Sr1 Tm3 Al24 Pt9'
_cell_volume   639.70035715
_cell_formula_units_Z   1
loop_
 _symmetry_equiv_pos_site_id
 _symmetry_equiv_pos_as_xyz
  1  'x, y, z'
loop_
 _atom_site_type_symbol
 _atom_site_label
 _atom_site_symmetry_multiplicity
 _atom_site_fract_x
 _atom_site_fract_y
 _atom_site_fract_z
 _atom_site_occupancy
  Sr  Sr0  1  0.393107  0.167860  0.809983  1
  Tm  Tm1  1  0.604842  0.832046  0.193438  1
  Tm  Tm2  1  0.733682  0.498817  0.807158  1
  Tm  Tm3  1  0.266346  0.500984  0.193481  1
  Al  Al4  1  0.685945  0.831304  0.948392  1
  Al  Al5  1  0.315370  0.166238  0.059201  1
  Al  Al6  1  0.147218  0.832343  0.559336  1
  Al  Al7  1  0.854054  0.167864  0.436890  1
  Al  Al8  1  0.480647  0.166606  0.557079  1
  Al  Al9  1  0.520463  0.833440  0.439716  1
  Al  Al10  1  0.218286  0.165360  0.327467  1
  Al  Al11  1  0.784060  0.834694  0.666860  1
  Al  Al12  1  0.438459  0.506410  0.666370  1
  Al  Al13  1  0.563362  0.493375  0.327822  1
  Al  Al14  1  0.110714  0.160394  0.665163  1
  Al  Al15  1  0.890839  0.839649  0.329245  1
  Al  Al16  1  0.350973  0.501996  0.948499  1
  Al  Al17  1  0.644850  0.502099  0.058148  1
  Al  Al18  1  0.011808  0.167627  0.958782  1
  Al  Al19  1  0.983007  0.831014  0.050449  1
  Al  Al20  1  0.186979  0.499340  0.439781  1
  Al  Al21  1  0.813885  0.500423  0.557254  1
  Al  Al22  1  0.733298  0.164753  0.183952  1
  Al  Al23  1  0.269894  0.824918  0.816427  1
  Al  Al24  1  0.051709  0.637122  0.815644  1
  Al  Al25  1  0.937857  0.370578  0.185095  1
  Al  Al26  1  0.862058  0.045070  0.816471  1
  Al  Al27  1  0.145381  0.957498  0.184386  1
  Pt  Pt28  1  0.118524  0.494442  0.636633  1
  Pt  Pt29  1  0.880419  0.508759  0.360441  1
  Pt  Pt30  1  0.657144  0.171095  0.001796  1
  Pt  Pt31  1  0.341686  0.828436  0.002200  1
  Pt  Pt32  1  0.537768  0.166632  0.360555  1
  Pt  Pt33  1  0.462524  0.831007  0.636600  1
  Pt  Pt34  1  0.781422  0.174629  0.635370  1
  Pt  Pt35  1  0.222171  0.824416  0.361616  1
  Pt  Pt36  1  0.999249  0.500761  0.002300  1
