# generated using pymatgen
data_Li4Pr3HoSi8
_symmetry_space_group_name_H-M   'P 1'
_cell_length_a   3.87028900
_cell_length_b   7.72253140
_cell_length_c   10.43859343
_cell_angle_alpha   89.85841978
_cell_angle_beta   90.00000000
_cell_angle_gamma   90.00000000
_symmetry_Int_Tables_number   1
_chemical_formula_structural   Li4Pr3HoSi8
_chemical_formula_sum   'Li4 Pr3 Ho1 Si8'
_cell_volume   311.99219904
_cell_formula_units_Z   1
loop_
 _symmetry_equiv_pos_site_id
 _symmetry_equiv_pos_as_xyz
  1  'x, y, z'
loop_
 _atom_site_type_symbol
 _atom_site_label
 _atom_site_symmetry_multiplicity
 _atom_site_fract_x
 _atom_site_fract_y
 _atom_site_fract_z
 _atom_site_occupancy
  Li  Li0  1  0.250000  0.994277  0.389618  1
  Li  Li1  1  0.750000  0.003918  0.610781  1
  Li  Li2  1  0.250000  0.495152  0.107020  1
  Li  Li3  1  0.750000  0.509823  0.890610  1
  Pr  Pr4  1  0.750000  0.862563  0.135025  1
  Pr  Pr5  1  0.250000  0.637923  0.636856  1
  Pr  Pr6  1  0.750000  0.358729  0.364952  1
  Ho  Ho7  1  0.250000  0.134639  0.864516  1
  Si  Si8  1  0.750000  0.271727  0.063184  1
  Si  Si9  1  0.250000  0.733434  0.928956  1
  Si  Si10  1  0.750000  0.773232  0.429796  1
  Si  Si11  1  0.250000  0.220945  0.576764  1
  Si  Si12  1  0.750000  0.844659  0.822864  1
  Si  Si13  1  0.250000  0.164522  0.172746  1
  Si  Si14  1  0.750000  0.331218  0.683878  1
  Si  Si15  1  0.250000  0.663240  0.322436  1
