# generated using pymatgen
data_Y3Lu(AlPd)4
_symmetry_space_group_name_H-M   'P 1'
_cell_length_a   4.45906200
_cell_length_b   6.88664075
_cell_length_c   7.76683686
_cell_angle_alpha   88.74018112
_cell_angle_beta   90.00000000
_cell_angle_gamma   90.00000000
_symmetry_Int_Tables_number   1
_chemical_formula_structural   Y3Lu(AlPd)4
_chemical_formula_sum   'Y3 Lu1 Al4 Pd4'
_cell_volume   238.44604825
_cell_formula_units_Z   1
loop_
 _symmetry_equiv_pos_site_id
 _symmetry_equiv_pos_as_xyz
  1  'x, y, z'
loop_
 _atom_site_type_symbol
 _atom_site_label
 _atom_site_symmetry_multiplicity
 _atom_site_fract_x
 _atom_site_fract_y
 _atom_site_fract_z
 _atom_site_occupancy
  Y  Y0  1  0.250000  0.531804  0.182724  1
  Y  Y1  1  0.750000  0.970919  0.679298  1
  Y  Y2  1  0.750000  0.467713  0.819304  1
  Lu  Lu3  1  0.250000  0.031771  0.318917  1
  Al  Al4  1  0.250000  0.146083  0.939041  1
  Al  Al5  1  0.250000  0.648732  0.562109  1
  Al  Al6  1  0.750000  0.853630  0.062107  1
  Al  Al7  1  0.750000  0.353173  0.437731  1
  Pd  Pd8  1  0.250000  0.270868  0.611794  1
  Pd  Pd9  1  0.250000  0.774916  0.881237  1
  Pd  Pd10  1  0.750000  0.729998  0.382292  1
  Pd  Pd11  1  0.750000  0.220394  0.123447  1
