# generated using pymatgen
data_Sm4Gd2IrBr10
_symmetry_space_group_name_H-M   'P 1'
_cell_length_a   7.48469411
_cell_length_b   9.36772103
_cell_length_c   9.37935800
_cell_angle_alpha   108.60374410
_cell_angle_beta   96.47686037
_cell_angle_gamma   105.83086358
_symmetry_Int_Tables_number   1
_chemical_formula_structural   Sm4Gd2IrBr10
_chemical_formula_sum   'Sm4 Gd2 Ir1 Br10'
_cell_volume   585.04915293
_cell_formula_units_Z   1
loop_
 _symmetry_equiv_pos_site_id
 _symmetry_equiv_pos_as_xyz
  1  'x, y, z'
loop_
 _atom_site_type_symbol
 _atom_site_label
 _atom_site_symmetry_multiplicity
 _atom_site_fract_x
 _atom_site_fract_y
 _atom_site_fract_z
 _atom_site_occupancy
  Sm  Sm0  1  0.127591  0.045526  0.750655  1
  Sm  Sm1  1  0.872409  0.954474  0.249345  1
  Sm  Sm2  1  0.973290  0.304316  0.097692  1
  Sm  Sm3  1  0.026710  0.695684  0.902308  1
  Gd  Gd4  1  0.363858  0.137722  0.180110  1
  Gd  Gd5  1  0.636142  0.862278  0.819890  1
  Ir  Ir6  1  0.000000  0.000000  0.000000  1
  Br  Br7  1  0.549080  0.176686  0.915949  1
  Br  Br8  1  0.450920  0.823314  0.084051  1
  Br  Br9  1  0.358147  0.456722  0.274829  1
  Br  Br10  1  0.641853  0.543278  0.725171  1
  Br  Br11  1  0.253767  0.084702  0.456316  1
  Br  Br12  1  0.746233  0.915298  0.543684  1
  Br  Br13  1  0.788047  0.259837  0.351629  1
  Br  Br14  1  0.211953  0.740163  0.648371  1
  Br  Br15  1  0.088753  0.368972  0.826616  1
  Br  Br16  1  0.911247  0.631028  0.173384  1
