# generated using pymatgen
data_Nd2HoCoSn6
_symmetry_space_group_name_H-M   'P 1'
_cell_length_a   8.55993796
_cell_length_b   8.55993856
_cell_length_c   13.36233900
_cell_angle_alpha   90.00000000
_cell_angle_beta   90.00000000
_cell_angle_gamma   148.74920801
_symmetry_Int_Tables_number   1
_chemical_formula_structural   Nd2HoCoSn6
_chemical_formula_sum   'Nd4 Ho2 Co2 Sn12'
_cell_volume   507.93860696
_cell_formula_units_Z   2
loop_
 _symmetry_equiv_pos_site_id
 _symmetry_equiv_pos_as_xyz
  1  'x, y, z'
loop_
 _atom_site_type_symbol
 _atom_site_label
 _atom_site_symmetry_multiplicity
 _atom_site_fract_x
 _atom_site_fract_y
 _atom_site_fract_z
 _atom_site_occupancy
  Nd  Nd0  1  0.900099  0.099901  0.091776  1
  Nd  Nd1  1  0.099901  0.900099  0.591776  1
  Nd  Nd2  1  0.099901  0.900099  0.908224  1
  Nd  Nd3  1  0.900099  0.099901  0.408224  1
  Ho  Ho4  1  0.898107  0.101893  0.750000  1
  Ho  Ho5  1  0.101893  0.898107  0.250000  1
  Co  Co6  1  0.298483  0.701517  0.250000  1
  Co  Co7  1  0.701517  0.298483  0.750000  1
  Sn  Sn8  1  0.754210  0.245790  0.572122  1
  Sn  Sn9  1  0.428938  0.571062  0.579634  1
  Sn  Sn10  1  0.571062  0.428938  0.420366  1
  Sn  Sn11  1  0.734484  0.265516  0.250000  1
  Sn  Sn12  1  0.265516  0.734484  0.750000  1
  Sn  Sn13  1  0.245790  0.754210  0.072122  1
  Sn  Sn14  1  0.245790  0.754210  0.427878  1
  Sn  Sn15  1  0.571062  0.428938  0.079634  1
  Sn  Sn16  1  0.453731  0.546269  0.250000  1
  Sn  Sn17  1  0.546269  0.453731  0.750000  1
  Sn  Sn18  1  0.754210  0.245790  0.927878  1
  Sn  Sn19  1  0.428938  0.571062  0.920366  1
