# generated using pymatgen
data_Li3Cd(GePt3)2
_symmetry_space_group_name_H-M   'P 1'
_cell_length_a   4.03372400
_cell_length_b   7.22112400
_cell_length_c   12.16752700
_cell_angle_alpha   90.00000000
_cell_angle_beta   89.99994318
_cell_angle_gamma   90.00000000
_symmetry_Int_Tables_number   1
_chemical_formula_structural   Li3Cd(GePt3)2
_chemical_formula_sum   'Li6 Cd2 Ge4 Pt12'
_cell_volume   354.41598423
_cell_formula_units_Z   2
loop_
 _symmetry_equiv_pos_site_id
 _symmetry_equiv_pos_as_xyz
  1  'x, y, z'
loop_
 _atom_site_type_symbol
 _atom_site_label
 _atom_site_symmetry_multiplicity
 _atom_site_fract_x
 _atom_site_fract_y
 _atom_site_fract_z
 _atom_site_occupancy
  Li  Li0  1  0.000000  0.500000  0.000808  1
  Li  Li1  1  0.500000  0.000000  0.173280  1
  Li  Li2  1  0.000000  0.500000  0.326719  1
  Li  Li3  1  0.500000  0.000000  0.499191  1
  Li  Li4  1  0.000000  0.500000  0.673267  1
  Li  Li5  1  0.500001  0.000000  0.826733  1
  Cd  Cd6  1  0.000000  0.000000  0.657371  1
  Cd  Cd7  1  0.499999  0.500000  0.842631  1
  Ge  Ge8  1  0.000000  0.000000  0.000248  1
  Ge  Ge9  1  0.500000  0.500000  0.162501  1
  Ge  Ge10  1  0.000000  0.000000  0.337500  1
  Ge  Ge11  1  0.500000  0.500000  0.499753  1
  Pt  Pt12  1  0.500000  0.229942  0.009729  1
  Pt  Pt13  1  0.500000  0.770058  0.009729  1
  Pt  Pt14  1  0.000000  0.250565  0.170098  1
  Pt  Pt15  1  0.000000  0.749434  0.170098  1
  Pt  Pt16  1  0.500000  0.249434  0.329901  1
  Pt  Pt17  1  0.500000  0.750566  0.329901  1
  Pt  Pt18  1  0.000000  0.270057  0.490271  1
  Pt  Pt19  1  0.000000  0.729943  0.490271  1
  Pt  Pt20  1  0.500002  0.266758  0.660939  1
  Pt  Pt21  1  0.500002  0.733242  0.660939  1
  Pt  Pt22  1  0.000000  0.233241  0.839061  1
  Pt  Pt23  1  0.000000  0.766758  0.839061  1
