# generated using pymatgen
data_DyYAl6(GaIr)3
_symmetry_space_group_name_H-M   'P 1'
_cell_length_a   7.53083100
_cell_length_b   7.53083124
_cell_length_c   9.58197300
_cell_angle_alpha   90.00000000
_cell_angle_beta   90.00000000
_cell_angle_gamma   119.64813839
_symmetry_Int_Tables_number   1
_chemical_formula_structural   DyYAl6(GaIr)3
_chemical_formula_sum   'Dy2 Y2 Al12 Ga6 Ir6'
_cell_volume   472.28084208
_cell_formula_units_Z   2
loop_
 _symmetry_equiv_pos_site_id
 _symmetry_equiv_pos_as_xyz
  1  'x, y, z'
loop_
 _atom_site_type_symbol
 _atom_site_label
 _atom_site_symmetry_multiplicity
 _atom_site_fract_x
 _atom_site_fract_y
 _atom_site_fract_z
 _atom_site_occupancy
  Dy  Dy0  1  0.669554  0.995889  0.750000  1
  Dy  Dy1  1  0.330446  0.004111  0.250000  1
  Y  Y2  1  0.995889  0.669554  0.750000  1
  Y  Y3  1  0.004111  0.330446  0.250000  1
  Al  Al4  1  0.001503  0.334556  0.572947  1
  Al  Al5  1  0.998497  0.665444  0.427053  1
  Al  Al6  1  0.998497  0.665444  0.072947  1
  Al  Al7  1  0.334556  0.001503  0.927053  1
  Al  Al8  1  0.001503  0.334556  0.927053  1
  Al  Al9  1  0.665444  0.998497  0.072947  1
  Al  Al10  1  0.665444  0.998497  0.427053  1
  Al  Al11  1  0.334556  0.001503  0.572947  1
  Al  Al12  1  0.333854  0.333854  0.054374  1
  Al  Al13  1  0.666146  0.666146  0.945626  1
  Al  Al14  1  0.666146  0.666146  0.554374  1
  Al  Al15  1  0.333854  0.333854  0.445626  1
  Ga  Ga16  1  0.127748  0.127748  0.750000  1
  Ga  Ga17  1  0.872252  0.872252  0.250000  1
  Ga  Ga18  1  0.338520  0.546813  0.750000  1
  Ga  Ga19  1  0.661480  0.453187  0.250000  1
  Ga  Ga20  1  0.546813  0.338520  0.750000  1
  Ga  Ga21  1  0.453187  0.661480  0.250000  1
  Ir  Ir22  1  0.671727  0.328273  0.500000  1
  Ir  Ir23  1  0.328273  0.671727  0.500000  1
  Ir  Ir24  1  0.328273  0.671727  0.000000  1
  Ir  Ir25  1  0.671727  0.328273  0.000000  1
  Ir  Ir26  1  0.000000  0.000000  0.500000  1
  Ir  Ir27  1  0.000000  0.000000  0.000000  1
