# generated using pymatgen
data_Nd12CoPd2Ru
_symmetry_space_group_name_H-M   'P 1'
_cell_length_a   6.53837955
_cell_length_b   7.31671082
_cell_length_c   9.98389200
_cell_angle_alpha   90.00000000
_cell_angle_beta   90.00000000
_cell_angle_gamma   89.82494606
_symmetry_Int_Tables_number   1
_chemical_formula_structural   Nd12CoPd2Ru
_chemical_formula_sum   'Nd12 Co1 Pd2 Ru1'
_cell_volume   477.62149740
_cell_formula_units_Z   1
loop_
 _symmetry_equiv_pos_site_id
 _symmetry_equiv_pos_as_xyz
  1  'x, y, z'
loop_
 _atom_site_type_symbol
 _atom_site_label
 _atom_site_symmetry_multiplicity
 _atom_site_fract_x
 _atom_site_fract_y
 _atom_site_fract_z
 _atom_site_occupancy
  Nd  Nd0  1  0.324777  0.685534  0.062992  1
  Nd  Nd1  1  0.162427  0.164402  0.431089  1
  Nd  Nd2  1  0.662014  0.330000  0.564440  1
  Nd  Nd3  1  0.824350  0.818433  0.937348  1
  Nd  Nd4  1  0.662014  0.330000  0.935560  1
  Nd  Nd5  1  0.824350  0.818433  0.562652  1
  Nd  Nd6  1  0.324777  0.685534  0.437008  1
  Nd  Nd7  1  0.162427  0.164402  0.068911  1
  Nd  Nd8  1  0.873787  0.545571  0.250000  1
  Nd  Nd9  1  0.650732  0.025126  0.250000  1
  Nd  Nd10  1  0.145319  0.472576  0.750000  1
  Nd  Nd11  1  0.369794  0.960639  0.750000  1
  Co  Co12  1  0.072583  0.880766  0.250000  1
  Pd  Pd13  1  0.433398  0.387592  0.250000  1
  Pd  Pd14  1  0.935517  0.114493  0.750000  1
  Ru  Ru15  1  0.571731  0.616501  0.750000  1
