# generated using pymatgen
data_Na8Cd6Au11
_symmetry_space_group_name_H-M   'P 1'
_cell_length_a   5.62213600
_cell_length_b   15.29192900
_cell_length_c   26.16939900
_cell_angle_alpha   90.00000000
_cell_angle_beta   90.00000000
_cell_angle_gamma   90.00000000
_symmetry_Int_Tables_number   1
_chemical_formula_structural   Na8Cd6Au11
_chemical_formula_sum   'Na32 Cd24 Au44'
_cell_volume   2249.86970986
_cell_formula_units_Z   4
loop_
 _symmetry_equiv_pos_site_id
 _symmetry_equiv_pos_as_xyz
  1  'x, y, z'
loop_
 _atom_site_type_symbol
 _atom_site_label
 _atom_site_symmetry_multiplicity
 _atom_site_fract_x
 _atom_site_fract_y
 _atom_site_fract_z
 _atom_site_occupancy
  Na  Na0  1  0.771199  0.137991  0.359957  1
  Na  Na1  1  0.771199  0.862009  0.140043  1
  Na  Na2  1  0.246079  0.063717  0.301621  1
  Na  Na3  1  0.232920  0.940951  0.514782  1
  Na  Na4  1  0.228801  0.362009  0.859957  1
  Na  Na5  1  0.772575  0.750000  0.930177  1
  Na  Na6  1  0.228801  0.862009  0.640043  1
  Na  Na7  1  0.772575  0.250000  0.569823  1
  Na  Na8  1  0.237353  0.250000  0.643009  1
  Na  Na9  1  0.237353  0.750000  0.856991  1
  Na  Na10  1  0.753921  0.563717  0.698379  1
  Na  Na11  1  0.232920  0.059049  0.985218  1
  Na  Na12  1  0.228801  0.137991  0.859957  1
  Na  Na13  1  0.246079  0.936283  0.198379  1
  Na  Na14  1  0.767080  0.059049  0.485218  1
  Na  Na15  1  0.762647  0.750000  0.356991  1
  Na  Na16  1  0.228801  0.637991  0.640043  1
  Na  Na17  1  0.771199  0.362009  0.359957  1
  Na  Na18  1  0.753921  0.436283  0.801621  1
  Na  Na19  1  0.232920  0.559049  0.514782  1
  Na  Na20  1  0.753921  0.936283  0.698379  1
  Na  Na21  1  0.762647  0.250000  0.143009  1
  Na  Na22  1  0.771199  0.637991  0.140043  1
  Na  Na23  1  0.227425  0.250000  0.069823  1
  Na  Na24  1  0.246079  0.436283  0.301621  1
  Na  Na25  1  0.767080  0.440951  0.485218  1
  Na  Na26  1  0.767080  0.940951  0.014782  1
  Na  Na27  1  0.227425  0.750000  0.430177  1
  Na  Na28  1  0.246079  0.563717  0.198379  1
  Na  Na29  1  0.753921  0.063717  0.801621  1
  Na  Na30  1  0.767080  0.559049  0.014782  1
  Na  Na31  1  0.232920  0.440951  0.985218  1
  Cd  Cd32  1  0.502368  0.750000  0.236502  1
  Cd  Cd33  1  0.497632  0.250000  0.763498  1
  Cd  Cd34  1  0.477559  0.939504  0.394713  1
  Cd  Cd35  1  0.504949  0.250000  0.454072  1
  Cd  Cd36  1  0.235859  0.420713  0.717286  1
  Cd  Cd37  1  0.235859  0.579287  0.782714  1
  Cd  Cd38  1  0.235859  0.079287  0.717286  1
  Cd  Cd39  1  0.764141  0.579287  0.282714  1
  Cd  Cd40  1  0.502368  0.250000  0.263498  1
  Cd  Cd41  1  0.235859  0.920713  0.782714  1
  Cd  Cd42  1  0.764141  0.420713  0.217286  1
  Cd  Cd43  1  0.522441  0.060496  0.605287  1
  Cd  Cd44  1  0.504949  0.750000  0.045928  1
  Cd  Cd45  1  0.477559  0.439504  0.105287  1
  Cd  Cd46  1  0.764141  0.079287  0.217286  1
  Cd  Cd47  1  0.522441  0.439504  0.605287  1
  Cd  Cd48  1  0.497632  0.750000  0.736502  1
  Cd  Cd49  1  0.477559  0.560496  0.394713  1
  Cd  Cd50  1  0.764141  0.920713  0.282714  1
  Cd  Cd51  1  0.522441  0.939504  0.894713  1
  Cd  Cd52  1  0.495051  0.250000  0.954072  1
  Cd  Cd53  1  0.522441  0.560496  0.894713  1
  Cd  Cd54  1  0.477559  0.060496  0.105287  1
  Cd  Cd55  1  0.495051  0.750000  0.545928  1
  Au  Au56  1  0.255060  0.653422  0.967922  1
  Au  Au57  1  0.027137  0.443997  0.614360  1
  Au  Au58  1  0.972863  0.556003  0.385640  1
  Au  Au59  1  0.744940  0.153422  0.032078  1
  Au  Au60  1  0.754061  0.593133  0.576498  1
  Au  Au61  1  0.734153  0.644814  0.810479  1
  Au  Au62  1  0.245939  0.906867  0.076498  1
  Au  Au63  1  0.013461  0.750000  0.738959  1
  Au  Au64  1  0.734153  0.144814  0.689521  1
  Au  Au65  1  0.981822  0.750000  0.045233  1
  Au  Au66  1  0.265847  0.355186  0.189521  1
  Au  Au67  1  0.981822  0.250000  0.454767  1
  Au  Au68  1  0.027137  0.056003  0.614360  1
  Au  Au69  1  0.754061  0.093133  0.923502  1
  Au  Au70  1  0.739260  0.750000  0.643402  1
  Au  Au71  1  0.255060  0.846578  0.967922  1
  Au  Au72  1  0.245939  0.093133  0.423502  1
  Au  Au73  1  0.734153  0.855186  0.810479  1
  Au  Au74  1  0.245939  0.593133  0.076498  1
  Au  Au75  1  0.027137  0.556003  0.885640  1
  Au  Au76  1  0.744940  0.653422  0.467922  1
  Au  Au77  1  0.018178  0.250000  0.954767  1
  Au  Au78  1  0.754061  0.906867  0.576498  1
  Au  Au79  1  0.027137  0.943997  0.885640  1
  Au  Au80  1  0.972863  0.443997  0.114360  1
  Au  Au81  1  0.265847  0.644814  0.310479  1
  Au  Au82  1  0.018178  0.750000  0.545233  1
  Au  Au83  1  0.744940  0.346578  0.032078  1
  Au  Au84  1  0.255060  0.153422  0.532078  1
  Au  Au85  1  0.986539  0.250000  0.261041  1
  Au  Au86  1  0.260740  0.750000  0.143402  1
  Au  Au87  1  0.260740  0.250000  0.356598  1
  Au  Au88  1  0.972863  0.056003  0.114360  1
  Au  Au89  1  0.986539  0.750000  0.238959  1
  Au  Au90  1  0.754061  0.406867  0.923502  1
  Au  Au91  1  0.245939  0.406867  0.423502  1
  Au  Au92  1  0.255060  0.346578  0.532078  1
  Au  Au93  1  0.744940  0.846578  0.467922  1
  Au  Au94  1  0.739260  0.250000  0.856598  1
  Au  Au95  1  0.265847  0.144814  0.189521  1
  Au  Au96  1  0.972863  0.943997  0.385640  1
  Au  Au97  1  0.734153  0.355186  0.689521  1
  Au  Au98  1  0.265847  0.855186  0.310479  1
  Au  Au99  1  0.013461  0.250000  0.761041  1
