# generated using pymatgen
data_Sm2V2Ni10P7
_symmetry_space_group_name_H-M   'P 1'
_cell_length_a   9.15918882
_cell_length_b   9.17846160
_cell_length_c   3.70118900
_cell_angle_alpha   90.00000000
_cell_angle_beta   90.00000000
_cell_angle_gamma   120.18883559
_symmetry_Int_Tables_number   1
_chemical_formula_structural   Sm2V2Ni10P7
_chemical_formula_sum   'Sm2 V2 Ni10 P7'
_cell_volume   268.94858481
_cell_formula_units_Z   1
loop_
 _symmetry_equiv_pos_site_id
 _symmetry_equiv_pos_as_xyz
  1  'x, y, z'
loop_
 _atom_site_type_symbol
 _atom_site_label
 _atom_site_symmetry_multiplicity
 _atom_site_fract_x
 _atom_site_fract_y
 _atom_site_fract_z
 _atom_site_occupancy
  Sm  Sm0  1  0.666668  0.332520  0.000000  1
  Sm  Sm1  1  0.332384  0.669292  0.500000  1
  V  V2  1  0.902034  0.115200  0.000000  1
  V  V3  1  0.885267  0.786950  0.000000  1
  Ni  Ni4  1  0.433880  0.063151  0.500000  1
  Ni  Ni5  1  0.940375  0.370225  0.500000  1
  Ni  Ni6  1  0.628401  0.568143  0.500000  1
  Ni  Ni7  1  0.156436  0.278443  0.500000  1
  Ni  Ni8  1  0.718551  0.873001  0.500000  1
  Ni  Ni9  1  0.124796  0.848781  0.500000  1
  Ni  Ni10  1  0.383188  0.431580  0.000000  1
  Ni  Ni11  1  0.564841  0.949163  0.000000  1
  Ni  Ni12  1  0.050956  0.615758  0.000000  1
  Ni  Ni13  1  0.215840  0.097013  0.000000  1
  P  P14  1  0.109472  0.402263  0.000000  1
  P  P15  1  0.597816  0.708725  0.000000  1
  P  P16  1  0.289119  0.891345  0.000000  1
  P  P17  1  0.000121  0.000871  0.500000  1
  P  P18  1  0.405484  0.294315  0.500000  1
  P  P19  1  0.703881  0.108961  0.500000  1
  P  P20  1  0.890489  0.594300  0.500000  1
