# generated using pymatgen
data_SiNiAs2Pd3Rh2
_symmetry_space_group_name_H-M   'P 1'
_cell_length_a   6.36031200
_cell_length_b   6.41854667
_cell_length_c   3.67529600
_cell_angle_alpha   90.00000000
_cell_angle_beta   90.00000000
_cell_angle_gamma   119.70032281
_symmetry_Int_Tables_number   1
_chemical_formula_structural   SiNiAs2Pd3Rh2
_chemical_formula_sum   'Si1 Ni1 As2 Pd3 Rh2'
_cell_volume   130.32917068
_cell_formula_units_Z   1
loop_
 _symmetry_equiv_pos_site_id
 _symmetry_equiv_pos_as_xyz
  1  'x, y, z'
loop_
 _atom_site_type_symbol
 _atom_site_label
 _atom_site_symmetry_multiplicity
 _atom_site_fract_x
 _atom_site_fract_y
 _atom_site_fract_z
 _atom_site_occupancy
  Si  Si0  1  0.005441  0.000000  0.500000  1
  Ni  Ni1  1  0.748543  0.000000  0.000000  1
  As  As2  1  0.339784  0.672042  0.000000  1
  As  As3  1  0.667743  0.327958  0.000000  1
  Pd  Pd4  1  0.975122  0.368646  0.500000  1
  Pd  Pd5  1  0.606477  0.631354  0.500000  1
  Pd  Pd6  1  0.403230  0.000000  0.500000  1
  Rh  Rh7  1  0.997889  0.742117  0.000000  1
  Rh  Rh8  1  0.255772  0.257883  0.000000  1
