# generated using pymatgen
data_DyY4Co9(P6Ru5)2
_symmetry_space_group_name_H-M   'P 1'
_cell_length_a   12.35692406
_cell_length_b   12.31833158
_cell_length_c   3.77333800
_cell_angle_alpha   90.00000000
_cell_angle_beta   90.00000000
_cell_angle_gamma   119.81715967
_symmetry_Int_Tables_number   1
_chemical_formula_structural   DyY4Co9(P6Ru5)2
_chemical_formula_sum   'Dy1 Y4 Co9 P12 Ru10'
_cell_volume   498.32860482
_cell_formula_units_Z   1
loop_
 _symmetry_equiv_pos_site_id
 _symmetry_equiv_pos_as_xyz
  1  'x, y, z'
loop_
 _atom_site_type_symbol
 _atom_site_label
 _atom_site_symmetry_multiplicity
 _atom_site_fract_x
 _atom_site_fract_y
 _atom_site_fract_z
 _atom_site_occupancy
  Dy  Dy0  1  0.999576  0.818739  0.500000  1
  Y  Y1  1  0.663643  0.333430  0.000000  1
  Y  Y2  1  0.332953  0.666905  0.000000  1
  Y  Y3  1  0.183342  0.182014  0.500000  1
  Y  Y4  1  0.818349  0.998414  0.500000  1
  Co  Co5  1  0.802448  0.630346  0.000000  1
  Co  Co6  1  0.368403  0.170930  0.000000  1
  Co  Co7  1  0.195500  0.828256  0.000000  1
  Co  Co8  1  0.629275  0.800361  0.000000  1
  Co  Co9  1  0.176373  0.370311  0.000000  1
  Co  Co10  1  0.718570  0.718385  0.500000  1
  Co  Co11  1  0.279551  0.999642  0.500000  1
  Co  Co12  1  0.007169  0.285256  0.500000  1
  Co  Co13  1  0.999563  0.998965  0.000000  1
  P  P14  1  0.363597  0.363509  0.000000  1
  P  P15  1  0.633258  0.997236  0.000000  1
  P  P16  1  0.000564  0.637629  0.000000  1
  P  P17  1  0.838260  0.315819  0.500000  1
  P  P18  1  0.684866  0.524069  0.500000  1
  P  P19  1  0.473130  0.159410  0.500000  1
  P  P20  1  0.315653  0.840550  0.500000  1
  P  P21  1  0.524264  0.683493  0.500000  1
  P  P22  1  0.161991  0.478098  0.500000  1
  P  P23  1  0.820163  0.820254  0.000000  1
  P  P24  1  0.178072  0.999633  0.000000  1
  P  P25  1  0.005679  0.181231  0.000000  1
  Ru  Ru26  1  0.555416  0.553946  0.000000  1
  Ru  Ru27  1  0.440189  0.995430  0.000000  1
  Ru  Ru28  1  0.008697  0.450717  0.000000  1
  Ru  Ru29  1  0.827207  0.198113  0.000000  1
  Ru  Ru30  1  0.639826  0.124895  0.500000  1
  Ru  Ru31  1  0.872970  0.519370  0.500000  1
  Ru  Ru32  1  0.480175  0.352395  0.500000  1
  Ru  Ru33  1  0.129504  0.650188  0.500000  1
  Ru  Ru34  1  0.518247  0.870207  0.500000  1
  Ru  Ru35  1  0.353555  0.481854  0.500000  1
