# generated using pymatgen
data_CeDy2(InRh)3
_symmetry_space_group_name_H-M   'P 1'
_cell_length_a   7.68954080
_cell_length_b   7.36309145
_cell_length_c   4.02351000
_cell_angle_alpha   90.00000000
_cell_angle_beta   90.00000000
_cell_angle_gamma   121.53050199
_symmetry_Int_Tables_number   1
_chemical_formula_structural   CeDy2(InRh)3
_chemical_formula_sum   'Ce1 Dy2 In3 Rh3'
_cell_volume   194.17338739
_cell_formula_units_Z   1
loop_
 _symmetry_equiv_pos_site_id
 _symmetry_equiv_pos_as_xyz
  1  'x, y, z'
loop_
 _atom_site_type_symbol
 _atom_site_label
 _atom_site_symmetry_multiplicity
 _atom_site_fract_x
 _atom_site_fract_y
 _atom_site_fract_z
 _atom_site_occupancy
  Ce  Ce0  1  0.582333  0.000106  0.499999  1
  Dy  Dy1  1  0.404218  0.406393  0.499999  1
  Dy  Dy2  1  0.997743  0.593282  0.499999  1
  In  In3  1  0.242448  0.999461  0.000000  1
  In  In4  1  0.009179  0.264524  0.000000  1
  In  In5  1  0.744301  0.735766  0.000000  1
  Rh  Rh6  1  0.665980  0.309099  0.000000  1
  Rh  Rh7  1  0.356873  0.691128  0.000000  1
  Rh  Rh8  1  0.997024  0.000339  0.499999  1
