# generated using pymatgen
data_HfScV3Si4
_symmetry_space_group_name_H-M   'P 1'
_cell_length_a   6.60571643
_cell_length_b   6.60606852
_cell_length_c   12.21917873
_cell_angle_alpha   90.03094171
_cell_angle_beta   89.97514384
_cell_angle_gamma   89.96697492
_symmetry_Int_Tables_number   1
_chemical_formula_structural   HfScV3Si4
_chemical_formula_sum   'Hf4 Sc4 V12 Si16'
_cell_volume   533.21804844
_cell_formula_units_Z   4
loop_
 _symmetry_equiv_pos_site_id
 _symmetry_equiv_pos_as_xyz
  1  'x, y, z'
loop_
 _atom_site_type_symbol
 _atom_site_label
 _atom_site_symmetry_multiplicity
 _atom_site_fract_x
 _atom_site_fract_y
 _atom_site_fract_z
 _atom_site_occupancy
  Hf  Hf0  1  0.002989  0.660705  0.029755  1
  Hf  Hf1  1  0.838838  0.503428  0.280098  1
  Hf  Hf2  1  0.161312  0.497627  0.780056  1
  Hf  Hf3  1  0.502346  0.838256  0.719661  1
  Sc  Sc4  1  0.498686  0.162243  0.220290  1
  Sc  Sc5  1  0.998403  0.338169  0.529312  1
  Sc  Sc6  1  0.662031  0.000962  0.970498  1
  Sc  Sc7  1  0.337874  0.998483  0.470436  1
  V  V8  1  0.330934  0.334490  0.999509  1
  V  V9  1  0.165653  0.830862  0.249529  1
  V  V10  1  0.832899  0.167199  0.750207  1
  V  V11  1  0.667386  0.667435  0.500251  1
  V  V12  1  0.005204  0.157859  0.126042  1
  V  V13  1  0.342712  0.506408  0.375893  1
  V  V14  1  0.657722  0.495850  0.875924  1
  V  V15  1  0.505311  0.343750  0.624977  1
  V  V16  1  0.494668  0.657160  0.123283  1
  V  V17  1  0.994553  0.841452  0.627705  1
  V  V18  1  0.157485  0.004317  0.873311  1
  V  V19  1  0.842595  0.993490  0.373053  1
  Si  Si20  1  0.294320  0.961637  0.064750  1
  Si  Si21  1  0.537991  0.794825  0.314743  1
  Si  Si22  1  0.460898  0.206810  0.815352  1
  Si  Si23  1  0.793572  0.539123  0.684470  1
  Si  Si24  1  0.208742  0.458890  0.185574  1
  Si  Si25  1  0.707857  0.039960  0.563684  1
  Si  Si26  1  0.958542  0.290785  0.935611  1
  Si  Si27  1  0.039940  0.707531  0.436189  1
  Si  Si28  1  0.703052  0.369610  0.071114  1
  Si  Si29  1  0.129892  0.203171  0.320328  1
  Si  Si30  1  0.870313  0.795701  0.821508  1
  Si  Si31  1  0.204334  0.128971  0.678906  1
  Si  Si32  1  0.794615  0.872179  0.179147  1
  Si  Si33  1  0.295821  0.629023  0.570583  1
  Si  Si34  1  0.372068  0.705551  0.928641  1
  Si  Si35  1  0.628442  0.296089  0.429612  1
