# generated using pymatgen
data_Er20CoBi10Ir
_symmetry_space_group_name_H-M   'P 1'
_cell_length_a   8.01141756
_cell_length_b   9.36246900
_cell_length_c   12.03922733
_cell_angle_alpha   90.00000000
_cell_angle_beta   90.10789970
_cell_angle_gamma   90.00000000
_symmetry_Int_Tables_number   1
_chemical_formula_structural   Er20CoBi10Ir
_chemical_formula_sum   'Er20 Co1 Bi10 Ir1'
_cell_volume   903.02049148
_cell_formula_units_Z   1
loop_
 _symmetry_equiv_pos_site_id
 _symmetry_equiv_pos_as_xyz
  1  'x, y, z'
loop_
 _atom_site_type_symbol
 _atom_site_label
 _atom_site_symmetry_multiplicity
 _atom_site_fract_x
 _atom_site_fract_y
 _atom_site_fract_z
 _atom_site_occupancy
  Er  Er0  1  0.431521  0.178135  0.564448  1
  Er  Er1  1  0.571416  0.823702  0.062592  1
  Er  Er2  1  0.068697  0.722213  0.434867  1
  Er  Er3  1  0.929171  0.270647  0.936558  1
  Er  Er4  1  0.068697  0.277787  0.434867  1
  Er  Er5  1  0.929171  0.729353  0.936558  1
  Er  Er6  1  0.431521  0.821865  0.564448  1
  Er  Er7  1  0.571416  0.176298  0.062592  1
  Er  Er8  1  0.572609  0.500000  0.772715  1
  Er  Er9  1  0.426939  0.500000  0.272161  1
  Er  Er10  1  0.908133  0.000000  0.201029  1
  Er  Er11  1  0.089425  0.000000  0.707280  1
  Er  Er12  1  0.259703  0.500000  0.993380  1
  Er  Er13  1  0.738915  0.500000  0.493962  1
  Er  Er14  1  0.198930  0.000000  0.997267  1
  Er  Er15  1  0.801655  0.000000  0.496225  1
  Er  Er16  1  0.090007  0.500000  0.718615  1
  Er  Er17  1  0.909461  0.500000  0.217519  1
  Er  Er18  1  0.377049  0.000000  0.304254  1
  Er  Er19  1  0.628725  0.000000  0.809266  1
  Co  Co20  1  0.828091  0.000000  0.988159  1
  Bi  Bi21  1  0.813259  0.740819  0.672352  1
  Bi  Bi22  1  0.186261  0.259187  0.171749  1
  Bi  Bi23  1  0.679966  0.242389  0.325169  1
  Bi  Bi24  1  0.320224  0.757902  0.825657  1
  Bi  Bi25  1  0.679966  0.757611  0.325169  1
  Bi  Bi26  1  0.320224  0.242098  0.825657  1
  Bi  Bi27  1  0.813259  0.259181  0.672352  1
  Bi  Bi28  1  0.186261  0.740813  0.171749  1
  Bi  Bi29  1  0.346981  0.500000  0.527321  1
  Bi  Bi30  1  0.653072  0.500000  0.026908  1
  Ir  Ir31  1  0.169276  0.000000  0.487157  1
