# generated using pymatgen
data_Hf6Ti3NbGa5Ge
_symmetry_space_group_name_H-M   'P 1'
_cell_length_a   7.89911002
_cell_length_b   7.89175717
_cell_length_c   5.44631407
_cell_angle_alpha   90.01073504
_cell_angle_beta   90.00765904
_cell_angle_gamma   120.03215599
_symmetry_Int_Tables_number   1
_chemical_formula_structural   Hf6Ti3NbGa5Ge
_chemical_formula_sum   'Hf6 Ti3 Nb1 Ga5 Ge1'
_cell_volume   293.93029705
_cell_formula_units_Z   1
loop_
 _symmetry_equiv_pos_site_id
 _symmetry_equiv_pos_as_xyz
  1  'x, y, z'
loop_
 _atom_site_type_symbol
 _atom_site_label
 _atom_site_symmetry_multiplicity
 _atom_site_fract_x
 _atom_site_fract_y
 _atom_site_fract_z
 _atom_site_occupancy
  Hf  Hf0  1  0.243852  0.998649  0.248914  1
  Hf  Hf1  1  0.753910  0.998815  0.751275  1
  Hf  Hf2  1  0.001782  0.244290  0.248241  1
  Hf  Hf3  1  0.000115  0.757569  0.751388  1
  Hf  Hf4  1  0.756307  0.756943  0.248781  1
  Hf  Hf5  1  0.241339  0.243737  0.751305  1
  Ti  Ti6  1  0.667055  0.332792  0.000246  1
  Ti  Ti7  1  0.666766  0.332639  0.499671  1
  Ti  Ti8  1  0.334456  0.667459  0.499692  1
  Nb  Nb9  1  0.334174  0.667342  0.000478  1
  Ga  Ga10  1  0.398130  0.002316  0.748491  1
  Ga  Ga11  1  0.998026  0.600301  0.251803  1
  Ga  Ga12  1  0.998042  0.398515  0.748177  1
  Ga  Ga13  1  0.400023  0.397355  0.251674  1
  Ga  Ga14  1  0.601755  0.599275  0.748362  1
  Ge  Ge15  1  0.604265  0.002002  0.251504  1
