# generated using pymatgen
data_Sc2Mn2Cr2Si5
_symmetry_space_group_name_H-M   'P 1'
_cell_length_a   4.92258438
_cell_length_b   7.50016805
_cell_length_c   9.16247170
_cell_angle_alpha   114.16235916
_cell_angle_beta   105.58194735
_cell_angle_gamma   90.00220052
_symmetry_Int_Tables_number   1
_chemical_formula_structural   Sc2Mn2Cr2Si5
_chemical_formula_sum   'Sc4 Mn4 Cr4 Si10'
_cell_volume   294.96243406
_cell_formula_units_Z   2
loop_
 _symmetry_equiv_pos_site_id
 _symmetry_equiv_pos_as_xyz
  1  'x, y, z'
loop_
 _atom_site_type_symbol
 _atom_site_label
 _atom_site_symmetry_multiplicity
 _atom_site_fract_x
 _atom_site_fract_y
 _atom_site_fract_z
 _atom_site_occupancy
  Sc  Sc0  1  0.141887  0.022290  0.284038  1
  Sc  Sc1  1  0.641943  0.261745  0.283897  1
  Sc  Sc2  1  0.357027  0.738888  0.714238  1
  Sc  Sc3  1  0.857233  0.975340  0.714213  1
  Mn  Mn4  1  0.061785  0.311427  0.123588  1
  Mn  Mn5  1  0.561917  0.812027  0.123482  1
  Mn  Mn6  1  0.441208  0.691249  0.382442  1
  Mn  Mn7  1  0.941269  0.691279  0.382620  1
  Cr  Cr8  1  0.058127  0.308151  0.616441  1
  Cr  Cr9  1  0.558349  0.308196  0.616318  1
  Cr  Cr10  1  0.438650  0.193651  0.877337  1
  Cr  Cr11  1  0.938675  0.683837  0.877532  1
  Si  Si12  1  0.249918  0.999954  0.999821  1
  Si  Si13  1  0.749909  0.999991  0.999847  1
  Si  Si14  1  0.565755  0.492445  0.131712  1
  Si  Si15  1  0.065914  0.639189  0.131767  1
  Si  Si16  1  0.709221  0.999218  0.419022  1
  Si  Si17  1  0.209744  0.419938  0.419139  1
  Si  Si18  1  0.788624  0.580761  0.577476  1
  Si  Si19  1  0.289046  0.996733  0.577561  1
  Si  Si20  1  0.936810  0.357104  0.873780  1
  Si  Si21  1  0.436977  0.516586  0.873726  1
