# generated using pymatgen
data_Hf3Nb3FeB4Ru9
_symmetry_space_group_name_H-M   'P 1'
_cell_length_a   9.39482652
_cell_length_b   9.39482665
_cell_length_c   3.09366000
_cell_angle_alpha   90.00000000
_cell_angle_beta   90.00000000
_cell_angle_gamma   89.55865163
_symmetry_Int_Tables_number   1
_chemical_formula_structural   Hf3Nb3FeB4Ru9
_chemical_formula_sum   'Hf3 Nb3 Fe1 B4 Ru9'
_cell_volume   273.04688926
_cell_formula_units_Z   1
loop_
 _symmetry_equiv_pos_site_id
 _symmetry_equiv_pos_as_xyz
  1  'x, y, z'
loop_
 _atom_site_type_symbol
 _atom_site_label
 _atom_site_symmetry_multiplicity
 _atom_site_fract_x
 _atom_site_fract_y
 _atom_site_fract_z
 _atom_site_occupancy
  Hf  Hf0  1  0.822153  0.678147  0.000000  1
  Hf  Hf1  1  0.178147  0.322153  0.000000  1
  Hf  Hf2  1  0.328417  0.828417  0.000000  1
  Nb  Nb3  1  0.670078  0.170078  0.000000  1
  Nb  Nb4  1  0.499832  0.501182  0.000000  1
  Nb  Nb5  1  0.001182  0.999832  0.000000  1
  Fe  Fe6  1  0.503783  0.003783  0.500000  1
  B  B7  1  0.613131  0.889041  0.000000  1
  B  B8  1  0.389041  0.113131  0.000000  1
  B  B9  1  0.121028  0.621028  0.000000  1
  B  B10  1  0.877257  0.377257  0.000000  1
  Ru  Ru11  1  0.567307  0.725063  0.500000  1
  Ru  Ru12  1  0.435671  0.276052  0.500000  1
  Ru  Ru13  1  0.069271  0.781769  0.500000  1
  Ru  Ru14  1  0.926051  0.215967  0.500000  1
  Ru  Ru15  1  0.281769  0.569271  0.500000  1
  Ru  Ru16  1  0.715967  0.426051  0.500000  1
  Ru  Ru17  1  0.225063  0.067307  0.500000  1
  Ru  Ru18  1  0.776052  0.935671  0.500000  1
  Ru  Ru19  1  0.998800  0.498800  0.500000  1
