# generated using pymatgen
data_USN
_symmetry_space_group_name_H-M   'P 1'
_cell_length_a   3.75528500
_cell_length_b   3.75528500
_cell_length_c   6.67581100
_cell_angle_alpha   90.00000000
_cell_angle_beta   90.00000000
_cell_angle_gamma   90.00000000
_symmetry_Int_Tables_number   1
_chemical_formula_structural   USN
_chemical_formula_sum   'U2 S2 N2'
_cell_volume   94.14339111
_cell_formula_units_Z   2
loop_
 _symmetry_equiv_pos_site_id
 _symmetry_equiv_pos_as_xyz
  1  'x, y, z'
loop_
 _atom_site_type_symbol
 _atom_site_label
 _atom_site_symmetry_multiplicity
 _atom_site_fract_x
 _atom_site_fract_y
 _atom_site_fract_z
 _atom_site_occupancy
  U  U0  1  0.000000  0.500000  0.814466  1
  U  U1  1  0.500000  0.000000  0.185534  1
  S  S2  1  0.500000  0.000000  0.631393  1
  S  S3  1  0.000000  0.500000  0.368607  1
  N  N4  1  0.000000  0.000000  0.000000  1
  N  N5  1  0.500000  0.500000  0.000000  1
