# generated using pymatgen
data_LiPt(S2O7)2
_symmetry_space_group_name_H-M   'P 1'
_cell_length_a   5.47733711
_cell_length_b   6.74841904
_cell_length_c   8.72848992
_cell_angle_alpha   106.09437485
_cell_angle_beta   92.70870950
_cell_angle_gamma   103.02221574
_symmetry_Int_Tables_number   1
_chemical_formula_structural   LiPt(S2O7)2
_chemical_formula_sum   'Li1 Pt1 S4 O14'
_cell_volume   299.93518172
_cell_formula_units_Z   1
loop_
 _symmetry_equiv_pos_site_id
 _symmetry_equiv_pos_as_xyz
  1  'x, y, z'
loop_
 _atom_site_type_symbol
 _atom_site_label
 _atom_site_symmetry_multiplicity
 _atom_site_fract_x
 _atom_site_fract_y
 _atom_site_fract_z
 _atom_site_occupancy
  Li  Li0  1  0.500000  0.000000  0.000000  1
  Pt  Pt1  1  0.500000  0.500000  0.500000  1
  S  S2  1  0.929404  0.738405  0.776713  1
  S  S3  1  0.070596  0.261595  0.223287  1
  S  S4  1  0.650211  0.300704  0.754057  1
  S  S5  1  0.349789  0.699296  0.245943  1
  O  O6  1  0.841949  0.670117  0.591446  1
  O  O7  1  0.158051  0.329883  0.408554  1
  O  O8  1  0.447945  0.394093  0.695482  1
  O  O9  1  0.552055  0.605907  0.304518  1
  O  O10  1  0.194787  0.834943  0.799440  1
  O  O11  1  0.805213  0.165057  0.200560  1
  O  O12  1  0.762359  0.850571  0.864445  1
  O  O13  1  0.237641  0.149429  0.135555  1
  O  O14  1  0.589023  0.256879  0.901176  1
  O  O15  1  0.410977  0.743121  0.098824  1
  O  O16  1  0.907739  0.516644  0.815851  1
  O  O17  1  0.092261  0.483356  0.184149  1
  O  O18  1  0.736342  0.152219  0.631525  1
  O  O19  1  0.263658  0.847781  0.368475  1
