# generated using pymatgen
data_Ca2B4Os3C
_symmetry_space_group_name_H-M   'P 1'
_cell_length_a   5.62446022
_cell_length_b   5.62445950
_cell_length_c   7.92708824
_cell_angle_alpha   58.84755529
_cell_angle_beta   58.84755748
_cell_angle_gamma   42.23351376
_symmetry_Int_Tables_number   1
_chemical_formula_structural   Ca2B4Os3C
_chemical_formula_sum   'Ca2 B4 Os3 C1'
_cell_volume   140.26316049
_cell_formula_units_Z   1
loop_
 _symmetry_equiv_pos_site_id
 _symmetry_equiv_pos_as_xyz
  1  'x, y, z'
loop_
 _atom_site_type_symbol
 _atom_site_label
 _atom_site_symmetry_multiplicity
 _atom_site_fract_x
 _atom_site_fract_y
 _atom_site_fract_z
 _atom_site_occupancy
  Ca  Ca0  1  0.392103  0.913937  0.746527  1
  Ca  Ca1  1  0.086063  0.607897  0.253473  1
  B  B2  1  0.540464  0.533785  0.376818  1
  B  B3  1  0.466215  0.459536  0.623182  1
  B  B4  1  0.073677  0.627978  0.810604  1
  B  B5  1  0.372022  0.926323  0.189396  1
  Os  Os6  1  0.007307  0.992693  0.500000  1
  Os  Os7  1  0.611846  0.126544  0.907117  1
  Os  Os8  1  0.873456  0.388154  0.092883  1
  C  C9  1  0.743119  0.256881  0.000000  1
