# generated using pymatgen
data_Dy16Tm3LuPb16
_symmetry_space_group_name_H-M   'P 1'
_cell_length_a   8.17542005
_cell_length_b   8.25982205
_cell_length_c   15.62009000
_cell_angle_alpha   90.00000000
_cell_angle_beta   90.00000000
_cell_angle_gamma   90.01215967
_symmetry_Int_Tables_number   1
_chemical_formula_structural   Dy16Tm3LuPb16
_chemical_formula_sum   'Dy16 Tm3 Lu1 Pb16'
_cell_volume   1054.78583389
_cell_formula_units_Z   1
loop_
 _symmetry_equiv_pos_site_id
 _symmetry_equiv_pos_as_xyz
  1  'x, y, z'
loop_
 _atom_site_type_symbol
 _atom_site_label
 _atom_site_symmetry_multiplicity
 _atom_site_fract_x
 _atom_site_fract_y
 _atom_site_fract_z
 _atom_site_occupancy
  Dy  Dy0  1  0.376586  0.841587  0.879133  1
  Dy  Dy1  1  0.876597  0.658402  0.620884  1
  Dy  Dy2  1  0.623265  0.158324  0.379117  1
  Dy  Dy3  1  0.123497  0.341509  0.120875  1
  Dy  Dy4  1  0.623265  0.158324  0.120883  1
  Dy  Dy5  1  0.123497  0.341509  0.379125  1
  Dy  Dy6  1  0.376586  0.841587  0.620867  1
  Dy  Dy7  1  0.876597  0.658402  0.879116  1
  Dy  Dy8  1  0.535963  0.323594  0.900126  1
  Dy  Dy9  1  0.035948  0.176408  0.599858  1
  Dy  Dy10  1  0.463993  0.676465  0.400146  1
  Dy  Dy11  1  0.964099  0.823635  0.099873  1
  Dy  Dy12  1  0.463993  0.676465  0.099854  1
  Dy  Dy13  1  0.964099  0.823635  0.400127  1
  Dy  Dy14  1  0.535963  0.323594  0.599874  1
  Dy  Dy15  1  0.035948  0.176408  0.900142  1
  Tm  Tm16  1  0.208450  0.504360  0.750000  1
  Tm  Tm17  1  0.708462  0.995682  0.750000  1
  Tm  Tm18  1  0.791552  0.495706  0.250000  1
  Lu  Lu19  1  0.291439  0.004422  0.250000  1
  Pb  Pb20  1  0.281220  0.032819  0.043583  1
  Pb  Pb21  1  0.781210  0.467190  0.456527  1
  Pb  Pb22  1  0.718780  0.967167  0.543491  1
  Pb  Pb23  1  0.218780  0.532823  0.956513  1
  Pb  Pb24  1  0.718780  0.967167  0.956509  1
  Pb  Pb25  1  0.218780  0.532823  0.543487  1
  Pb  Pb26  1  0.281220  0.032819  0.456417  1
  Pb  Pb27  1  0.781210  0.467190  0.043473  1
  Pb  Pb28  1  0.571410  0.626038  0.750000  1
  Pb  Pb29  1  0.071399  0.873959  0.750000  1
  Pb  Pb30  1  0.428565  0.373849  0.250000  1
  Pb  Pb31  1  0.928884  0.125896  0.250000  1
  Pb  Pb32  1  0.347746  0.154809  0.750000  1
  Pb  Pb33  1  0.847748  0.345125  0.750000  1
  Pb  Pb34  1  0.652214  0.845174  0.250000  1
  Pb  Pb35  1  0.152256  0.655135  0.250000  1
