# generated using pymatgen
data_Tb2YHo2Si3
_symmetry_space_group_name_H-M   'P 1'
_cell_length_a   8.45436832
_cell_length_b   8.45033940
_cell_length_c   6.35623700
_cell_angle_alpha   90.00000000
_cell_angle_beta   90.00000000
_cell_angle_gamma   119.98423106
_symmetry_Int_Tables_number   1
_chemical_formula_structural   Tb2YHo2Si3
_chemical_formula_sum   'Tb4 Y2 Ho4 Si6'
_cell_volume   393.32813896
_cell_formula_units_Z   2
loop_
 _symmetry_equiv_pos_site_id
 _symmetry_equiv_pos_as_xyz
  1  'x, y, z'
loop_
 _atom_site_type_symbol
 _atom_site_label
 _atom_site_symmetry_multiplicity
 _atom_site_fract_x
 _atom_site_fract_y
 _atom_site_fract_z
 _atom_site_occupancy
  Tb  Tb0  1  0.000017  0.756716  0.750000  1
  Tb  Tb1  1  0.000017  0.243301  0.250000  1
  Tb  Tb2  1  0.756559  0.756572  0.250000  1
  Tb  Tb3  1  0.756559  0.999987  0.750000  1
  Y  Y4  1  0.243374  0.243335  0.750000  1
  Y  Y5  1  0.243374  0.000039  0.250000  1
  Ho  Ho6  1  0.333312  0.666656  0.500000  1
  Ho  Ho7  1  0.666585  0.333292  0.000000  1
  Ho  Ho8  1  0.666585  0.333292  0.500000  1
  Ho  Ho9  1  0.333312  0.666656  0.000000  1
  Si  Si10  1  0.394822  0.000201  0.750000  1
  Si  Si11  1  0.394822  0.394621  0.250000  1
  Si  Si12  1  0.000279  0.605490  0.250000  1
  Si  Si13  1  0.000279  0.394789  0.750000  1
  Si  Si14  1  0.605053  0.604967  0.750000  1
  Si  Si15  1  0.605053  0.000086  0.250000  1
