# generated using pymatgen
data_Zr2Sc6Nb12Si15Sn
_symmetry_space_group_name_H-M   'P 1'
_cell_length_a   6.74819629
_cell_length_b   6.94168821
_cell_length_c   13.24670600
_cell_angle_alpha   89.80444932
_cell_angle_beta   90.30015491
_cell_angle_gamma   90.06099402
_symmetry_Int_Tables_number   1
_chemical_formula_structural   Zr2Sc6Nb12Si15Sn
_chemical_formula_sum   'Zr2 Sc6 Nb12 Si15 Sn1'
_cell_volume   620.51456601
_cell_formula_units_Z   1
loop_
 _symmetry_equiv_pos_site_id
 _symmetry_equiv_pos_as_xyz
  1  'x, y, z'
loop_
 _atom_site_type_symbol
 _atom_site_label
 _atom_site_symmetry_multiplicity
 _atom_site_fract_x
 _atom_site_fract_y
 _atom_site_fract_z
 _atom_site_occupancy
  Zr  Zr0  1  0.495340  0.670343  0.600476  1
  Zr  Zr1  1  0.001636  0.824571  0.903621  1
  Sc  Sc2  1  0.498997  0.325601  0.094478  1
  Sc  Sc3  1  0.015557  0.183731  0.400072  1
  Sc  Sc4  1  0.496908  0.334791  0.402788  1
  Sc  Sc5  1  0.998979  0.173411  0.094471  1
  Sc  Sc6  1  0.498583  0.675635  0.905717  1
  Sc  Sc7  1  0.004116  0.819670  0.600042  1
  Nb  Nb8  1  0.655955  0.183180  0.631204  1
  Nb  Nb9  1  0.160232  0.326158  0.876664  1
  Nb  Nb10  1  0.335263  0.826166  0.123396  1
  Nb  Nb11  1  0.845791  0.657765  0.369909  1
  Nb  Nb12  1  0.330182  0.824813  0.373475  1
  Nb  Nb13  1  0.836854  0.671815  0.123160  1
  Nb  Nb14  1  0.665407  0.172606  0.875754  1
  Nb  Nb15  1  0.163952  0.329662  0.627023  1
  Nb  Nb16  1  0.836409  0.497045  0.751757  1
  Nb  Nb17  1  0.336879  0.004977  0.750440  1
  Nb  Nb18  1  0.163053  0.503994  0.248676  1
  Nb  Nb19  1  0.662101  0.991844  0.243587  1
  Si  Si20  1  0.167958  0.531633  0.039976  1
  Si  Si21  1  0.331926  0.034494  0.960227  1
  Si  Si22  1  0.829558  0.464553  0.538909  1
  Si  Si23  1  0.321496  0.035500  0.540915  1
  Si  Si24  1  0.829654  0.466451  0.960513  1
  Si  Si25  1  0.668628  0.966087  0.038776  1
  Si  Si26  1  0.171126  0.534855  0.462411  1
  Si  Si27  1  0.457592  0.388487  0.754756  1
  Si  Si28  1  0.960120  0.114495  0.750241  1
  Si  Si29  1  0.539567  0.614671  0.248618  1
  Si  Si30  1  0.038219  0.887056  0.248212  1
  Si  Si31  1  0.704059  0.864972  0.751000  1
  Si  Si32  1  0.204035  0.635558  0.752746  1
  Si  Si33  1  0.297436  0.136112  0.248123  1
  Si  Si34  1  0.792677  0.358502  0.247360  1
  Sn  Sn35  1  0.683747  0.968800  0.460505  1
