# generated using pymatgen
data_Dy18HoErSn16
_symmetry_space_group_name_H-M   'P 1'
_cell_length_a   8.03160900
_cell_length_b   8.17967807
_cell_length_c   15.45552600
_cell_angle_alpha   90.00000000
_cell_angle_beta   90.00000000
_cell_angle_gamma   89.96897214
_symmetry_Int_Tables_number   1
_chemical_formula_structural   Dy18HoErSn16
_chemical_formula_sum   'Dy18 Ho1 Er1 Sn16'
_cell_volume   1015.36571627
_cell_formula_units_Z   1
loop_
 _symmetry_equiv_pos_site_id
 _symmetry_equiv_pos_as_xyz
  1  'x, y, z'
loop_
 _atom_site_type_symbol
 _atom_site_label
 _atom_site_symmetry_multiplicity
 _atom_site_fract_x
 _atom_site_fract_y
 _atom_site_fract_z
 _atom_site_occupancy
  Dy  Dy0  1  0.367666  0.835959  0.878055  1
  Dy  Dy1  1  0.868021  0.663768  0.621938  1
  Dy  Dy2  1  0.632236  0.163938  0.378084  1
  Dy  Dy3  1  0.132172  0.336089  0.121806  1
  Dy  Dy4  1  0.632236  0.163938  0.121916  1
  Dy  Dy5  1  0.132172  0.336089  0.378194  1
  Dy  Dy6  1  0.367666  0.835959  0.621945  1
  Dy  Dy7  1  0.868021  0.663768  0.878062  1
  Dy  Dy8  1  0.521001  0.320395  0.902206  1
  Dy  Dy9  1  0.021220  0.179829  0.597785  1
  Dy  Dy10  1  0.478929  0.679701  0.402271  1
  Dy  Dy11  1  0.978853  0.820281  0.097780  1
  Dy  Dy12  1  0.478929  0.679701  0.097729  1
  Dy  Dy13  1  0.978853  0.820281  0.402220  1
  Dy  Dy14  1  0.521001  0.320395  0.597794  1
  Dy  Dy15  1  0.021220  0.179829  0.902215  1
  Dy  Dy16  1  0.698608  0.997420  0.750000  1
  Dy  Dy17  1  0.301324  0.002647  0.250000  1
  Ho  Ho18  1  0.801267  0.497344  0.250000  1
  Er  Er19  1  0.198954  0.502868  0.750000  1
  Sn  Sn20  1  0.292149  0.034981  0.041789  1
  Sn  Sn21  1  0.792129  0.464895  0.458164  1
  Sn  Sn22  1  0.707859  0.964970  0.541879  1
  Sn  Sn23  1  0.207831  0.534967  0.957780  1
  Sn  Sn24  1  0.707859  0.964970  0.958121  1
  Sn  Sn25  1  0.207831  0.534967  0.542220  1
  Sn  Sn26  1  0.292149  0.034981  0.458211  1
  Sn  Sn27  1  0.792129  0.464895  0.041836  1
  Sn  Sn28  1  0.564769  0.618547  0.750000  1
  Sn  Sn29  1  0.065633  0.880764  0.750000  1
  Sn  Sn30  1  0.434529  0.381163  0.250000  1
  Sn  Sn31  1  0.934535  0.118950  0.250000  1
  Sn  Sn32  1  0.329216  0.147983  0.750000  1
  Sn  Sn33  1  0.829654  0.353128  0.750000  1
  Sn  Sn34  1  0.670621  0.852624  0.250000  1
  Sn  Sn35  1  0.170757  0.647015  0.250000  1
