# generated using pymatgen
data_MgIn3P6N13
_symmetry_space_group_name_H-M   'P 1'
_cell_length_a   7.28082588
_cell_length_b   7.28082649
_cell_length_c   7.21021900
_cell_angle_alpha   109.27489669
_cell_angle_beta   109.27489836
_cell_angle_gamma   109.66682568
_symmetry_Int_Tables_number   1
_chemical_formula_structural   MgIn3P6N13
_chemical_formula_sum   'Mg1 In3 P6 N13'
_cell_volume   294.94050624
_cell_formula_units_Z   1
loop_
 _symmetry_equiv_pos_site_id
 _symmetry_equiv_pos_as_xyz
  1  'x, y, z'
loop_
 _atom_site_type_symbol
 _atom_site_label
 _atom_site_symmetry_multiplicity
 _atom_site_fract_x
 _atom_site_fract_y
 _atom_site_fract_z
 _atom_site_occupancy
  Mg  Mg0  1  0.000000  0.000000  0.678960  1
  In  In1  1  0.292451  0.292451  0.288706  1
  In  In2  1  0.000000  0.707549  0.996255  1
  In  In3  1  0.707549  0.000000  0.996255  1
  P  P4  1  0.497412  0.249634  0.752820  1
  P  P5  1  0.502588  0.752222  0.255407  1
  P  P6  1  0.750366  0.247778  0.503185  1
  P  P7  1  0.249634  0.497412  0.752820  1
  P  P8  1  0.752222  0.502588  0.255407  1
  P  P9  1  0.247778  0.750366  0.503185  1
  N  N10  1  0.000000  0.000000  0.976956  1
  N  N11  1  0.000000  0.726264  0.441528  1
  N  N12  1  0.277518  0.713648  0.279573  1
  N  N13  1  0.286352  0.563870  0.565925  1
  N  N14  1  0.567532  0.567532  0.293895  1
  N  N15  1  0.563870  0.286352  0.565925  1
  N  N16  1  0.726264  0.000000  0.441528  1
  N  N17  1  0.432468  0.000000  0.726362  1
  N  N18  1  0.722482  0.436130  0.002055  1
  N  N19  1  0.273736  0.273736  0.715263  1
  N  N20  1  0.713648  0.277518  0.279573  1
  N  N21  1  0.000000  0.432468  0.726362  1
  N  N22  1  0.436130  0.722482  0.002055  1
