# generated using pymatgen
data_Dy3Ho7(SiBi)4
_symmetry_space_group_name_H-M   'P 1'
_cell_length_a   8.63832309
_cell_length_b   8.63281249
_cell_length_c   7.90514108
_cell_angle_alpha   89.98803003
_cell_angle_beta   89.99775448
_cell_angle_gamma   125.63575326
_symmetry_Int_Tables_number   1
_chemical_formula_structural   Dy3Ho7(SiBi)4
_chemical_formula_sum   'Dy3 Ho7 Si4 Bi4'
_cell_volume   479.11699651
_cell_formula_units_Z   1
loop_
 _symmetry_equiv_pos_site_id
 _symmetry_equiv_pos_as_xyz
  1  'x, y, z'
loop_
 _atom_site_type_symbol
 _atom_site_label
 _atom_site_symmetry_multiplicity
 _atom_site_fract_x
 _atom_site_fract_y
 _atom_site_fract_z
 _atom_site_occupancy
  Dy  Dy0  1  0.043418  0.287247  0.335052  1
  Dy  Dy1  1  0.956552  0.712801  0.664929  1
  Dy  Dy2  1  0.456587  0.212841  0.835048  1
  Ho  Ho3  1  0.786799  0.543592  0.164843  1
  Ho  Ho4  1  0.543568  0.786868  0.164830  1
  Ho  Ho5  1  0.213194  0.456456  0.835215  1
  Ho  Ho6  1  0.713143  0.956451  0.664810  1
  Ho  Ho7  1  0.286846  0.043581  0.335176  1
  Ho  Ho8  1  0.999857  0.999937  0.000047  1
  Ho  Ho9  1  0.500008  0.500074  0.499907  1
  Si  Si10  1  0.366383  0.366262  0.132676  1
  Si  Si11  1  0.633678  0.634039  0.867516  1
  Si  Si12  1  0.133735  0.133984  0.632690  1
  Si  Si13  1  0.866027  0.866011  0.367187  1
  Bi  Bi14  1  0.792438  0.207596  0.999853  1
  Bi  Bi15  1  0.207579  0.792132  0.000407  1
  Bi  Bi16  1  0.707375  0.292167  0.499721  1
  Bi  Bi17  1  0.292813  0.707962  0.500094  1
