# generated using pymatgen
data_Nd3ErAl18(RePd2)2
_symmetry_space_group_name_H-M   'P 1'
_cell_length_a   7.64293382
_cell_length_b   7.66032138
_cell_length_c   9.61720700
_cell_angle_alpha   90.00000000
_cell_angle_beta   90.00000000
_cell_angle_gamma   118.56849505
_symmetry_Int_Tables_number   1
_chemical_formula_structural   Nd3ErAl18(RePd2)2
_chemical_formula_sum   'Nd3 Er1 Al18 Re2 Pd4'
_cell_volume   494.50679401
_cell_formula_units_Z   1
loop_
 _symmetry_equiv_pos_site_id
 _symmetry_equiv_pos_as_xyz
  1  'x, y, z'
loop_
 _atom_site_type_symbol
 _atom_site_label
 _atom_site_symmetry_multiplicity
 _atom_site_fract_x
 _atom_site_fract_y
 _atom_site_fract_z
 _atom_site_occupancy
  Nd  Nd0  1  0.995378  0.679903  0.250000  1
  Nd  Nd1  1  0.006569  0.319418  0.750000  1
  Nd  Nd2  1  0.679692  0.994358  0.250000  1
  Er  Er3  1  0.314529  0.006109  0.750000  1
  Al  Al4  1  0.136618  0.135322  0.250000  1
  Al  Al5  1  0.865947  0.864969  0.750000  1
  Al  Al6  1  0.004861  0.334881  0.075204  1
  Al  Al7  1  0.998563  0.667053  0.922123  1
  Al  Al8  1  0.998563  0.667053  0.577877  1
  Al  Al9  1  0.334810  0.003644  0.427995  1
  Al  Al10  1  0.004861  0.334881  0.424796  1
  Al  Al11  1  0.662100  0.995847  0.578010  1
  Al  Al12  1  0.662100  0.995847  0.921990  1
  Al  Al13  1  0.334810  0.003644  0.072005  1
  Al  Al14  1  0.331193  0.329030  0.546722  1
  Al  Al15  1  0.670181  0.669836  0.457838  1
  Al  Al16  1  0.670181  0.669836  0.042162  1
  Al  Al17  1  0.331193  0.329030  0.953278  1
  Al  Al18  1  0.345974  0.551374  0.250000  1
  Al  Al19  1  0.651008  0.444775  0.750000  1
  Al  Al20  1  0.551219  0.344946  0.250000  1
  Al  Al21  1  0.447702  0.657210  0.750000  1
  Re  Re22  1  0.001070  0.000540  0.998553  1
  Re  Re23  1  0.001070  0.000540  0.501447  1
  Pd  Pd24  1  0.671327  0.328348  0.999491  1
  Pd  Pd25  1  0.328576  0.671628  0.999426  1
  Pd  Pd26  1  0.328576  0.671628  0.500574  1
  Pd  Pd27  1  0.671327  0.328348  0.500509  1
