# generated using pymatgen
data_TbBi(PS4)2
_symmetry_space_group_name_H-M   'P 1'
_cell_length_a   6.66183800
_cell_length_b   8.95766841
_cell_length_c   12.87871335
_cell_angle_alpha   59.37061274
_cell_angle_beta   90.00000000
_cell_angle_gamma   90.00000000
_symmetry_Int_Tables_number   1
_chemical_formula_structural   TbBi(PS4)2
_chemical_formula_sum   'Tb2 Bi2 P4 S16'
_cell_volume   661.30639560
_cell_formula_units_Z   2
loop_
 _symmetry_equiv_pos_site_id
 _symmetry_equiv_pos_as_xyz
  1  'x, y, z'
loop_
 _atom_site_type_symbol
 _atom_site_label
 _atom_site_symmetry_multiplicity
 _atom_site_fract_x
 _atom_site_fract_y
 _atom_site_fract_z
 _atom_site_occupancy
  Tb  Tb0  1  0.681761  0.448425  0.163431  1
  Tb  Tb1  1  0.181761  0.551575  0.336568  1
  Bi  Bi2  1  0.327350  0.567128  0.831668  1
  Bi  Bi3  1  0.827350  0.432872  0.668332  1
  P  P4  1  0.230461  0.684458  0.043822  1
  P  P5  1  0.730461  0.315542  0.456178  1
  P  P6  1  0.766536  0.311526  0.963420  1
  P  P7  1  0.266536  0.688474  0.536580  1
  S  S8  1  0.237017  0.428019  0.586027  1
  S  S9  1  0.737017  0.571981  0.913973  1
  S  S10  1  0.772545  0.572632  0.408685  1
  S  S11  1  0.272545  0.427368  0.091315  1
  S  S12  1  0.253519  0.838459  0.355958  1
  S  S13  1  0.753519  0.161541  0.144042  1
  S  S14  1  0.742062  0.154725  0.637267  1
  S  S15  1  0.242062  0.845275  0.862733  1
  S  S16  1  0.529076  0.725793  0.606925  1
  S  S17  1  0.029076  0.274207  0.893075  1
  S  S18  1  0.465978  0.285426  0.383983  1
  S  S19  1  0.965978  0.714574  0.116017  1
  S  S20  1  0.047161  0.741545  0.626617  1
  S  S21  1  0.547161  0.258455  0.873383  1
  S  S22  1  0.946535  0.264351  0.363576  1
  S  S23  1  0.446535  0.735649  0.136424  1
