# generated using pymatgen
data_La8AlZn7Ir8
_symmetry_space_group_name_H-M   'P 1'
_cell_length_a   4.07088100
_cell_length_b   7.48270816
_cell_length_c   16.62939300
_cell_angle_alpha   89.70651772
_cell_angle_beta   90.00000000
_cell_angle_gamma   90.00000000
_symmetry_Int_Tables_number   1
_chemical_formula_structural   La8AlZn7Ir8
_chemical_formula_sum   'La8 Al1 Zn7 Ir8'
_cell_volume   506.54486173
_cell_formula_units_Z   1
loop_
 _symmetry_equiv_pos_site_id
 _symmetry_equiv_pos_as_xyz
  1  'x, y, z'
loop_
 _atom_site_type_symbol
 _atom_site_label
 _atom_site_symmetry_multiplicity
 _atom_site_fract_x
 _atom_site_fract_y
 _atom_site_fract_z
 _atom_site_occupancy
  La  La0  1  0.750000  0.329536  0.440710  1
  La  La1  1  0.250000  0.046266  0.717234  1
  La  La2  1  0.250000  0.546509  0.782685  1
  La  La3  1  0.250000  0.671224  0.560024  1
  La  La4  1  0.750000  0.826323  0.058228  1
  La  La5  1  0.250000  0.169752  0.939390  1
  La  La6  1  0.750000  0.459051  0.219504  1
  La  La7  1  0.750000  0.951732  0.283629  1
  Al  Al8  1  0.250000  0.129346  0.149926  1
  Zn  Zn9  1  0.250000  0.999390  0.440388  1
  Zn  Zn10  1  0.750000  0.872578  0.851081  1
  Zn  Zn11  1  0.750000  0.001297  0.559626  1
  Zn  Zn12  1  0.250000  0.497108  0.060316  1
  Zn  Zn13  1  0.750000  0.371733  0.649232  1
  Zn  Zn14  1  0.750000  0.499044  0.940664  1
  Zn  Zn15  1  0.250000  0.627731  0.352655  1
  Ir  Ir16  1  0.750000  0.254096  0.814390  1
  Ir  Ir17  1  0.250000  0.242562  0.306694  1
  Ir  Ir18  1  0.250000  0.737295  0.934026  1
  Ir  Ir19  1  0.250000  0.240416  0.564933  1
  Ir  Ir20  1  0.250000  0.761114  0.182598  1
  Ir  Ir21  1  0.750000  0.758958  0.435016  1
  Ir  Ir22  1  0.750000  0.252225  0.071416  1
  Ir  Ir23  1  0.750000  0.754717  0.685633  1
