# generated using pymatgen
data_Sr19Ca(CdAg3)3
_symmetry_space_group_name_H-M   'P 1'
_cell_length_a   8.56820500
_cell_length_b   8.56820500
_cell_length_c   16.02235600
_cell_angle_alpha   90.00000000
_cell_angle_beta   90.00000000
_cell_angle_gamma   90.00000000
_symmetry_Int_Tables_number   1
_chemical_formula_structural   Sr19Ca(CdAg3)3
_chemical_formula_sum   'Sr19 Ca1 Cd3 Ag9'
_cell_volume   1176.26743720
_cell_formula_units_Z   1
loop_
 _symmetry_equiv_pos_site_id
 _symmetry_equiv_pos_as_xyz
  1  'x, y, z'
loop_
 _atom_site_type_symbol
 _atom_site_label
 _atom_site_symmetry_multiplicity
 _atom_site_fract_x
 _atom_site_fract_y
 _atom_site_fract_z
 _atom_site_occupancy
  Sr  Sr0  1  0.000000  0.000000  0.754830  1
  Sr  Sr1  1  0.500000  0.500000  0.251145  1
  Sr  Sr2  1  0.000000  0.000000  0.245236  1
  Sr  Sr3  1  0.171896  0.664094  0.105608  1
  Sr  Sr4  1  0.667189  0.170644  0.610654  1
  Sr  Sr5  1  0.828104  0.335906  0.105608  1
  Sr  Sr6  1  0.332811  0.829356  0.610654  1
  Sr  Sr7  1  0.335906  0.171896  0.105608  1
  Sr  Sr8  1  0.829356  0.667189  0.610654  1
  Sr  Sr9  1  0.664094  0.828104  0.105608  1
  Sr  Sr10  1  0.170644  0.332811  0.610654  1
  Sr  Sr11  1  0.338358  0.824587  0.892222  1
  Sr  Sr12  1  0.832683  0.330596  0.391710  1
  Sr  Sr13  1  0.661642  0.175413  0.892222  1
  Sr  Sr14  1  0.167317  0.669404  0.391710  1
  Sr  Sr15  1  0.175413  0.338358  0.892222  1
  Sr  Sr16  1  0.669404  0.832683  0.391710  1
  Sr  Sr17  1  0.824587  0.661642  0.892222  1
  Sr  Sr18  1  0.330596  0.167317  0.391710  1
  Ca  Ca19  1  0.500000  0.500000  0.748673  1
  Cd  Cd20  1  0.000000  0.000000  0.500769  1
  Cd  Cd21  1  0.000000  0.000000  0.999361  1
  Cd  Cd22  1  0.500000  0.500000  0.498735  1
  Ag  Ag23  1  0.623093  0.122990  0.248432  1
  Ag  Ag24  1  0.129218  0.621623  0.751485  1
  Ag  Ag25  1  0.870782  0.378377  0.751485  1
  Ag  Ag26  1  0.376907  0.877010  0.248432  1
  Ag  Ag27  1  0.378377  0.129218  0.751485  1
  Ag  Ag28  1  0.877010  0.623093  0.248432  1
  Ag  Ag29  1  0.122990  0.376907  0.248432  1
  Ag  Ag30  1  0.621623  0.870782  0.751485  1
  Ag  Ag31  1  0.500000  0.500000  0.000812  1
