# generated using pymatgen
data_Mn2VCl13
_symmetry_space_group_name_H-M   'P 1'
_cell_length_a   11.11272500
_cell_length_b   9.25830657
_cell_length_c   9.86760782
_cell_angle_alpha   79.86709524
_cell_angle_beta   90.00000000
_cell_angle_gamma   90.00000000
_symmetry_Int_Tables_number   1
_chemical_formula_structural   Mn2VCl13
_chemical_formula_sum   'Mn4 V2 Cl26'
_cell_volume   999.39374529
_cell_formula_units_Z   2
loop_
 _symmetry_equiv_pos_site_id
 _symmetry_equiv_pos_as_xyz
  1  'x, y, z'
loop_
 _atom_site_type_symbol
 _atom_site_label
 _atom_site_symmetry_multiplicity
 _atom_site_fract_x
 _atom_site_fract_y
 _atom_site_fract_z
 _atom_site_occupancy
  Mn  Mn0  1  0.250000  0.838672  0.105145  1
  Mn  Mn1  1  0.750000  0.161328  0.894855  1
  Mn  Mn2  1  0.250000  0.671617  0.852357  1
  Mn  Mn3  1  0.750000  0.328383  0.147643  1
  V  V4  1  0.250000  0.261977  0.508294  1
  V  V5  1  0.750000  0.738023  0.491706  1
  Cl  Cl6  1  0.595840  0.809850  0.582306  1
  Cl  Cl7  1  0.095840  0.190150  0.417694  1
  Cl  Cl8  1  0.750000  0.416795  0.906784  1
  Cl  Cl9  1  0.250000  0.583205  0.093216  1
  Cl  Cl10  1  0.889300  0.160211  0.077458  1
  Cl  Cl11  1  0.389300  0.839789  0.922542  1
  Cl  Cl12  1  0.110700  0.839789  0.922542  1
  Cl  Cl13  1  0.610700  0.160211  0.077458  1
  Cl  Cl14  1  0.750000  0.206634  0.361221  1
  Cl  Cl15  1  0.250000  0.793366  0.638779  1
  Cl  Cl16  1  0.895688  0.476696  0.181576  1
  Cl  Cl17  1  0.395688  0.523304  0.818424  1
  Cl  Cl18  1  0.104312  0.523304  0.818424  1
  Cl  Cl19  1  0.604312  0.476696  0.181576  1
  Cl  Cl20  1  0.750000  0.921114  0.925054  1
  Cl  Cl21  1  0.250000  0.078886  0.074946  1
  Cl  Cl22  1  0.894976  0.189987  0.741140  1
  Cl  Cl23  1  0.394976  0.810013  0.258860  1
  Cl  Cl24  1  0.105024  0.810013  0.258860  1
  Cl  Cl25  1  0.605024  0.189987  0.741140  1
  Cl  Cl26  1  0.750000  0.818564  0.280679  1
  Cl  Cl27  1  0.250000  0.181436  0.719321  1
  Cl  Cl28  1  0.750000  0.509051  0.524042  1
  Cl  Cl29  1  0.250000  0.490949  0.475958  1
  Cl  Cl30  1  0.904160  0.809850  0.582306  1
  Cl  Cl31  1  0.404160  0.190150  0.417694  1
