# generated using pymatgen
data_Ho3ThScIr3
_symmetry_space_group_name_H-M   'P 1'
_cell_length_a   10.94299800
_cell_length_b   10.80694800
_cell_length_c   6.25378500
_cell_angle_alpha   90.00000000
_cell_angle_beta   90.00000000
_cell_angle_gamma   90.00000000
_symmetry_Int_Tables_number   1
_chemical_formula_structural   Ho3ThScIr3
_chemical_formula_sum   'Ho12 Th4 Sc4 Ir12'
_cell_volume   739.57518034
_cell_formula_units_Z   4
loop_
 _symmetry_equiv_pos_site_id
 _symmetry_equiv_pos_as_xyz
  1  'x, y, z'
loop_
 _atom_site_type_symbol
 _atom_site_label
 _atom_site_symmetry_multiplicity
 _atom_site_fract_x
 _atom_site_fract_y
 _atom_site_fract_z
 _atom_site_occupancy
  Ho  Ho0  1  0.587110  0.781088  0.877524  1
  Ho  Ho1  1  0.587110  0.218912  0.377524  1
  Ho  Ho2  1  0.412890  0.781088  0.377524  1
  Ho  Ho3  1  0.412890  0.218912  0.877524  1
  Ho  Ho4  1  0.210203  0.415584  0.621063  1
  Ho  Ho5  1  0.210203  0.584416  0.121063  1
  Ho  Ho6  1  0.789797  0.415584  0.121063  1
  Ho  Ho7  1  0.789797  0.584416  0.621063  1
  Ho  Ho8  1  0.917286  0.708968  0.116194  1
  Ho  Ho9  1  0.917286  0.291032  0.616194  1
  Ho  Ho10  1  0.082714  0.708968  0.616194  1
  Ho  Ho11  1  0.082714  0.291032  0.116194  1
  Th  Th12  1  0.288259  0.092243  0.377815  1
  Th  Th13  1  0.288259  0.907757  0.877815  1
  Th  Th14  1  0.711741  0.092243  0.877815  1
  Th  Th15  1  0.711741  0.907757  0.377815  1
  Sc  Sc16  1  0.000000  0.000000  0.503803  1
  Sc  Sc17  1  0.000000  0.000000  0.003803  1
  Sc  Sc18  1  0.500000  0.500000  0.011155  1
  Sc  Sc19  1  0.500000  0.500000  0.511155  1
  Ir  Ir20  1  0.849414  0.146461  0.247772  1
  Ir  Ir21  1  0.849414  0.853539  0.747772  1
  Ir  Ir22  1  0.150586  0.146461  0.747772  1
  Ir  Ir23  1  0.150586  0.853539  0.247772  1
  Ir  Ir24  1  0.648009  0.352497  0.756275  1
  Ir  Ir25  1  0.648009  0.647503  0.256275  1
  Ir  Ir26  1  0.351991  0.352497  0.256275  1
  Ir  Ir27  1  0.351991  0.647503  0.756275  1
  Ir  Ir28  1  0.500000  0.000000  0.115601  1
  Ir  Ir29  1  0.500000  0.000000  0.615601  1
  Ir  Ir30  1  0.000000  0.500000  0.876155  1
  Ir  Ir31  1  0.000000  0.500000  0.376155  1
