# generated using pymatgen
data_Na2Cr3Co7Ni2P7
_symmetry_space_group_name_H-M   'P 1'
_cell_length_a   9.02651551
_cell_length_b   9.02256912
_cell_length_c   3.58351300
_cell_angle_alpha   90.00000000
_cell_angle_beta   90.00000000
_cell_angle_gamma   119.87016870
_symmetry_Int_Tables_number   1
_chemical_formula_structural   Na2Cr3Co7Ni2P7
_chemical_formula_sum   'Na2 Cr3 Co7 Ni2 P7'
_cell_volume   253.07931708
_cell_formula_units_Z   1
loop_
 _symmetry_equiv_pos_site_id
 _symmetry_equiv_pos_as_xyz
  1  'x, y, z'
loop_
 _atom_site_type_symbol
 _atom_site_label
 _atom_site_symmetry_multiplicity
 _atom_site_fract_x
 _atom_site_fract_y
 _atom_site_fract_z
 _atom_site_occupancy
  Na  Na0  1  0.334949  0.666926  0.000000  1
  Na  Na1  1  0.667267  0.333300  0.500000  1
  Cr  Cr2  1  0.212976  0.119437  0.500000  1
  Cr  Cr3  1  0.878917  0.096643  0.500000  1
  Cr  Cr4  1  0.904048  0.780255  0.500000  1
  Co  Co5  1  0.118959  0.275203  0.000000  1
  Co  Co6  1  0.721835  0.840903  0.000000  1
  Co  Co7  1  0.156535  0.881427  0.000000  1
  Co  Co8  1  0.428766  0.371488  0.000000  1
  Co  Co9  1  0.049277  0.436462  0.500000  1
  Co  Co10  1  0.564999  0.612285  0.500000  1
  Co  Co11  1  0.389627  0.955676  0.500000  1
  Ni  Ni12  1  0.628231  0.060942  0.000000  1
  Ni  Ni13  1  0.940511  0.568157  0.000000  1
  P  P14  1  0.290333  0.409307  0.500000  1
  P  P15  1  0.593270  0.879719  0.500000  1
  P  P16  1  0.127009  0.713857  0.500000  1
  P  P17  1  0.408448  0.116044  0.000000  1
  P  P18  1  0.889493  0.296677  0.000000  1
  P  P19  1  0.698096  0.586201  0.000000  1
  P  P20  1  0.996455  0.999092  0.000000  1
