# generated using pymatgen
data_AcLa3(Yb3Si4)2
_symmetry_space_group_name_H-M   'P 1'
_cell_length_a   7.99328422
_cell_length_b   7.97797029
_cell_length_c   14.85386700
_cell_angle_alpha   90.00000000
_cell_angle_beta   90.00000000
_cell_angle_gamma   89.84548886
_symmetry_Int_Tables_number   1
_chemical_formula_structural   AcLa3(Yb3Si4)2
_chemical_formula_sum   'Ac2 La6 Yb12 Si16'
_cell_volume   947.23038881
_cell_formula_units_Z   2
loop_
 _symmetry_equiv_pos_site_id
 _symmetry_equiv_pos_as_xyz
  1  'x, y, z'
loop_
 _atom_site_type_symbol
 _atom_site_label
 _atom_site_symmetry_multiplicity
 _atom_site_fract_x
 _atom_site_fract_y
 _atom_site_fract_z
 _atom_site_occupancy
  Ac  Ac0  1  0.985567  0.628648  0.045325  1
  Ac  Ac1  1  0.014433  0.371352  0.545325  1
  La  La2  1  0.622130  0.990081  0.951430  1
  La  La3  1  0.122584  0.509701  0.798109  1
  La  La4  1  0.877416  0.490299  0.298109  1
  La  La5  1  0.510104  0.122848  0.202260  1
  La  La6  1  0.489896  0.877152  0.702260  1
  La  La7  1  0.377870  0.009919  0.451430  1
  Yb  Yb8  1  0.371242  0.493091  0.374667  1
  Yb  Yb9  1  0.870063  0.008284  0.374620  1
  Yb  Yb10  1  0.991629  0.129874  0.125816  1
  Yb  Yb11  1  0.008371  0.870126  0.625816  1
  Yb  Yb12  1  0.628758  0.506909  0.874667  1
  Yb  Yb13  1  0.492162  0.371299  0.625172  1
  Yb  Yb14  1  0.507838  0.628701  0.125172  1
  Yb  Yb15  1  0.129937  0.991716  0.874620  1
  Yb  Yb16  1  0.686418  0.688748  0.500147  1
  Yb  Yb17  1  0.811439  0.186360  0.750423  1
  Yb  Yb18  1  0.188561  0.813640  0.250423  1
  Yb  Yb19  1  0.313582  0.311252  0.000147  1
  Si  Si20  1  0.083981  0.716048  0.441316  1
  Si  Si21  1  0.916019  0.283952  0.941316  1
  Si  Si22  1  0.707143  0.078961  0.557715  1
  Si  Si23  1  0.211872  0.417534  0.192788  1
  Si  Si24  1  0.788129  0.582466  0.692788  1
  Si  Si25  1  0.420421  0.209942  0.808832  1
  Si  Si26  1  0.579579  0.790059  0.308832  1
  Si  Si27  1  0.292857  0.921039  0.057715  1
  Si  Si28  1  0.834697  0.795327  0.807372  1
  Si  Si29  1  0.165303  0.204673  0.307372  1
  Si  Si30  1  0.792845  0.836713  0.196008  1
  Si  Si31  1  0.298645  0.670225  0.556006  1
  Si  Si32  1  0.701355  0.329775  0.056006  1
  Si  Si33  1  0.660787  0.293342  0.441994  1
  Si  Si34  1  0.339213  0.706658  0.941994  1
  Si  Si35  1  0.207155  0.163287  0.696008  1
