# generated using pymatgen
data_SrNd4Co4I
_symmetry_space_group_name_H-M   'P 1'
_cell_length_a   4.02320500
_cell_length_b   4.02320361
_cell_length_c   19.37489800
_cell_angle_alpha   90.00000000
_cell_angle_beta   90.00000000
_cell_angle_gamma   119.99998673
_symmetry_Int_Tables_number   1
_chemical_formula_structural   SrNd4Co4I
_chemical_formula_sum   'Sr1 Nd4 Co4 I1'
_cell_volume   271.59032178
_cell_formula_units_Z   1
loop_
 _symmetry_equiv_pos_site_id
 _symmetry_equiv_pos_as_xyz
  1  'x, y, z'
loop_
 _atom_site_type_symbol
 _atom_site_label
 _atom_site_symmetry_multiplicity
 _atom_site_fract_x
 _atom_site_fract_y
 _atom_site_fract_z
 _atom_site_occupancy
  Sr  Sr0  1  0.333333  0.666667  0.250000  1
  Nd  Nd1  1  0.000000  0.000000  0.071966  1
  Nd  Nd2  1  0.000000  0.000000  0.882820  1
  Nd  Nd3  1  0.000000  0.000000  0.617180  1
  Nd  Nd4  1  0.000000  0.000000  0.428034  1
  Co  Co5  1  0.333333  0.666667  0.521895  1
  Co  Co6  1  0.666667  0.333333  0.522542  1
  Co  Co7  1  0.666667  0.333333  0.977458  1
  Co  Co8  1  0.333333  0.666667  0.978105  1
  I  I9  1  0.666667  0.333333  0.750000  1
