# generated using pymatgen
data_Er4Ru7W
_symmetry_space_group_name_H-M   'P 1'
_cell_length_a   5.44485500
_cell_length_b   5.21395083
_cell_length_c   8.94074100
_cell_angle_alpha   90.00000000
_cell_angle_beta   90.00000000
_cell_angle_gamma   121.47609782
_symmetry_Int_Tables_number   1
_chemical_formula_structural   Er4Ru7W
_chemical_formula_sum   'Er4 Ru7 W1'
_cell_volume   216.47289404
_cell_formula_units_Z   1
loop_
 _symmetry_equiv_pos_site_id
 _symmetry_equiv_pos_as_xyz
  1  'x, y, z'
loop_
 _atom_site_type_symbol
 _atom_site_label
 _atom_site_symmetry_multiplicity
 _atom_site_fract_x
 _atom_site_fract_y
 _atom_site_fract_z
 _atom_site_occupancy
  Er  Er0  1  0.335036  0.670074  0.430519  1
  Er  Er1  1  0.671883  0.343765  0.563725  1
  Er  Er2  1  0.671883  0.343765  0.936275  1
  Er  Er3  1  0.335036  0.670074  0.069481  1
  Ru  Ru4  1  0.170436  0.817555  0.750000  1
  Ru  Ru5  1  0.334277  0.165724  0.250000  1
  Ru  Ru6  1  0.822147  0.644294  0.250000  1
  Ru  Ru7  1  0.647118  0.817555  0.750000  1
  Ru  Ru8  1  0.009987  0.019974  0.000519  1
  Ru  Ru9  1  0.831447  0.165724  0.250000  1
  Ru  Ru10  1  0.009987  0.019974  0.499481  1
  W  W11  1  0.160762  0.321523  0.750000  1
