# generated using pymatgen
data_Ta3Nb9Ga8(PdC)4
_symmetry_space_group_name_H-M   'P 1'
_cell_length_a   8.37451985
_cell_length_b   8.37470811
_cell_length_c   8.37661912
_cell_angle_alpha   59.98485431
_cell_angle_beta   59.99183720
_cell_angle_gamma   59.97135530
_symmetry_Int_Tables_number   1
_chemical_formula_structural   Ta3Nb9Ga8(PdC)4
_chemical_formula_sum   'Ta3 Nb9 Ga8 Pd4 C4'
_cell_volume   415.25298789
_cell_formula_units_Z   1
loop_
 _symmetry_equiv_pos_site_id
 _symmetry_equiv_pos_as_xyz
  1  'x, y, z'
loop_
 _atom_site_type_symbol
 _atom_site_label
 _atom_site_symmetry_multiplicity
 _atom_site_fract_x
 _atom_site_fract_y
 _atom_site_fract_z
 _atom_site_occupancy
  Ta  Ta0  1  0.932344  0.932063  0.568007  1
  Ta  Ta1  1  0.681906  0.318456  0.681691  1
  Ta  Ta2  1  0.931436  0.568589  0.931560  1
  Nb  Nb3  1  0.567718  0.932487  0.567353  1
  Nb  Nb4  1  0.316802  0.683495  0.683740  1
  Nb  Nb5  1  0.683961  0.316389  0.316235  1
  Nb  Nb6  1  0.317455  0.682894  0.317017  1
  Nb  Nb7  1  0.683256  0.682922  0.317081  1
  Nb  Nb8  1  0.317801  0.317532  0.682628  1
  Nb  Nb9  1  0.566337  0.565867  0.934144  1
  Nb  Nb10  1  0.933266  0.566732  0.566939  1
  Nb  Nb11  1  0.566901  0.933195  0.933674  1
  Ga  Ga12  1  0.914077  0.913726  0.914877  1
  Ga  Ga13  1  0.992205  0.336650  0.335563  1
  Ga  Ga14  1  0.336724  0.992299  0.335782  1
  Ga  Ga15  1  0.335606  0.335296  0.992642  1
  Ga  Ga16  1  0.915223  0.257595  0.913654  1
  Ga  Ga17  1  0.914422  0.913574  0.257294  1
  Ga  Ga18  1  0.257871  0.914748  0.913821  1
  Ga  Ga19  1  0.335722  0.335245  0.336699  1
  Pd  Pd20  1  0.122964  0.126018  0.126894  1
  Pd  Pd21  1  0.626118  0.126077  0.122214  1
  Pd  Pd22  1  0.124474  0.624546  0.123747  1
  Pd  Pd23  1  0.121302  0.124770  0.625294  1
  C  C24  1  0.625726  0.623274  0.625816  1
  C  C25  1  0.123712  0.626328  0.626299  1
  C  C26  1  0.627659  0.124777  0.625130  1
  C  C27  1  0.627012  0.624458  0.124203  1
