# generated using pymatgen
data_Dy2MnP6BrN12
_symmetry_space_group_name_H-M   'P 1'
_cell_length_a   7.45982459
_cell_length_b   7.46941210
_cell_length_c   7.46941388
_cell_angle_alpha   108.01880172
_cell_angle_beta   110.49133483
_cell_angle_gamma   110.49130494
_symmetry_Int_Tables_number   1
_chemical_formula_structural   Dy2MnP6BrN12
_chemical_formula_sum   'Dy2 Mn1 P6 Br1 N12'
_cell_volume   317.89847810
_cell_formula_units_Z   1
loop_
 _symmetry_equiv_pos_site_id
 _symmetry_equiv_pos_as_xyz
  1  'x, y, z'
loop_
 _atom_site_type_symbol
 _atom_site_label
 _atom_site_symmetry_multiplicity
 _atom_site_fract_x
 _atom_site_fract_y
 _atom_site_fract_z
 _atom_site_occupancy
  Dy  Dy0  1  0.991129  0.354920  0.026833  1
  Dy  Dy1  1  0.991129  0.026833  0.354920  1
  Mn  Mn2  1  0.506248  0.016108  0.016108  1
  P  P3  1  0.489104  0.253141  0.743366  1
  P  P4  1  0.249822  0.752534  0.505728  1
  P  P5  1  0.734570  0.500892  0.257875  1
  P  P6  1  0.734570  0.257875  0.500892  1
  P  P7  1  0.489104  0.743366  0.253141  1
  P  P8  1  0.249822  0.505728  0.752534  1
  Br  Br9  1  0.062078  0.996541  0.996541  1
  N  N10  1  0.374860  0.676807  0.386619  1
  N  N11  1  0.674752  0.403723  0.403723  1
  N  N12  1  0.374860  0.386619  0.676807  1
  N  N13  1  0.705437  0.291420  0.713784  1
  N  N14  1  0.989102  0.586820  0.304112  1
  N  N15  1  0.284948  0.570866  0.997145  1
  N  N16  1  0.284948  0.997145  0.570866  1
  N  N17  1  0.989102  0.304112  0.586820  1
  N  N18  1  0.705437  0.713784  0.291420  1
  N  N19  1  0.587004  0.997745  0.297951  1
  N  N20  1  0.304964  0.725066  0.725066  1
  N  N21  1  0.587004  0.297951  0.997745  1
