# generated using pymatgen
data_Lu11ScCo5Bi
_symmetry_space_group_name_H-M   'P 1'
_cell_length_a   8.06745355
_cell_length_b   8.09412576
_cell_length_c   8.09412623
_cell_angle_alpha   111.32025984
_cell_angle_beta   110.64201396
_cell_angle_gamma   106.61836129
_symmetry_Int_Tables_number   1
_chemical_formula_structural   Lu11ScCo5Bi
_chemical_formula_sum   'Lu11 Sc1 Co5 Bi1'
_cell_volume   405.43612637
_cell_formula_units_Z   1
loop_
 _symmetry_equiv_pos_site_id
 _symmetry_equiv_pos_as_xyz
  1  'x, y, z'
loop_
 _atom_site_type_symbol
 _atom_site_label
 _atom_site_symmetry_multiplicity
 _atom_site_fract_x
 _atom_site_fract_y
 _atom_site_fract_z
 _atom_site_occupancy
  Lu  Lu0  1  0.821398  0.722720  0.541316  1
  Lu  Lu1  1  0.180765  0.281310  0.464569  1
  Lu  Lu2  1  0.180765  0.716197  0.899457  1
  Lu  Lu3  1  0.821398  0.280082  0.098676  1
  Lu  Lu4  1  0.681920  0.366035  0.687814  1
  Lu  Lu5  1  0.318632  0.632072  0.310936  1
  Lu  Lu6  1  0.681920  0.994106  0.315884  1
  Lu  Lu7  1  0.318632  0.007697  0.686561  1
  Lu  Lu8  1  0.589261  0.782533  0.806729  1
  Lu  Lu9  1  0.409429  0.217252  0.192176  1
  Lu  Lu10  1  0.975278  0.783413  0.191865  1
  Sc  Sc11  1  0.019151  0.212729  0.806422  1
  Co  Co12  1  0.655928  0.003219  0.652709  1
  Co  Co13  1  0.352506  0.000158  0.352347  1
  Co  Co14  1  0.114886  0.614650  0.500237  1
  Co  Co15  1  0.885912  0.386651  0.499260  1
  Co  Co16  1  0.998909  0.002350  0.996559  1
  Bi  Bi17  1  0.493311  0.496827  0.996484  1
