# generated using pymatgen
data_Th8MnTe17
_symmetry_space_group_name_H-M   'P 1'
_cell_length_a   9.11295036
_cell_length_b   9.11296158
_cell_length_c   12.07530665
_cell_angle_alpha   80.02182698
_cell_angle_beta   80.02189117
_cell_angle_gamma   64.25075115
_symmetry_Int_Tables_number   1
_chemical_formula_structural   Th8MnTe17
_chemical_formula_sum   'Th8 Mn1 Te17'
_cell_volume   884.12374048
_cell_formula_units_Z   1
loop_
 _symmetry_equiv_pos_site_id
 _symmetry_equiv_pos_as_xyz
  1  'x, y, z'
loop_
 _atom_site_type_symbol
 _atom_site_label
 _atom_site_symmetry_multiplicity
 _atom_site_fract_x
 _atom_site_fract_y
 _atom_site_fract_z
 _atom_site_occupancy
  Th  Th0  1  0.816302  0.302823  0.296919  1
  Th  Th1  1  0.302822  0.816301  0.296921  1
  Th  Th2  1  0.183698  0.697177  0.703081  1
  Th  Th3  1  0.697178  0.183699  0.703079  1
  Th  Th4  1  0.201484  0.201480  0.544190  1
  Th  Th5  1  0.798516  0.798520  0.455810  1
  Th  Th6  1  0.683441  0.683442  0.982032  1
  Th  Th7  1  0.316559  0.316558  0.017968  1
  Mn  Mn8  1  0.000000  0.000000  0.000000  1
  Te  Te9  1  0.820463  0.434021  0.532127  1
  Te  Te10  1  0.434021  0.820462  0.532127  1
  Te  Te11  1  0.179537  0.565979  0.467873  1
  Te  Te12  1  0.565979  0.179538  0.467873  1
  Te  Te13  1  0.945981  0.324199  0.031726  1
  Te  Te14  1  0.324199  0.945982  0.031726  1
  Te  Te15  1  0.054019  0.675801  0.968274  1
  Te  Te16  1  0.675801  0.054018  0.968274  1
  Te  Te17  1  0.211643  0.211643  0.278200  1
  Te  Te18  1  0.788357  0.788357  0.721800  1
  Te  Te19  1  0.058747  0.058747  0.772690  1
  Te  Te20  1  0.941253  0.941253  0.227310  1
  Te  Te21  1  0.301748  0.301749  0.753718  1
  Te  Te22  1  0.698252  0.698251  0.246282  1
  Te  Te23  1  0.520200  0.520200  0.832298  1
  Te  Te24  1  0.479800  0.479800  0.167702  1
  Te  Te25  1  0.000000  0.000000  0.500000  1
