# generated using pymatgen
data_Zr6Fe15CoSi6Mo
_symmetry_space_group_name_H-M   'P 1'
_cell_length_a   8.14778406
_cell_length_b   8.13942632
_cell_length_c   8.14778200
_cell_angle_alpha   59.96602745
_cell_angle_beta   60.00000025
_cell_angle_gamma   59.96602502
_symmetry_Int_Tables_number   1
_chemical_formula_structural   Zr6Fe15CoSi6Mo
_chemical_formula_sum   'Zr6 Fe15 Co1 Si6 Mo1'
_cell_volume   381.88667364
_cell_formula_units_Z   1
loop_
 _symmetry_equiv_pos_site_id
 _symmetry_equiv_pos_as_xyz
  1  'x, y, z'
loop_
 _atom_site_type_symbol
 _atom_site_label
 _atom_site_symmetry_multiplicity
 _atom_site_fract_x
 _atom_site_fract_y
 _atom_site_fract_z
 _atom_site_occupancy
  Zr  Zr0  1  0.710002  0.290115  0.289882  1
  Zr  Zr1  1  0.289882  0.290115  0.710002  1
  Zr  Zr2  1  0.289070  0.709524  0.712335  1
  Zr  Zr3  1  0.712335  0.709524  0.289070  1
  Zr  Zr4  1  0.289070  0.709524  0.289070  1
  Zr  Zr5  1  0.710002  0.290115  0.710002  1
  Fe  Fe6  1  0.122716  0.125164  0.629406  1
  Fe  Fe7  1  0.676755  0.969733  0.676755  1
  Fe  Fe8  1  0.370190  0.877070  0.876369  1
  Fe  Fe9  1  0.031216  0.322262  0.323262  1
  Fe  Fe10  1  0.970184  0.676911  0.676452  1
  Fe  Fe11  1  0.323262  0.322262  0.031216  1
  Fe  Fe12  1  0.676452  0.676911  0.970184  1
  Fe  Fe13  1  0.629406  0.125164  0.122716  1
  Fe  Fe14  1  0.676452  0.676911  0.676452  1
  Fe  Fe15  1  0.876369  0.877070  0.370190  1
  Fe  Fe16  1  0.122716  0.125164  0.122716  1
  Fe  Fe17  1  0.876516  0.370449  0.876516  1
  Fe  Fe18  1  0.876369  0.877070  0.876369  1
  Fe  Fe19  1  0.323262  0.322262  0.323262  1
  Fe  Fe20  1  0.123688  0.628938  0.123688  1
  Co  Co21  1  0.325084  0.024750  0.325084  1
  Si  Si22  1  0.999616  0.500324  0.999616  1
  Si  Si23  1  0.999727  0.000645  0.499814  1
  Si  Si24  1  0.500443  0.500324  0.999616  1
  Si  Si25  1  0.499814  0.000645  0.499814  1
  Si  Si26  1  0.499814  0.000645  0.999727  1
  Si  Si27  1  0.999616  0.500324  0.500443  1
  Mo  Mo28  1  0.999970  0.000089  0.999970  1
