# generated using pymatgen
data_NbPd6Au
_symmetry_space_group_name_H-M   'P 1'
_cell_length_a   8.39665371
_cell_length_b   8.39665439
_cell_length_c   8.39665342
_cell_angle_alpha   152.28825796
_cell_angle_beta   152.28826535
_cell_angle_gamma   39.59249460
_symmetry_Int_Tables_number   1
_chemical_formula_structural   NbPd6Au
_chemical_formula_sum   'Nb1 Pd6 Au1'
_cell_volume   127.78007856
_cell_formula_units_Z   1
loop_
 _symmetry_equiv_pos_site_id
 _symmetry_equiv_pos_as_xyz
  1  'x, y, z'
loop_
 _atom_site_type_symbol
 _atom_site_label
 _atom_site_symmetry_multiplicity
 _atom_site_fract_x
 _atom_site_fract_y
 _atom_site_fract_z
 _atom_site_occupancy
  Nb  Nb0  1  0.875995  0.875995  0.000000  1
  Pd  Pd1  1  0.374490  0.374490  0.000000  1
  Pd  Pd2  1  0.622962  0.622962  0.000000  1
  Pd  Pd3  1  0.994454  0.494454  0.500000  1
  Pd  Pd4  1  0.494454  0.994454  0.500000  1
  Pd  Pd5  1  0.255350  0.755350  0.500000  1
  Pd  Pd6  1  0.755350  0.255350  0.500000  1
  Au  Au7  1  0.126946  0.126946  0.000000  1
