# generated using pymatgen
data_Dy5Tm15(Bi2As)4
_symmetry_space_group_name_H-M   'P 1'
_cell_length_a   7.96137642
_cell_length_b   9.07832705
_cell_length_c   11.94317860
_cell_angle_alpha   89.99240463
_cell_angle_beta   89.96444299
_cell_angle_gamma   90.00969645
_symmetry_Int_Tables_number   1
_chemical_formula_structural   Dy5Tm15(Bi2As)4
_chemical_formula_sum   'Dy5 Tm15 Bi8 As4'
_cell_volume   863.20473785
_cell_formula_units_Z   1
loop_
 _symmetry_equiv_pos_site_id
 _symmetry_equiv_pos_as_xyz
  1  'x, y, z'
loop_
 _atom_site_type_symbol
 _atom_site_label
 _atom_site_symmetry_multiplicity
 _atom_site_fract_x
 _atom_site_fract_y
 _atom_site_fract_z
 _atom_site_occupancy
  Dy  Dy0  1  0.682416  0.555936  0.562299  1
  Dy  Dy1  1  0.636927  0.750284  0.293660  1
  Dy  Dy2  1  0.862947  0.750548  0.794566  1
  Dy  Dy3  1  0.362883  0.250161  0.706033  1
  Dy  Dy4  1  0.137081  0.250179  0.205840  1
  Tm  Tm5  1  0.818798  0.557890  0.062563  1
  Tm  Tm6  1  0.681662  0.942051  0.562694  1
  Tm  Tm7  1  0.181433  0.058106  0.937555  1
  Tm  Tm8  1  0.318741  0.442010  0.437335  1
  Tm  Tm9  1  0.181447  0.441970  0.937556  1
  Tm  Tm10  1  0.317872  0.057882  0.437282  1
  Tm  Tm11  1  0.818702  0.942275  0.062699  1
  Tm  Tm12  1  0.159751  0.750252  0.212033  1
  Tm  Tm13  1  0.340470  0.750499  0.712179  1
  Tm  Tm14  1  0.840445  0.249957  0.788119  1
  Tm  Tm15  1  0.659864  0.250105  0.287960  1
  Tm  Tm16  1  0.465605  0.750139  0.001201  1
  Tm  Tm17  1  0.034991  0.750217  0.500913  1
  Tm  Tm18  1  0.534244  0.249916  0.999044  1
  Tm  Tm19  1  0.965966  0.249923  0.498977  1
  Bi  Bi20  1  0.929324  0.510276  0.326369  1
  Bi  Bi21  1  0.570400  0.990079  0.826856  1
  Bi  Bi22  1  0.070589  0.010273  0.673426  1
  Bi  Bi23  1  0.429578  0.489901  0.173175  1
  Bi  Bi24  1  0.070914  0.490185  0.673580  1
  Bi  Bi25  1  0.429503  0.010267  0.173205  1
  Bi  Bi26  1  0.929663  0.990100  0.326613  1
  Bi  Bi27  1  0.570019  0.510271  0.827229  1
  As  As28  1  0.407625  0.751354  0.479329  1
  As  As29  1  0.091610  0.750052  0.979900  1
  As  As30  1  0.590000  0.246920  0.519538  1
  As  As31  1  0.908528  0.250023  0.020269  1
