# generated using pymatgen
data_YHo7Re(B8Ir)3
_symmetry_space_group_name_H-M   'P 1'
_cell_length_a   3.65476300
_cell_length_b   9.17463104
_cell_length_c   11.50665800
_cell_angle_alpha   90.12703279
_cell_angle_beta   90.00000000
_cell_angle_gamma   90.00000000
_symmetry_Int_Tables_number   1
_chemical_formula_structural   YHo7Re(B8Ir)3
_chemical_formula_sum   'Y1 Ho7 Re1 B24 Ir3'
_cell_volume   385.82997570
_cell_formula_units_Z   1
loop_
 _symmetry_equiv_pos_site_id
 _symmetry_equiv_pos_as_xyz
  1  'x, y, z'
loop_
 _atom_site_type_symbol
 _atom_site_label
 _atom_site_symmetry_multiplicity
 _atom_site_fract_x
 _atom_site_fract_y
 _atom_site_fract_z
 _atom_site_occupancy
  Y  Y0  1  0.000000  0.321136  0.413401  1
  Ho  Ho1  1  0.000000  0.682829  0.590849  1
  Ho  Ho2  1  0.000000  0.821232  0.082845  1
  Ho  Ho3  1  0.000000  0.175421  0.912046  1
  Ho  Ho4  1  0.000000  0.943742  0.373177  1
  Ho  Ho5  1  0.000000  0.053705  0.626222  1
  Ho  Ho6  1  0.000000  0.443702  0.125918  1
  Ho  Ho7  1  0.000000  0.557160  0.875241  1
  Re  Re8  1  0.000000  0.862478  0.821495  1
  B  B9  1  0.500000  0.553688  0.434194  1
  B  B10  1  0.500000  0.448009  0.566967  1
  B  B11  1  0.500000  0.053069  0.066325  1
  B  B12  1  0.500000  0.946910  0.933207  1
  B  B13  1  0.500000  0.749924  0.420759  1
  B  B14  1  0.500000  0.250879  0.579330  1
  B  B15  1  0.500000  0.248553  0.078799  1
  B  B16  1  0.500000  0.752441  0.920156  1
  B  B17  1  0.500000  0.792031  0.265452  1
  B  B18  1  0.500000  0.207848  0.733111  1
  B  B19  1  0.500000  0.292683  0.234274  1
  B  B20  1  0.500000  0.708105  0.766543  1
  B  B21  1  0.500000  0.631548  0.184713  1
  B  B22  1  0.500000  0.367922  0.815465  1
  B  B23  1  0.500000  0.132142  0.315000  1
  B  B24  1  0.500000  0.868483  0.685816  1
  B  B25  1  0.500000  0.981749  0.212703  1
  B  B26  1  0.500000  0.017155  0.786598  1
  B  B27  1  0.500000  0.481732  0.287194  1
  B  B28  1  0.500000  0.518047  0.714165  1
  B  B29  1  0.500000  0.610156  0.031757  1
  B  B30  1  0.500000  0.387518  0.969615  1
  B  B31  1  0.500000  0.110484  0.468888  1
  B  B32  1  0.500000  0.890035  0.529200  1
  Ir  Ir33  1  0.000000  0.637480  0.322627  1
  Ir  Ir34  1  0.000000  0.362883  0.678129  1
  Ir  Ir35  1  0.000000  0.137124  0.177822  1
