# generated using pymatgen
data_Sm3Sn4RuPb2
_symmetry_space_group_name_H-M   'P 1'
_cell_length_a   8.76796181
_cell_length_b   8.76796072
_cell_length_c   13.46882500
_cell_angle_alpha   90.00000000
_cell_angle_beta   90.00000000
_cell_angle_gamma   148.92008582
_symmetry_Int_Tables_number   1
_chemical_formula_structural   Sm3Sn4RuPb2
_chemical_formula_sum   'Sm6 Sn8 Ru2 Pb4'
_cell_volume   534.53090515
_cell_formula_units_Z   2
loop_
 _symmetry_equiv_pos_site_id
 _symmetry_equiv_pos_as_xyz
  1  'x, y, z'
loop_
 _atom_site_type_symbol
 _atom_site_label
 _atom_site_symmetry_multiplicity
 _atom_site_fract_x
 _atom_site_fract_y
 _atom_site_fract_z
 _atom_site_occupancy
  Sm  Sm0  1  0.602354  0.397646  0.250000  1
  Sm  Sm1  1  0.397646  0.602354  0.750000  1
  Sm  Sm2  1  0.395478  0.604522  0.400181  1
  Sm  Sm3  1  0.604522  0.395478  0.599819  1
  Sm  Sm4  1  0.395478  0.604522  0.099819  1
  Sm  Sm5  1  0.604522  0.395478  0.900181  1
  Sn  Sn6  1  0.958830  0.041170  0.250000  1
  Sn  Sn7  1  0.041170  0.958830  0.750000  1
  Sn  Sn8  1  0.744265  0.255736  0.432520  1
  Sn  Sn9  1  0.255736  0.744264  0.567480  1
  Sn  Sn10  1  0.744265  0.255736  0.067480  1
  Sn  Sn11  1  0.255736  0.744264  0.932520  1
  Sn  Sn12  1  0.232032  0.767968  0.250000  1
  Sn  Sn13  1  0.767968  0.232032  0.750000  1
  Ru  Ru14  1  0.801636  0.198364  0.250000  1
  Ru  Ru15  1  0.198364  0.801636  0.750000  1
  Pb  Pb16  1  0.924279  0.075721  0.925603  1
  Pb  Pb17  1  0.075721  0.924279  0.074397  1
  Pb  Pb18  1  0.924279  0.075721  0.574397  1
  Pb  Pb19  1  0.075721  0.924279  0.425603  1
