# generated using pymatgen
data_Tb5Ho5In8(CoPt)2
_symmetry_space_group_name_H-M   'P 1'
_cell_length_a   3.59424300
_cell_length_b   8.09603524
_cell_length_c   18.14004919
_cell_angle_alpha   89.91471766
_cell_angle_beta   90.00000000
_cell_angle_gamma   90.00000000
_symmetry_Int_Tables_number   1
_chemical_formula_structural   Tb5Ho5In8(CoPt)2
_chemical_formula_sum   'Tb5 Ho5 In8 Co2 Pt2'
_cell_volume   527.85884729
_cell_formula_units_Z   1
loop_
 _symmetry_equiv_pos_site_id
 _symmetry_equiv_pos_as_xyz
  1  'x, y, z'
loop_
 _atom_site_type_symbol
 _atom_site_label
 _atom_site_symmetry_multiplicity
 _atom_site_fract_x
 _atom_site_fract_y
 _atom_site_fract_z
 _atom_site_occupancy
  Tb  Tb0  1  0.000000  0.766873  0.776163  1
  Tb  Tb1  1  0.000000  0.243937  0.719583  1
  Tb  Tb2  1  0.000000  0.756267  0.280364  1
  Tb  Tb3  1  0.000000  0.999918  0.999987  1
  Tb  Tb4  1  0.000000  0.499958  0.499947  1
  Ho  Ho5  1  0.000000  0.113122  0.409572  1
  Ho  Ho6  1  0.000000  0.887063  0.590171  1
  Ho  Ho7  1  0.000000  0.381988  0.913389  1
  Ho  Ho8  1  0.000000  0.617951  0.086823  1
  Ho  Ho9  1  0.000000  0.233597  0.223908  1
  In  In10  1  0.500000  0.422546  0.351084  1
  In  In11  1  0.500000  0.577085  0.648673  1
  In  In12  1  0.500000  0.070903  0.848026  1
  In  In13  1  0.500000  0.929955  0.152097  1
  In  In14  1  0.500000  0.292683  0.067744  1
  In  In15  1  0.500000  0.707063  0.932640  1
  In  In16  1  0.500000  0.203438  0.568447  1
  In  In17  1  0.500000  0.796711  0.431506  1
  Co  Co18  1  0.500000  0.018997  0.305547  1
  Co  Co19  1  0.500000  0.981800  0.694211  1
  Pt  Pt20  1  0.500000  0.478435  0.803046  1
  Pt  Pt21  1  0.500000  0.519712  0.197073  1
