# generated using pymatgen
data_SmZnCo3C
_symmetry_space_group_name_H-M   'P 1'
_cell_length_a   5.14236500
_cell_length_b   5.14219092
_cell_length_c   6.72689100
_cell_angle_alpha   90.00000000
_cell_angle_beta   90.00000000
_cell_angle_gamma   120.00111345
_symmetry_Int_Tables_number   1
_chemical_formula_structural   SmZnCo3C
_chemical_formula_sum   'Sm2 Zn2 Co6 C2'
_cell_volume   154.04629080
_cell_formula_units_Z   2
loop_
 _symmetry_equiv_pos_site_id
 _symmetry_equiv_pos_as_xyz
  1  'x, y, z'
loop_
 _atom_site_type_symbol
 _atom_site_label
 _atom_site_symmetry_multiplicity
 _atom_site_fract_x
 _atom_site_fract_y
 _atom_site_fract_z
 _atom_site_occupancy
  Sm  Sm0  1  0.999982  0.000000  0.000000  1
  Sm  Sm1  1  0.999987  0.000000  0.500000  1
  Zn  Zn2  1  0.333285  0.666606  0.000000  1
  Zn  Zn3  1  0.666680  0.333394  0.000000  1
  Co  Co4  1  0.499984  0.000000  0.308700  1
  Co  Co5  1  0.499984  0.500000  0.308751  1
  Co  Co6  1  0.999983  0.500000  0.308751  1
  Co  Co7  1  0.499984  0.000000  0.691300  1
  Co  Co8  1  0.499984  0.500000  0.691249  1
  Co  Co9  1  0.999983  0.500000  0.691249  1
  C  C10  1  0.333348  0.666735  0.500000  1
  C  C11  1  0.666613  0.333265  0.500000  1
