# generated using pymatgen
data_Dy5Ho5(InSb2)2
_symmetry_space_group_name_H-M   'P 1'
_cell_length_a   8.96233200
_cell_length_b   8.95833109
_cell_length_c   6.43792200
_cell_angle_alpha   90.00011324
_cell_angle_beta   90.00017211
_cell_angle_gamma   120.01063831
_symmetry_Int_Tables_number   1
_chemical_formula_structural   Dy5Ho5(InSb2)2
_chemical_formula_sum   'Dy5 Ho5 In2 Sb4'
_cell_volume   447.58746345
_cell_formula_units_Z   1
loop_
 _symmetry_equiv_pos_site_id
 _symmetry_equiv_pos_as_xyz
  1  'x, y, z'
loop_
 _atom_site_type_symbol
 _atom_site_label
 _atom_site_symmetry_multiplicity
 _atom_site_fract_x
 _atom_site_fract_y
 _atom_site_fract_z
 _atom_site_occupancy
  Dy  Dy0  1  0.758498  0.998696  0.750003  1
  Dy  Dy1  1  0.758586  0.759879  0.250000  1
  Dy  Dy2  1  0.001986  0.241846  0.249999  1
  Dy  Dy3  1  0.002012  0.760138  0.749999  1
  Dy  Dy4  1  0.240440  0.237123  0.750003  1
  Ho  Ho5  1  0.334875  0.667468  0.000035  1
  Ho  Ho6  1  0.663435  0.331716  0.499980  1
  Ho  Ho7  1  0.663435  0.331714  0.000019  1
  Ho  Ho8  1  0.334873  0.667472  0.499962  1
  Ho  Ho9  1  0.240529  0.003278  0.250001  1
  In  In10  1  0.395003  0.998303  0.749998  1
  In  In11  1  0.394895  0.396435  0.249999  1
  Sb  Sb12  1  0.999526  0.607435  0.250001  1
  Sb  Sb13  1  0.999396  0.392202  0.749999  1
  Sb  Sb14  1  0.606321  0.605975  0.750001  1
  Sb  Sb15  1  0.606189  0.000318  0.250001  1
