# generated using pymatgen
data_Dy2V2C3
_symmetry_space_group_name_H-M   'P 1'
_cell_length_a   5.73197489
_cell_length_b   5.73197560
_cell_length_c   5.57134016
_cell_angle_alpha   74.12457455
_cell_angle_beta   74.12457544
_cell_angle_gamma   34.51529733
_symmetry_Int_Tables_number   1
_chemical_formula_structural   Dy2V2C3
_chemical_formula_sum   'Dy2 V2 C3'
_cell_volume   99.37443973
_cell_formula_units_Z   1
loop_
 _symmetry_equiv_pos_site_id
 _symmetry_equiv_pos_as_xyz
  1  'x, y, z'
loop_
 _atom_site_type_symbol
 _atom_site_label
 _atom_site_symmetry_multiplicity
 _atom_site_fract_x
 _atom_site_fract_y
 _atom_site_fract_z
 _atom_site_occupancy
  Dy  Dy0  1  0.390642  0.390642  0.315226  1
  Dy  Dy1  1  0.609358  0.609358  0.684774  1
  V  V2  1  0.152775  0.152775  0.122737  1
  V  V3  1  0.847225  0.847225  0.877263  1
  C  C4  1  0.723282  0.723282  0.228134  1
  C  C5  1  0.276718  0.276718  0.771866  1
  C  C6  1  0.000000  0.000000  0.000000  1
