# generated using pymatgen
data_Pr16Cd4AgRu3
_symmetry_space_group_name_H-M   'P 1'
_cell_length_a   10.02532870
_cell_length_b   10.07394092
_cell_length_c   10.07394000
_cell_angle_alpha   60.00000302
_cell_angle_beta   59.83947132
_cell_angle_gamma   59.83947068
_symmetry_Int_Tables_number   1
_chemical_formula_structural   Pr16Cd4AgRu3
_chemical_formula_sum   'Pr16 Cd4 Ag1 Ru3'
_cell_volume   717.66926848
_cell_formula_units_Z   1
loop_
 _symmetry_equiv_pos_site_id
 _symmetry_equiv_pos_as_xyz
  1  'x, y, z'
loop_
 _atom_site_type_symbol
 _atom_site_label
 _atom_site_symmetry_multiplicity
 _atom_site_fract_x
 _atom_site_fract_y
 _atom_site_fract_z
 _atom_site_occupancy
  Pr  Pr0  1  0.339363  0.355488  0.355488  1
  Pr  Pr1  1  0.339363  0.355488  0.949664  1
  Pr  Pr2  1  0.339363  0.949664  0.355488  1
  Pr  Pr3  1  0.965610  0.344797  0.344797  1
  Pr  Pr4  1  0.821212  0.191565  0.191565  1
  Pr  Pr5  1  0.189863  0.811033  0.811033  1
  Pr  Pr6  1  0.189863  0.811033  0.188071  1
  Pr  Pr7  1  0.821212  0.191565  0.795658  1
  Pr  Pr8  1  0.189863  0.188071  0.811033  1
  Pr  Pr9  1  0.821212  0.795658  0.191565  1
  Pr  Pr10  1  0.934333  0.563765  0.563765  1
  Pr  Pr11  1  0.556233  0.938851  0.938851  1
  Pr  Pr12  1  0.556233  0.938851  0.566063  1
  Pr  Pr13  1  0.934333  0.563765  0.938139  1
  Pr  Pr14  1  0.556233  0.566063  0.938851  1
  Pr  Pr15  1  0.934333  0.938139  0.563765  1
  Cd  Cd16  1  0.580761  0.579035  0.579035  1
  Cd  Cd17  1  0.580761  0.579035  0.261168  1
  Cd  Cd18  1  0.580761  0.261168  0.579035  1
  Cd  Cd19  1  0.260663  0.579778  0.579778  1
  Ag  Ag20  1  0.574474  0.141842  0.141842  1
  Ru  Ru21  1  0.144652  0.138507  0.138507  1
  Ru  Ru22  1  0.144652  0.138507  0.578333  1
  Ru  Ru23  1  0.144652  0.578333  0.138507  1
