# generated using pymatgen
data_PaCo21B6Mo
_symmetry_space_group_name_H-M   'P 1'
_cell_length_a   7.45516451
_cell_length_b   7.45516504
_cell_length_c   7.45516500
_cell_angle_alpha   60.00000460
_cell_angle_beta   60.00000225
_cell_angle_gamma   60.00000129
_symmetry_Int_Tables_number   1
_chemical_formula_structural   PaCo21B6Mo
_chemical_formula_sum   'Pa1 Co21 B6 Mo1'
_cell_volume   292.99268788
_cell_formula_units_Z   1
loop_
 _symmetry_equiv_pos_site_id
 _symmetry_equiv_pos_as_xyz
  1  'x, y, z'
loop_
 _atom_site_type_symbol
 _atom_site_label
 _atom_site_symmetry_multiplicity
 _atom_site_fract_x
 _atom_site_fract_y
 _atom_site_fract_z
 _atom_site_occupancy
  Pa  Pa0  1  0.750000  0.750000  0.750000  1
  Co  Co1  1  0.000000  0.000000  0.000000  1
  Co  Co2  1  0.613025  0.613025  0.160924  1
  Co  Co3  1  0.613025  0.160924  0.613025  1
  Co  Co4  1  0.160924  0.613025  0.613025  1
  Co  Co5  1  0.613025  0.613025  0.613025  1
  Co  Co6  1  0.380238  0.380238  0.859288  1
  Co  Co7  1  0.380238  0.859288  0.380238  1
  Co  Co8  1  0.859288  0.380238  0.380238  1
  Co  Co9  1  0.380238  0.380238  0.380238  1
  Co  Co10  1  0.002841  0.002841  0.334224  1
  Co  Co11  1  0.660093  0.002841  0.334224  1
  Co  Co12  1  0.002841  0.660093  0.334224  1
  Co  Co13  1  0.660093  0.334224  0.002841  1
  Co  Co14  1  0.002841  0.334224  0.002841  1
  Co  Co15  1  0.002841  0.334224  0.660093  1
  Co  Co16  1  0.334224  0.660093  0.002841  1
  Co  Co17  1  0.334224  0.002841  0.660093  1
  Co  Co18  1  0.334224  0.002841  0.002841  1
  Co  Co19  1  0.002841  0.002841  0.660093  1
  Co  Co20  1  0.002841  0.660093  0.002841  1
  Co  Co21  1  0.660093  0.002841  0.002841  1
  B  B22  1  0.725986  0.725986  0.274014  1
  B  B23  1  0.274014  0.725986  0.274014  1
  B  B24  1  0.725986  0.274014  0.274014  1
  B  B25  1  0.274014  0.274014  0.725986  1
  B  B26  1  0.725986  0.274014  0.725986  1
  B  B27  1  0.274014  0.725986  0.725986  1
  Mo  Mo28  1  0.250000  0.250000  0.250000  1
