# generated using pymatgen
data_TaAl7(IrRu)4
_symmetry_space_group_name_H-M   'P 1'
_cell_length_a   6.07979000
_cell_length_b   4.28935200
_cell_length_c   8.58087300
_cell_angle_alpha   90.00000000
_cell_angle_beta   89.99698313
_cell_angle_gamma   90.00000000
_symmetry_Int_Tables_number   1
_chemical_formula_structural   TaAl7(IrRu)4
_chemical_formula_sum   'Ta1 Al7 Ir4 Ru4'
_cell_volume   223.77508987
_cell_formula_units_Z   1
loop_
 _symmetry_equiv_pos_site_id
 _symmetry_equiv_pos_as_xyz
  1  'x, y, z'
loop_
 _atom_site_type_symbol
 _atom_site_label
 _atom_site_symmetry_multiplicity
 _atom_site_fract_x
 _atom_site_fract_y
 _atom_site_fract_z
 _atom_site_occupancy
  Ta  Ta0  1  0.999352  0.749999  0.124982  1
  Al  Al1  1  0.499585  0.749999  0.125037  1
  Al  Al2  1  0.000104  0.250001  0.379256  1
  Al  Al3  1  0.499965  0.250001  0.378278  1
  Al  Al4  1  0.499993  0.749999  0.624974  1
  Al  Al5  1  0.000548  0.749999  0.624984  1
  Al  Al6  1  0.499926  0.250001  0.871699  1
  Al  Al7  1  0.000143  0.250001  0.870741  1
  Ir  Ir8  1  0.742889  0.250001  0.125007  1
  Ir  Ir9  1  0.253127  0.749999  0.377002  1
  Ir  Ir10  1  0.750419  0.250001  0.625020  1
  Ir  Ir11  1  0.253155  0.749999  0.873029  1
  Ru  Ru12  1  0.254614  0.250001  0.124987  1
  Ru  Ru13  1  0.747296  0.749999  0.376411  1
  Ru  Ru14  1  0.251582  0.250001  0.624990  1
  Ru  Ru15  1  0.747300  0.749999  0.873601  1
