# generated using pymatgen
data_Dy3Er9Co4TcPb
_symmetry_space_group_name_H-M   'P 1'
_cell_length_a   8.27589835
_cell_length_b   8.27589702
_cell_length_c   8.27584301
_cell_angle_alpha   110.71312139
_cell_angle_beta   111.56080258
_cell_angle_gamma   106.19021741
_symmetry_Int_Tables_number   1
_chemical_formula_structural   Dy3Er9Co4TcPb
_chemical_formula_sum   'Dy3 Er9 Co4 Tc1 Pb1'
_cell_volume   435.24336491
_cell_formula_units_Z   1
loop_
 _symmetry_equiv_pos_site_id
 _symmetry_equiv_pos_as_xyz
  1  'x, y, z'
loop_
 _atom_site_type_symbol
 _atom_site_label
 _atom_site_symmetry_multiplicity
 _atom_site_fract_x
 _atom_site_fract_y
 _atom_site_fract_z
 _atom_site_occupancy
  Dy  Dy0  1  0.282392  0.184542  0.466933  1
  Dy  Dy1  1  0.717938  0.815878  0.533818  1
  Dy  Dy2  1  0.282373  0.815301  0.097672  1
  Er  Er3  1  0.718486  0.183880  0.902365  1
  Er  Er4  1  0.618795  0.310961  0.307255  1
  Er  Er5  1  0.381617  0.689327  0.692548  1
  Er  Er6  1  0.003223  0.310931  0.692548  1
  Er  Er7  1  0.996293  0.688461  0.307255  1
  Er  Er8  1  0.217253  0.413043  0.195155  1
  Er  Er9  1  0.782105  0.586096  0.804640  1
  Er  Er10  1  0.218545  0.022535  0.804640  1
  Er  Er11  1  0.782112  0.977902  0.195155  1
  Co  Co12  1  0.999309  0.377686  0.376995  1
  Co  Co13  1  0.000211  0.622002  0.622213  1
  Co  Co14  1  0.389182  0.889517  0.501108  1
  Co  Co15  1  0.611590  0.111925  0.501108  1
  Tc  Tc16  1  0.998753  0.000062  0.998813  1
  Pb  Pb17  1  0.499824  0.499950  0.999775  1
