# generated using pymatgen
data_Pr10SiIr2Pb3
_symmetry_space_group_name_H-M   'P 1'
_cell_length_a   8.33080244
_cell_length_b   9.22180251
_cell_length_c   12.79849978
_cell_angle_alpha   90.13747822
_cell_angle_beta   90.33140341
_cell_angle_gamma   90.23377385
_symmetry_Int_Tables_number   1
_chemical_formula_structural   Pr10SiIr2Pb3
_chemical_formula_sum   'Pr20 Si2 Ir4 Pb6'
_cell_volume   983.21741700
_cell_formula_units_Z   2
loop_
 _symmetry_equiv_pos_site_id
 _symmetry_equiv_pos_as_xyz
  1  'x, y, z'
loop_
 _atom_site_type_symbol
 _atom_site_label
 _atom_site_symmetry_multiplicity
 _atom_site_fract_x
 _atom_site_fract_y
 _atom_site_fract_z
 _atom_site_occupancy
  Pr  Pr0  1  0.658063  0.742794  0.719750  1
  Pr  Pr1  1  0.341937  0.257206  0.280250  1
  Pr  Pr2  1  0.172247  0.259737  0.790680  1
  Pr  Pr3  1  0.827753  0.740263  0.209320  1
  Pr  Pr4  1  0.141464  0.741665  0.808042  1
  Pr  Pr5  1  0.858536  0.258335  0.191958  1
  Pr  Pr6  1  0.623205  0.257204  0.696905  1
  Pr  Pr7  1  0.376795  0.742796  0.303095  1
  Pr  Pr8  1  0.546793  0.729767  0.998111  1
  Pr  Pr9  1  0.453207  0.270233  0.001889  1
  Pr  Pr10  1  0.059200  0.249108  0.501037  1
  Pr  Pr11  1  0.940800  0.750892  0.498963  1
  Pr  Pr12  1  0.818495  0.458400  0.928326  1
  Pr  Pr13  1  0.181505  0.541600  0.071674  1
  Pr  Pr14  1  0.327960  0.539185  0.580669  1
  Pr  Pr15  1  0.179180  0.966406  0.069799  1
  Pr  Pr16  1  0.672040  0.460815  0.419331  1
  Pr  Pr17  1  0.820820  0.033594  0.930201  1
  Pr  Pr18  1  0.674970  0.037598  0.425489  1
  Pr  Pr19  1  0.325030  0.962402  0.574511  1
  Si  Si20  1  0.557519  0.497849  0.171619  1
  Si  Si21  1  0.442481  0.502151  0.828381  1
  Ir  Ir22  1  0.924539  0.745897  0.990260  1
  Ir  Ir23  1  0.075461  0.254103  0.009740  1
  Ir  Ir24  1  0.422409  0.251946  0.506148  1
  Ir  Ir25  1  0.577591  0.748054  0.493852  1
  Pb  Pb26  1  0.933533  0.006789  0.674566  1
  Pb  Pb27  1  0.066467  0.993211  0.325434  1
  Pb  Pb28  1  0.434881  0.994655  0.832229  1
  Pb  Pb29  1  0.066666  0.508034  0.328926  1
  Pb  Pb30  1  0.565119  0.005345  0.167771  1
  Pb  Pb31  1  0.933334  0.491966  0.671074  1
