# generated using pymatgen
data_Sm5Dy3(Lu3Sn4)4
_symmetry_space_group_name_H-M   'P 1'
_cell_length_a   7.97481609
_cell_length_b   8.12118938
_cell_length_c   15.31721781
_cell_angle_alpha   89.98662574
_cell_angle_beta   89.80260164
_cell_angle_gamma   90.14315135
_symmetry_Int_Tables_number   1
_chemical_formula_structural   Sm5Dy3(Lu3Sn4)4
_chemical_formula_sum   'Sm5 Dy3 Lu12 Sn16'
_cell_volume   992.01047136
_cell_formula_units_Z   1
loop_
 _symmetry_equiv_pos_site_id
 _symmetry_equiv_pos_as_xyz
  1  'x, y, z'
loop_
 _atom_site_type_symbol
 _atom_site_label
 _atom_site_symmetry_multiplicity
 _atom_site_fract_x
 _atom_site_fract_y
 _atom_site_fract_z
 _atom_site_occupancy
  Sm  Sm0  1  0.515979  0.321915  0.904362  1
  Sm  Sm1  1  0.016741  0.177683  0.595596  1
  Sm  Sm2  1  0.481963  0.678193  0.404227  1
  Sm  Sm3  1  0.983629  0.823302  0.095221  1
  Sm  Sm4  1  0.483478  0.678841  0.096040  1
  Dy  Dy5  1  0.980569  0.821474  0.403652  1
  Dy  Dy6  1  0.519713  0.320955  0.597165  1
  Dy  Dy7  1  0.018991  0.178423  0.902860  1
  Lu  Lu8  1  0.361931  0.837763  0.875911  1
  Lu  Lu9  1  0.863510  0.661999  0.623764  1
  Lu  Lu10  1  0.636763  0.162362  0.376915  1
  Lu  Lu11  1  0.138446  0.336829  0.124371  1
  Lu  Lu12  1  0.638662  0.162780  0.123724  1
  Lu  Lu13  1  0.137057  0.337519  0.376565  1
  Lu  Lu14  1  0.362051  0.837443  0.623531  1
  Lu  Lu15  1  0.860449  0.663396  0.875642  1
  Lu  Lu16  1  0.193555  0.504555  0.749698  1
  Lu  Lu17  1  0.693822  0.995472  0.749684  1
  Lu  Lu18  1  0.806494  0.494901  0.250535  1
  Lu  Lu19  1  0.305985  0.004675  0.250538  1
  Sn  Sn20  1  0.301066  0.043673  0.040822  1
  Sn  Sn21  1  0.799662  0.458846  0.458824  1
  Sn  Sn22  1  0.699407  0.957973  0.541058  1
  Sn  Sn23  1  0.195570  0.540554  0.958184  1
  Sn  Sn24  1  0.700815  0.960899  0.957296  1
  Sn  Sn25  1  0.201543  0.538751  0.542719  1
  Sn  Sn26  1  0.298142  0.039911  0.457718  1
  Sn  Sn27  1  0.803832  0.458205  0.041707  1
  Sn  Sn28  1  0.558690  0.622243  0.749538  1
  Sn  Sn29  1  0.059043  0.878309  0.749976  1
  Sn  Sn30  1  0.441089  0.376716  0.250063  1
  Sn  Sn31  1  0.940807  0.121943  0.250508  1
  Sn  Sn32  1  0.327253  0.148279  0.749327  1
  Sn  Sn33  1  0.827389  0.351475  0.750819  1
  Sn  Sn34  1  0.674621  0.853227  0.250546  1
  Sn  Sn35  1  0.171283  0.648514  0.250894  1
