# generated using pymatgen
data_K2Zr3(CuSe4)2
_symmetry_space_group_name_H-M   'P 1'
_cell_length_a   3.92276788
_cell_length_b   7.83745636
_cell_length_c   13.50911976
_cell_angle_alpha   93.98441669
_cell_angle_beta   98.34824052
_cell_angle_gamma   104.49276877
_symmetry_Int_Tables_number   1
_chemical_formula_structural   K2Zr3(CuSe4)2
_chemical_formula_sum   'K2 Zr3 Cu2 Se8'
_cell_volume   395.41939861
_cell_formula_units_Z   1
loop_
 _symmetry_equiv_pos_site_id
 _symmetry_equiv_pos_as_xyz
  1  'x, y, z'
loop_
 _atom_site_type_symbol
 _atom_site_label
 _atom_site_symmetry_multiplicity
 _atom_site_fract_x
 _atom_site_fract_y
 _atom_site_fract_z
 _atom_site_occupancy
  K  K0  1  0.868828  0.536255  0.201400  1
  K  K1  1  0.131172  0.463745  0.798599  1
  Zr  Zr2  1  0.500000  0.000000  0.000000  1
  Zr  Zr3  1  0.721975  0.064627  0.379322  1
  Zr  Zr4  1  0.278024  0.935373  0.620677  1
  Cu  Cu5  1  0.146532  0.096393  0.196672  1
  Cu  Cu6  1  0.853467  0.903608  0.803327  1
  Se  Se7  1  0.146588  0.247590  0.045584  1
  Se  Se8  1  0.542008  0.894712  0.189306  1
  Se  Se9  1  0.325054  0.300220  0.349889  1
  Se  Se10  1  0.124288  0.828111  0.420465  1
  Se  Se11  1  0.875712  0.171890  0.579534  1
  Se  Se12  1  0.674947  0.699781  0.650112  1
  Se  Se13  1  0.457992  0.105288  0.810694  1
  Se  Se14  1  0.853411  0.752409  0.954415  1
