# generated using pymatgen
data_Sc4Re3Si4Mo
_symmetry_space_group_name_H-M   'P 1'
_cell_length_a   7.04892762
_cell_length_b   3.43806500
_cell_length_c   8.09996320
_cell_angle_alpha   90.00000000
_cell_angle_beta   89.88363621
_cell_angle_gamma   90.00000000
_symmetry_Int_Tables_number   1
_chemical_formula_structural   Sc4Re3Si4Mo
_chemical_formula_sum   'Sc4 Re3 Si4 Mo1'
_cell_volume   196.29954099
_cell_formula_units_Z   1
loop_
 _symmetry_equiv_pos_site_id
 _symmetry_equiv_pos_as_xyz
  1  'x, y, z'
loop_
 _atom_site_type_symbol
 _atom_site_label
 _atom_site_symmetry_multiplicity
 _atom_site_fract_x
 _atom_site_fract_y
 _atom_site_fract_z
 _atom_site_occupancy
  Sc  Sc0  1  0.038524  0.250001  0.166108  1
  Sc  Sc1  1  0.538794  0.250001  0.334988  1
  Sc  Sc2  1  0.462092  0.750001  0.666729  1
  Sc  Sc3  1  0.961615  0.750001  0.832586  1
  Re  Re4  1  0.364963  0.750001  0.065597  1
  Re  Re5  1  0.866962  0.750001  0.431948  1
  Re  Re6  1  0.136438  0.250001  0.566551  1
  Si  Si7  1  0.733794  0.750001  0.137682  1
  Si  Si8  1  0.232277  0.750001  0.364356  1
  Si  Si9  1  0.768921  0.250001  0.633293  1
  Si  Si10  1  0.263904  0.250001  0.864814  1
  Mo  Mo11  1  0.631711  0.250001  0.935349  1
