# generated using pymatgen
data_HoU2(InPt)3
_symmetry_space_group_name_H-M   'P 1'
_cell_length_a   7.52954875
_cell_length_b   7.44938382
_cell_length_c   4.06025500
_cell_angle_alpha   90.00000000
_cell_angle_beta   90.00000000
_cell_angle_gamma   119.64844294
_symmetry_Int_Tables_number   1
_chemical_formula_structural   HoU2(InPt)3
_chemical_formula_sum   'Ho1 U2 In3 Pt3'
_cell_volume   197.92509635
_cell_formula_units_Z   1
loop_
 _symmetry_equiv_pos_site_id
 _symmetry_equiv_pos_as_xyz
  1  'x, y, z'
loop_
 _atom_site_type_symbol
 _atom_site_label
 _atom_site_symmetry_multiplicity
 _atom_site_fract_x
 _atom_site_fract_y
 _atom_site_fract_z
 _atom_site_occupancy
  Ho  Ho0  1  0.000000  0.410320  0.500000  1
  U  U1  1  0.584930  0.587741  0.500000  1
  U  U2  1  0.415070  0.002811  0.500000  1
  In  In3  1  0.000000  0.739410  0.000000  1
  In  In4  1  0.246929  0.253065  0.000000  1
  In  In5  1  0.753071  0.006136  0.000000  1
  Pt  Pt6  1  0.345226  0.676652  0.000000  1
  Pt  Pt7  1  0.654774  0.331425  0.000000  1
  Pt  Pt8  1  0.000000  0.992440  0.500000  1
