# generated using pymatgen
data_Pr3YTe7Pd
_symmetry_space_group_name_H-M   'P 1'
_cell_length_a   4.35958470
_cell_length_b   8.90377400
_cell_length_c   9.41074400
_cell_angle_alpha   90.00000000
_cell_angle_beta   90.03255394
_cell_angle_gamma   90.00000000
_symmetry_Int_Tables_number   1
_chemical_formula_structural   Pr3YTe7Pd
_chemical_formula_sum   'Pr3 Y1 Te7 Pd1'
_cell_volume   365.29450347
_cell_formula_units_Z   1
loop_
 _symmetry_equiv_pos_site_id
 _symmetry_equiv_pos_as_xyz
  1  'x, y, z'
loop_
 _atom_site_type_symbol
 _atom_site_label
 _atom_site_symmetry_multiplicity
 _atom_site_fract_x
 _atom_site_fract_y
 _atom_site_fract_z
 _atom_site_occupancy
  Pr  Pr0  1  0.002381  0.250000  0.742279  1
  Pr  Pr1  1  0.499328  0.001763  0.268662  1
  Pr  Pr2  1  0.499328  0.498237  0.268662  1
  Y  Y3  1  0.000568  0.750000  0.709325  1
  Te  Te4  1  0.998310  0.938885  0.997118  1
  Te  Te5  1  0.998310  0.561115  0.997118  1
  Te  Te6  1  0.502767  0.250000  0.000378  1
  Te  Te7  1  0.999588  0.750000  0.373826  1
  Te  Te8  1  0.999856  0.250000  0.376239  1
  Te  Te9  1  0.500931  0.994183  0.632285  1
  Te  Te10  1  0.500931  0.505817  0.632285  1
  Pd  Pd11  1  0.497700  0.750000  0.002749  1
