# generated using pymatgen
data_Tm3Sn3PdRh2
_symmetry_space_group_name_H-M   'P 1'
_cell_length_a   7.75406633
_cell_length_b   7.74983561
_cell_length_c   3.63124000
_cell_angle_alpha   90.00000000
_cell_angle_beta   90.00000000
_cell_angle_gamma   119.95085033
_symmetry_Int_Tables_number   1
_chemical_formula_structural   Tm3Sn3PdRh2
_chemical_formula_sum   'Tm3 Sn3 Pd1 Rh2'
_cell_volume   189.06993080
_cell_formula_units_Z   1
loop_
 _symmetry_equiv_pos_site_id
 _symmetry_equiv_pos_as_xyz
  1  'x, y, z'
loop_
 _atom_site_type_symbol
 _atom_site_label
 _atom_site_symmetry_multiplicity
 _atom_site_fract_x
 _atom_site_fract_y
 _atom_site_fract_z
 _atom_site_occupancy
  Tm  Tm0  1  0.012094  0.404129  0.500000  1
  Tm  Tm1  1  0.595904  0.607774  0.500000  1
  Tm  Tm2  1  0.391903  0.987660  0.500000  1
  Sn  Sn3  1  0.997009  0.731254  0.000000  1
  Sn  Sn4  1  0.268874  0.265852  0.000000  1
  Sn  Sn5  1  0.733952  0.002637  0.000000  1
  Pd  Pd6  1  0.666739  0.333538  0.000000  1
  Rh  Rh7  1  0.333425  0.666859  0.000000  1
  Rh  Rh8  1  0.000101  0.000298  0.500000  1
