# generated using pymatgen
data_Nd8Sc12Si15Sb
_symmetry_space_group_name_H-M   'P 1'
_cell_length_a   7.27854436
_cell_length_b   7.53677218
_cell_length_c   14.24555219
_cell_angle_alpha   90.09695433
_cell_angle_beta   89.24016858
_cell_angle_gamma   90.17279356
_symmetry_Int_Tables_number   1
_chemical_formula_structural   Nd8Sc12Si15Sb
_chemical_formula_sum   'Nd8 Sc12 Si15 Sb1'
_cell_volume   781.39108233
_cell_formula_units_Z   1
loop_
 _symmetry_equiv_pos_site_id
 _symmetry_equiv_pos_as_xyz
  1  'x, y, z'
loop_
 _atom_site_type_symbol
 _atom_site_label
 _atom_site_symmetry_multiplicity
 _atom_site_fract_x
 _atom_site_fract_y
 _atom_site_fract_z
 _atom_site_occupancy
  Nd  Nd0  1  0.012371  0.173722  0.097424  1
  Nd  Nd1  1  0.987902  0.827262  0.903190  1
  Nd  Nd2  1  0.488349  0.673316  0.903146  1
  Nd  Nd3  1  0.990876  0.830755  0.598338  1
  Nd  Nd4  1  0.512251  0.326970  0.097752  1
  Nd  Nd5  1  0.004988  0.169604  0.399736  1
  Nd  Nd6  1  0.509922  0.324033  0.399094  1
  Nd  Nd7  1  0.504628  0.679731  0.600553  1
  Sc  Sc8  1  0.161827  0.498959  0.754247  1
  Sc  Sc9  1  0.838218  0.501404  0.251275  1
  Sc  Sc10  1  0.338841  0.998328  0.249902  1
  Sc  Sc11  1  0.662541  0.001927  0.751608  1
  Sc  Sc12  1  0.343451  0.161800  0.630921  1
  Sc  Sc13  1  0.663048  0.826374  0.372189  1
  Sc  Sc14  1  0.160655  0.680362  0.370824  1
  Sc  Sc15  1  0.668723  0.824260  0.124776  1
  Sc  Sc16  1  0.825466  0.325768  0.625635  1
  Sc  Sc17  1  0.330167  0.174746  0.874593  1
  Sc  Sc18  1  0.831023  0.324141  0.875174  1
  Sc  Sc19  1  0.169562  0.675746  0.125161  1
  Si  Si20  1  0.034594  0.125598  0.750159  1
  Si  Si21  1  0.962770  0.877491  0.247598  1
  Si  Si22  1  0.461647  0.623765  0.248001  1
  Si  Si23  1  0.536415  0.376430  0.752527  1
  Si  Si24  1  0.289014  0.876464  0.751864  1
  Si  Si25  1  0.710427  0.118220  0.247793  1
  Si  Si26  1  0.209931  0.382299  0.249335  1
  Si  Si27  1  0.793111  0.618924  0.751241  1
  Si  Si28  1  0.824474  0.542398  0.455416  1
  Si  Si29  1  0.342418  0.962239  0.460411  1
  Si  Si30  1  0.848495  0.536149  0.039805  1
  Si  Si31  1  0.658261  0.039490  0.538599  1
  Si  Si32  1  0.151133  0.464090  0.960695  1
  Si  Si33  1  0.650877  0.036196  0.960273  1
  Si  Si34  1  0.348105  0.964379  0.039896  1
  Sb  Sb35  1  0.173516  0.456664  0.540847  1
