# generated using pymatgen
data_Ho4Co17(As4Ru)3
_symmetry_space_group_name_H-M   'P 1'
_cell_length_a   3.80263600
_cell_length_b   10.74943900
_cell_length_c   12.20953101
_cell_angle_alpha   89.87586369
_cell_angle_beta   90.00000000
_cell_angle_gamma   90.00000000
_symmetry_Int_Tables_number   1
_chemical_formula_structural   Ho4Co17(As4Ru)3
_chemical_formula_sum   'Ho4 Co17 As12 Ru3'
_cell_volume   499.07810561
_cell_formula_units_Z   1
loop_
 _symmetry_equiv_pos_site_id
 _symmetry_equiv_pos_as_xyz
  1  'x, y, z'
loop_
 _atom_site_type_symbol
 _atom_site_label
 _atom_site_symmetry_multiplicity
 _atom_site_fract_x
 _atom_site_fract_y
 _atom_site_fract_z
 _atom_site_occupancy
  Ho  Ho0  1  0.250000  0.580104  0.701338  1
  Ho  Ho1  1  0.250000  0.916079  0.203444  1
  Ho  Ho2  1  0.750000  0.416137  0.296006  1
  Ho  Ho3  1  0.750000  0.083566  0.796144  1
  Co  Co4  1  0.750000  0.213090  0.508370  1
  Co  Co5  1  0.250000  0.406836  0.487485  1
  Co  Co6  1  0.250000  0.092614  0.987965  1
  Co  Co7  1  0.750000  0.592689  0.511710  1
  Co  Co8  1  0.750000  0.907367  0.012544  1
  Co  Co9  1  0.250000  0.215774  0.177452  1
  Co  Co10  1  0.250000  0.284124  0.676231  1
  Co  Co11  1  0.750000  0.783920  0.823463  1
  Co  Co12  1  0.750000  0.716850  0.324134  1
  Co  Co13  1  0.250000  0.887279  0.699195  1
  Co  Co14  1  0.250000  0.613878  0.200249  1
  Co  Co15  1  0.750000  0.116579  0.302776  1
  Co  Co16  1  0.750000  0.385401  0.799713  1
  Co  Co17  1  0.250000  0.465561  0.930977  1
  Co  Co18  1  0.250000  0.033577  0.431453  1
  Co  Co19  1  0.750000  0.534471  0.068769  1
  Co  Co20  1  0.750000  0.967853  0.568435  1
  As  As21  1  0.250000  0.416667  0.114480  1
  As  As22  1  0.250000  0.085200  0.612979  1
  As  As23  1  0.750000  0.582626  0.884871  1
  As  As24  1  0.750000  0.917799  0.385590  1
  As  As25  1  0.250000  0.267966  0.866951  1
  As  As26  1  0.250000  0.231862  0.369928  1
  As  As27  1  0.750000  0.731676  0.133272  1
  As  As28  1  0.750000  0.768775  0.632968  1
  As  As29  1  0.250000  0.595122  0.389774  1
  As  As30  1  0.250000  0.904813  0.889481  1
  As  As31  1  0.750000  0.399271  0.607768  1
  As  As32  1  0.750000  0.095675  0.111736  1
  Ru  Ru33  1  0.250000  0.711060  0.990828  1
  Ru  Ru34  1  0.250000  0.788530  0.491385  1
  Ru  Ru35  1  0.750000  0.289206  0.010133  1
