# generated using pymatgen
data_Tm5LuAl19Si5Os8
_symmetry_space_group_name_H-M   'P 1'
_cell_length_a   8.67363000
_cell_length_b   8.65761267
_cell_length_c   9.54715500
_cell_angle_alpha   90.00000000
_cell_angle_beta   90.00000000
_cell_angle_gamma   120.06121924
_symmetry_Int_Tables_number   1
_chemical_formula_structural   Tm5LuAl19Si5Os8
_chemical_formula_sum   'Tm5 Lu1 Al19 Si5 Os8'
_cell_volume   620.49088884
_cell_formula_units_Z   1
loop_
 _symmetry_equiv_pos_site_id
 _symmetry_equiv_pos_as_xyz
  1  'x, y, z'
loop_
 _atom_site_type_symbol
 _atom_site_label
 _atom_site_symmetry_multiplicity
 _atom_site_fract_x
 _atom_site_fract_y
 _atom_site_fract_z
 _atom_site_occupancy
  Tm  Tm0  1  0.805165  0.610329  0.750000  1
  Tm  Tm1  1  0.606455  0.805462  0.250000  1
  Tm  Tm2  1  0.390793  0.196328  0.750000  1
  Tm  Tm3  1  0.199008  0.805462  0.250000  1
  Tm  Tm4  1  0.805534  0.196328  0.750000  1
  Lu  Lu5  1  0.196150  0.392299  0.250000  1
  Al  Al6  1  0.164671  0.329341  0.578242  1
  Al  Al7  1  0.834678  0.669356  0.421312  1
  Al  Al8  1  0.669913  0.835452  0.577166  1
  Al  Al9  1  0.834678  0.669356  0.078688  1
  Al  Al10  1  0.328670  0.165206  0.421385  1
  Al  Al11  1  0.164671  0.329341  0.921758  1
  Al  Al12  1  0.165539  0.835452  0.577166  1
  Al  Al13  1  0.328670  0.165206  0.078615  1
  Al  Al14  1  0.836536  0.165206  0.421385  1
  Al  Al15  1  0.669913  0.835452  0.922834  1
  Al  Al16  1  0.836536  0.165206  0.078615  1
  Al  Al17  1  0.165539  0.835452  0.922834  1
  Al  Al18  1  0.437683  0.875365  0.750000  1
  Al  Al19  1  0.873558  0.433587  0.250000  1
  Al  Al20  1  0.127443  0.564444  0.750000  1
  Al  Al21  1  0.560029  0.433587  0.250000  1
  Al  Al22  1  0.437002  0.564444  0.750000  1
  Al  Al23  1  0.999998  0.999995  0.250000  1
  Al  Al24  1  0.000479  0.000957  0.750000  1
  Si  Si25  1  0.332316  0.664633  0.039716  1
  Si  Si26  1  0.667187  0.334373  0.959836  1
  Si  Si27  1  0.667187  0.334373  0.540164  1
  Si  Si28  1  0.332316  0.664633  0.460284  1
  Si  Si29  1  0.563597  0.127194  0.250000  1
  Os  Os30  1  0.500539  0.001077  0.006532  1
  Os  Os31  1  0.999535  0.498997  0.001067  1
  Os  Os32  1  0.500539  0.001077  0.493468  1
  Os  Os33  1  0.499462  0.498997  0.001067  1
  Os  Os34  1  0.999535  0.498997  0.498933  1
  Os  Os35  1  0.499462  0.498997  0.498933  1
  Os  Os36  1  0.999509  0.999018  0.000357  1
  Os  Os37  1  0.999509  0.999018  0.499643  1
