# generated using pymatgen
data_Dy20Tc3Bi8Ru
_symmetry_space_group_name_H-M   'P 1'
_cell_length_a   7.98096190
_cell_length_b   9.06522000
_cell_length_c   12.42573735
_cell_angle_alpha   90.00000000
_cell_angle_beta   90.01441586
_cell_angle_gamma   90.00000000
_symmetry_Int_Tables_number   1
_chemical_formula_structural   Dy20Tc3Bi8Ru
_chemical_formula_sum   'Dy20 Tc3 Bi8 Ru1'
_cell_volume   898.99182351
_cell_formula_units_Z   1
loop_
 _symmetry_equiv_pos_site_id
 _symmetry_equiv_pos_as_xyz
  1  'x, y, z'
loop_
 _atom_site_type_symbol
 _atom_site_label
 _atom_site_symmetry_multiplicity
 _atom_site_fract_x
 _atom_site_fract_y
 _atom_site_fract_z
 _atom_site_occupancy
  Dy  Dy0  1  0.842355  0.750000  0.792012  1
  Dy  Dy1  1  0.156703  0.250000  0.208768  1
  Dy  Dy2  1  0.342672  0.250000  0.708488  1
  Dy  Dy3  1  0.654358  0.750000  0.294253  1
  Dy  Dy4  1  0.378279  0.750000  0.691272  1
  Dy  Dy5  1  0.622142  0.250000  0.308444  1
  Dy  Dy6  1  0.877503  0.250000  0.808340  1
  Dy  Dy7  1  0.123398  0.750000  0.190647  1
  Dy  Dy8  1  0.946684  0.750000  0.505175  1
  Dy  Dy9  1  0.052515  0.250000  0.495395  1
  Dy  Dy10  1  0.447106  0.250000  0.995479  1
  Dy  Dy11  1  0.554566  0.750000  0.005004  1
  Dy  Dy12  1  0.674781  0.041008  0.565121  1
  Dy  Dy13  1  0.323736  0.960159  0.434868  1
  Dy  Dy14  1  0.176359  0.959087  0.934612  1
  Dy  Dy15  1  0.323736  0.539841  0.434868  1
  Dy  Dy16  1  0.825111  0.039999  0.064430  1
  Dy  Dy17  1  0.674781  0.458992  0.565121  1
  Dy  Dy18  1  0.825111  0.460001  0.064430  1
  Dy  Dy19  1  0.176359  0.540913  0.934612  1
  Tc  Tc20  1  0.578309  0.750000  0.512078  1
  Tc  Tc21  1  0.420423  0.250000  0.488625  1
  Tc  Tc22  1  0.077870  0.250000  0.989242  1
  Bi  Bi23  1  0.569889  0.494133  0.827666  1
  Bi  Bi24  1  0.429964  0.506294  0.172057  1
  Bi  Bi25  1  0.070462  0.505943  0.672850  1
  Bi  Bi26  1  0.429964  0.993706  0.172057  1
  Bi  Bi27  1  0.929117  0.494902  0.327258  1
  Bi  Bi28  1  0.569889  0.005867  0.827666  1
  Bi  Bi29  1  0.929117  0.005098  0.327258  1
  Bi  Bi30  1  0.070462  0.994057  0.672850  1
  Ru  Ru31  1  0.926282  0.750000  0.009055  1
