# generated using pymatgen
data_Nd10Ru3Rh
_symmetry_space_group_name_H-M   'P 1'
_cell_length_a   8.92233016
_cell_length_b   8.93642467
_cell_length_c   7.40039672
_cell_angle_alpha   83.70274640
_cell_angle_beta   83.69905411
_cell_angle_gamma   43.38512471
_symmetry_Int_Tables_number   1
_chemical_formula_structural   Nd10Ru3Rh
_chemical_formula_sum   'Nd10 Ru3 Rh1'
_cell_volume   402.47680452
_cell_formula_units_Z   1
loop_
 _symmetry_equiv_pos_site_id
 _symmetry_equiv_pos_as_xyz
  1  'x, y, z'
loop_
 _atom_site_type_symbol
 _atom_site_label
 _atom_site_symmetry_multiplicity
 _atom_site_fract_x
 _atom_site_fract_y
 _atom_site_fract_z
 _atom_site_occupancy
  Nd  Nd0  1  0.015676  0.799880  0.916092  1
  Nd  Nd1  1  0.202180  0.985125  0.585543  1
  Nd  Nd2  1  0.983774  0.201417  0.085940  1
  Nd  Nd3  1  0.795478  0.020370  0.413012  1
  Nd  Nd4  1  0.360286  0.205698  0.816003  1
  Nd  Nd5  1  0.788241  0.641636  0.685972  1
  Nd  Nd6  1  0.643210  0.790328  0.186540  1
  Nd  Nd7  1  0.208763  0.356181  0.313630  1
  Nd  Nd8  1  0.574896  0.425059  0.749992  1
  Nd  Nd9  1  0.425667  0.576256  0.247391  1
  Ru  Ru10  1  0.399739  0.823428  0.924390  1
  Ru  Ru11  1  0.823486  0.399698  0.426167  1
  Ru  Ru12  1  0.599629  0.177422  0.074568  1
  Rh  Rh13  1  0.178976  0.597502  0.574761  1
