# generated using pymatgen
data_CaTbRu2O7
_symmetry_space_group_name_H-M   'P 1'
_cell_length_a   7.26216140
_cell_length_b   7.26216150
_cell_length_c   7.29725900
_cell_angle_alpha   59.83999429
_cell_angle_beta   59.83999386
_cell_angle_gamma   59.58247395
_symmetry_Int_Tables_number   1
_chemical_formula_structural   CaTbRu2O7
_chemical_formula_sum   'Ca2 Tb2 Ru4 O14'
_cell_volume   270.60725710
_cell_formula_units_Z   2
loop_
 _symmetry_equiv_pos_site_id
 _symmetry_equiv_pos_as_xyz
  1  'x, y, z'
loop_
 _atom_site_type_symbol
 _atom_site_label
 _atom_site_symmetry_multiplicity
 _atom_site_fract_x
 _atom_site_fract_y
 _atom_site_fract_z
 _atom_site_occupancy
  Ca  Ca0  1  0.625000  0.125000  0.625000  1
  Ca  Ca1  1  0.125000  0.625000  0.625000  1
  Tb  Tb2  1  0.625000  0.625000  0.125000  1
  Tb  Tb3  1  0.625000  0.625000  0.625000  1
  Ru  Ru4  1  0.125000  0.125000  0.625000  1
  Ru  Ru5  1  0.125000  0.625000  0.125000  1
  Ru  Ru6  1  0.625000  0.125000  0.125000  1
  Ru  Ru7  1  0.125000  0.125000  0.125000  1
  O  O8  1  0.745316  0.745316  0.754684  1
  O  O9  1  0.504684  0.504684  0.495316  1
  O  O10  1  0.045672  0.451579  0.053200  1
  O  O11  1  0.798421  0.204328  0.800451  1
  O  O12  1  0.055841  0.055841  0.444159  1
  O  O13  1  0.451579  0.045672  0.053200  1
  O  O14  1  0.045672  0.451579  0.449549  1
  O  O15  1  0.455563  0.455563  0.044437  1
  O  O16  1  0.451579  0.045672  0.449549  1
  O  O17  1  0.204328  0.798421  0.800451  1
  O  O18  1  0.798421  0.204328  0.196800  1
  O  O19  1  0.204328  0.798421  0.196800  1
  O  O20  1  0.794437  0.794437  0.205563  1
  O  O21  1  0.194159  0.194159  0.805841  1
