# generated using pymatgen
data_Li3Tb5YOs3
_symmetry_space_group_name_H-M   'P 1'
_cell_length_a   4.96121500
_cell_length_b   6.87972400
_cell_length_c   14.77168700
_cell_angle_alpha   90.00000000
_cell_angle_beta   90.00013911
_cell_angle_gamma   90.00000000
_symmetry_Int_Tables_number   1
_chemical_formula_structural   Li3Tb5YOs3
_chemical_formula_sum   'Li6 Tb10 Y2 Os6'
_cell_volume   504.18411722
_cell_formula_units_Z   2
loop_
 _symmetry_equiv_pos_site_id
 _symmetry_equiv_pos_as_xyz
  1  'x, y, z'
loop_
 _atom_site_type_symbol
 _atom_site_label
 _atom_site_symmetry_multiplicity
 _atom_site_fract_x
 _atom_site_fract_y
 _atom_site_fract_z
 _atom_site_occupancy
  Li  Li0  1  0.000003  0.000000  0.999930  1
  Li  Li1  1  0.498955  0.500000  0.166693  1
  Li  Li2  1  0.998965  0.000000  0.333295  1
  Li  Li3  1  0.500000  0.500000  0.500000  1
  Li  Li4  1  0.001034  0.000000  0.666778  1
  Li  Li5  1  0.501044  0.500000  0.833310  1
  Tb  Tb6  1  0.500000  0.247449  0.999791  1
  Tb  Tb7  1  0.500000  0.752550  0.999791  1
  Tb  Tb8  1  0.999387  0.252449  0.166559  1
  Tb  Tb9  1  0.999387  0.747550  0.166559  1
  Tb  Tb10  1  0.499389  0.247488  0.333327  1
  Tb  Tb11  1  0.499389  0.752513  0.333327  1
  Tb  Tb12  1  0.999999  0.252433  0.500102  1
  Tb  Tb13  1  0.999999  0.747566  0.500102  1
  Tb  Tb14  1  0.500609  0.247438  0.666883  1
  Tb  Tb15  1  0.500609  0.752563  0.666883  1
  Y  Y16  1  0.000615  0.252021  0.833329  1
  Y  Y17  1  0.000615  0.747978  0.833329  1
  Os  Os18  1  0.000002  0.500000  0.000628  1
  Os  Os19  1  0.499409  0.000000  0.166902  1
  Os  Os20  1  0.999411  0.500000  0.333342  1
  Os  Os21  1  0.500003  0.000000  0.499771  1
  Os  Os22  1  0.000587  0.500000  0.666033  1
  Os  Os23  1  0.500587  0.000000  0.833334  1
