# generated using pymatgen
data_Tb2Pr2Ga18(PdRu)3
_symmetry_space_group_name_H-M   'P 1'
_cell_length_a   7.63747196
_cell_length_b   7.65011232
_cell_length_c   9.68682598
_cell_angle_alpha   90.02669539
_cell_angle_beta   89.95995656
_cell_angle_gamma   119.66596191
_symmetry_Int_Tables_number   1
_chemical_formula_structural   Tb2Pr2Ga18(PdRu)3
_chemical_formula_sum   'Tb2 Pr2 Ga18 Pd3 Ru3'
_cell_volume   491.79201285
_cell_formula_units_Z   1
loop_
 _symmetry_equiv_pos_site_id
 _symmetry_equiv_pos_as_xyz
  1  'x, y, z'
loop_
 _atom_site_type_symbol
 _atom_site_label
 _atom_site_symmetry_multiplicity
 _atom_site_fract_x
 _atom_site_fract_y
 _atom_site_fract_z
 _atom_site_occupancy
  Tb  Tb0  1  0.670920  0.997738  0.251177  1
  Tb  Tb1  1  0.330829  0.004018  0.749368  1
  Pr  Pr2  1  0.994960  0.669976  0.250222  1
  Pr  Pr3  1  0.002291  0.328214  0.749619  1
  Ga  Ga4  1  0.134323  0.133198  0.250048  1
  Ga  Ga5  1  0.868385  0.864216  0.750008  1
  Ga  Ga6  1  0.007003  0.336489  0.080625  1
  Ga  Ga7  1  0.003852  0.668084  0.919858  1
  Ga  Ga8  1  0.998992  0.662888  0.577245  1
  Ga  Ga9  1  0.343150  0.002357  0.425145  1
  Ga  Ga10  1  0.001730  0.337033  0.421428  1
  Ga  Ga11  1  0.656380  0.996376  0.575804  1
  Ga  Ga12  1  0.658073  0.990780  0.921911  1
  Ga  Ga13  1  0.338184  0.999180  0.077682  1
  Ga  Ga14  1  0.342057  0.339631  0.561357  1
  Ga  Ga15  1  0.658051  0.660206  0.438675  1
  Ga  Ga16  1  0.657192  0.665368  0.065637  1
  Ga  Ga17  1  0.337729  0.340748  0.934516  1
  Ga  Ga18  1  0.339572  0.551860  0.250545  1
  Ga  Ga19  1  0.662072  0.454310  0.745707  1
  Ga  Ga20  1  0.542189  0.332446  0.254243  1
  Ga  Ga21  1  0.451627  0.665436  0.749378  1
  Pd  Pd22  1  0.671355  0.328588  0.999913  1
  Pd  Pd23  1  0.000665  0.999430  0.999999  1
  Pd  Pd24  1  0.999675  0.000339  0.499974  1
  Ru  Ru25  1  0.328517  0.671682  0.000054  1
  Ru  Ru26  1  0.327914  0.671707  0.500123  1
  Ru  Ru27  1  0.672315  0.327699  0.499738  1
