# generated using pymatgen
data_Ho6Al16Os7
_symmetry_space_group_name_H-M   'P 1'
_cell_length_a   8.93372989
_cell_length_b   8.93373008
_cell_length_c   8.93372900
_cell_angle_alpha   60.00000031
_cell_angle_beta   59.99999958
_cell_angle_gamma   59.99999831
_symmetry_Int_Tables_number   1
_chemical_formula_structural   Ho6Al16Os7
_chemical_formula_sum   'Ho6 Al16 Os7'
_cell_volume   504.17744699
_cell_formula_units_Z   1
loop_
 _symmetry_equiv_pos_site_id
 _symmetry_equiv_pos_as_xyz
  1  'x, y, z'
loop_
 _atom_site_type_symbol
 _atom_site_label
 _atom_site_symmetry_multiplicity
 _atom_site_fract_x
 _atom_site_fract_y
 _atom_site_fract_z
 _atom_site_occupancy
  Ho  Ho0  1  0.211957  0.788043  0.788043  1
  Ho  Ho1  1  0.788043  0.211957  0.211957  1
  Ho  Ho2  1  0.788043  0.211957  0.788043  1
  Ho  Ho3  1  0.788043  0.788043  0.211957  1
  Ho  Ho4  1  0.211957  0.788043  0.211957  1
  Ho  Ho5  1  0.211957  0.211957  0.788043  1
  Al  Al6  1  0.832332  0.832332  0.832332  1
  Al  Al7  1  0.832332  0.832332  0.503004  1
  Al  Al8  1  0.503004  0.832332  0.832332  1
  Al  Al9  1  0.832332  0.503004  0.832332  1
  Al  Al10  1  0.167668  0.167668  0.167668  1
  Al  Al11  1  0.167668  0.167668  0.496996  1
  Al  Al12  1  0.167668  0.496996  0.167668  1
  Al  Al13  1  0.496996  0.167668  0.167668  1
  Al  Al14  1  0.620809  0.620809  0.620809  1
  Al  Al15  1  0.620809  0.620809  0.137573  1
  Al  Al16  1  0.137573  0.620809  0.620809  1
  Al  Al17  1  0.620809  0.137573  0.620809  1
  Al  Al18  1  0.379191  0.379191  0.379191  1
  Al  Al19  1  0.379191  0.379191  0.862427  1
  Al  Al20  1  0.379191  0.862427  0.379191  1
  Al  Al21  1  0.862427  0.379191  0.379191  1
  Os  Os22  1  0.500000  0.500000  0.500000  1
  Os  Os23  1  0.000000  0.500000  0.500000  1
  Os  Os24  1  0.500000  0.000000  0.000000  1
  Os  Os25  1  0.500000  0.000000  0.500000  1
  Os  Os26  1  0.500000  0.500000  0.000000  1
  Os  Os27  1  0.000000  0.500000  0.000000  1
  Os  Os28  1  0.000000  0.000000  0.500000  1
