# generated using pymatgen
data_Sc5Tl2Sb
_symmetry_space_group_name_H-M   'P 1'
_cell_length_a   8.47264061
_cell_length_b   8.44529028
_cell_length_c   6.17353000
_cell_angle_alpha   90.00000000
_cell_angle_beta   90.00000000
_cell_angle_gamma   119.89327479
_symmetry_Int_Tables_number   1
_chemical_formula_structural   Sc5Tl2Sb
_chemical_formula_sum   'Sc10 Tl4 Sb2'
_cell_volume   382.96899300
_cell_formula_units_Z   2
loop_
 _symmetry_equiv_pos_site_id
 _symmetry_equiv_pos_as_xyz
  1  'x, y, z'
loop_
 _atom_site_type_symbol
 _atom_site_label
 _atom_site_symmetry_multiplicity
 _atom_site_fract_x
 _atom_site_fract_y
 _atom_site_fract_z
 _atom_site_occupancy
  Sc  Sc0  1  0.332333  0.666167  0.000000  1
  Sc  Sc1  1  0.666622  0.333310  0.500000  1
  Sc  Sc2  1  0.666622  0.333310  0.000000  1
  Sc  Sc3  1  0.332333  0.666167  0.500000  1
  Sc  Sc4  1  0.233027  0.998993  0.250000  1
  Sc  Sc5  1  0.233027  0.234035  0.750000  1
  Sc  Sc6  1  0.002349  0.767634  0.750000  1
  Sc  Sc7  1  0.002349  0.234715  0.250000  1
  Sc  Sc8  1  0.764387  0.761602  0.250000  1
  Sc  Sc9  1  0.764387  0.002786  0.750000  1
  Tl  Tl10  1  0.998875  0.398182  0.750000  1
  Tl  Tl11  1  0.998875  0.600694  0.250000  1
  Tl  Tl12  1  0.395740  0.395166  0.250000  1
  Tl  Tl13  1  0.395740  0.000573  0.750000  1
  Sb  Sb14  1  0.606666  0.998570  0.250000  1
  Sb  Sb15  1  0.606666  0.608096  0.750000  1
