# generated using pymatgen
data_Dy13Er7(Bi2Ir)4
_symmetry_space_group_name_H-M   'P 1'
_cell_length_a   7.96289473
_cell_length_b   8.99215026
_cell_length_c   12.54276296
_cell_angle_alpha   90.01395596
_cell_angle_beta   89.95737536
_cell_angle_gamma   90.02399361
_symmetry_Int_Tables_number   1
_chemical_formula_structural   Dy13Er7(Bi2Ir)4
_chemical_formula_sum   'Dy13 Er7 Bi8 Ir4'
_cell_volume   898.10594957
_cell_formula_units_Z   1
loop_
 _symmetry_equiv_pos_site_id
 _symmetry_equiv_pos_as_xyz
  1  'x, y, z'
loop_
 _atom_site_type_symbol
 _atom_site_label
 _atom_site_symmetry_multiplicity
 _atom_site_fract_x
 _atom_site_fract_y
 _atom_site_fract_z
 _atom_site_occupancy
  Dy  Dy0  1  0.661114  0.750047  0.706641  1
  Dy  Dy1  1  0.338804  0.249983  0.293301  1
  Dy  Dy2  1  0.161410  0.249917  0.793256  1
  Dy  Dy3  1  0.838746  0.750014  0.206809  1
  Dy  Dy4  1  0.128690  0.750089  0.810914  1
  Dy  Dy5  1  0.871659  0.249835  0.189107  1
  Dy  Dy6  1  0.628360  0.249996  0.688928  1
  Dy  Dy7  1  0.371583  0.750006  0.311037  1
  Dy  Dy8  1  0.554502  0.750158  0.997964  1
  Dy  Dy9  1  0.445066  0.249872  0.002055  1
  Dy  Dy10  1  0.054898  0.249984  0.502075  1
  Dy  Dy11  1  0.945132  0.749990  0.497943  1
  Dy  Dy12  1  0.825706  0.459154  0.931960  1
  Er  Er13  1  0.173397  0.540839  0.067969  1
  Er  Er14  1  0.326917  0.540745  0.567866  1
  Er  Er15  1  0.173041  0.959067  0.067845  1
  Er  Er16  1  0.673038  0.459111  0.432134  1
  Er  Er17  1  0.826935  0.040864  0.932192  1
  Er  Er18  1  0.673013  0.040877  0.432138  1
  Er  Er19  1  0.326969  0.959268  0.567871  1
  Bi  Bi20  1  0.936730  0.006974  0.672872  1
  Bi  Bi21  1  0.063280  0.993020  0.327145  1
  Bi  Bi22  1  0.436729  0.993013  0.827120  1
  Bi  Bi23  1  0.063261  0.507003  0.327118  1
  Bi  Bi24  1  0.563298  0.006985  0.172882  1
  Bi  Bi25  1  0.936818  0.493040  0.672734  1
  Bi  Bi26  1  0.563400  0.493029  0.172876  1
  Bi  Bi27  1  0.436308  0.507054  0.826982  1
  Ir  Ir28  1  0.931246  0.750507  0.992556  1
  Ir  Ir29  1  0.069878  0.249562  0.007758  1
  Ir  Ir30  1  0.430913  0.250022  0.507505  1
  Ir  Ir31  1  0.569159  0.749976  0.492445  1
