# generated using pymatgen
data_Sc12Zn(Si4Au)3
_symmetry_space_group_name_H-M   'P 1'
_cell_length_a   4.04717600
_cell_length_b   10.46964363
_cell_length_c   11.79582569
_cell_angle_alpha   90.13276519
_cell_angle_beta   90.00000000
_cell_angle_gamma   90.00000000
_symmetry_Int_Tables_number   1
_chemical_formula_structural   Sc12Zn(Si4Au)3
_chemical_formula_sum   'Sc12 Zn1 Si12 Au3'
_cell_volume   499.81716955
_cell_formula_units_Z   1
loop_
 _symmetry_equiv_pos_site_id
 _symmetry_equiv_pos_as_xyz
  1  'x, y, z'
loop_
 _atom_site_type_symbol
 _atom_site_label
 _atom_site_symmetry_multiplicity
 _atom_site_fract_x
 _atom_site_fract_y
 _atom_site_fract_z
 _atom_site_occupancy
  Sc  Sc0  1  0.250000  0.872772  0.021758  1
  Sc  Sc1  1  0.250000  0.627040  0.522467  1
  Sc  Sc2  1  0.750000  0.125891  0.976788  1
  Sc  Sc3  1  0.750000  0.373540  0.477855  1
  Sc  Sc4  1  0.250000  0.921814  0.598605  1
  Sc  Sc5  1  0.250000  0.578048  0.097590  1
  Sc  Sc6  1  0.750000  0.078578  0.401622  1
  Sc  Sc7  1  0.750000  0.421435  0.901098  1
  Sc  Sc8  1  0.250000  0.660051  0.800604  1
  Sc  Sc9  1  0.250000  0.840419  0.300741  1
  Sc  Sc10  1  0.750000  0.339859  0.199140  1
  Sc  Sc11  1  0.750000  0.159881  0.698942  1
  Zn  Zn12  1  0.750000  0.885632  0.824661  1
  Si  Si13  1  0.250000  0.021692  0.826548  1
  Si  Si14  1  0.250000  0.475380  0.327118  1
  Si  Si15  1  0.750000  0.975406  0.172680  1
  Si  Si16  1  0.750000  0.525567  0.673075  1
  Si  Si17  1  0.250000  0.247421  0.848814  1
  Si  Si18  1  0.250000  0.252557  0.348571  1
  Si  Si19  1  0.750000  0.752398  0.150690  1
  Si  Si20  1  0.750000  0.750079  0.652854  1
  Si  Si21  1  0.250000  0.179373  0.539884  1
  Si  Si22  1  0.250000  0.320513  0.039999  1
  Si  Si23  1  0.750000  0.820798  0.460097  1
  Si  Si24  1  0.750000  0.678249  0.959561  1
  Au  Au25  1  0.250000  0.385020  0.678549  1
  Au  Au26  1  0.250000  0.114965  0.177334  1
  Au  Au27  1  0.750000  0.615622  0.322355  1
