# generated using pymatgen
data_Sc3SiP2Ir3
_symmetry_space_group_name_H-M   'P 1'
_cell_length_a   6.41064800
_cell_length_b   6.41064761
_cell_length_c   3.90766100
_cell_angle_alpha   90.00000000
_cell_angle_beta   90.00000000
_cell_angle_gamma   120.00001231
_symmetry_Int_Tables_number   1
_chemical_formula_structural   Sc3SiP2Ir3
_chemical_formula_sum   'Sc3 Si1 P2 Ir3'
_cell_volume   139.07571271
_cell_formula_units_Z   1
loop_
 _symmetry_equiv_pos_site_id
 _symmetry_equiv_pos_as_xyz
  1  'x, y, z'
loop_
 _atom_site_type_symbol
 _atom_site_label
 _atom_site_symmetry_multiplicity
 _atom_site_fract_x
 _atom_site_fract_y
 _atom_site_fract_z
 _atom_site_occupancy
  Sc  Sc0  1  0.000000  0.424772  0.500000  1
  Sc  Sc1  1  0.575228  0.575228  0.500000  1
  Sc  Sc2  1  0.424772  0.000000  0.500000  1
  Si  Si3  1  0.000000  0.000000  0.500000  1
  P  P4  1  0.666667  0.333333  0.000000  1
  P  P5  1  0.333333  0.666667  0.000000  1
  Ir  Ir6  1  0.000000  0.751985  0.000000  1
  Ir  Ir7  1  0.248015  0.248015  0.000000  1
  Ir  Ir8  1  0.751985  0.000000  0.000000  1
