# generated using pymatgen
data_K6InTe4Br
_symmetry_space_group_name_H-M   'P 1'
_cell_length_a   11.54069100
_cell_length_b   11.54069024
_cell_length_c   8.25731900
_cell_angle_alpha   90.00000000
_cell_angle_beta   90.00000000
_cell_angle_gamma   119.99999930
_symmetry_Int_Tables_number   1
_chemical_formula_structural   K6InTe4Br
_chemical_formula_sum   'K12 In2 Te8 Br2'
_cell_volume   952.43050141
_cell_formula_units_Z   2
loop_
 _symmetry_equiv_pos_site_id
 _symmetry_equiv_pos_as_xyz
  1  'x, y, z'
loop_
 _atom_site_type_symbol
 _atom_site_label
 _atom_site_symmetry_multiplicity
 _atom_site_fract_x
 _atom_site_fract_y
 _atom_site_fract_z
 _atom_site_occupancy
  K  K0  1  0.128029  0.871971  0.516997  1
  K  K1  1  0.743941  0.871971  0.516997  1
  K  K2  1  0.956597  0.478298  0.319737  1
  K  K3  1  0.521702  0.478298  0.319737  1
  K  K4  1  0.871971  0.743941  0.016997  1
  K  K5  1  0.256059  0.128029  0.016997  1
  K  K6  1  0.521702  0.043403  0.319737  1
  K  K7  1  0.128029  0.256059  0.516997  1
  K  K8  1  0.871971  0.128029  0.016997  1
  K  K9  1  0.043403  0.521702  0.819737  1
  K  K10  1  0.478298  0.956597  0.819737  1
  K  K11  1  0.478298  0.521702  0.819737  1
  In  In12  1  0.666667  0.333333  0.706765  1
  In  In13  1  0.333333  0.666667  0.206765  1
  Te  Te14  1  0.398990  0.199495  0.599198  1
  Te  Te15  1  0.601010  0.800505  0.099198  1
  Te  Te16  1  0.666667  0.333333  0.051109  1
  Te  Te17  1  0.800505  0.601010  0.599198  1
  Te  Te18  1  0.199495  0.398990  0.099198  1
  Te  Te19  1  0.333333  0.666667  0.551109  1
  Te  Te20  1  0.199495  0.800505  0.099198  1
  Te  Te21  1  0.800505  0.199495  0.599198  1
  Br  Br22  1  0.000000  0.000000  0.274932  1
  Br  Br23  1  0.000000  0.000000  0.774932  1
