# generated using pymatgen
data_Y12Co5Sn
_symmetry_space_group_name_H-M   'P 1'
_cell_length_a   8.38569128
_cell_length_b   8.38569140
_cell_length_c   8.38569139
_cell_angle_alpha   107.25570313
_cell_angle_beta   110.45367951
_cell_angle_gamma   110.72685832
_symmetry_Int_Tables_number   1
_chemical_formula_structural   Y12Co5Sn
_chemical_formula_sum   'Y12 Co5 Sn1'
_cell_volume   453.42683882
_cell_formula_units_Z   1
loop_
 _symmetry_equiv_pos_site_id
 _symmetry_equiv_pos_as_xyz
  1  'x, y, z'
loop_
 _atom_site_type_symbol
 _atom_site_label
 _atom_site_symmetry_multiplicity
 _atom_site_fract_x
 _atom_site_fract_y
 _atom_site_fract_z
 _atom_site_occupancy
  Y  Y0  1  0.476896  0.291788  0.185108  1
  Y  Y1  1  0.106681  0.291788  0.814892  1
  Y  Y2  1  0.893319  0.708212  0.185108  1
  Y  Y3  1  0.523104  0.708212  0.814892  1
  Y  Y4  1  0.306207  0.619741  0.313534  1
  Y  Y5  1  0.306207  0.992675  0.686466  1
  Y  Y6  1  0.693793  0.380259  0.686466  1
  Y  Y7  1  0.693793  0.007325  0.313534  1
  Y  Y8  1  0.193317  0.208081  0.401398  1
  Y  Y9  1  0.806683  0.791919  0.598602  1
  Y  Y10  1  0.193317  0.791919  0.985235  1
  Y  Y11  1  0.806683  0.208081  0.014765  1
  Co  Co12  1  0.500000  0.610491  0.110491  1
  Co  Co13  1  0.500000  0.389509  0.889509  1
  Co  Co14  1  0.380719  0.000000  0.380719  1
  Co  Co15  1  0.619281  0.000000  0.619281  1
  Co  Co16  1  0.000000  0.000000  0.000000  1
  Sn  Sn17  1  0.000000  0.500000  0.500000  1
