# generated using pymatgen
data_Zn2Ni(AsO4)2
_symmetry_space_group_name_H-M   'P 1'
_cell_length_a   8.53292600
_cell_length_b   5.34770202
_cell_length_c   9.01611733
_cell_angle_alpha   60.26918500
_cell_angle_beta   90.00000000
_cell_angle_gamma   90.00000000
_symmetry_Int_Tables_number   1
_chemical_formula_structural   Zn2Ni(AsO4)2
_chemical_formula_sum   'Zn4 Ni2 As4 O16'
_cell_volume   357.26214727
_cell_formula_units_Z   2
loop_
 _symmetry_equiv_pos_site_id
 _symmetry_equiv_pos_as_xyz
  1  'x, y, z'
loop_
 _atom_site_type_symbol
 _atom_site_label
 _atom_site_symmetry_multiplicity
 _atom_site_fract_x
 _atom_site_fract_y
 _atom_site_fract_z
 _atom_site_occupancy
  Zn  Zn0  1  0.359067  0.982922  0.111881  1
  Zn  Zn1  1  0.640933  0.017078  0.888119  1
  Zn  Zn2  1  0.859067  0.017078  0.388119  1
  Zn  Zn3  1  0.140933  0.982922  0.611881  1
  Ni  Ni4  1  0.000000  0.000000  0.000000  1
  Ni  Ni5  1  0.500000  0.000000  0.500000  1
  As  As6  1  0.692285  0.648437  0.305729  1
  As  As7  1  0.307715  0.351563  0.694271  1
  As  As8  1  0.192285  0.351563  0.194271  1
  As  As9  1  0.807715  0.648437  0.805729  1
  O  O10  1  0.639752  0.724254  0.463018  1
  O  O11  1  0.360248  0.275746  0.536982  1
  O  O12  1  0.139752  0.275746  0.036982  1
  O  O13  1  0.860248  0.724254  0.963018  1
  O  O14  1  0.564616  0.789718  0.135193  1
  O  O15  1  0.435384  0.210282  0.864807  1
  O  O16  1  0.064616  0.210282  0.364807  1
  O  O17  1  0.935384  0.789718  0.635193  1
  O  O18  1  0.872534  0.824130  0.243331  1
  O  O19  1  0.127466  0.175870  0.756669  1
  O  O20  1  0.372534  0.175870  0.256669  1
  O  O21  1  0.627466  0.824130  0.743331  1
  O  O22  1  0.694415  0.282086  0.385552  1
  O  O23  1  0.305585  0.717914  0.614448  1
  O  O24  1  0.194415  0.717914  0.114448  1
  O  O25  1  0.805585  0.282086  0.885552  1
