# generated using pymatgen
data_Ho4Th(MnB3)2
_symmetry_space_group_name_H-M   'P 1'
_cell_length_a   5.42204450
_cell_length_b   5.42204566
_cell_length_c   8.22926562
_cell_angle_alpha   70.76540391
_cell_angle_beta   70.76540172
_cell_angle_gamma   60.00001890
_symmetry_Int_Tables_number   1
_chemical_formula_structural   Ho4Th(MnB3)2
_chemical_formula_sum   'Ho4 Th1 Mn2 B6'
_cell_volume   193.76531714
_cell_formula_units_Z   1
loop_
 _symmetry_equiv_pos_site_id
 _symmetry_equiv_pos_as_xyz
  1  'x, y, z'
loop_
 _atom_site_type_symbol
 _atom_site_label
 _atom_site_symmetry_multiplicity
 _atom_site_fract_x
 _atom_site_fract_y
 _atom_site_fract_z
 _atom_site_occupancy
  Ho  Ho0  1  0.250403  0.250403  0.248791  1
  Ho  Ho1  1  0.749597  0.749597  0.751209  1
  Ho  Ho2  1  0.416741  0.416741  0.749778  1
  Ho  Ho3  1  0.583259  0.583259  0.250222  1
  Th  Th4  1  0.000000  0.000000  0.000000  1
  Mn  Mn5  1  0.112562  0.112562  0.662313  1
  Mn  Mn6  1  0.887438  0.887438  0.337687  1
  B  B7  1  0.166533  0.833467  0.500000  1
  B  B8  1  0.833467  0.500000  0.500000  1
  B  B9  1  0.500000  0.166533  0.500000  1
  B  B10  1  0.166533  0.500000  0.500000  1
  B  B11  1  0.500000  0.833467  0.500000  1
  B  B12  1  0.833467  0.166533  0.500000  1
