# generated using pymatgen
data_Th6Al24TcRu7
_symmetry_space_group_name_H-M   'P 1'
_cell_length_a   8.93363800
_cell_length_b   8.98128001
_cell_length_c   9.61713371
_cell_angle_alpha   90.23455383
_cell_angle_beta   90.00000000
_cell_angle_gamma   119.82467280
_symmetry_Int_Tables_number   1
_chemical_formula_structural   Th6Al24TcRu7
_chemical_formula_sum   'Th6 Al24 Tc1 Ru7'
_cell_volume   669.42604265
_cell_formula_units_Z   1
loop_
 _symmetry_equiv_pos_site_id
 _symmetry_equiv_pos_as_xyz
  1  'x, y, z'
loop_
 _atom_site_type_symbol
 _atom_site_label
 _atom_site_symmetry_multiplicity
 _atom_site_fract_x
 _atom_site_fract_y
 _atom_site_fract_z
 _atom_site_occupancy
  Th  Th0  1  0.805770  0.611540  0.750656  1
  Th  Th1  1  0.196926  0.807101  0.251773  1
  Th  Th2  1  0.610176  0.807101  0.251773  1
  Th  Th3  1  0.389824  0.192899  0.748227  1
  Th  Th4  1  0.803074  0.192899  0.748227  1
  Th  Th5  1  0.194230  0.388460  0.249344  1
  Al  Al6  1  0.333053  0.666107  0.489030  1
  Al  Al7  1  0.666170  0.332340  0.988879  1
  Al  Al8  1  0.666947  0.333893  0.510970  1
  Al  Al9  1  0.333830  0.667660  0.011121  1
  Al  Al10  1  0.162737  0.325475  0.577030  1
  Al  Al11  1  0.674508  0.836586  0.578514  1
  Al  Al12  1  0.162077  0.836586  0.578514  1
  Al  Al13  1  0.837915  0.163634  0.077422  1
  Al  Al14  1  0.837923  0.163414  0.421486  1
  Al  Al15  1  0.837747  0.675493  0.077631  1
  Al  Al16  1  0.325719  0.163634  0.077422  1
  Al  Al17  1  0.674281  0.836366  0.922578  1
  Al  Al18  1  0.162253  0.324507  0.922369  1
  Al  Al19  1  0.837263  0.674525  0.422970  1
  Al  Al20  1  0.000540  0.001080  0.249918  1
  Al  Al21  1  0.999460  0.998920  0.750082  1
  Al  Al22  1  0.563960  0.127920  0.248911  1
  Al  Al23  1  0.436890  0.562555  0.750435  1
  Al  Al24  1  0.125665  0.562555  0.750435  1
  Al  Al25  1  0.874335  0.437445  0.249565  1
  Al  Al26  1  0.563110  0.437445  0.249565  1
  Al  Al27  1  0.436040  0.872080  0.751089  1
  Al  Al28  1  0.162085  0.836366  0.922578  1
  Al  Al29  1  0.325492  0.163414  0.421486  1
  Tc  Tc30  1  0.500000  0.000000  0.500000  1
  Ru  Ru31  1  0.000000  0.000000  0.500000  1
  Ru  Ru32  1  0.000000  0.000000  0.000000  1
  Ru  Ru33  1  0.500000  0.500000  0.000000  1
  Ru  Ru34  1  0.000000  0.500000  0.000000  1
  Ru  Ru35  1  0.000000  0.500000  0.500000  1
  Ru  Ru36  1  0.500000  0.500000  0.500000  1
  Ru  Ru37  1  0.500000  0.000000  0.000000  1
