# generated using pymatgen
data_Li4DyHo3O8
_symmetry_space_group_name_H-M   'P 1'
_cell_length_a   3.37699500
_cell_length_b   5.29949264
_cell_length_c   11.18132534
_cell_angle_alpha   90.05616814
_cell_angle_beta   90.00000000
_cell_angle_gamma   90.00000000
_symmetry_Int_Tables_number   1
_chemical_formula_structural   Li4DyHo3O8
_chemical_formula_sum   'Li4 Dy1 Ho3 O8'
_cell_volume   200.10492899
_cell_formula_units_Z   1
loop_
 _symmetry_equiv_pos_site_id
 _symmetry_equiv_pos_as_xyz
  1  'x, y, z'
loop_
 _atom_site_type_symbol
 _atom_site_label
 _atom_site_symmetry_multiplicity
 _atom_site_fract_x
 _atom_site_fract_y
 _atom_site_fract_z
 _atom_site_occupancy
  Li  Li0  1  0.250000  0.097815  0.067181  1
  Li  Li1  1  0.250000  0.402197  0.566928  1
  Li  Li2  1  0.750000  0.597842  0.432594  1
  Li  Li3  1  0.750000  0.902042  0.933108  1
  Dy  Dy4  1  0.750000  0.952361  0.640519  1
  Ho  Ho5  1  0.250000  0.047230  0.359279  1
  Ho  Ho6  1  0.250000  0.452706  0.860166  1
  Ho  Ho7  1  0.750000  0.547080  0.140505  1
  O  O8  1  0.250000  0.191881  0.706487  1
  O  O9  1  0.750000  0.241561  0.473035  1
  O  O10  1  0.750000  0.258485  0.973746  1
  O  O11  1  0.250000  0.310300  0.206248  1
  O  O12  1  0.750000  0.689064  0.794507  1
  O  O13  1  0.250000  0.741156  0.026668  1
  O  O14  1  0.250000  0.758005  0.525570  1
  O  O15  1  0.750000  0.810276  0.293459  1
