# generated using pymatgen
data_Li4CoNi3P4
_symmetry_space_group_name_H-M   'P 1'
_cell_length_a   3.68413300
_cell_length_b   6.20591503
_cell_length_c   6.46218808
_cell_angle_alpha   90.14430657
_cell_angle_beta   90.00000000
_cell_angle_gamma   90.00000000
_symmetry_Int_Tables_number   1
_chemical_formula_structural   Li4CoNi3P4
_chemical_formula_sum   'Li4 Co1 Ni3 P4'
_cell_volume   147.74722809
_cell_formula_units_Z   1
loop_
 _symmetry_equiv_pos_site_id
 _symmetry_equiv_pos_as_xyz
  1  'x, y, z'
loop_
 _atom_site_type_symbol
 _atom_site_label
 _atom_site_symmetry_multiplicity
 _atom_site_fract_x
 _atom_site_fract_y
 _atom_site_fract_z
 _atom_site_occupancy
  Li  Li0  1  0.750000  0.508370  0.171089  1
  Li  Li1  1  0.750000  0.008965  0.332010  1
  Li  Li2  1  0.250000  0.487762  0.830700  1
  Li  Li3  1  0.250000  0.988656  0.667220  1
  Co  Co4  1  0.250000  0.859688  0.055521  1
  Ni  Ni5  1  0.750000  0.645856  0.556827  1
  Ni  Ni6  1  0.750000  0.142723  0.944049  1
  Ni  Ni7  1  0.250000  0.359748  0.442268  1
  P  P8  1  0.750000  0.289900  0.626621  1
  P  P9  1  0.750000  0.787469  0.879029  1
  P  P10  1  0.250000  0.714055  0.366054  1
  P  P11  1  0.250000  0.206806  0.128610  1
