# generated using pymatgen
data_Tm8Sc12Sn9Sb7
_symmetry_space_group_name_H-M   'P 1'
_cell_length_a   7.79840441
_cell_length_b   7.79637384
_cell_length_c   14.69375605
_cell_angle_alpha   90.04848443
_cell_angle_beta   89.90997766
_cell_angle_gamma   90.02054935
_symmetry_Int_Tables_number   1
_chemical_formula_structural   Tm8Sc12Sn9Sb7
_chemical_formula_sum   'Tm8 Sc12 Sn9 Sb7'
_cell_volume   893.36825206
_cell_formula_units_Z   1
loop_
 _symmetry_equiv_pos_site_id
 _symmetry_equiv_pos_as_xyz
  1  'x, y, z'
loop_
 _atom_site_type_symbol
 _atom_site_label
 _atom_site_symmetry_multiplicity
 _atom_site_fract_x
 _atom_site_fract_y
 _atom_site_fract_z
 _atom_site_occupancy
  Tm  Tm0  1  0.980255  0.179008  0.094842  1
  Tm  Tm1  1  0.024281  0.821050  0.904423  1
  Tm  Tm2  1  0.521757  0.681659  0.904065  1
  Tm  Tm3  1  0.023435  0.818361  0.596477  1
  Tm  Tm4  1  0.475983  0.318600  0.096512  1
  Tm  Tm5  1  0.976042  0.180982  0.403498  1
  Tm  Tm6  1  0.476320  0.318483  0.403481  1
  Tm  Tm7  1  0.523729  0.681437  0.596440  1
  Sc  Sc8  1  0.183639  0.495905  0.750214  1
  Sc  Sc9  1  0.816262  0.504722  0.249635  1
  Sc  Sc10  1  0.316521  0.995634  0.249096  1
  Sc  Sc11  1  0.683872  0.004461  0.749849  1
  Sc  Sc12  1  0.359200  0.155890  0.626102  1
  Sc  Sc13  1  0.640868  0.843932  0.373899  1
  Sc  Sc14  1  0.139960  0.655856  0.374159  1
  Sc  Sc15  1  0.641132  0.842877  0.127176  1
  Sc  Sc16  1  0.859594  0.344265  0.626162  1
  Sc  Sc17  1  0.358077  0.156813  0.873316  1
  Sc  Sc18  1  0.858012  0.343302  0.873677  1
  Sc  Sc19  1  0.141788  0.657036  0.126013  1
  Sn  Sn20  1  0.049417  0.123675  0.749657  1
  Sn  Sn21  1  0.950668  0.876473  0.250479  1
  Sn  Sn22  1  0.449506  0.623395  0.250722  1
  Sn  Sn23  1  0.549774  0.376910  0.749662  1
  Sn  Sn24  1  0.326622  0.847372  0.749901  1
  Sn  Sn25  1  0.674399  0.152860  0.249844  1
  Sn  Sn26  1  0.172611  0.347502  0.250014  1
  Sn  Sn27  1  0.826895  0.653151  0.750619  1
  Sn  Sn28  1  0.298037  0.955968  0.042820  1
  Sb  Sb29  1  0.206919  0.457089  0.543047  1
  Sb  Sb30  1  0.792820  0.542761  0.457063  1
  Sb  Sb31  1  0.292932  0.957026  0.456944  1
  Sb  Sb32  1  0.792919  0.542320  0.043019  1
  Sb  Sb33  1  0.707088  0.042906  0.543028  1
  Sb  Sb34  1  0.205673  0.457184  0.956681  1
  Sb  Sb35  1  0.702993  0.043135  0.957462  1
