# generated using pymatgen
data_CaZr2Al7Cu2
_symmetry_space_group_name_H-M   'P 1'
_cell_length_a   8.91502163
_cell_length_b   8.91502273
_cell_length_c   8.91502200
_cell_angle_alpha   34.83126958
_cell_angle_beta   34.83125946
_cell_angle_gamma   34.83126043
_symmetry_Int_Tables_number   1
_chemical_formula_structural   CaZr2Al7Cu2
_chemical_formula_sum   'Ca1 Zr2 Al7 Cu2'
_cell_volume   206.32586548
_cell_formula_units_Z   1
loop_
 _symmetry_equiv_pos_site_id
 _symmetry_equiv_pos_as_xyz
  1  'x, y, z'
loop_
 _atom_site_type_symbol
 _atom_site_label
 _atom_site_symmetry_multiplicity
 _atom_site_fract_x
 _atom_site_fract_y
 _atom_site_fract_z
 _atom_site_occupancy
  Ca  Ca0  1  0.000000  0.000000  0.000000  1
  Zr  Zr1  1  0.854827  0.854827  0.854827  1
  Zr  Zr2  1  0.145173  0.145173  0.145173  1
  Al  Al3  1  0.415286  0.415286  0.924651  1
  Al  Al4  1  0.924651  0.415286  0.415286  1
  Al  Al5  1  0.415286  0.924651  0.415286  1
  Al  Al6  1  0.500000  0.500000  0.500000  1
  Al  Al7  1  0.584714  0.075349  0.584714  1
  Al  Al8  1  0.075349  0.584714  0.584714  1
  Al  Al9  1  0.584714  0.584714  0.075349  1
  Cu  Cu10  1  0.665302  0.665302  0.665302  1
  Cu  Cu11  1  0.334698  0.334698  0.334698  1
