# generated using pymatgen
data_Sc2UBe2Ir5
_symmetry_space_group_name_H-M   'P 1'
_cell_length_a   9.35435700
_cell_length_b   9.35435700
_cell_length_c   3.51280600
_cell_angle_alpha   90.00000000
_cell_angle_beta   90.00000000
_cell_angle_gamma   90.00000000
_symmetry_Int_Tables_number   1
_chemical_formula_structural   Sc2UBe2Ir5
_chemical_formula_sum   'Sc4 U2 Be4 Ir10'
_cell_volume   307.38455825
_cell_formula_units_Z   2
loop_
 _symmetry_equiv_pos_site_id
 _symmetry_equiv_pos_as_xyz
  1  'x, y, z'
loop_
 _atom_site_type_symbol
 _atom_site_label
 _atom_site_symmetry_multiplicity
 _atom_site_fract_x
 _atom_site_fract_y
 _atom_site_fract_z
 _atom_site_occupancy
  Sc  Sc0  1  0.170882  0.670882  0.000000  1
  Sc  Sc1  1  0.829118  0.329118  0.000000  1
  Sc  Sc2  1  0.329118  0.170882  0.000000  1
  Sc  Sc3  1  0.670882  0.829118  0.000000  1
  U  U4  1  0.000000  0.000000  0.000000  1
  U  U5  1  0.500000  0.500000  0.000000  1
  Be  Be6  1  0.379943  0.879943  0.000000  1
  Be  Be7  1  0.879943  0.620057  0.000000  1
  Be  Be8  1  0.120057  0.379943  0.000000  1
  Be  Be9  1  0.620057  0.120057  0.000000  1
  Ir  Ir10  1  0.500000  0.000000  0.500000  1
  Ir  Ir11  1  0.713570  0.571579  0.500000  1
  Ir  Ir12  1  0.571579  0.286430  0.500000  1
  Ir  Ir13  1  0.428421  0.713570  0.500000  1
  Ir  Ir14  1  0.286430  0.428421  0.500000  1
  Ir  Ir15  1  0.000000  0.500000  0.500000  1
  Ir  Ir16  1  0.928421  0.786430  0.500000  1
  Ir  Ir17  1  0.786430  0.071579  0.500000  1
  Ir  Ir18  1  0.213570  0.928421  0.500000  1
  Ir  Ir19  1  0.071579  0.213570  0.500000  1
