# generated using pymatgen
data_Pr4Al(Ga2Pt)5
_symmetry_space_group_name_H-M   'P 1'
_cell_length_a   8.73049449
_cell_length_b   8.73049471
_cell_length_c   8.73049263
_cell_angle_alpha   140.24283326
_cell_angle_beta   106.51745768
_cell_angle_gamma   86.95791654
_symmetry_Int_Tables_number   1
_chemical_formula_structural   Pr4Al(Ga2Pt)5
_chemical_formula_sum   'Pr4 Al1 Ga10 Pt5'
_cell_volume   392.87368171
_cell_formula_units_Z   1
loop_
 _symmetry_equiv_pos_site_id
 _symmetry_equiv_pos_as_xyz
  1  'x, y, z'
loop_
 _atom_site_type_symbol
 _atom_site_label
 _atom_site_symmetry_multiplicity
 _atom_site_fract_x
 _atom_site_fract_y
 _atom_site_fract_z
 _atom_site_occupancy
  Pr  Pr0  1  0.863873  0.633320  0.231216  1
  Pr  Pr1  1  0.136127  0.367344  0.769447  1
  Pr  Pr2  1  0.402104  0.132656  0.268784  1
  Pr  Pr3  1  0.597896  0.866680  0.730553  1
  Al  Al4  1  0.000000  0.750000  0.750000  1
  Ga  Ga5  1  0.500000  0.750000  0.250000  1
  Ga  Ga6  1  0.500000  0.250000  0.750000  1
  Ga  Ga7  1  0.223199  0.973199  0.750000  1
  Ga  Ga8  1  0.776801  0.526801  0.750000  1
  Ga  Ga9  1  0.782165  0.032165  0.250000  1
  Ga  Ga10  1  0.217835  0.467835  0.250000  1
  Ga  Ga11  1  0.051000  0.893637  0.160991  1
  Ga  Ga12  1  0.949000  0.109991  0.842637  1
  Ga  Ga13  1  0.732645  0.390009  0.339009  1
  Ga  Ga14  1  0.267355  0.606363  0.657363  1
  Pt  Pt15  1  0.000000  0.250000  0.250000  1
  Pt  Pt16  1  0.255539  0.857655  0.391006  1
  Pt  Pt17  1  0.744461  0.135464  0.602114  1
  Pt  Pt18  1  0.466650  0.364536  0.108994  1
  Pt  Pt19  1  0.533350  0.642345  0.897886  1
