# generated using pymatgen
data_Sr6Co5O16
_symmetry_space_group_name_H-M   'P 1'
_cell_length_a   6.89174800
_cell_length_b   6.89174787
_cell_length_c   19.58962500
_cell_angle_alpha   90.00000000
_cell_angle_beta   90.00000000
_cell_angle_gamma   132.86144115
_symmetry_Int_Tables_number   1
_chemical_formula_structural   Sr6Co5O16
_chemical_formula_sum   'Sr12 Co10 O32'
_cell_volume   682.00783872
_cell_formula_units_Z   2
loop_
 _symmetry_equiv_pos_site_id
 _symmetry_equiv_pos_as_xyz
  1  'x, y, z'
loop_
 _atom_site_type_symbol
 _atom_site_label
 _atom_site_symmetry_multiplicity
 _atom_site_fract_x
 _atom_site_fract_y
 _atom_site_fract_z
 _atom_site_occupancy
  Sr  Sr0  1  0.356694  0.643306  0.975747  1
  Sr  Sr1  1  0.643306  0.356694  0.024253  1
  Sr  Sr2  1  0.143306  0.856694  0.475747  1
  Sr  Sr3  1  0.856694  0.143306  0.524253  1
  Sr  Sr4  1  0.094478  0.905522  0.678767  1
  Sr  Sr5  1  0.905522  0.094478  0.321233  1
  Sr  Sr6  1  0.405522  0.594478  0.178767  1
  Sr  Sr7  1  0.594478  0.405522  0.821233  1
  Sr  Sr8  1  0.383941  0.616059  0.670353  1
  Sr  Sr9  1  0.616059  0.383941  0.329647  1
  Sr  Sr10  1  0.116059  0.883941  0.170353  1
  Sr  Sr11  1  0.883941  0.116059  0.829647  1
  Co  Co12  1  0.124199  0.875801  0.906942  1
  Co  Co13  1  0.875801  0.124199  0.093058  1
  Co  Co14  1  0.375801  0.624199  0.406942  1
  Co  Co15  1  0.624199  0.375801  0.593058  1
  Co  Co16  1  0.000000  0.000000  0.000000  1
  Co  Co17  1  0.500000  0.500000  0.500000  1
  Co  Co18  1  0.253030  0.746970  0.813387  1
  Co  Co19  1  0.746970  0.253030  0.186613  1
  Co  Co20  1  0.246970  0.753030  0.313387  1
  Co  Co21  1  0.753030  0.246970  0.686613  1
  O  O22  1  0.491071  0.956566  0.385290  1
  O  O23  1  0.956566  0.491071  0.614710  1
  O  O24  1  0.008929  0.543434  0.885290  1
  O  O25  1  0.543434  0.008929  0.114710  1
  O  O26  1  0.508929  0.043434  0.614710  1
  O  O27  1  0.043434  0.508929  0.385290  1
  O  O28  1  0.991071  0.456566  0.114710  1
  O  O29  1  0.456566  0.991071  0.885290  1
  O  O30  1  0.752184  0.788638  0.069618  1
  O  O31  1  0.788638  0.752184  0.930382  1
  O  O32  1  0.747816  0.711362  0.569618  1
  O  O33  1  0.711362  0.747816  0.430382  1
  O  O34  1  0.247816  0.211362  0.930382  1
  O  O35  1  0.211362  0.247816  0.069618  1
  O  O36  1  0.252184  0.288638  0.430382  1
  O  O37  1  0.288638  0.252184  0.569618  1
  O  O38  1  0.151725  0.848275  0.001739  1
  O  O39  1  0.848275  0.151725  0.998261  1
  O  O40  1  0.348275  0.651725  0.501739  1
  O  O41  1  0.651725  0.348275  0.498261  1
  O  O42  1  0.087578  0.912422  0.814482  1
  O  O43  1  0.912422  0.087578  0.185518  1
  O  O44  1  0.487991  0.012009  0.750000  1
  O  O45  1  0.012009  0.487991  0.250000  1
  O  O46  1  0.512009  0.987991  0.250000  1
  O  O47  1  0.987991  0.512009  0.750000  1
  O  O48  1  0.897673  0.102327  0.689300  1
  O  O49  1  0.102327  0.897673  0.310700  1
  O  O50  1  0.602327  0.397673  0.189300  1
  O  O51  1  0.397673  0.602327  0.810700  1
  O  O52  1  0.587578  0.412422  0.685518  1
  O  O53  1  0.412422  0.587578  0.314482  1
