# generated using pymatgen
data_Dy5P12Ir6Ru13
_symmetry_space_group_name_H-M   'P 1'
_cell_length_a   12.58995710
_cell_length_b   12.55211595
_cell_length_c   3.97589900
_cell_angle_alpha   90.00000000
_cell_angle_beta   90.00000000
_cell_angle_gamma   119.84464306
_symmetry_Int_Tables_number   1
_chemical_formula_structural   Dy5P12Ir6Ru13
_chemical_formula_sum   'Dy5 P12 Ir6 Ru13'
_cell_volume   544.98546619
_cell_formula_units_Z   1
loop_
 _symmetry_equiv_pos_site_id
 _symmetry_equiv_pos_as_xyz
  1  'x, y, z'
loop_
 _atom_site_type_symbol
 _atom_site_label
 _atom_site_symmetry_multiplicity
 _atom_site_fract_x
 _atom_site_fract_y
 _atom_site_fract_z
 _atom_site_occupancy
  Dy  Dy0  1  0.666718  0.332937  0.000000  1
  Dy  Dy1  1  0.333014  0.666499  0.000000  1
  Dy  Dy2  1  0.813235  0.001500  0.500000  1
  Dy  Dy3  1  0.185982  0.186807  0.500000  1
  Dy  Dy4  1  0.000148  0.813193  0.500000  1
  P  P5  1  0.630040  0.003261  0.000000  1
  P  P6  1  0.372036  0.371745  0.000000  1
  P  P7  1  0.999917  0.627904  0.000000  1
  P  P8  1  0.688984  0.517878  0.500000  1
  P  P9  1  0.828404  0.307432  0.500000  1
  P  P10  1  0.311795  0.830089  0.500000  1
  P  P11  1  0.518522  0.688123  0.500000  1
  P  P12  1  0.181955  0.000604  0.000000  1
  P  P13  1  0.817091  0.818054  0.000000  1
  P  P14  1  0.997410  0.183243  0.000000  1
  P  P15  1  0.481547  0.169221  0.500000  1
  P  P16  1  0.170264  0.481822  0.500000  1
  Ir  Ir17  1  0.624305  0.808241  0.000000  1
  Ir  Ir18  1  0.184593  0.375605  0.000000  1
  Ir  Ir19  1  0.375107  0.183124  0.000000  1
  Ir  Ir20  1  0.191255  0.817084  0.000000  1
  Ir  Ir21  1  0.807849  0.624461  0.000000  1
  Ir  Ir22  1  0.999306  0.000330  0.000000  1
  Ru  Ru23  1  0.872411  0.508811  0.500000  1
  Ru  Ru24  1  0.490646  0.361872  0.500000  1
  Ru  Ru25  1  0.636022  0.124644  0.500000  1
  Ru  Ru26  1  0.128324  0.638686  0.500000  1
  Ru  Ru27  1  0.362575  0.490035  0.500000  1
  Ru  Ru28  1  0.509080  0.870637  0.500000  1
  Ru  Ru29  1  0.716094  0.716021  0.500000  1
  Ru  Ru30  1  0.002032  0.285164  0.500000  1
  Ru  Ru31  1  0.445896  0.998097  0.000000  1
  Ru  Ru32  1  0.552769  0.552384  0.000000  1
  Ru  Ru33  1  0.003014  0.448724  0.000000  1
  Ru  Ru34  1  0.817704  0.195586  0.000000  1
  Ru  Ru35  1  0.283958  0.000184  0.500000  1
