# generated using pymatgen
data_Y3IrAu3
_symmetry_space_group_name_H-M   'P 1'
_cell_length_a   8.06893292
_cell_length_b   8.06893311
_cell_length_c   8.06893272
_cell_angle_alpha   114.19719911
_cell_angle_beta   114.19719777
_cell_angle_gamma   114.19717824
_symmetry_Int_Tables_number   1
_chemical_formula_structural   Y3IrAu3
_chemical_formula_sum   'Y6 Ir2 Au6'
_cell_volume   314.45577141
_cell_formula_units_Z   2
loop_
 _symmetry_equiv_pos_site_id
 _symmetry_equiv_pos_as_xyz
  1  'x, y, z'
loop_
 _atom_site_type_symbol
 _atom_site_label
 _atom_site_symmetry_multiplicity
 _atom_site_fract_x
 _atom_site_fract_y
 _atom_site_fract_z
 _atom_site_occupancy
  Y  Y0  1  0.041258  0.393060  0.280613  1
  Y  Y1  1  0.393060  0.280613  0.041258  1
  Y  Y2  1  0.719387  0.958742  0.606940  1
  Y  Y3  1  0.280613  0.041258  0.393060  1
  Y  Y4  1  0.606940  0.719387  0.958742  1
  Y  Y5  1  0.958742  0.606940  0.719387  1
  Ir  Ir6  1  0.000000  0.000000  0.000000  1
  Ir  Ir7  1  0.500000  0.500000  0.500000  1
  Au  Au8  1  0.435963  0.937922  0.772599  1
  Au  Au9  1  0.937922  0.772599  0.435963  1
  Au  Au10  1  0.227401  0.564037  0.062078  1
  Au  Au11  1  0.772599  0.435963  0.937922  1
  Au  Au12  1  0.062078  0.227401  0.564037  1
  Au  Au13  1  0.564037  0.062078  0.227401  1
