# generated using pymatgen
data_Ta5Ti6Nb3P8
_symmetry_space_group_name_H-M   'P 1'
_cell_length_a   7.56095606
_cell_length_b   7.56095625
_cell_length_c   13.79252039
_cell_angle_alpha   76.28753743
_cell_angle_beta   76.28753676
_cell_angle_gamma   26.22906132
_symmetry_Int_Tables_number   1
_chemical_formula_structural   Ta5Ti6Nb3P8
_chemical_formula_sum   'Ta5 Ti6 Nb3 P8'
_cell_volume   338.00240170
_cell_formula_units_Z   1
loop_
 _symmetry_equiv_pos_site_id
 _symmetry_equiv_pos_as_xyz
  1  'x, y, z'
loop_
 _atom_site_type_symbol
 _atom_site_label
 _atom_site_symmetry_multiplicity
 _atom_site_fract_x
 _atom_site_fract_y
 _atom_site_fract_z
 _atom_site_occupancy
  Ta  Ta0  1  0.663051  0.663051  0.029406  1
  Ta  Ta1  1  0.336949  0.336949  0.970594  1
  Ta  Ta2  1  0.999716  0.999716  0.665204  1
  Ta  Ta3  1  0.000284  0.000284  0.334796  1
  Ta  Ta4  1  0.000000  0.000000  0.000000  1
  Ti  Ti5  1  0.823204  0.823204  0.542961  1
  Ti  Ti6  1  0.176796  0.176796  0.457039  1
  Ti  Ti7  1  0.208720  0.208720  0.202621  1
  Ti  Ti8  1  0.791280  0.791280  0.797379  1
  Ti  Ti9  1  0.197073  0.197073  0.691252  1
  Ti  Ti10  1  0.802927  0.802927  0.308748  1
  Nb  Nb11  1  0.428520  0.428520  0.172638  1
  Nb  Nb12  1  0.571480  0.571480  0.827362  1
  Nb  Nb13  1  0.500000  0.500000  0.500000  1
  P  P14  1  0.065520  0.065520  0.151985  1
  P  P15  1  0.934480  0.934480  0.848015  1
  P  P16  1  0.368560  0.368560  0.663465  1
  P  P17  1  0.631440  0.631440  0.336535  1
  P  P18  1  0.366582  0.366582  0.400398  1
  P  P19  1  0.633418  0.633418  0.599602  1
  P  P20  1  0.179816  0.179816  0.886484  1
  P  P21  1  0.820184  0.820184  0.113516  1
