# generated using pymatgen
data_LiY5(P2Ir3)6
_symmetry_space_group_name_H-M   'P 1'
_cell_length_a   12.69957696
_cell_length_b   12.79117808
_cell_length_c   3.97689000
_cell_angle_alpha   90.00000000
_cell_angle_beta   90.00000000
_cell_angle_gamma   120.23888415
_symmetry_Int_Tables_number   1
_chemical_formula_structural   LiY5(P2Ir3)6
_chemical_formula_sum   'Li1 Y5 P12 Ir18'
_cell_volume   558.11481983
_cell_formula_units_Z   1
loop_
 _symmetry_equiv_pos_site_id
 _symmetry_equiv_pos_as_xyz
  1  'x, y, z'
loop_
 _atom_site_type_symbol
 _atom_site_label
 _atom_site_symmetry_multiplicity
 _atom_site_fract_x
 _atom_site_fract_y
 _atom_site_fract_z
 _atom_site_occupancy
  Li  Li0  1  0.000000  0.556881  0.000000  1
  Y  Y1  1  0.000000  0.191772  0.500000  1
  Y  Y2  1  0.812108  0.813072  0.500000  1
  Y  Y3  1  0.187892  0.000964  0.500000  1
  Y  Y4  1  0.670204  0.335599  0.000000  1
  Y  Y5  1  0.329796  0.665398  0.000000  1
  P  P6  1  0.000000  0.820384  0.000000  1
  P  P7  1  0.178489  0.177141  0.000000  1
  P  P8  1  0.821511  0.998650  0.000000  1
  P  P9  1  0.690918  0.171127  0.500000  1
  P  P10  1  0.832502  0.515903  0.500000  1
  P  P11  1  0.485329  0.311437  0.500000  1
  P  P12  1  0.167498  0.683401  0.500000  1
  P  P13  1  0.514671  0.826108  0.500000  1
  P  P14  1  0.309082  0.480210  0.500000  1
  P  P15  1  0.000000  0.367436  0.000000  1
  P  P16  1  0.641723  0.642732  0.000000  1
  P  P17  1  0.358277  0.001008  0.000000  1
  Ir  Ir18  1  0.462143  0.462821  0.000000  1
  Ir  Ir19  1  0.537857  0.000678  0.000000  1
  Ir  Ir20  1  0.000000  0.718805  0.500000  1
  Ir  Ir21  1  0.285127  0.281879  0.500000  1
  Ir  Ir22  1  0.714873  0.996750  0.500000  1
  Ir  Ir23  1  0.801155  0.174103  0.000000  1
  Ir  Ir24  1  0.817722  0.624835  0.000000  1
  Ir  Ir25  1  0.379488  0.197053  0.000000  1
  Ir  Ir26  1  0.182278  0.807112  0.000000  1
  Ir  Ir27  1  0.620512  0.817564  0.000000  1
  Ir  Ir28  1  0.198845  0.372947  0.000000  1
  Ir  Ir29  1  0.869214  0.357555  0.500000  1
  Ir  Ir30  1  0.640257  0.506547  0.500000  1
  Ir  Ir31  1  0.495000  0.132191  0.500000  1
  Ir  Ir32  1  0.359743  0.866291  0.500000  1
  Ir  Ir33  1  0.505000  0.637190  0.500000  1
  Ir  Ir34  1  0.130786  0.488341  0.500000  1
  Ir  Ir35  1  0.000000  0.998116  0.000000  1
