# generated using pymatgen
data_Dy7Er13Pb16
_symmetry_space_group_name_H-M   'P 1'
_cell_length_a   8.17060828
_cell_length_b   8.24410507
_cell_length_c   15.57125755
_cell_angle_alpha   90.01106835
_cell_angle_beta   90.02818969
_cell_angle_gamma   89.98938746
_symmetry_Int_Tables_number   1
_chemical_formula_structural   Dy7Er13Pb16
_chemical_formula_sum   'Dy7 Er13 Pb16'
_cell_volume   1048.86967210
_cell_formula_units_Z   1
loop_
 _symmetry_equiv_pos_site_id
 _symmetry_equiv_pos_as_xyz
  1  'x, y, z'
loop_
 _atom_site_type_symbol
 _atom_site_label
 _atom_site_symmetry_multiplicity
 _atom_site_fract_x
 _atom_site_fract_y
 _atom_site_fract_z
 _atom_site_occupancy
  Dy  Dy0  1  0.036428  0.176878  0.600093  1
  Dy  Dy1  1  0.463575  0.676847  0.399929  1
  Dy  Dy2  1  0.963532  0.823194  0.100085  1
  Dy  Dy3  1  0.463546  0.676829  0.100054  1
  Dy  Dy4  1  0.963571  0.823146  0.399928  1
  Dy  Dy5  1  0.536438  0.323179  0.600033  1
  Dy  Dy6  1  0.036470  0.176875  0.899927  1
  Er  Er7  1  0.376483  0.841232  0.879124  1
  Er  Er8  1  0.876449  0.658800  0.620908  1
  Er  Er9  1  0.623553  0.158816  0.379166  1
  Er  Er10  1  0.123502  0.341117  0.120827  1
  Er  Er11  1  0.623512  0.158892  0.120737  1
  Er  Er12  1  0.123545  0.341162  0.379148  1
  Er  Er13  1  0.376479  0.841193  0.620915  1
  Er  Er14  1  0.876415  0.658740  0.879119  1
  Er  Er15  1  0.536623  0.323356  0.899848  1
  Er  Er16  1  0.208316  0.504380  0.750073  1
  Er  Er17  1  0.708155  0.995572  0.750059  1
  Er  Er18  1  0.791754  0.495521  0.249990  1
  Er  Er19  1  0.291754  0.004469  0.249972  1
  Pb  Pb20  1  0.281460  0.033121  0.042871  1
  Pb  Pb21  1  0.781507  0.466857  0.457149  1
  Pb  Pb22  1  0.718485  0.966867  0.542853  1
  Pb  Pb23  1  0.218971  0.532776  0.957074  1
  Pb  Pb24  1  0.718232  0.967136  0.957109  1
  Pb  Pb25  1  0.218479  0.533156  0.542847  1
  Pb  Pb26  1  0.281526  0.033157  0.457163  1
  Pb  Pb27  1  0.781223  0.466560  0.042615  1
  Pb  Pb28  1  0.571076  0.626961  0.750012  1
  Pb  Pb29  1  0.071121  0.872875  0.750011  1
  Pb  Pb30  1  0.428892  0.372888  0.249985  1
  Pb  Pb31  1  0.928892  0.127155  0.250033  1
  Pb  Pb32  1  0.347568  0.153710  0.750267  1
  Pb  Pb33  1  0.847208  0.346612  0.750083  1
  Pb  Pb34  1  0.652632  0.846600  0.249987  1
  Pb  Pb35  1  0.152628  0.653370  0.250007  1
