# generated using pymatgen
data_Ti5Nb(ReSi)6
_symmetry_space_group_name_H-M   'P 1'
_cell_length_a   7.55794995
_cell_length_b   7.55812979
_cell_length_c   7.55795018
_cell_angle_alpha   126.08871269
_cell_angle_beta   128.94081808
_cell_angle_gamma   77.43404135
_symmetry_Int_Tables_number   1
_chemical_formula_structural   Ti5Nb(ReSi)6
_chemical_formula_sum   'Ti5 Nb1 Re6 Si6'
_cell_volume   263.24111421
_cell_formula_units_Z   1
loop_
 _symmetry_equiv_pos_site_id
 _symmetry_equiv_pos_as_xyz
  1  'x, y, z'
loop_
 _atom_site_type_symbol
 _atom_site_label
 _atom_site_symmetry_multiplicity
 _atom_site_fract_x
 _atom_site_fract_y
 _atom_site_fract_z
 _atom_site_occupancy
  Ti  Ti0  1  0.548612  0.094653  0.046041  1
  Ti  Ti1  1  0.450533  0.492068  0.541536  1
  Ti  Ti2  1  0.951385  0.497470  0.046086  1
  Ti  Ti3  1  0.049517  0.090966  0.541450  1
  Ti  Ti4  1  0.750048  0.900205  0.650157  1
  Nb  Nb5  1  0.250002  0.902156  0.152154  1
  Re  Re6  1  0.501829  0.236799  0.738648  1
  Re  Re7  1  0.998151  0.236799  0.234970  1
  Re  Re8  1  0.130282  0.758426  0.627151  1
  Re  Re9  1  0.868632  0.496849  0.627133  1
  Re  Re10  1  0.631276  0.758426  0.128143  1
  Re  Re11  1  0.369716  0.496849  0.128217  1
  Si  Si12  1  0.750014  0.498089  0.248075  1
  Si  Si13  1  0.250001  0.494908  0.744907  1
  Si  Si14  1  0.336218  0.828615  0.501337  1
  Si  Si15  1  0.672727  0.165152  0.501372  1
  Si  Si16  1  0.827276  0.828615  0.992396  1
  Si  Si17  1  0.163781  0.165152  0.992426  1
