# generated using pymatgen
data_Zr5Fe2Co16MoP12
_symmetry_space_group_name_H-M   'P 1'
_cell_length_a   11.84338394
_cell_length_b   11.88711289
_cell_length_c   3.63574500
_cell_angle_alpha   90.00000000
_cell_angle_beta   90.00000000
_cell_angle_gamma   120.12220981
_symmetry_Int_Tables_number   1
_chemical_formula_structural   Zr5Fe2Co16MoP12
_chemical_formula_sum   'Zr5 Fe2 Co16 Mo1 P12'
_cell_volume   442.73117644
_cell_formula_units_Z   1
loop_
 _symmetry_equiv_pos_site_id
 _symmetry_equiv_pos_as_xyz
  1  'x, y, z'
loop_
 _atom_site_type_symbol
 _atom_site_label
 _atom_site_symmetry_multiplicity
 _atom_site_fract_x
 _atom_site_fract_y
 _atom_site_fract_z
 _atom_site_occupancy
  Zr  Zr0  1  0.667738  0.332481  0.000000  1
  Zr  Zr1  1  0.332262  0.664744  0.000000  1
  Zr  Zr2  1  0.815731  0.816232  0.500000  1
  Zr  Zr3  1  0.184269  0.000502  0.500000  1
  Zr  Zr4  1  0.000000  0.180680  0.500000  1
  Fe  Fe5  1  0.450902  0.450211  0.000000  1
  Fe  Fe6  1  0.549098  0.999308  0.000000  1
  Co  Co7  1  0.199138  0.376204  0.000000  1
  Co  Co8  1  0.178811  0.805799  0.000000  1
  Co  Co9  1  0.821189  0.626988  0.000000  1
  Co  Co10  1  0.800862  0.177067  0.000000  1
  Co  Co11  1  0.376832  0.198329  0.000000  1
  Co  Co12  1  0.128405  0.482037  0.500000  1
  Co  Co13  1  0.355769  0.871471  0.500000  1
  Co  Co14  1  0.517247  0.644778  0.500000  1
  Co  Co15  1  0.644231  0.515702  0.500000  1
  Co  Co16  1  0.871595  0.353633  0.500000  1
  Co  Co17  1  0.482753  0.127531  0.500000  1
  Co  Co18  1  0.000000  0.001167  0.000000  1
  Co  Co19  1  0.715139  0.999746  0.500000  1
  Co  Co20  1  0.000000  0.720033  0.500000  1
  Co  Co21  1  0.623168  0.821497  0.000000  1
  Co  Co22  1  0.284861  0.284607  0.500000  1
  Mo  Mo23  1  0.000000  0.551140  0.000000  1
  P  P24  1  0.636345  0.637969  0.000000  1
  P  P25  1  0.363655  0.001624  0.000000  1
  P  P26  1  0.000000  0.355302  0.000000  1
  P  P27  1  0.482671  0.316328  0.500000  1
  P  P28  1  0.682271  0.164586  0.500000  1
  P  P29  1  0.831803  0.517785  0.500000  1
  P  P30  1  0.517329  0.833657  0.500000  1
  P  P31  1  0.168197  0.685983  0.500000  1
  P  P32  1  0.821672  0.999388  0.000000  1
  P  P33  1  0.000000  0.825459  0.000000  1
  P  P34  1  0.317729  0.482316  0.500000  1
  P  P35  1  0.178328  0.177716  0.000000  1
