# generated using pymatgen
data_Ti8TlS16
_symmetry_space_group_name_H-M   'P 1'
_cell_length_a   6.85081900
_cell_length_b   6.85081936
_cell_length_c   15.84859300
_cell_angle_alpha   90.00000000
_cell_angle_beta   90.00000000
_cell_angle_gamma   119.99999341
_symmetry_Int_Tables_number   1
_chemical_formula_structural   Ti8TlS16
_chemical_formula_sum   'Ti8 Tl1 S16'
_cell_volume   644.17873366
_cell_formula_units_Z   1
loop_
 _symmetry_equiv_pos_site_id
 _symmetry_equiv_pos_as_xyz
  1  'x, y, z'
loop_
 _atom_site_type_symbol
 _atom_site_label
 _atom_site_symmetry_multiplicity
 _atom_site_fract_x
 _atom_site_fract_y
 _atom_site_fract_z
 _atom_site_occupancy
  Ti  Ti0  1  0.500655  0.499345  0.734513  1
  Ti  Ti1  1  0.499345  0.500655  0.265487  1
  Ti  Ti2  1  0.500655  0.001309  0.734513  1
  Ti  Ti3  1  0.499345  0.998691  0.265487  1
  Ti  Ti4  1  0.998691  0.499345  0.734513  1
  Ti  Ti5  1  0.001309  0.500655  0.265487  1
  Ti  Ti6  1  0.000000  0.000000  0.732382  1
  Ti  Ti7  1  0.000000  0.000000  0.267618  1
  Tl  Tl8  1  0.000000  0.000000  0.000000  1
  S  S9  1  0.833842  0.667686  0.174848  1
  S  S10  1  0.832908  0.665819  0.645071  1
  S  S11  1  0.833842  0.166158  0.174848  1
  S  S12  1  0.832908  0.167092  0.645071  1
  S  S13  1  0.333333  0.666667  0.174819  1
  S  S14  1  0.333333  0.666667  0.646396  1
  S  S15  1  0.332314  0.166158  0.174848  1
  S  S16  1  0.334181  0.167092  0.645071  1
  S  S17  1  0.667686  0.833842  0.825152  1
  S  S18  1  0.665819  0.832908  0.354929  1
  S  S19  1  0.666667  0.333333  0.825181  1
  S  S20  1  0.666667  0.333333  0.353604  1
  S  S21  1  0.166158  0.833842  0.825152  1
  S  S22  1  0.167092  0.832908  0.354929  1
  S  S23  1  0.166158  0.332314  0.825152  1
  S  S24  1  0.167092  0.334181  0.354929  1
