# generated using pymatgen
data_Lu11Sc(Si3Ir)4
_symmetry_space_group_name_H-M   'P 1'
_cell_length_a   4.16020200
_cell_length_b   10.47042251
_cell_length_c   11.99600907
_cell_angle_alpha   89.92908702
_cell_angle_beta   90.00000000
_cell_angle_gamma   90.00000000
_symmetry_Int_Tables_number   1
_chemical_formula_structural   Lu11Sc(Si3Ir)4
_chemical_formula_sum   'Lu11 Sc1 Si12 Ir4'
_cell_volume   522.53463063
_cell_formula_units_Z   1
loop_
 _symmetry_equiv_pos_site_id
 _symmetry_equiv_pos_as_xyz
  1  'x, y, z'
loop_
 _atom_site_type_symbol
 _atom_site_label
 _atom_site_symmetry_multiplicity
 _atom_site_fract_x
 _atom_site_fract_y
 _atom_site_fract_z
 _atom_site_occupancy
  Lu  Lu0  1  0.250000  0.879690  0.018704  1
  Lu  Lu1  1  0.250000  0.620823  0.519180  1
  Lu  Lu2  1  0.750000  0.121232  0.978578  1
  Lu  Lu3  1  0.750000  0.377380  0.482109  1
  Lu  Lu4  1  0.250000  0.921704  0.603644  1
  Lu  Lu5  1  0.250000  0.579353  0.103364  1
  Lu  Lu6  1  0.750000  0.079024  0.398110  1
  Lu  Lu7  1  0.750000  0.419965  0.895537  1
  Lu  Lu8  1  0.250000  0.660797  0.800015  1
  Lu  Lu9  1  0.250000  0.840318  0.300281  1
  Lu  Lu10  1  0.750000  0.337888  0.200002  1
  Sc  Sc11  1  0.750000  0.160481  0.701434  1
  Si  Si12  1  0.250000  0.015647  0.820758  1
  Si  Si13  1  0.250000  0.484962  0.321870  1
  Si  Si14  1  0.750000  0.986775  0.178021  1
  Si  Si15  1  0.750000  0.515010  0.678164  1
  Si  Si16  1  0.250000  0.247286  0.838234  1
  Si  Si17  1  0.250000  0.250676  0.344053  1
  Si  Si18  1  0.750000  0.752047  0.158103  1
  Si  Si19  1  0.750000  0.748624  0.657648  1
  Si  Si20  1  0.250000  0.196338  0.550305  1
  Si  Si21  1  0.250000  0.302161  0.042958  1
  Si  Si22  1  0.750000  0.802090  0.455474  1
  Si  Si23  1  0.750000  0.697981  0.955075  1
  Ir  Ir24  1  0.250000  0.391632  0.679350  1
  Ir  Ir25  1  0.250000  0.109062  0.179863  1
  Ir  Ir26  1  0.750000  0.608384  0.320283  1
  Ir  Ir27  1  0.750000  0.892668  0.818881  1
