# generated using pymatgen
data_Bi4RuCl4
_symmetry_space_group_name_H-M   'P 1'
_cell_length_a   9.81800792
_cell_length_b   9.81801077
_cell_length_c   6.20828052
_cell_angle_alpha   91.57138793
_cell_angle_beta   91.57139848
_cell_angle_gamma   90.09888583
_symmetry_Int_Tables_number   1
_chemical_formula_structural   Bi4RuCl4
_chemical_formula_sum   'Bi8 Ru2 Cl8'
_cell_volume   597.98483296
_cell_formula_units_Z   2
loop_
 _symmetry_equiv_pos_site_id
 _symmetry_equiv_pos_as_xyz
  1  'x, y, z'
loop_
 _atom_site_type_symbol
 _atom_site_label
 _atom_site_symmetry_multiplicity
 _atom_site_fract_x
 _atom_site_fract_y
 _atom_site_fract_z
 _atom_site_occupancy
  Bi  Bi0  1  0.091188  0.770274  0.993616  1
  Bi  Bi1  1  0.229726  0.908812  0.506384  1
  Bi  Bi2  1  0.908812  0.229726  0.006384  1
  Bi  Bi3  1  0.770274  0.091188  0.493616  1
  Bi  Bi4  1  0.770057  0.907849  0.984759  1
  Bi  Bi5  1  0.092151  0.229943  0.515241  1
  Bi  Bi6  1  0.229943  0.092151  0.015241  1
  Bi  Bi7  1  0.907849  0.770057  0.484759  1
  Ru  Ru8  1  0.999124  0.000876  0.250000  1
  Ru  Ru9  1  0.000876  0.999124  0.750000  1
  Cl  Cl10  1  0.370951  0.836736  0.997312  1
  Cl  Cl11  1  0.163264  0.629049  0.502688  1
  Cl  Cl12  1  0.629049  0.163264  0.002688  1
  Cl  Cl13  1  0.836736  0.370951  0.497312  1
  Cl  Cl14  1  0.835199  0.628263  0.970929  1
  Cl  Cl15  1  0.371737  0.164801  0.529071  1
  Cl  Cl16  1  0.164801  0.371737  0.029071  1
  Cl  Cl17  1  0.628263  0.835199  0.470929  1
