# generated using pymatgen
data_Yb3Dy15(ErIr6)2
_symmetry_space_group_name_H-M   'P 1'
_cell_length_a   10.86284260
_cell_length_b   10.90498940
_cell_length_c   6.34450901
_cell_angle_alpha   89.96120454
_cell_angle_beta   90.21850682
_cell_angle_gamma   90.01207157
_symmetry_Int_Tables_number   1
_chemical_formula_structural   Yb3Dy15(ErIr6)2
_chemical_formula_sum   'Yb3 Dy15 Er2 Ir12'
_cell_volume   751.55970272
_cell_formula_units_Z   1
loop_
 _symmetry_equiv_pos_site_id
 _symmetry_equiv_pos_as_xyz
  1  'x, y, z'
loop_
 _atom_site_type_symbol
 _atom_site_label
 _atom_site_symmetry_multiplicity
 _atom_site_fract_x
 _atom_site_fract_y
 _atom_site_fract_z
 _atom_site_occupancy
  Yb  Yb0  1  0.287976  0.086777  0.375370  1
  Yb  Yb1  1  0.290054  0.911785  0.875625  1
  Yb  Yb2  1  0.001519  0.999827  0.499162  1
  Dy  Dy3  1  0.708344  0.087488  0.879430  1
  Dy  Dy4  1  0.710142  0.914108  0.379077  1
  Dy  Dy5  1  0.587799  0.792054  0.877800  1
  Dy  Dy6  1  0.586772  0.207592  0.377356  1
  Dy  Dy7  1  0.412006  0.792829  0.378599  1
  Dy  Dy8  1  0.411156  0.207529  0.879297  1
  Dy  Dy9  1  0.209450  0.412955  0.623657  1
  Dy  Dy10  1  0.209882  0.588114  0.122831  1
  Dy  Dy11  1  0.790763  0.411294  0.120736  1
  Dy  Dy12  1  0.791093  0.587779  0.621311  1
  Dy  Dy13  1  0.912047  0.709182  0.122321  1
  Dy  Dy14  1  0.913331  0.289244  0.622852  1
  Dy  Dy15  1  0.086932  0.710390  0.620944  1
  Dy  Dy16  1  0.088495  0.291374  0.120596  1
  Dy  Dy17  1  0.000769  0.000373  0.999467  1
  Er  Er18  1  0.500091  0.499733  0.999081  1
  Er  Er19  1  0.500039  0.500306  0.499200  1
  Ir  Ir20  1  0.846035  0.156224  0.246442  1
  Ir  Ir21  1  0.845712  0.844222  0.754489  1
  Ir  Ir22  1  0.151372  0.160972  0.757473  1
  Ir  Ir23  1  0.150712  0.837902  0.248772  1
  Ir  Ir24  1  0.651994  0.346550  0.749011  1
  Ir  Ir25  1  0.651684  0.653742  0.251031  1
  Ir  Ir26  1  0.348027  0.351037  0.248450  1
  Ir  Ir27  1  0.347680  0.648779  0.745968  1
  Ir  Ir28  1  0.504053  0.000322  0.122011  1
  Ir  Ir29  1  0.504030  0.999575  0.621366  1
  Ir  Ir30  1  0.000016  0.500205  0.879754  1
  Ir  Ir31  1  0.000027  0.499739  0.380520  1
