# generated using pymatgen
data_Li4ErTm3Si8
_symmetry_space_group_name_H-M   'P 1'
_cell_length_a   3.76351500
_cell_length_b   7.54076006
_cell_length_c   10.06777311
_cell_angle_alpha   89.94755695
_cell_angle_beta   90.00000000
_cell_angle_gamma   90.00000000
_symmetry_Int_Tables_number   1
_chemical_formula_structural   Li4ErTm3Si8
_chemical_formula_sum   'Li4 Er1 Tm3 Si8'
_cell_volume   285.72090122
_cell_formula_units_Z   1
loop_
 _symmetry_equiv_pos_site_id
 _symmetry_equiv_pos_as_xyz
  1  'x, y, z'
loop_
 _atom_site_type_symbol
 _atom_site_label
 _atom_site_symmetry_multiplicity
 _atom_site_fract_x
 _atom_site_fract_y
 _atom_site_fract_z
 _atom_site_occupancy
  Li  Li0  1  0.250000  0.989213  0.392243  1
  Li  Li1  1  0.750000  0.011219  0.607848  1
  Li  Li2  1  0.250000  0.488985  0.107883  1
  Li  Li3  1  0.750000  0.510300  0.892191  1
  Er  Er4  1  0.750000  0.359907  0.363652  1
  Tm  Tm5  1  0.250000  0.139814  0.863613  1
  Tm  Tm6  1  0.750000  0.859730  0.136470  1
  Tm  Tm7  1  0.250000  0.640143  0.636275  1
  Si  Si8  1  0.750000  0.265370  0.065865  1
  Si  Si9  1  0.250000  0.733464  0.933241  1
  Si  Si10  1  0.750000  0.767251  0.433556  1
  Si  Si11  1  0.250000  0.233353  0.567764  1
  Si  Si12  1  0.750000  0.847199  0.820039  1
  Si  Si13  1  0.250000  0.152036  0.179105  1
  Si  Si14  1  0.750000  0.347165  0.680561  1
  Si  Si15  1  0.250000  0.654849  0.319694  1
