# generated using pymatgen
data_Tb3Y3Mn2(Co4P3)4
_symmetry_space_group_name_H-M   'P 1'
_cell_length_a   3.69646700
_cell_length_b   10.55235302
_cell_length_c   12.20586503
_cell_angle_alpha   90.00745188
_cell_angle_beta   90.00000000
_cell_angle_gamma   90.00000000
_symmetry_Int_Tables_number   1
_chemical_formula_structural   Tb3Y3Mn2(Co4P3)4
_chemical_formula_sum   'Tb3 Y3 Mn2 Co16 P12'
_cell_volume   476.10715124
_cell_formula_units_Z   1
loop_
 _symmetry_equiv_pos_site_id
 _symmetry_equiv_pos_as_xyz
  1  'x, y, z'
loop_
 _atom_site_type_symbol
 _atom_site_label
 _atom_site_symmetry_multiplicity
 _atom_site_fract_x
 _atom_site_fract_y
 _atom_site_fract_z
 _atom_site_occupancy
  Tb  Tb0  1  0.000000  0.499988  0.522605  1
  Tb  Tb1  1  0.500000  0.999985  0.477515  1
  Tb  Tb2  1  0.500000  0.818099  0.205172  1
  Y  Y3  1  0.500000  0.182126  0.205065  1
  Y  Y4  1  0.000000  0.682073  0.794932  1
  Y  Y5  1  0.000000  0.317910  0.794873  1
  Mn  Mn6  1  0.500000  0.500038  0.158743  1
  Mn  Mn7  1  0.000000  0.000019  0.841107  1
  Co  Co8  1  0.500000  0.499956  0.702890  1
  Co  Co9  1  0.000000  0.000015  0.297148  1
  Co  Co10  1  0.000000  0.499924  0.986335  1
  Co  Co11  1  0.500000  0.000105  0.013523  1
  Co  Co12  1  0.500000  0.333197  0.994035  1
  Co  Co13  1  0.500000  0.666739  0.993989  1
  Co  Co14  1  0.000000  0.166906  0.005910  1
  Co  Co15  1  0.000000  0.833220  0.005784  1
  Co  Co16  1  0.500000  0.296555  0.430354  1
  Co  Co17  1  0.500000  0.703407  0.430489  1
  Co  Co18  1  0.000000  0.203432  0.569668  1
  Co  Co19  1  0.000000  0.796576  0.569800  1
  Co  Co20  1  0.500000  0.879712  0.709558  1
  Co  Co21  1  0.500000  0.120270  0.709478  1
  Co  Co22  1  0.000000  0.620142  0.290562  1
  Co  Co23  1  0.000000  0.379694  0.290479  1
  P  P24  1  0.500000  0.499954  0.882893  1
  P  P25  1  0.000000  0.000125  0.116892  1
  P  P26  1  0.500000  0.500045  0.344550  1
  P  P27  1  0.000000  0.999982  0.655440  1
  P  P28  1  0.500000  0.310632  0.616026  1
  P  P29  1  0.500000  0.689311  0.616113  1
  P  P30  1  0.000000  0.189350  0.383974  1
  P  P31  1  0.000000  0.810509  0.384244  1
  P  P32  1  0.500000  0.847456  0.893185  1
  P  P33  1  0.500000  0.152578  0.893100  1
  P  P34  1  0.000000  0.652457  0.106714  1
  P  P35  1  0.000000  0.347511  0.106855  1
