# generated using pymatgen
data_Er3TmSc4(B6Ir)4
_symmetry_space_group_name_H-M   'P 1'
_cell_length_a   3.53284800
_cell_length_b   8.99106700
_cell_length_c   11.34806100
_cell_angle_alpha   90.00225890
_cell_angle_beta   90.00000000
_cell_angle_gamma   90.00000000
_symmetry_Int_Tables_number   1
_chemical_formula_structural   Er3TmSc4(B6Ir)4
_chemical_formula_sum   'Er3 Tm1 Sc4 B24 Ir4'
_cell_volume   360.46063865
_cell_formula_units_Z   1
loop_
 _symmetry_equiv_pos_site_id
 _symmetry_equiv_pos_as_xyz
  1  'x, y, z'
loop_
 _atom_site_type_symbol
 _atom_site_label
 _atom_site_symmetry_multiplicity
 _atom_site_fract_x
 _atom_site_fract_y
 _atom_site_fract_z
 _atom_site_occupancy
  Er  Er0  1  0.500000  0.319680  0.413960  1
  Er  Er1  1  0.500000  0.680383  0.585962  1
  Er  Er2  1  0.500000  0.180421  0.914025  1
  Tm  Tm3  1  0.500000  0.819579  0.085986  1
  Sc  Sc4  1  0.500000  0.445150  0.124141  1
  Sc  Sc5  1  0.500000  0.554970  0.875906  1
  Sc  Sc6  1  0.500000  0.054913  0.624158  1
  Sc  Sc7  1  0.500000  0.945059  0.375831  1
  B  B8  1  0.000000  0.100727  0.472655  1
  B  B9  1  0.000000  0.899245  0.527312  1
  B  B10  1  0.000000  0.399245  0.972680  1
  B  B11  1  0.000000  0.601026  0.027425  1
  B  B12  1  0.000000  0.130057  0.318461  1
  B  B13  1  0.000000  0.869904  0.681553  1
  B  B14  1  0.000000  0.369908  0.818477  1
  B  B15  1  0.000000  0.630286  0.181396  1
  B  B16  1  0.000000  0.054340  0.065243  1
  B  B17  1  0.000000  0.945311  0.934954  1
  B  B18  1  0.000000  0.445438  0.565240  1
  B  B19  1  0.000000  0.554544  0.434739  1
  B  B20  1  0.000000  0.481409  0.285335  1
  B  B21  1  0.000000  0.518622  0.714646  1
  B  B22  1  0.000000  0.018585  0.785389  1
  B  B23  1  0.000000  0.981169  0.214508  1
  B  B24  1  0.000000  0.253711  0.079749  1
  B  B25  1  0.000000  0.746361  0.920489  1
  B  B26  1  0.000000  0.246270  0.579727  1
  B  B27  1  0.000000  0.753741  0.420232  1
  B  B28  1  0.000000  0.295724  0.235672  1
  B  B29  1  0.000000  0.704284  0.764356  1
  B  B30  1  0.000000  0.204260  0.735704  1
  B  B31  1  0.000000  0.795793  0.264094  1
  Ir  Ir32  1  0.500000  0.140991  0.181128  1
  Ir  Ir33  1  0.500000  0.858777  0.818967  1
  Ir  Ir34  1  0.500000  0.358770  0.681237  1
  Ir  Ir35  1  0.500000  0.641348  0.318664  1
