# generated using pymatgen
data_Ce5P12IrRu18
_symmetry_space_group_name_H-M   'P 1'
_cell_length_a   12.63518500
_cell_length_b   12.63518523
_cell_length_c   3.98517000
_cell_angle_alpha   90.00000000
_cell_angle_beta   90.00000000
_cell_angle_gamma   119.99804007
_symmetry_Int_Tables_number   1
_chemical_formula_structural   Ce5P12IrRu18
_chemical_formula_sum   'Ce5 P12 Ir1 Ru18'
_cell_volume   550.99705689
_cell_formula_units_Z   1
loop_
 _symmetry_equiv_pos_site_id
 _symmetry_equiv_pos_as_xyz
  1  'x, y, z'
loop_
 _atom_site_type_symbol
 _atom_site_label
 _atom_site_symmetry_multiplicity
 _atom_site_fract_x
 _atom_site_fract_y
 _atom_site_fract_z
 _atom_site_occupancy
  Ce  Ce0  1  0.666669  0.333327  0.000000  1
  Ce  Ce1  1  0.333326  0.666668  0.000000  1
  Ce  Ce2  1  0.188361  0.000009  0.500001  1
  Ce  Ce3  1  0.000009  0.188359  0.500001  1
  Ce  Ce4  1  0.811671  0.811671  0.500001  1
  P  P5  1  0.374615  0.999999  0.000000  1
  P  P6  1  0.813335  0.999997  0.000000  1
  P  P7  1  0.186672  0.186672  0.000000  1
  P  P8  1  0.999999  0.374615  0.000000  1
  P  P9  1  0.625379  0.625378  0.000000  1
  P  P10  1  0.999997  0.813334  0.000000  1
  P  P11  1  0.694990  0.171555  0.500001  1
  P  P12  1  0.476568  0.305007  0.500001  1
  P  P13  1  0.305006  0.476568  0.500001  1
  P  P14  1  0.828446  0.523437  0.500001  1
  P  P15  1  0.171555  0.694991  0.500001  1
  P  P16  1  0.523438  0.828447  0.500001  1
  Ir  Ir17  1  0.000004  0.000004  0.000000  1
  Ru  Ru18  1  0.555262  0.999994  0.000000  1
  Ru  Ru19  1  0.807783  0.184150  0.000000  1
  Ru  Ru20  1  0.376374  0.192214  0.000000  1
  Ru  Ru21  1  0.192214  0.376374  0.000000  1
  Ru  Ru22  1  0.444755  0.444755  0.000000  1
  Ru  Ru23  1  0.999994  0.555262  0.000000  1
  Ru  Ru24  1  0.815854  0.623643  0.000000  1
  Ru  Ru25  1  0.184149  0.807782  0.000000  1
  Ru  Ru26  1  0.623642  0.815854  0.000000  1
  Ru  Ru27  1  0.716431  0.000003  0.500001  1
  Ru  Ru28  1  0.492925  0.125930  0.500001  1
  Ru  Ru29  1  0.283580  0.283580  0.500001  1
  Ru  Ru30  1  0.874074  0.366998  0.500001  1
  Ru  Ru31  1  0.125930  0.492925  0.500001  1
  Ru  Ru32  1  0.633007  0.507089  0.500001  1
  Ru  Ru33  1  0.507089  0.633007  0.500001  1
  Ru  Ru34  1  0.000003  0.716431  0.500001  1
  Ru  Ru35  1  0.366998  0.874073  0.500001  1
