# generated using pymatgen
data_Sm3GaSi2Ag3
_symmetry_space_group_name_H-M   'P 1'
_cell_length_a   7.25445800
_cell_length_b   7.25445807
_cell_length_c   4.24907900
_cell_angle_alpha   90.00000000
_cell_angle_beta   90.00000000
_cell_angle_gamma   119.99999968
_symmetry_Int_Tables_number   1
_chemical_formula_structural   Sm3GaSi2Ag3
_chemical_formula_sum   'Sm3 Ga1 Si2 Ag3'
_cell_volume   193.65797413
_cell_formula_units_Z   1
loop_
 _symmetry_equiv_pos_site_id
 _symmetry_equiv_pos_as_xyz
  1  'x, y, z'
loop_
 _atom_site_type_symbol
 _atom_site_label
 _atom_site_symmetry_multiplicity
 _atom_site_fract_x
 _atom_site_fract_y
 _atom_site_fract_z
 _atom_site_occupancy
  Sm  Sm0  1  0.579685  0.000000  0.000000  1
  Sm  Sm1  1  0.420315  0.420315  0.000000  1
  Sm  Sm2  1  0.000000  0.579685  0.000000  1
  Ga  Ga3  1  0.000000  0.000000  0.000000  1
  Si  Si4  1  0.666667  0.333333  0.500000  1
  Si  Si5  1  0.333333  0.666667  0.500000  1
  Ag  Ag6  1  0.251558  0.000000  0.500000  1
  Ag  Ag7  1  0.000000  0.251558  0.500000  1
  Ag  Ag8  1  0.748442  0.748442  0.500000  1
