# generated using pymatgen
data_GdU2(InAu)3
_symmetry_space_group_name_H-M   'P 1'
_cell_length_a   12.22103000
_cell_length_b   12.24145964
_cell_length_c   6.61459500
_cell_angle_alpha   90.00000000
_cell_angle_beta   90.00000000
_cell_angle_gamma   119.94480892
_symmetry_Int_Tables_number   1
_chemical_formula_structural   GdU2(InAu)3
_chemical_formula_sum   'Gd1 U2 In3 Au3'
_cell_volume   857.46453401
_cell_formula_units_Z   1
loop_
 _symmetry_equiv_pos_site_id
 _symmetry_equiv_pos_as_xyz
  1  'x, y, z'
loop_
 _atom_site_type_symbol
 _atom_site_label
 _atom_site_symmetry_multiplicity
 _atom_site_fract_x
 _atom_site_fract_y
 _atom_site_fract_z
 _atom_site_occupancy
  Gd  Gd0  1  0.410114  0.000000  0.500000  1
  U  U1  1  0.999647  0.408341  0.500000  1
  U  U2  1  0.591306  0.591659  0.500000  1
  In  In3  1  0.002589  0.745690  0.000000  1
  In  In4  1  0.256899  0.254310  0.000000  1
  In  In5  1  0.739895  0.000000  0.000000  1
  Au  Au6  1  0.000196  0.000000  0.500000  1
  Au  Au7  1  0.333536  0.667719  0.000000  1
  Au  Au8  1  0.665818  0.332281  0.000000  1
