# generated using pymatgen
data_DyTm3Ni2C5
_symmetry_space_group_name_H-M   'P 1'
_cell_length_a   3.57406600
_cell_length_b   3.67406500
_cell_length_c   11.50952400
_cell_angle_alpha   90.00000000
_cell_angle_beta   90.00000000
_cell_angle_gamma   90.00000000
_symmetry_Int_Tables_number   1
_chemical_formula_structural   DyTm3Ni2C5
_chemical_formula_sum   'Dy1 Tm3 Ni2 C5'
_cell_volume   151.13559717
_cell_formula_units_Z   1
loop_
 _symmetry_equiv_pos_site_id
 _symmetry_equiv_pos_as_xyz
  1  'x, y, z'
loop_
 _atom_site_type_symbol
 _atom_site_label
 _atom_site_symmetry_multiplicity
 _atom_site_fract_x
 _atom_site_fract_y
 _atom_site_fract_z
 _atom_site_occupancy
  Dy  Dy0  1  0.000000  0.998537  0.000000  1
  Tm  Tm1  1  0.500000  0.502325  0.203973  1
  Tm  Tm2  1  0.500000  0.502325  0.796027  1
  Tm  Tm3  1  0.500000  0.210629  0.500000  1
  Ni  Ni4  1  0.000000  0.698207  0.385381  1
  Ni  Ni5  1  0.000000  0.698207  0.614619  1
  C  C6  1  0.000000  0.999795  0.230274  1
  C  C7  1  0.000000  0.999795  0.769726  1
  C  C8  1  0.000000  0.198852  0.333443  1
  C  C9  1  0.000000  0.198852  0.666557  1
  C  C10  1  0.500000  0.493974  0.000000  1
