# generated using pymatgen
data_Pr2Er3GaPb3
_symmetry_space_group_name_H-M   'P 1'
_cell_length_a   7.98019100
_cell_length_b   8.30743200
_cell_length_c   15.71125400
_cell_angle_alpha   90.00000000
_cell_angle_beta   90.00000000
_cell_angle_gamma   90.00000000
_symmetry_Int_Tables_number   1
_chemical_formula_structural   Pr2Er3GaPb3
_chemical_formula_sum   'Pr8 Er12 Ga4 Pb12'
_cell_volume   1041.57591979
_cell_formula_units_Z   4
loop_
 _symmetry_equiv_pos_site_id
 _symmetry_equiv_pos_as_xyz
  1  'x, y, z'
loop_
 _atom_site_type_symbol
 _atom_site_label
 _atom_site_symmetry_multiplicity
 _atom_site_fract_x
 _atom_site_fract_y
 _atom_site_fract_z
 _atom_site_occupancy
  Pr  Pr0  1  0.483374  0.676663  0.598067  1
  Pr  Pr1  1  0.983374  0.823337  0.901933  1
  Pr  Pr2  1  0.516626  0.323337  0.098067  1
  Pr  Pr3  1  0.016626  0.176663  0.401933  1
  Pr  Pr4  1  0.516626  0.323337  0.401933  1
  Pr  Pr5  1  0.016626  0.176663  0.098067  1
  Pr  Pr6  1  0.483374  0.676663  0.901933  1
  Pr  Pr7  1  0.983374  0.823337  0.598067  1
  Er  Er8  1  0.638857  0.170525  0.628091  1
  Er  Er9  1  0.138857  0.329475  0.871909  1
  Er  Er10  1  0.361143  0.829475  0.128091  1
  Er  Er11  1  0.861143  0.670525  0.371909  1
  Er  Er12  1  0.361143  0.829475  0.371909  1
  Er  Er13  1  0.861143  0.670525  0.128091  1
  Er  Er14  1  0.638857  0.170525  0.871909  1
  Er  Er15  1  0.138857  0.329475  0.628091  1
  Er  Er16  1  0.790072  0.487327  0.750000  1
  Er  Er17  1  0.290072  0.012673  0.750000  1
  Er  Er18  1  0.209928  0.512673  0.250000  1
  Er  Er19  1  0.709928  0.987327  0.250000  1
  Ga  Ga20  1  0.436647  0.369476  0.750000  1
  Ga  Ga21  1  0.936647  0.130524  0.750000  1
  Ga  Ga22  1  0.563353  0.630524  0.250000  1
  Ga  Ga23  1  0.063353  0.869476  0.250000  1
  Pb  Pb24  1  0.696330  0.962292  0.460256  1
  Pb  Pb25  1  0.196330  0.537708  0.039744  1
  Pb  Pb26  1  0.303670  0.037708  0.960256  1
  Pb  Pb27  1  0.803670  0.462292  0.539744  1
  Pb  Pb28  1  0.303670  0.037708  0.539744  1
  Pb  Pb29  1  0.803670  0.462292  0.960256  1
  Pb  Pb30  1  0.696330  0.962292  0.039744  1
  Pb  Pb31  1  0.196330  0.537708  0.460256  1
  Pb  Pb32  1  0.679808  0.863161  0.750000  1
  Pb  Pb33  1  0.179808  0.636839  0.750000  1
  Pb  Pb34  1  0.320192  0.136839  0.250000  1
  Pb  Pb35  1  0.820192  0.363161  0.250000  1
