# generated using pymatgen
data_DyEr2In3Rh2Pb
_symmetry_space_group_name_H-M   'P 1'
_cell_length_a   7.85603830
_cell_length_b   7.84525770
_cell_length_c   3.87820100
_cell_angle_alpha   90.00000000
_cell_angle_beta   90.00000000
_cell_angle_gamma   119.97949847
_symmetry_Int_Tables_number   1
_chemical_formula_structural   DyEr2In3Rh2Pb
_chemical_formula_sum   'Dy1 Er2 In3 Rh2 Pb1'
_cell_volume   207.04342062
_cell_formula_units_Z   1
loop_
 _symmetry_equiv_pos_site_id
 _symmetry_equiv_pos_as_xyz
  1  'x, y, z'
loop_
 _atom_site_type_symbol
 _atom_site_label
 _atom_site_symmetry_multiplicity
 _atom_site_fract_x
 _atom_site_fract_y
 _atom_site_fract_z
 _atom_site_occupancy
  Dy  Dy0  1  0.033405  0.613669  0.500000  1
  Er  Er1  1  0.385410  0.420034  0.500000  1
  Er  Er2  1  0.580055  0.965226  0.500000  1
  In  In3  1  0.245269  0.988631  0.000000  1
  In  In4  1  0.742687  0.755628  0.000000  1
  In  In5  1  0.012839  0.256948  0.000000  1
  Rh  Rh6  1  0.335077  0.666943  0.000000  1
  Rh  Rh7  1  0.999839  0.000537  0.500000  1
  Pb  Pb8  1  0.665419  0.332384  0.000000  1
