# generated using pymatgen
data_Sc8Re12Si15Ge
_symmetry_space_group_name_H-M   'P 1'
_cell_length_a   6.65888609
_cell_length_b   6.65282841
_cell_length_c   12.45397971
_cell_angle_alpha   90.03708403
_cell_angle_beta   89.98926500
_cell_angle_gamma   90.14136770
_symmetry_Int_Tables_number   1
_chemical_formula_structural   Sc8Re12Si15Ge
_chemical_formula_sum   'Sc8 Re12 Si15 Ge1'
_cell_volume   551.71480948
_cell_formula_units_Z   1
loop_
 _symmetry_equiv_pos_site_id
 _symmetry_equiv_pos_as_xyz
  1  'x, y, z'
loop_
 _atom_site_type_symbol
 _atom_site_label
 _atom_site_symmetry_multiplicity
 _atom_site_fract_x
 _atom_site_fract_y
 _atom_site_fract_z
 _atom_site_occupancy
  Sc  Sc0  1  0.007239  0.658459  0.030718  1
  Sc  Sc1  1  0.993158  0.340481  0.531698  1
  Sc  Sc2  1  0.342893  0.993944  0.469179  1
  Sc  Sc3  1  0.158190  0.492684  0.781133  1
  Sc  Sc4  1  0.839941  0.505282  0.279249  1
  Sc  Sc5  1  0.492770  0.158739  0.218992  1
  Sc  Sc6  1  0.507510  0.842126  0.719367  1
  Sc  Sc7  1  0.658057  0.007120  0.969048  1
  Re  Re8  1  0.662473  0.670000  0.501663  1
  Re  Re9  1  0.170235  0.833600  0.246716  1
  Re  Re10  1  0.331887  0.331958  0.000139  1
  Re  Re11  1  0.020263  0.814504  0.635219  1
  Re  Re12  1  0.979989  0.185314  0.132082  1
  Re  Re13  1  0.811283  0.023854  0.366619  1
  Re  Re14  1  0.319890  0.477664  0.381055  1
  Re  Re15  1  0.684388  0.519340  0.882689  1
  Re  Re16  1  0.481269  0.314068  0.617811  1
  Re  Re17  1  0.519636  0.683862  0.117470  1
  Re  Re18  1  0.184816  0.980601  0.867871  1
  Re  Re19  1  0.831693  0.168468  0.750180  1
  Si  Si20  1  0.621298  0.304907  0.431055  1
  Si  Si21  1  0.379069  0.695628  0.930651  1
  Si  Si22  1  0.195530  0.120776  0.680862  1
  Si  Si23  1  0.306113  0.619826  0.570881  1
  Si  Si24  1  0.695275  0.378753  0.069079  1
  Si  Si25  1  0.804753  0.878994  0.180433  1
  Si  Si26  1  0.120748  0.194654  0.319257  1
  Si  Si27  1  0.973535  0.278883  0.937260  1
  Si  Si28  1  0.722844  0.026172  0.562816  1
  Si  Si29  1  0.220855  0.472879  0.187016  1
  Si  Si30  1  0.778581  0.526492  0.687787  1
  Si  Si31  1  0.473561  0.221054  0.812892  1
  Si  Si32  1  0.526316  0.779876  0.312727  1
  Si  Si33  1  0.279633  0.973840  0.062541  1
  Si  Si34  1  0.878705  0.804600  0.820035  1
  Ge  Ge35  1  0.025602  0.720596  0.435811  1
