# generated using pymatgen
data_LiNd2ZnBi4
_symmetry_space_group_name_H-M   'P 1'
_cell_length_a   4.56492700
_cell_length_b   4.56492700
_cell_length_c   10.66437300
_cell_angle_alpha   90.00000000
_cell_angle_beta   90.00000000
_cell_angle_gamma   90.00000000
_symmetry_Int_Tables_number   1
_chemical_formula_structural   LiNd2ZnBi4
_chemical_formula_sum   'Li1 Nd2 Zn1 Bi4'
_cell_volume   222.23016079
_cell_formula_units_Z   1
loop_
 _symmetry_equiv_pos_site_id
 _symmetry_equiv_pos_as_xyz
  1  'x, y, z'
loop_
 _atom_site_type_symbol
 _atom_site_label
 _atom_site_symmetry_multiplicity
 _atom_site_fract_x
 _atom_site_fract_y
 _atom_site_fract_z
 _atom_site_occupancy
  Li  Li0  1  0.500000  0.500000  0.000000  1
  Nd  Nd1  1  0.000000  0.500000  0.264738  1
  Nd  Nd2  1  0.500000  0.000000  0.735262  1
  Zn  Zn3  1  0.000000  0.000000  0.000000  1
  Bi  Bi4  1  0.000000  0.500000  0.830149  1
  Bi  Bi5  1  0.500000  0.000000  0.169851  1
  Bi  Bi6  1  0.000000  0.000000  0.500000  1
  Bi  Bi7  1  0.500000  0.500000  0.500000  1
