# generated using pymatgen
data_Rb2Ca2TeO6
_symmetry_space_group_name_H-M   'P 1'
_cell_length_a   5.83886297
_cell_length_b   5.83886305
_cell_length_c   6.95027951
_cell_angle_alpha   99.17932494
_cell_angle_beta   99.17932732
_cell_angle_gamma   118.85113926
_symmetry_Int_Tables_number   1
_chemical_formula_structural   Rb2Ca2TeO6
_chemical_formula_sum   'Rb2 Ca2 Te1 O6'
_cell_volume   197.06924464
_cell_formula_units_Z   1
loop_
 _symmetry_equiv_pos_site_id
 _symmetry_equiv_pos_as_xyz
  1  'x, y, z'
loop_
 _atom_site_type_symbol
 _atom_site_label
 _atom_site_symmetry_multiplicity
 _atom_site_fract_x
 _atom_site_fract_y
 _atom_site_fract_z
 _atom_site_occupancy
  Rb  Rb0  1  0.829098  0.170902  0.499999  1
  Rb  Rb1  1  0.170902  0.829098  0.499999  1
  Ca  Ca2  1  0.664514  0.335488  0.000000  1
  Ca  Ca3  1  0.335488  0.664514  0.000000  1
  Te  Te4  1  0.000000  0.000000  0.000000  1
  O  O5  1  0.783725  0.783725  0.166529  1
  O  O6  1  0.343638  0.057441  0.166036  1
  O  O7  1  0.057441  0.343638  0.166036  1
  O  O8  1  0.942560  0.656363  0.833965  1
  O  O9  1  0.656363  0.942560  0.833965  1
  O  O10  1  0.216276  0.216276  0.833472  1
