# generated using pymatgen
data_Tm6ZrMn(Co4P3)4
_symmetry_space_group_name_H-M   'P 1'
_cell_length_a   3.67733400
_cell_length_b   10.54708700
_cell_length_c   12.23930100
_cell_angle_alpha   90.00000000
_cell_angle_beta   90.00000000
_cell_angle_gamma   90.00000000
_symmetry_Int_Tables_number   1
_chemical_formula_structural   Tm6ZrMn(Co4P3)4
_chemical_formula_sum   'Tm6 Zr1 Mn1 Co16 P12'
_cell_volume   474.70326747
_cell_formula_units_Z   1
loop_
 _symmetry_equiv_pos_site_id
 _symmetry_equiv_pos_as_xyz
  1  'x, y, z'
loop_
 _atom_site_type_symbol
 _atom_site_label
 _atom_site_symmetry_multiplicity
 _atom_site_fract_x
 _atom_site_fract_y
 _atom_site_fract_z
 _atom_site_occupancy
  Tm  Tm0  1  0.000000  0.500000  0.529570  1
  Tm  Tm1  1  0.500000  0.000000  0.476598  1
  Tm  Tm2  1  0.500000  0.821733  0.206349  1
  Tm  Tm3  1  0.500000  0.178267  0.206349  1
  Tm  Tm4  1  0.000000  0.682043  0.795832  1
  Tm  Tm5  1  0.000000  0.317957  0.795832  1
  Zr  Zr6  1  0.500000  0.500000  0.155361  1
  Mn  Mn7  1  0.000000  0.000000  0.836688  1
  Co  Co8  1  0.500000  0.500000  0.702426  1
  Co  Co9  1  0.000000  0.000000  0.297144  1
  Co  Co10  1  0.000000  0.500000  0.982854  1
  Co  Co11  1  0.500000  0.000000  0.013141  1
  Co  Co12  1  0.500000  0.326881  0.987228  1
  Co  Co13  1  0.500000  0.673119  0.987228  1
  Co  Co14  1  0.000000  0.161513  0.001879  1
  Co  Co15  1  0.000000  0.838487  0.001879  1
  Co  Co16  1  0.500000  0.293760  0.435383  1
  Co  Co17  1  0.500000  0.706240  0.435383  1
  Co  Co18  1  0.000000  0.201869  0.570831  1
  Co  Co19  1  0.000000  0.798131  0.570831  1
  Co  Co20  1  0.500000  0.879917  0.707073  1
  Co  Co21  1  0.500000  0.120083  0.707073  1
  Co  Co22  1  0.000000  0.623929  0.298182  1
  Co  Co23  1  0.000000  0.376071  0.298182  1
  P  P24  1  0.500000  0.500000  0.880572  1
  P  P25  1  0.000000  0.000000  0.117660  1
  P  P26  1  0.500000  0.500000  0.363455  1
  P  P27  1  0.000000  0.000000  0.652191  1
  P  P28  1  0.500000  0.311061  0.618527  1
  P  P29  1  0.500000  0.688939  0.618527  1
  P  P30  1  0.000000  0.186677  0.385807  1
  P  P31  1  0.000000  0.813323  0.385807  1
  P  P32  1  0.500000  0.851146  0.887665  1
  P  P33  1  0.500000  0.148854  0.887665  1
  P  P34  1  0.000000  0.665759  0.101414  1
  P  P35  1  0.000000  0.334241  0.101414  1
