# generated using pymatgen
data_ZnBi3Pt2(RhO7)2
_symmetry_space_group_name_H-M   'P 1'
_cell_length_a   7.20597127
_cell_length_b   7.36199792
_cell_length_c   7.36199796
_cell_angle_alpha   60.04862220
_cell_angle_beta   59.32840262
_cell_angle_gamma   59.32839204
_symmetry_Int_Tables_number   1
_chemical_formula_structural   ZnBi3Pt2(RhO7)2
_chemical_formula_sum   'Zn1 Bi3 Pt2 Rh2 O14'
_cell_volume   273.42666168
_cell_formula_units_Z   1
loop_
 _symmetry_equiv_pos_site_id
 _symmetry_equiv_pos_as_xyz
  1  'x, y, z'
loop_
 _atom_site_type_symbol
 _atom_site_label
 _atom_site_symmetry_multiplicity
 _atom_site_fract_x
 _atom_site_fract_y
 _atom_site_fract_z
 _atom_site_occupancy
  Zn  Zn0  1  0.625000  0.125000  0.125000  1
  Bi  Bi1  1  0.125000  0.125000  0.625000  1
  Bi  Bi2  1  0.125000  0.625000  0.125000  1
  Bi  Bi3  1  0.125000  0.125000  0.125000  1
  Pt  Pt4  1  0.625000  0.625000  0.125000  1
  Pt  Pt5  1  0.625000  0.125000  0.625000  1
  Rh  Rh6  1  0.125000  0.625000  0.625000  1
  Rh  Rh7  1  0.625000  0.625000  0.625000  1
  O  O8  1  0.282990  0.239630  0.239630  1
  O  O9  1  0.967010  0.010370  0.010370  1
  O  O10  1  0.545193  0.957025  0.540107  1
  O  O11  1  0.287013  0.710830  0.291525  1
  O  O12  1  0.545193  0.540107  0.957025  1
  O  O13  1  0.960321  0.540792  0.540792  1
  O  O14  1  0.545178  0.958364  0.958364  1
  O  O15  1  0.962987  0.958475  0.539170  1
  O  O16  1  0.962987  0.539170  0.958475  1
  O  O17  1  0.704822  0.291636  0.291636  1
  O  O18  1  0.289679  0.709208  0.709208  1
  O  O19  1  0.704807  0.292975  0.709893  1
  O  O20  1  0.287013  0.291525  0.710830  1
  O  O21  1  0.704807  0.709893  0.292975  1
