# generated using pymatgen
data_Cs2La10P2Br17
_symmetry_space_group_name_H-M   'P 1'
_cell_length_a   9.58019427
_cell_length_b   11.24875497
_cell_length_c   11.24870900
_cell_angle_alpha   106.74851760
_cell_angle_beta   94.46764755
_cell_angle_gamma   94.46916962
_symmetry_Int_Tables_number   1
_chemical_formula_structural   Cs2La10P2Br17
_chemical_formula_sum   'Cs2 La10 P2 Br17'
_cell_volume   1150.85535668
_cell_formula_units_Z   1
loop_
 _symmetry_equiv_pos_site_id
 _symmetry_equiv_pos_as_xyz
  1  'x, y, z'
loop_
 _atom_site_type_symbol
 _atom_site_label
 _atom_site_symmetry_multiplicity
 _atom_site_fract_x
 _atom_site_fract_y
 _atom_site_fract_z
 _atom_site_occupancy
  Cs  Cs0  1  0.000004  0.822109  0.177919  1
  Cs  Cs1  1  0.999995  0.177902  0.822076  1
  La  La2  1  0.438727  0.159609  0.159672  1
  La  La3  1  0.573344  0.509904  0.198141  1
  La  La4  1  0.835113  0.287618  0.287613  1
  La  La5  1  0.307469  0.434872  0.434884  1
  La  La6  1  0.426641  0.801867  0.490071  1
  La  La7  1  0.573298  0.198115  0.509881  1
  La  La8  1  0.692531  0.565121  0.565124  1
  La  La9  1  0.164876  0.712378  0.712370  1
  La  La10  1  0.426702  0.490122  0.801900  1
  La  La11  1  0.561281  0.840327  0.840376  1
  P  P12  1  0.572216  0.358348  0.358315  1
  P  P13  1  0.427787  0.641688  0.641647  1
  Br  Br14  1  0.581605  0.691031  0.025991  1
  Br  Br15  1  0.717663  0.065866  0.065871  1
  Br  Br16  1  0.858062  0.451145  0.116902  1
  Br  Br17  1  0.135992  0.209781  0.209786  1
  Br  Br18  1  0.284000  0.601780  0.257181  1
  Br  Br19  1  0.418397  0.974024  0.308989  1
  Br  Br20  1  0.716001  0.742827  0.398229  1
  Br  Br21  1  0.858057  0.116904  0.451142  1
  Br  Br22  1  0.000000  0.500000  0.499995  1
  Br  Br23  1  0.141943  0.883103  0.548855  1
  Br  Br24  1  0.284001  0.257173  0.601771  1
  Br  Br25  1  0.581603  0.025983  0.691009  1
  Br  Br26  1  0.716005  0.398223  0.742819  1
  Br  Br27  1  0.864009  0.790222  0.790217  1
  Br  Br28  1  0.141941  0.548852  0.883099  1
  Br  Br29  1  0.282338  0.934131  0.934143  1
  Br  Br30  1  0.418402  0.308976  0.974012  1
