# generated using pymatgen
data_Li3Nd2YAgSn4
_symmetry_space_group_name_H-M   'P 1'
_cell_length_a   4.70372389
_cell_length_b   7.09285722
_cell_length_c   8.79444986
_cell_angle_alpha   113.65192019
_cell_angle_beta   105.51113958
_cell_angle_gamma   89.99999455
_symmetry_Int_Tables_number   1
_chemical_formula_structural   Li3Nd2YAgSn4
_chemical_formula_sum   'Li3 Nd2 Y1 Ag1 Sn4'
_cell_volume   257.05251606
_cell_formula_units_Z   1
loop_
 _symmetry_equiv_pos_site_id
 _symmetry_equiv_pos_as_xyz
  1  'x, y, z'
loop_
 _atom_site_type_symbol
 _atom_site_label
 _atom_site_symmetry_multiplicity
 _atom_site_fract_x
 _atom_site_fract_y
 _atom_site_fract_z
 _atom_site_occupancy
  Li  Li0  1  0.328408  0.016281  0.656816  1
  Li  Li1  1  0.669752  0.980260  0.339503  1
  Li  Li2  1  0.325862  0.633947  0.651724  1
  Nd  Nd3  1  0.869875  0.372966  0.739750  1
  Nd  Nd4  1  0.130080  0.631783  0.260159  1
  Y  Y5  1  0.001915  0.002177  0.003832  1
  Ag  Ag6  1  0.673754  0.365928  0.347509  1
  Sn  Sn7  1  0.212316  0.200556  0.424633  1
  Sn  Sn8  1  0.790904  0.796442  0.581807  1
  Sn  Sn9  1  0.498551  0.296861  0.997101  1
  Sn  Sn10  1  0.498583  0.702802  0.997166  1
