# generated using pymatgen
data_Dy6Er5Lu5(InIr)4
_symmetry_space_group_name_H-M   'P 1'
_cell_length_a   9.59506831
_cell_length_b   9.57920217
_cell_length_c   9.57920250
_cell_angle_alpha   59.98003473
_cell_angle_beta   59.94519510
_cell_angle_gamma   59.94518819
_symmetry_Int_Tables_number   1
_chemical_formula_structural   Dy6Er5Lu5(InIr)4
_chemical_formula_sum   'Dy6 Er5 Lu5 In4 Ir4'
_cell_volume   621.96511085
_cell_formula_units_Z   1
loop_
 _symmetry_equiv_pos_site_id
 _symmetry_equiv_pos_as_xyz
  1  'x, y, z'
loop_
 _atom_site_type_symbol
 _atom_site_label
 _atom_site_symmetry_multiplicity
 _atom_site_fract_x
 _atom_site_fract_y
 _atom_site_fract_z
 _atom_site_occupancy
  Dy  Dy0  1  0.189387  0.810613  0.810613  1
  Dy  Dy1  1  0.808355  0.191645  0.191645  1
  Dy  Dy2  1  0.808637  0.190002  0.811049  1
  Dy  Dy3  1  0.190312  0.811049  0.190002  1
  Dy  Dy4  1  0.808637  0.811049  0.190002  1
  Dy  Dy5  1  0.190312  0.190002  0.811049  1
  Er  Er6  1  0.596786  0.598925  0.598925  1
  Er  Er7  1  0.598297  0.600592  0.202814  1
  Er  Er8  1  0.598297  0.202814  0.600592  1
  Er  Er9  1  0.205364  0.598925  0.598925  1
  Er  Er10  1  0.060716  0.439284  0.439284  1
  Lu  Lu11  1  0.439789  0.060211  0.060211  1
  Lu  Lu12  1  0.441693  0.059272  0.438239  1
  Lu  Lu13  1  0.060796  0.438239  0.059272  1
  Lu  Lu14  1  0.441693  0.438239  0.059272  1
  Lu  Lu15  1  0.060796  0.059272  0.438239  1
  In  In16  1  0.833275  0.832817  0.832817  1
  In  In17  1  0.832563  0.831950  0.502925  1
  In  In18  1  0.832563  0.502925  0.831950  1
  In  In19  1  0.501092  0.832817  0.832817  1
  Ir  Ir20  1  0.392355  0.389538  0.389538  1
  Ir  Ir21  1  0.389858  0.390448  0.829836  1
  Ir  Ir22  1  0.389858  0.829836  0.390448  1
  Ir  Ir23  1  0.828570  0.389538  0.389538  1
