# generated using pymatgen
data_TmUTcB6
_symmetry_space_group_name_H-M   'P 1'
_cell_length_a   3.61732200
_cell_length_b   9.26370800
_cell_length_c   11.37827600
_cell_angle_alpha   90.00000000
_cell_angle_beta   90.00000000
_cell_angle_gamma   90.00000000
_symmetry_Int_Tables_number   1
_chemical_formula_structural   TmUTcB6
_chemical_formula_sum   'Tm4 U4 Tc4 B24'
_cell_volume   381.28392093
_cell_formula_units_Z   4
loop_
 _symmetry_equiv_pos_site_id
 _symmetry_equiv_pos_as_xyz
  1  'x, y, z'
loop_
 _atom_site_type_symbol
 _atom_site_label
 _atom_site_symmetry_multiplicity
 _atom_site_fract_x
 _atom_site_fract_y
 _atom_site_fract_z
 _atom_site_occupancy
  Tm  Tm0  1  0.000000  0.337154  0.407994  1
  Tm  Tm1  1  0.000000  0.662846  0.592006  1
  Tm  Tm2  1  0.000000  0.837154  0.092006  1
  Tm  Tm3  1  0.000000  0.162846  0.907994  1
  U  U4  1  0.000000  0.956302  0.396179  1
  U  U5  1  0.000000  0.043698  0.603821  1
  U  U6  1  0.000000  0.456302  0.103821  1
  U  U7  1  0.000000  0.543698  0.896179  1
  Tc  Tc8  1  0.000000  0.645099  0.318918  1
  Tc  Tc9  1  0.000000  0.354901  0.681082  1
  Tc  Tc10  1  0.000000  0.145099  0.181082  1
  Tc  Tc11  1  0.000000  0.854901  0.818918  1
  B  B12  1  0.500000  0.551144  0.431422  1
  B  B13  1  0.500000  0.448856  0.568578  1
  B  B14  1  0.500000  0.051144  0.068578  1
  B  B15  1  0.500000  0.948856  0.931422  1
  B  B16  1  0.500000  0.742380  0.423375  1
  B  B17  1  0.500000  0.257620  0.576625  1
  B  B18  1  0.500000  0.242380  0.076625  1
  B  B19  1  0.500000  0.757620  0.923375  1
  B  B20  1  0.500000  0.802036  0.274818  1
  B  B21  1  0.500000  0.197964  0.725182  1
  B  B22  1  0.500000  0.302036  0.225182  1
  B  B23  1  0.500000  0.697964  0.774818  1
  B  B24  1  0.500000  0.644294  0.188854  1
  B  B25  1  0.500000  0.355706  0.811146  1
  B  B26  1  0.500000  0.144294  0.311146  1
  B  B27  1  0.500000  0.855706  0.688854  1
  B  B28  1  0.500000  0.988407  0.218874  1
  B  B29  1  0.500000  0.011593  0.781126  1
  B  B30  1  0.500000  0.488407  0.281126  1
  B  B31  1  0.500000  0.511593  0.718874  1
  B  B32  1  0.500000  0.641482  0.039396  1
  B  B33  1  0.500000  0.358518  0.960604  1
  B  B34  1  0.500000  0.141482  0.460604  1
  B  B35  1  0.500000  0.858518  0.539396  1
