# generated using pymatgen
data_YErLu2(ReB6)2
_symmetry_space_group_name_H-M   'P 1'
_cell_length_a   3.64065200
_cell_length_b   9.10095707
_cell_length_c   11.48200000
_cell_angle_alpha   89.99163596
_cell_angle_beta   90.00000000
_cell_angle_gamma   90.00000000
_symmetry_Int_Tables_number   1
_chemical_formula_structural   YErLu2(ReB6)2
_chemical_formula_sum   'Y2 Er2 Lu4 Re4 B24'
_cell_volume   380.43789637
_cell_formula_units_Z   2
loop_
 _symmetry_equiv_pos_site_id
 _symmetry_equiv_pos_as_xyz
  1  'x, y, z'
loop_
 _atom_site_type_symbol
 _atom_site_label
 _atom_site_symmetry_multiplicity
 _atom_site_fract_x
 _atom_site_fract_y
 _atom_site_fract_z
 _atom_site_occupancy
  Y  Y0  1  0.000000  0.322622  0.413990  1
  Y  Y1  1  0.000000  0.677378  0.586010  1
  Er  Er2  1  0.000000  0.823070  0.085937  1
  Er  Er3  1  0.000000  0.176930  0.914063  1
  Lu  Lu4  1  0.000000  0.943460  0.370011  1
  Lu  Lu5  1  0.000000  0.056540  0.629989  1
  Lu  Lu6  1  0.000000  0.443349  0.129336  1
  Lu  Lu7  1  0.000000  0.556651  0.870664  1
  Re  Re8  1  0.000000  0.639649  0.319215  1
  Re  Re9  1  0.000000  0.360351  0.680785  1
  Re  Re10  1  0.000000  0.139020  0.179603  1
  Re  Re11  1  0.000000  0.860980  0.820397  1
  B  B12  1  0.500000  0.553660  0.432266  1
  B  B13  1  0.500000  0.446340  0.567734  1
  B  B14  1  0.500000  0.053403  0.066814  1
  B  B15  1  0.500000  0.946597  0.933186  1
  B  B16  1  0.500000  0.751035  0.417811  1
  B  B17  1  0.500000  0.248965  0.582189  1
  B  B18  1  0.500000  0.250690  0.080900  1
  B  B19  1  0.500000  0.749310  0.919100  1
  B  B20  1  0.500000  0.793367  0.264425  1
  B  B21  1  0.500000  0.206633  0.735575  1
  B  B22  1  0.500000  0.292962  0.234155  1
  B  B23  1  0.500000  0.707038  0.765845  1
  B  B24  1  0.500000  0.630353  0.184006  1
  B  B25  1  0.500000  0.369647  0.815994  1
  B  B26  1  0.500000  0.129751  0.314878  1
  B  B27  1  0.500000  0.870249  0.685122  1
  B  B28  1  0.500000  0.981313  0.212043  1
  B  B29  1  0.500000  0.018687  0.787957  1
  B  B30  1  0.500000  0.481775  0.286750  1
  B  B31  1  0.500000  0.518225  0.713250  1
  B  B32  1  0.500000  0.598462  0.027261  1
  B  B33  1  0.500000  0.401538  0.972739  1
  B  B34  1  0.500000  0.097728  0.472910  1
  B  B35  1  0.500000  0.902272  0.527090  1
