# generated using pymatgen
data_Dy3Y5Ho12(CoBi2)4
_symmetry_space_group_name_H-M   'P 1'
_cell_length_a   7.98758493
_cell_length_b   8.87386400
_cell_length_c   12.41413144
_cell_angle_alpha   90.00000000
_cell_angle_beta   89.94471498
_cell_angle_gamma   90.00000000
_symmetry_Int_Tables_number   1
_chemical_formula_structural   Dy3Y5Ho12(CoBi2)4
_chemical_formula_sum   'Dy3 Y5 Ho12 Co4 Bi8'
_cell_volume   879.92244286
_cell_formula_units_Z   1
loop_
 _symmetry_equiv_pos_site_id
 _symmetry_equiv_pos_as_xyz
  1  'x, y, z'
loop_
 _atom_site_type_symbol
 _atom_site_label
 _atom_site_symmetry_multiplicity
 _atom_site_fract_x
 _atom_site_fract_y
 _atom_site_fract_z
 _atom_site_occupancy
  Dy  Dy0  1  0.115400  0.250000  0.189383  1
  Dy  Dy1  1  0.384616  0.250000  0.689363  1
  Dy  Dy2  1  0.615394  0.750000  0.310573  1
  Y  Y3  1  0.346271  0.750000  0.700650  1
  Y  Y4  1  0.653955  0.250000  0.299287  1
  Y  Y5  1  0.846174  0.250000  0.799285  1
  Y  Y6  1  0.153897  0.750000  0.200758  1
  Y  Y7  1  0.883939  0.750000  0.809838  1
  Ho  Ho8  1  0.675765  0.538012  0.562769  1
  Ho  Ho9  1  0.324161  0.461883  0.437150  1
  Ho  Ho10  1  0.175929  0.461953  0.937250  1
  Ho  Ho11  1  0.324161  0.038117  0.437150  1
  Ho  Ho12  1  0.824210  0.538039  0.062920  1
  Ho  Ho13  1  0.675765  0.961988  0.562769  1
  Ho  Ho14  1  0.824210  0.961961  0.062920  1
  Ho  Ho15  1  0.175929  0.038047  0.937250  1
  Ho  Ho16  1  0.052155  0.750000  0.498018  1
  Ho  Ho17  1  0.947739  0.250000  0.501939  1
  Ho  Ho18  1  0.552295  0.250000  0.002090  1
  Ho  Ho19  1  0.447692  0.750000  0.998032  1
  Co  Co20  1  0.066977  0.750000  0.991437  1
  Co  Co21  1  0.933638  0.250000  0.009222  1
  Co  Co22  1  0.566241  0.250000  0.509254  1
  Co  Co23  1  0.433714  0.750000  0.490760  1
  Bi  Bi24  1  0.571580  0.509544  0.827026  1
  Bi  Bi25  1  0.428354  0.490325  0.172937  1
  Bi  Bi26  1  0.071662  0.490275  0.672892  1
  Bi  Bi27  1  0.428354  0.009675  0.172937  1
  Bi  Bi28  1  0.928290  0.509623  0.327111  1
  Bi  Bi29  1  0.571580  0.990456  0.827026  1
  Bi  Bi30  1  0.928290  0.990377  0.327111  1
  Bi  Bi31  1  0.071662  0.009725  0.672892  1
