# generated using pymatgen
data_Pr5Dy11(HgRh)4
_symmetry_space_group_name_H-M   'P 1'
_cell_length_a   9.71080094
_cell_length_b   9.71068979
_cell_length_c   9.71069011
_cell_angle_alpha   59.94798508
_cell_angle_beta   59.99962257
_cell_angle_gamma   59.99962634
_symmetry_Int_Tables_number   1
_chemical_formula_structural   Pr5Dy11(HgRh)4
_chemical_formula_sum   'Pr5 Dy11 Hg4 Rh4'
_cell_volume   647.24209254
_cell_formula_units_Z   1
loop_
 _symmetry_equiv_pos_site_id
 _symmetry_equiv_pos_as_xyz
  1  'x, y, z'
loop_
 _atom_site_type_symbol
 _atom_site_label
 _atom_site_symmetry_multiplicity
 _atom_site_fract_x
 _atom_site_fract_y
 _atom_site_fract_z
 _atom_site_occupancy
  Pr  Pr0  1  0.559251  0.940749  0.940749  1
  Pr  Pr1  1  0.562548  0.937911  0.559487  1
  Pr  Pr2  1  0.940053  0.559487  0.937911  1
  Pr  Pr3  1  0.562548  0.559487  0.937911  1
  Pr  Pr4  1  0.940053  0.937911  0.559487  1
  Dy  Dy5  1  0.348592  0.350505  0.350505  1
  Dy  Dy6  1  0.348778  0.352073  0.950368  1
  Dy  Dy7  1  0.348778  0.950368  0.352073  1
  Dy  Dy8  1  0.950397  0.350505  0.350505  1
  Dy  Dy9  1  0.812629  0.187371  0.187371  1
  Dy  Dy10  1  0.187084  0.812917  0.812916  1
  Dy  Dy11  1  0.187123  0.811377  0.188262  1
  Dy  Dy12  1  0.813237  0.188263  0.811377  1
  Dy  Dy13  1  0.187123  0.188263  0.811377  1
  Dy  Dy14  1  0.813238  0.811378  0.188262  1
  Dy  Dy15  1  0.941894  0.558106  0.558106  1
  Hg  Hg16  1  0.586191  0.581994  0.581994  1
  Hg  Hg17  1  0.582227  0.582783  0.252765  1
  Hg  Hg18  1  0.582227  0.252765  0.582783  1
  Hg  Hg19  1  0.249822  0.581994  0.581994  1
  Rh  Rh20  1  0.142154  0.142306  0.142306  1
  Rh  Rh21  1  0.140408  0.146095  0.573088  1
  Rh  Rh22  1  0.140408  0.573088  0.146095  1
  Rh  Rh23  1  0.573234  0.142306  0.142306  1
