# generated using pymatgen
data_Zr8Fe7Si14Au
_symmetry_space_group_name_H-M   'P 1'
_cell_length_a   9.57405109
_cell_length_b   9.57405151
_cell_length_c   9.58268000
_cell_angle_alpha   94.09707079
_cell_angle_beta   94.09707097
_cell_angle_gamma   148.77229538
_symmetry_Int_Tables_number   1
_chemical_formula_structural   Zr8Fe7Si14Au
_chemical_formula_sum   'Zr8 Fe7 Si14 Au1'
_cell_volume   439.04666483
_cell_formula_units_Z   1
loop_
 _symmetry_equiv_pos_site_id
 _symmetry_equiv_pos_as_xyz
  1  'x, y, z'
loop_
 _atom_site_type_symbol
 _atom_site_label
 _atom_site_symmetry_multiplicity
 _atom_site_fract_x
 _atom_site_fract_y
 _atom_site_fract_z
 _atom_site_occupancy
  Zr  Zr0  1  0.700103  0.502460  0.194744  1
  Zr  Zr1  1  0.494922  0.693721  0.195345  1
  Zr  Zr2  1  0.497540  0.299897  0.805256  1
  Zr  Zr3  1  0.306279  0.505078  0.804655  1
  Zr  Zr4  1  0.866015  0.867377  0.726600  1
  Zr  Zr5  1  0.138339  0.861661  0.000000  1
  Zr  Zr6  1  0.861813  0.138187  0.000000  1
  Zr  Zr7  1  0.132623  0.133985  0.273400  1
  Fe  Fe8  1  0.907582  0.401514  0.805337  1
  Fe  Fe9  1  0.598486  0.092418  0.194663  1
  Fe  Fe10  1  0.100706  0.604746  0.211025  1
  Fe  Fe11  1  0.602834  0.397166  0.500000  1
  Fe  Fe12  1  0.395254  0.899294  0.788975  1
  Fe  Fe13  1  0.899693  0.100307  0.500000  1
  Fe  Fe14  1  0.392252  0.607748  0.500000  1
  Si  Si15  1  0.748788  0.749078  0.999865  1
  Si  Si16  1  0.250922  0.251212  0.000135  1
  Si  Si17  1  0.087895  0.502426  0.596428  1
  Si  Si18  1  0.557805  0.136523  0.600448  1
  Si  Si19  1  0.497574  0.912105  0.403572  1
  Si  Si20  1  0.863477  0.442195  0.399552  1
  Si  Si21  1  0.705904  0.007522  0.702654  1
  Si  Si22  1  0.982936  0.677589  0.709453  1
  Si  Si23  1  0.676441  0.684674  0.417487  1
  Si  Si24  1  0.289106  0.710894  0.000000  1
  Si  Si25  1  0.322411  0.017064  0.290547  1
  Si  Si26  1  0.711426  0.288574  0.000000  1
  Si  Si27  1  0.315326  0.323559  0.582513  1
  Si  Si28  1  0.992478  0.294096  0.297346  1
  Au  Au29  1  0.103070  0.896930  0.500000  1
