# generated using pymatgen
data_LaEr(ScIr)2
_symmetry_space_group_name_H-M   'P 1'
_cell_length_a   7.20605800
_cell_length_b   4.27274800
_cell_length_c   8.92640400
_cell_angle_alpha   90.00000000
_cell_angle_beta   90.00000000
_cell_angle_gamma   90.00000000
_symmetry_Int_Tables_number   1
_chemical_formula_structural   LaEr(ScIr)2
_chemical_formula_sum   'La2 Er2 Sc4 Ir4'
_cell_volume   274.84103262
_cell_formula_units_Z   2
loop_
 _symmetry_equiv_pos_site_id
 _symmetry_equiv_pos_as_xyz
  1  'x, y, z'
loop_
 _atom_site_type_symbol
 _atom_site_label
 _atom_site_symmetry_multiplicity
 _atom_site_fract_x
 _atom_site_fract_y
 _atom_site_fract_z
 _atom_site_occupancy
  La  La0  1  0.014400  0.750000  0.825411  1
  La  La1  1  0.514400  0.750000  0.674589  1
  Er  Er2  1  0.976111  0.250000  0.179092  1
  Er  Er3  1  0.476111  0.250000  0.320908  1
  Sc  Sc4  1  0.864070  0.250000  0.551561  1
  Sc  Sc5  1  0.364070  0.250000  0.948439  1
  Sc  Sc6  1  0.141500  0.750000  0.427274  1
  Sc  Sc7  1  0.641500  0.750000  0.072726  1
  Ir  Ir8  1  0.737298  0.250000  0.902926  1
  Ir  Ir9  1  0.237298  0.250000  0.597074  1
  Ir  Ir10  1  0.266621  0.750000  0.116054  1
  Ir  Ir11  1  0.766621  0.750000  0.383946  1
