# generated using pymatgen
data_TbLu9Si5Sn
_symmetry_space_group_name_H-M   'P 1'
_cell_length_a   8.32466300
_cell_length_b   8.35837458
_cell_length_c   6.22013900
_cell_angle_alpha   90.00000000
_cell_angle_beta   90.00000000
_cell_angle_gamma   119.86667389
_symmetry_Int_Tables_number   1
_chemical_formula_structural   TbLu9Si5Sn
_chemical_formula_sum   'Tb1 Lu9 Si5 Sn1'
_cell_volume   375.31948679
_cell_formula_units_Z   1
loop_
 _symmetry_equiv_pos_site_id
 _symmetry_equiv_pos_as_xyz
  1  'x, y, z'
loop_
 _atom_site_type_symbol
 _atom_site_label
 _atom_site_symmetry_multiplicity
 _atom_site_fract_x
 _atom_site_fract_y
 _atom_site_fract_z
 _atom_site_occupancy
  Tb  Tb0  1  0.239356  0.000000  0.250000  1
  Lu  Lu1  1  0.989177  0.748885  0.750000  1
  Lu  Lu2  1  0.997900  0.241970  0.250000  1
  Lu  Lu3  1  0.755930  0.758030  0.250000  1
  Lu  Lu4  1  0.766907  0.000000  0.750000  1
  Lu  Lu5  1  0.240292  0.251115  0.750000  1
  Lu  Lu6  1  0.674099  0.342686  0.002692  1
  Lu  Lu7  1  0.331412  0.657314  0.497308  1
  Lu  Lu8  1  0.331412  0.657314  0.002692  1
  Lu  Lu9  1  0.674099  0.342686  0.497308  1
  Si  Si10  1  0.394870  0.395138  0.250000  1
  Si  Si11  1  0.999732  0.604862  0.250000  1
  Si  Si12  1  0.998278  0.394395  0.750000  1
  Si  Si13  1  0.603884  0.605605  0.750000  1
  Si  Si14  1  0.606533  0.000000  0.250000  1
  Sn  Sn15  1  0.396115  0.000000  0.750000  1
