# generated using pymatgen
data_Zr12Al7Zn5O2
_symmetry_space_group_name_H-M   'P 1'
_cell_length_a   8.60867022
_cell_length_b   8.61184621
_cell_length_c   8.61184500
_cell_angle_alpha   60.00000080
_cell_angle_beta   59.98779599
_cell_angle_gamma   59.98779940
_symmetry_Int_Tables_number   1
_chemical_formula_structural   Zr12Al7Zn5O2
_chemical_formula_sum   'Zr12 Al7 Zn5 O2'
_cell_volume   451.37075947
_cell_formula_units_Z   1
loop_
 _symmetry_equiv_pos_site_id
 _symmetry_equiv_pos_as_xyz
  1  'x, y, z'
loop_
 _atom_site_type_symbol
 _atom_site_label
 _atom_site_symmetry_multiplicity
 _atom_site_fract_x
 _atom_site_fract_y
 _atom_site_fract_z
 _atom_site_occupancy
  Zr  Zr0  1  0.191423  0.808322  0.191932  1
  Zr  Zr1  1  0.441688  0.058266  0.441780  1
  Zr  Zr2  1  0.441688  0.058266  0.058266  1
  Zr  Zr3  1  0.441688  0.441780  0.058266  1
  Zr  Zr4  1  0.191423  0.808322  0.808322  1
  Zr  Zr5  1  0.058457  0.441498  0.058547  1
  Zr  Zr6  1  0.807893  0.808709  0.191699  1
  Zr  Zr7  1  0.058457  0.441498  0.441498  1
  Zr  Zr8  1  0.191423  0.191932  0.808322  1
  Zr  Zr9  1  0.807893  0.191699  0.191699  1
  Zr  Zr10  1  0.807893  0.191699  0.808709  1
  Zr  Zr11  1  0.058457  0.058547  0.441498  1
  Al  Al12  1  0.832733  0.500768  0.833250  1
  Al  Al13  1  0.416610  0.416432  0.750526  1
  Al  Al14  1  0.750646  0.416451  0.416451  1
  Al  Al15  1  0.416610  0.416432  0.416432  1
  Al  Al16  1  0.832733  0.833250  0.500768  1
  Al  Al17  1  0.416610  0.750526  0.416432  1
  Al  Al18  1  0.832733  0.833250  0.833250  1
  Zn  Zn19  1  0.503113  0.832296  0.832296  1
  Zn  Zn20  1  0.624724  0.124615  0.625331  1
  Zn  Zn21  1  0.624724  0.625331  0.124615  1
  Zn  Zn22  1  0.124334  0.625222  0.625222  1
  Zn  Zn23  1  0.624724  0.625331  0.625331  1
  O  O24  1  0.000815  0.999728  0.999728  1
  O  O25  1  0.250512  0.249829  0.249829  1
