# generated using pymatgen
data_Gd2Y3LuTa2O14
_symmetry_space_group_name_H-M   'P 1'
_cell_length_a   6.45722281
_cell_length_b   6.48058935
_cell_length_c   7.53235800
_cell_angle_alpha   90.00000000
_cell_angle_beta   90.00000000
_cell_angle_gamma   109.11574666
_symmetry_Int_Tables_number   1
_chemical_formula_structural   Gd2Y3LuTa2O14
_chemical_formula_sum   'Gd2 Y3 Lu1 Ta2 O14'
_cell_volume   297.82298218
_cell_formula_units_Z   1
loop_
 _symmetry_equiv_pos_site_id
 _symmetry_equiv_pos_as_xyz
  1  'x, y, z'
loop_
 _atom_site_type_symbol
 _atom_site_label
 _atom_site_symmetry_multiplicity
 _atom_site_fract_x
 _atom_site_fract_y
 _atom_site_fract_z
 _atom_site_occupancy
  Gd  Gd0  1  0.518546  0.523117  0.500623  1
  Gd  Gd1  1  0.518546  0.523117  0.999377  1
  Y  Y2  1  0.001755  0.532859  0.250000  1
  Y  Y3  1  0.465534  0.002233  0.250000  1
  Y  Y4  1  0.000650  0.465460  0.750000  1
  Lu  Lu5  1  0.533830  0.002718  0.750000  1
  Ta  Ta6  1  0.002849  0.001803  0.501441  1
  Ta  Ta7  1  0.002849  0.001803  0.998559  1
  O  O8  1  0.674756  0.926901  0.471299  1
  O  O9  1  0.919920  0.674088  0.529794  1
  O  O10  1  0.674756  0.926901  0.028701  1
  O  O11  1  0.919920  0.674088  0.970206  1
  O  O12  1  0.312634  0.049475  0.541809  1
  O  O13  1  0.071026  0.318119  0.467001  1
  O  O14  1  0.312634  0.049475  0.958191  1
  O  O15  1  0.071026  0.318119  0.032999  1
  O  O16  1  0.928621  0.065718  0.750000  1
  O  O17  1  0.066419  0.938025  0.250000  1
  O  O18  1  0.373174  0.640576  0.750000  1
  O  O19  1  0.630460  0.368732  0.250000  1
  O  O20  1  0.637336  0.354243  0.750000  1
  O  O21  1  0.362758  0.642428  0.250000  1
