# generated using pymatgen
data_YbTh3(SnH4)2
_symmetry_space_group_name_H-M   'P 1'
_cell_length_a   6.36537466
_cell_length_b   6.36537562
_cell_length_c   6.34479097
_cell_angle_alpha   105.71042396
_cell_angle_beta   105.71044058
_cell_angle_gamma   117.39998888
_symmetry_Int_Tables_number   1
_chemical_formula_structural   YbTh3(SnH4)2
_chemical_formula_sum   'Yb1 Th3 Sn2 H8'
_cell_volume   194.78561341
_cell_formula_units_Z   1
loop_
 _symmetry_equiv_pos_site_id
 _symmetry_equiv_pos_as_xyz
  1  'x, y, z'
loop_
 _atom_site_type_symbol
 _atom_site_label
 _atom_site_symmetry_multiplicity
 _atom_site_fract_x
 _atom_site_fract_y
 _atom_site_fract_z
 _atom_site_occupancy
  Yb  Yb0  1  0.835847  0.664153  0.500000  1
  Th  Th1  1  0.660478  0.161676  0.822155  1
  Th  Th2  1  0.160759  0.339241  0.500000  1
  Th  Th3  1  0.338324  0.839522  0.177845  1
  Sn  Sn4  1  0.750674  0.749326  0.000000  1
  Sn  Sn5  1  0.250674  0.249326  0.000000  1
  H  H6  1  0.223543  0.974179  0.500000  1
  H  H7  1  0.467992  0.725861  0.500000  1
  H  H8  1  0.718330  0.212456  0.235111  1
  H  H9  1  0.983220  0.477346  0.764889  1
  H  H10  1  0.287544  0.781670  0.764889  1
  H  H11  1  0.525821  0.276457  0.500000  1
  H  H12  1  0.022654  0.516780  0.235111  1
  H  H13  1  0.774139  0.032008  0.500000  1
