# generated using pymatgen
data_Hf9Re3OsW
_symmetry_space_group_name_H-M   'P 1'
_cell_length_a   8.68438700
_cell_length_b   8.68438696
_cell_length_c   8.52924500
_cell_angle_alpha   90.00000000
_cell_angle_beta   90.00000000
_cell_angle_gamma   119.99999635
_symmetry_Int_Tables_number   1
_chemical_formula_structural   Hf9Re3OsW
_chemical_formula_sum   'Hf18 Re6 Os2 W2'
_cell_volume   557.08257241
_cell_formula_units_Z   2
loop_
 _symmetry_equiv_pos_site_id
 _symmetry_equiv_pos_as_xyz
  1  'x, y, z'
loop_
 _atom_site_type_symbol
 _atom_site_label
 _atom_site_symmetry_multiplicity
 _atom_site_fract_x
 _atom_site_fract_y
 _atom_site_fract_z
 _atom_site_occupancy
  Hf  Hf0  1  0.197724  0.802276  0.447198  1
  Hf  Hf1  1  0.197724  0.395446  0.447198  1
  Hf  Hf2  1  0.604554  0.802276  0.447198  1
  Hf  Hf3  1  0.802276  0.197724  0.552802  1
  Hf  Hf4  1  0.802276  0.604554  0.552802  1
  Hf  Hf5  1  0.395446  0.197724  0.552802  1
  Hf  Hf6  1  0.802276  0.197724  0.947198  1
  Hf  Hf7  1  0.802276  0.604554  0.947198  1
  Hf  Hf8  1  0.395446  0.197724  0.947198  1
  Hf  Hf9  1  0.197724  0.802276  0.052802  1
  Hf  Hf10  1  0.197724  0.395446  0.052802  1
  Hf  Hf11  1  0.604554  0.802276  0.052802  1
  Hf  Hf12  1  0.539890  0.460110  0.250000  1
  Hf  Hf13  1  0.539890  0.079778  0.250000  1
  Hf  Hf14  1  0.920222  0.460110  0.250000  1
  Hf  Hf15  1  0.460110  0.539890  0.750000  1
  Hf  Hf16  1  0.460110  0.920222  0.750000  1
  Hf  Hf17  1  0.079778  0.539890  0.750000  1
  Re  Re18  1  0.888650  0.111350  0.250000  1
  Re  Re19  1  0.888650  0.777300  0.250000  1
  Re  Re20  1  0.222700  0.111350  0.250000  1
  Re  Re21  1  0.111350  0.888650  0.750000  1
  Re  Re22  1  0.111350  0.222700  0.750000  1
  Re  Re23  1  0.777300  0.888650  0.750000  1
  Os  Os24  1  0.333333  0.666667  0.250000  1
  Os  Os25  1  0.666667  0.333333  0.750000  1
  W  W26  1  0.000000  0.000000  0.500000  1
  W  W27  1  0.000000  0.000000  0.000000  1
