# generated using pymatgen
data_Tb3Ho13(InNi)4
_symmetry_space_group_name_H-M   'P 1'
_cell_length_a   9.56843670
_cell_length_b   9.57581733
_cell_length_c   9.57670586
_cell_angle_alpha   59.80140045
_cell_angle_beta   59.80993691
_cell_angle_gamma   59.81453259
_symmetry_Int_Tables_number   1
_chemical_formula_structural   Tb3Ho13(InNi)4
_chemical_formula_sum   'Tb3 Ho13 In4 Ni4'
_cell_volume   617.77057083
_cell_formula_units_Z   1
loop_
 _symmetry_equiv_pos_site_id
 _symmetry_equiv_pos_as_xyz
  1  'x, y, z'
loop_
 _atom_site_type_symbol
 _atom_site_label
 _atom_site_symmetry_multiplicity
 _atom_site_fract_x
 _atom_site_fract_y
 _atom_site_fract_z
 _atom_site_occupancy
  Tb  Tb0  1  0.346528  0.347030  0.346958  1
  Tb  Tb1  1  0.346699  0.347305  0.953985  1
  Tb  Tb2  1  0.346783  0.954011  0.347340  1
  Ho  Ho3  1  0.953919  0.347295  0.347226  1
  Ho  Ho4  1  0.813300  0.188762  0.188755  1
  Ho  Ho5  1  0.190069  0.811709  0.811697  1
  Ho  Ho6  1  0.188713  0.812948  0.188263  1
  Ho  Ho7  1  0.811299  0.190606  0.811222  1
  Ho  Ho8  1  0.188710  0.188306  0.812834  1
  Ho  Ho9  1  0.811355  0.811269  0.190540  1
  Ho  Ho10  1  0.936540  0.563367  0.563341  1
  Ho  Ho11  1  0.563678  0.937416  0.937399  1
  Ho  Ho12  1  0.563140  0.936955  0.563285  1
  Ho  Ho13  1  0.937545  0.563750  0.938080  1
  Ho  Ho14  1  0.563140  0.563296  0.936930  1
  Ho  Ho15  1  0.937561  0.938092  0.563793  1
  In  In16  1  0.584929  0.582944  0.583203  1
  In  In17  1  0.582853  0.581479  0.253215  1
  In  In18  1  0.582947  0.253052  0.581594  1
  In  In19  1  0.253018  0.581860  0.581770  1
  Ni  Ni20  1  0.142355  0.142574  0.142461  1
  Ni  Ni21  1  0.140216  0.140945  0.574249  1
  Ni  Ni22  1  0.140283  0.574144  0.141019  1
  Ni  Ni23  1  0.574420  0.140886  0.140844  1
