# generated using pymatgen
data_Y5HoFe7Co11
_symmetry_space_group_name_H-M   'P 1'
_cell_length_a   5.11561490
_cell_length_b   5.12004154
_cell_length_c   15.89563911
_cell_angle_alpha   89.99999941
_cell_angle_beta   90.37363280
_cell_angle_gamma   120.02863346
_symmetry_Int_Tables_number   1
_chemical_formula_structural   Y5HoFe7Co11
_chemical_formula_sum   'Y5 Ho1 Fe7 Co11'
_cell_volume   360.44769711
_cell_formula_units_Z   1
loop_
 _symmetry_equiv_pos_site_id
 _symmetry_equiv_pos_as_xyz
  1  'x, y, z'
loop_
 _atom_site_type_symbol
 _atom_site_label
 _atom_site_symmetry_multiplicity
 _atom_site_fract_x
 _atom_site_fract_y
 _atom_site_fract_z
 _atom_site_occupancy
  Y  Y0  1  0.668389  0.334194  0.037020  1
  Y  Y1  1  0.666177  0.333088  0.460940  1
  Y  Y2  1  0.334551  0.667276  0.539556  1
  Y  Y3  1  0.333674  0.666838  0.749692  1
  Y  Y4  1  0.665743  0.332871  0.249885  1
  Ho  Ho5  1  0.332776  0.666389  0.958731  1
  Fe  Fe6  1  0.662914  0.831457  0.127390  1
  Fe  Fe7  1  0.330485  0.665242  0.252393  1
  Fe  Fe8  1  0.667012  0.333505  0.749866  1
  Fe  Fe9  1  0.000909  0.000454  0.252171  1
  Fe  Fe10  1  0.000996  0.000498  0.750013  1
  Fe  Fe11  1  0.000208  0.000104  0.500409  1
  Fe  Fe12  1  0.003280  0.001640  0.998927  1
  Co  Co13  1  0.166551  0.832646  0.373581  1
  Co  Co14  1  0.166551  0.333906  0.373581  1
  Co  Co15  1  0.667632  0.833817  0.373043  1
  Co  Co16  1  0.834123  0.167488  0.627880  1
  Co  Co17  1  0.834123  0.666635  0.627880  1
  Co  Co18  1  0.332388  0.166194  0.627850  1
  Co  Co19  1  0.833442  0.166217  0.871458  1
  Co  Co20  1  0.833442  0.667225  0.871458  1
  Co  Co21  1  0.332890  0.166445  0.871327  1
  Co  Co22  1  0.165871  0.833268  0.127474  1
  Co  Co23  1  0.165871  0.332605  0.127474  1
