# generated using pymatgen
data_K3B5Pt9
_symmetry_space_group_name_H-M   'P 1'
_cell_length_a   6.53058769
_cell_length_b   6.53058800
_cell_length_c   15.37333400
_cell_angle_alpha   90.00000000
_cell_angle_beta   90.00000000
_cell_angle_gamma   127.56385398
_symmetry_Int_Tables_number   1
_chemical_formula_structural   K3B5Pt9
_chemical_formula_sum   'K6 B10 Pt18'
_cell_volume   519.71763005
_cell_formula_units_Z   2
loop_
 _symmetry_equiv_pos_site_id
 _symmetry_equiv_pos_as_xyz
  1  'x, y, z'
loop_
 _atom_site_type_symbol
 _atom_site_label
 _atom_site_symmetry_multiplicity
 _atom_site_fract_x
 _atom_site_fract_y
 _atom_site_fract_z
 _atom_site_occupancy
  K  K0  1  0.326424  0.673576  0.750000  1
  K  K1  1  0.673576  0.326424  0.250000  1
  K  K2  1  0.557262  0.442738  0.085313  1
  K  K3  1  0.442738  0.557262  0.914687  1
  K  K4  1  0.442738  0.557262  0.585313  1
  K  K5  1  0.557262  0.442738  0.414687  1
  B  B6  1  0.942827  0.057173  0.146846  1
  B  B7  1  0.057173  0.942827  0.853154  1
  B  B8  1  0.057173  0.942827  0.646846  1
  B  B9  1  0.942827  0.057173  0.353154  1
  B  B10  1  0.189832  0.810168  0.028128  1
  B  B11  1  0.810168  0.189832  0.971872  1
  B  B12  1  0.810168  0.189832  0.528128  1
  B  B13  1  0.189832  0.810168  0.471872  1
  B  B14  1  0.730331  0.269669  0.750000  1
  B  B15  1  0.269669  0.730331  0.250000  1
  Pt  Pt16  1  0.000000  0.000000  0.000000  1
  Pt  Pt17  1  0.000000  0.000000  0.500000  1
  Pt  Pt18  1  0.653409  0.843030  0.250000  1
  Pt  Pt19  1  0.843030  0.653409  0.750000  1
  Pt  Pt20  1  0.346591  0.156970  0.750000  1
  Pt  Pt21  1  0.156970  0.346591  0.250000  1
  Pt  Pt22  1  0.125320  0.874680  0.156271  1
  Pt  Pt23  1  0.874680  0.125320  0.843729  1
  Pt  Pt24  1  0.874680  0.125320  0.656271  1
  Pt  Pt25  1  0.125320  0.874680  0.343729  1
  Pt  Pt26  1  0.568301  0.943298  0.078590  1
  Pt  Pt27  1  0.943298  0.568301  0.921410  1
  Pt  Pt28  1  0.431699  0.056702  0.578590  1
  Pt  Pt29  1  0.056702  0.431699  0.421410  1
  Pt  Pt30  1  0.431699  0.056702  0.921410  1
  Pt  Pt31  1  0.056702  0.431699  0.078590  1
  Pt  Pt32  1  0.568301  0.943298  0.421410  1
  Pt  Pt33  1  0.943298  0.568301  0.578590  1
