# generated using pymatgen
data_Ce3Mg3Hg2Ir
_symmetry_space_group_name_H-M   'P 1'
_cell_length_a   7.82097000
_cell_length_b   7.82097103
_cell_length_c   4.14111500
_cell_angle_alpha   90.00000000
_cell_angle_beta   90.00000000
_cell_angle_gamma   119.99999400
_symmetry_Int_Tables_number   1
_chemical_formula_structural   Ce3Mg3Hg2Ir
_chemical_formula_sum   'Ce3 Mg3 Hg2 Ir1'
_cell_volume   219.36596456
_cell_formula_units_Z   1
loop_
 _symmetry_equiv_pos_site_id
 _symmetry_equiv_pos_as_xyz
  1  'x, y, z'
loop_
 _atom_site_type_symbol
 _atom_site_label
 _atom_site_symmetry_multiplicity
 _atom_site_fract_x
 _atom_site_fract_y
 _atom_site_fract_z
 _atom_site_occupancy
  Ce  Ce0  1  0.598960  0.032426  0.000000  1
  Ce  Ce1  1  0.967574  0.566534  0.000000  1
  Ce  Ce2  1  0.433466  0.401040  0.000000  1
  Mg  Mg3  1  0.254825  0.001953  0.500000  1
  Mg  Mg4  1  0.998047  0.252871  0.500000  1
  Mg  Mg5  1  0.747129  0.745175  0.500000  1
  Hg  Hg6  1  0.333333  0.666667  0.500000  1
  Hg  Hg7  1  0.000000  0.000000  0.000000  1
  Ir  Ir8  1  0.666667  0.333333  0.500000  1
