# generated using pymatgen
data_LaY5U4O20
_symmetry_space_group_name_H-M   'P 1'
_cell_length_a   6.69251939
_cell_length_b   7.56573723
_cell_length_c   8.50571931
_cell_angle_alpha   100.96336761
_cell_angle_beta   97.87202159
_cell_angle_gamma   107.29361901
_symmetry_Int_Tables_number   1
_chemical_formula_structural   LaY5U4O20
_chemical_formula_sum   'La1 Y5 U4 O20'
_cell_volume   395.00830789
_cell_formula_units_Z   1
loop_
 _symmetry_equiv_pos_site_id
 _symmetry_equiv_pos_as_xyz
  1  'x, y, z'
loop_
 _atom_site_type_symbol
 _atom_site_label
 _atom_site_symmetry_multiplicity
 _atom_site_fract_x
 _atom_site_fract_y
 _atom_site_fract_z
 _atom_site_occupancy
  La  La0  1  0.000000  0.500000  0.500000  1
  Y  Y1  1  0.614052  0.705883  0.700748  1
  Y  Y2  1  0.385948  0.294117  0.299252  1
  Y  Y3  1  0.198296  0.898445  0.894817  1
  Y  Y4  1  0.801704  0.101555  0.105183  1
  Y  Y5  1  0.000000  0.000000  0.500000  1
  U  U6  1  0.404181  0.805660  0.301074  1
  U  U7  1  0.199726  0.400369  0.902197  1
  U  U8  1  0.800274  0.599631  0.097803  1
  U  U9  1  0.595819  0.194340  0.698926  1
  O  O10  1  0.438971  0.531602  0.135808  1
  O  O11  1  0.555429  0.987366  0.841077  1
  O  O12  1  0.270992  0.144969  0.745920  1
  O  O13  1  0.368956  0.596219  0.438676  1
  O  O14  1  0.055084  0.733555  0.328354  1
  O  O15  1  0.444571  0.012634  0.158923  1
  O  O16  1  0.150287  0.183913  0.031341  1
  O  O17  1  0.561029  0.468398  0.864192  1
  O  O18  1  0.854690  0.337134  0.950223  1
  O  O19  1  0.262619  0.609571  0.767416  1
  O  O20  1  0.952328  0.781769  0.657977  1
  O  O21  1  0.355563  0.062063  0.453984  1
  O  O22  1  0.644437  0.937937  0.546016  1
  O  O23  1  0.047672  0.218231  0.342023  1
  O  O24  1  0.737381  0.390429  0.232584  1
  O  O25  1  0.145310  0.662866  0.049777  1
  O  O26  1  0.849713  0.816087  0.968659  1
  O  O27  1  0.944916  0.266445  0.671646  1
  O  O28  1  0.631044  0.403781  0.561324  1
  O  O29  1  0.729008  0.855031  0.254080  1
