# generated using pymatgen
data_Rb2ReF8
_symmetry_space_group_name_H-M   'P 1'
_cell_length_a   6.00233700
_cell_length_b   8.87033500
_cell_length_c   12.75719700
_cell_angle_alpha   90.00000000
_cell_angle_beta   90.00000000
_cell_angle_gamma   90.00000000
_symmetry_Int_Tables_number   1
_chemical_formula_structural   Rb2ReF8
_chemical_formula_sum   'Rb8 Re4 F32'
_cell_volume   679.22812265
_cell_formula_units_Z   4
loop_
 _symmetry_equiv_pos_site_id
 _symmetry_equiv_pos_as_xyz
  1  'x, y, z'
loop_
 _atom_site_type_symbol
 _atom_site_label
 _atom_site_symmetry_multiplicity
 _atom_site_fract_x
 _atom_site_fract_y
 _atom_site_fract_z
 _atom_site_occupancy
  Rb  Rb0  1  0.250000  0.052193  0.209473  1
  Rb  Rb1  1  0.750000  0.947807  0.790527  1
  Rb  Rb2  1  0.250000  0.552193  0.290527  1
  Rb  Rb3  1  0.750000  0.447807  0.709473  1
  Rb  Rb4  1  0.250000  0.168618  0.560003  1
  Rb  Rb5  1  0.750000  0.831382  0.439997  1
  Rb  Rb6  1  0.250000  0.668618  0.939997  1
  Rb  Rb7  1  0.750000  0.331382  0.060003  1
  Re  Re8  1  0.250000  0.215506  0.878098  1
  Re  Re9  1  0.750000  0.784494  0.121902  1
  Re  Re10  1  0.250000  0.715506  0.621902  1
  Re  Re11  1  0.750000  0.284494  0.378098  1
  F  F12  1  0.250000  0.770003  0.471035  1
  F  F13  1  0.750000  0.229997  0.528965  1
  F  F14  1  0.250000  0.270003  0.028965  1
  F  F15  1  0.750000  0.729997  0.971035  1
  F  F16  1  0.250000  0.001591  0.839402  1
  F  F17  1  0.750000  0.998409  0.160598  1
  F  F18  1  0.250000  0.501591  0.660598  1
  F  F19  1  0.750000  0.498409  0.339402  1
  F  F20  1  0.020478  0.869420  0.063357  1
  F  F21  1  0.520478  0.130580  0.936643  1
  F  F22  1  0.479522  0.369420  0.436643  1
  F  F23  1  0.979522  0.630580  0.563357  1
  F  F24  1  0.551063  0.106873  0.385836  1
  F  F25  1  0.051063  0.893127  0.614164  1
  F  F26  1  0.948937  0.606873  0.114164  1
  F  F27  1  0.448937  0.393127  0.885836  1
  F  F28  1  0.448937  0.893127  0.614164  1
  F  F29  1  0.948937  0.106873  0.385836  1
  F  F30  1  0.051063  0.393127  0.885836  1
  F  F31  1  0.551063  0.606873  0.114164  1
  F  F32  1  0.550460  0.293232  0.254709  1
  F  F33  1  0.050460  0.706768  0.745291  1
  F  F34  1  0.949540  0.793232  0.245291  1
  F  F35  1  0.449540  0.206768  0.754709  1
  F  F36  1  0.449540  0.706768  0.745291  1
  F  F37  1  0.949540  0.293232  0.254709  1
  F  F38  1  0.050460  0.206768  0.754709  1
  F  F39  1  0.550460  0.793232  0.245291  1
  F  F40  1  0.020478  0.369420  0.436643  1
  F  F41  1  0.520478  0.630580  0.563357  1
  F  F42  1  0.479522  0.869420  0.063357  1
  F  F43  1  0.979522  0.130580  0.936643  1
