# generated using pymatgen
data_BaNdCu(H6Ir)2
_symmetry_space_group_name_H-M   'P 1'
_cell_length_a   4.94368100
_cell_length_b   4.94368046
_cell_length_c   8.81463100
_cell_angle_alpha   90.00000000
_cell_angle_beta   90.00000000
_cell_angle_gamma   119.99999692
_symmetry_Int_Tables_number   1
_chemical_formula_structural   BaNdCu(H6Ir)2
_chemical_formula_sum   'Ba1 Nd1 Cu1 H12 Ir2'
_cell_volume   186.56733716
_cell_formula_units_Z   1
loop_
 _symmetry_equiv_pos_site_id
 _symmetry_equiv_pos_as_xyz
  1  'x, y, z'
loop_
 _atom_site_type_symbol
 _atom_site_label
 _atom_site_symmetry_multiplicity
 _atom_site_fract_x
 _atom_site_fract_y
 _atom_site_fract_z
 _atom_site_occupancy
  Ba  Ba0  1  0.000000  0.000000  0.024941  1
  Nd  Nd1  1  0.333333  0.666667  0.615726  1
  Cu  Cu2  1  0.666667  0.333333  0.261226  1
  H  H3  1  0.170759  0.829241  0.378009  1
  H  H4  1  0.658482  0.829241  0.378009  1
  H  H5  1  0.170759  0.341518  0.378009  1
  H  H6  1  0.828313  0.171687  0.635366  1
  H  H7  1  0.343376  0.171687  0.635366  1
  H  H8  1  0.828313  0.656624  0.635366  1
  H  H9  1  0.507842  0.015684  0.855567  1
  H  H10  1  0.507842  0.492158  0.855567  1
  H  H11  1  0.984316  0.492158  0.855567  1
  H  H12  1  0.493567  0.987134  0.156634  1
  H  H13  1  0.493567  0.506433  0.156634  1
  H  H14  1  0.012866  0.506433  0.156634  1
  Ir  Ir15  1  0.666667  0.333333  0.744183  1
  Ir  Ir16  1  0.333333  0.666667  0.277194  1
