# generated using pymatgen
data_Dy10Hg3Ru
_symmetry_space_group_name_H-M   'P 1'
_cell_length_a   9.60230301
_cell_length_b   9.60045582
_cell_length_c   9.75695900
_cell_angle_alpha   90.00000000
_cell_angle_beta   90.00000000
_cell_angle_gamma   120.00178022
_symmetry_Int_Tables_number   1
_chemical_formula_structural   Dy10Hg3Ru
_chemical_formula_sum   'Dy20 Hg6 Ru2'
_cell_volume   778.94103023
_cell_formula_units_Z   2
loop_
 _symmetry_equiv_pos_site_id
 _symmetry_equiv_pos_as_xyz
  1  'x, y, z'
loop_
 _atom_site_type_symbol
 _atom_site_label
 _atom_site_symmetry_multiplicity
 _atom_site_fract_x
 _atom_site_fract_y
 _atom_site_fract_z
 _atom_site_occupancy
  Dy  Dy0  1  0.000000  0.000000  0.500000  1
  Dy  Dy1  1  0.000000  0.000000  0.000000  1
  Dy  Dy2  1  0.209591  0.790393  0.439802  1
  Dy  Dy3  1  0.209588  0.419188  0.439774  1
  Dy  Dy4  1  0.580853  0.790424  0.439764  1
  Dy  Dy5  1  0.790409  0.209607  0.560198  1
  Dy  Dy6  1  0.790412  0.580812  0.560226  1
  Dy  Dy7  1  0.419147  0.209576  0.560236  1
  Dy  Dy8  1  0.790409  0.209607  0.939802  1
  Dy  Dy9  1  0.790412  0.580812  0.939774  1
  Dy  Dy10  1  0.419147  0.209576  0.939764  1
  Dy  Dy11  1  0.209591  0.790393  0.060198  1
  Dy  Dy12  1  0.209588  0.419188  0.060226  1
  Dy  Dy13  1  0.580853  0.790424  0.060236  1
  Dy  Dy14  1  0.541216  0.458831  0.250000  1
  Dy  Dy15  1  0.541193  0.082380  0.250000  1
  Dy  Dy16  1  0.917652  0.458845  0.250000  1
  Dy  Dy17  1  0.458784  0.541169  0.750000  1
  Dy  Dy18  1  0.458807  0.917620  0.750000  1
  Dy  Dy19  1  0.082348  0.541155  0.750000  1
  Hg  Hg20  1  0.881380  0.118501  0.250000  1
  Hg  Hg21  1  0.881358  0.762919  0.250000  1
  Hg  Hg22  1  0.237095  0.118589  0.250000  1
  Hg  Hg23  1  0.118620  0.881499  0.750000  1
  Hg  Hg24  1  0.118642  0.237081  0.750000  1
  Hg  Hg25  1  0.762905  0.881411  0.750000  1
  Ru  Ru26  1  0.333306  0.666644  0.250000  1
  Ru  Ru27  1  0.666694  0.333356  0.750000  1
