# generated using pymatgen
data_La(S8I)3
_symmetry_space_group_name_H-M   'P 1'
_cell_length_a   15.35404360
_cell_length_b   15.35404378
_cell_length_c   15.35404452
_cell_angle_alpha   119.06817983
_cell_angle_beta   119.06818205
_cell_angle_gamma   119.06817398
_symmetry_Int_Tables_number   1
_chemical_formula_structural   La(S8I)3
_chemical_formula_sum   'La1 S24 I3'
_cell_volume   904.76580794
_cell_formula_units_Z   1
loop_
 _symmetry_equiv_pos_site_id
 _symmetry_equiv_pos_as_xyz
  1  'x, y, z'
loop_
 _atom_site_type_symbol
 _atom_site_label
 _atom_site_symmetry_multiplicity
 _atom_site_fract_x
 _atom_site_fract_y
 _atom_site_fract_z
 _atom_site_occupancy
  La  La0  1  0.459173  0.459173  0.459173  1
  S  S1  1  0.999766  0.590377  0.590377  1
  S  S2  1  0.590377  0.590377  0.999766  1
  S  S3  1  0.590377  0.999766  0.590377  1
  S  S4  1  0.244895  0.851312  0.724630  1
  S  S5  1  0.851312  0.724630  0.244895  1
  S  S6  1  0.724630  0.244895  0.851312  1
  S  S7  1  0.851312  0.244895  0.724630  1
  S  S8  1  0.244895  0.724630  0.851312  1
  S  S9  1  0.724630  0.851312  0.244895  1
  S  S10  1  0.089241  0.613938  0.434357  1
  S  S11  1  0.613938  0.434357  0.089241  1
  S  S12  1  0.434357  0.089241  0.613938  1
  S  S13  1  0.613938  0.089241  0.434357  1
  S  S14  1  0.089241  0.434357  0.613938  1
  S  S15  1  0.434357  0.613938  0.089241  1
  S  S16  1  0.370566  0.757383  0.629648  1
  S  S17  1  0.757383  0.629648  0.370566  1
  S  S18  1  0.629648  0.370566  0.757383  1
  S  S19  1  0.757383  0.370566  0.629648  1
  S  S20  1  0.370566  0.629648  0.757383  1
  S  S21  1  0.629648  0.757383  0.370566  1
  S  S22  1  0.179262  0.458438  0.458438  1
  S  S23  1  0.458438  0.458438  0.179262  1
  S  S24  1  0.458438  0.179262  0.458438  1
  I  I25  1  0.061934  0.908697  0.908697  1
  I  I26  1  0.908697  0.908697  0.061934  1
  I  I27  1  0.908697  0.061934  0.908697  1
