# generated using pymatgen
data_HoTm3Al17GaIr6
_symmetry_space_group_name_H-M   'P 1'
_cell_length_a   7.53093302
_cell_length_b   7.53102420
_cell_length_c   9.45899500
_cell_angle_alpha   90.00000000
_cell_angle_beta   90.00000000
_cell_angle_gamma   119.44426699
_symmetry_Int_Tables_number   1
_chemical_formula_structural   HoTm3Al17GaIr6
_chemical_formula_sum   'Ho1 Tm3 Al17 Ga1 Ir6'
_cell_volume   467.17902822
_cell_formula_units_Z   1
loop_
 _symmetry_equiv_pos_site_id
 _symmetry_equiv_pos_as_xyz
  1  'x, y, z'
loop_
 _atom_site_type_symbol
 _atom_site_label
 _atom_site_symmetry_multiplicity
 _atom_site_fract_x
 _atom_site_fract_y
 _atom_site_fract_z
 _atom_site_occupancy
  Ho  Ho0  1  0.993827  0.674922  0.250000  1
  Tm  Tm1  1  0.005136  0.327719  0.750000  1
  Tm  Tm2  1  0.674939  0.993855  0.250000  1
  Tm  Tm3  1  0.327725  0.005139  0.750000  1
  Al  Al4  1  0.869855  0.869859  0.750000  1
  Al  Al5  1  0.000805  0.335322  0.073511  1
  Al  Al6  1  0.998934  0.664235  0.925391  1
  Al  Al7  1  0.998934  0.664235  0.574609  1
  Al  Al8  1  0.335532  0.000903  0.426486  1
  Al  Al9  1  0.000805  0.335322  0.426489  1
  Al  Al10  1  0.664237  0.998931  0.574522  1
  Al  Al11  1  0.664237  0.998931  0.925478  1
  Al  Al12  1  0.335532  0.000903  0.073514  1
  Al  Al13  1  0.333174  0.333179  0.555098  1
  Al  Al14  1  0.665988  0.666092  0.447950  1
  Al  Al15  1  0.665988  0.666092  0.052050  1
  Al  Al16  1  0.333174  0.333179  0.944902  1
  Al  Al17  1  0.338571  0.550104  0.250000  1
  Al  Al18  1  0.660822  0.450688  0.750000  1
  Al  Al19  1  0.550004  0.338395  0.250000  1
  Al  Al20  1  0.450696  0.660833  0.750000  1
  Ga  Ga21  1  0.134736  0.134794  0.250000  1
  Ir  Ir22  1  0.671354  0.327185  0.000071  1
  Ir  Ir23  1  0.327302  0.671404  0.000074  1
  Ir  Ir24  1  0.327302  0.671404  0.499926  1
  Ir  Ir25  1  0.671354  0.327185  0.499929  1
  Ir  Ir26  1  0.999519  0.999596  0.997531  1
  Ir  Ir27  1  0.999519  0.999596  0.502469  1
