# generated using pymatgen
data_HoEr3(Si5Os3)2
_symmetry_space_group_name_H-M   'P 1'
_cell_length_a   8.12081955
_cell_length_b   8.11773262
_cell_length_c   5.77290817
_cell_angle_alpha   70.58254282
_cell_angle_beta   70.58985373
_cell_angle_gamma   94.12613053
_symmetry_Int_Tables_number   1
_chemical_formula_structural   HoEr3(Si5Os3)2
_chemical_formula_sum   'Ho1 Er3 Si10 Os6'
_cell_volume   331.32361270
_cell_formula_units_Z   1
loop_
 _symmetry_equiv_pos_site_id
 _symmetry_equiv_pos_as_xyz
  1  'x, y, z'
loop_
 _atom_site_type_symbol
 _atom_site_label
 _atom_site_symmetry_multiplicity
 _atom_site_fract_x
 _atom_site_fract_y
 _atom_site_fract_z
 _atom_site_occupancy
  Ho  Ho0  1  0.868951  0.600980  0.753114  1
  Er  Er1  1  0.398843  0.130968  0.747023  1
  Er  Er2  1  0.131003  0.399068  0.246775  1
  Er  Er3  1  0.601241  0.868894  0.253129  1
  Si  Si4  1  0.068800  0.261991  0.833069  1
  Si  Si5  1  0.738267  0.931765  0.666564  1
  Si  Si6  1  0.931468  0.738038  0.166628  1
  Si  Si7  1  0.261494  0.068541  0.333311  1
  Si  Si8  1  0.206313  0.793981  0.750281  1
  Si  Si9  1  0.794034  0.206397  0.249151  1
  Si  Si10  1  0.512204  0.487160  0.750579  1
  Si  Si11  1  0.487467  0.512481  0.249818  1
  Si  Si12  1  0.775121  0.224691  0.750385  1
  Si  Si13  1  0.225017  0.775095  0.249629  1
  Os  Os14  1  0.255832  0.544476  0.630684  1
  Os  Os15  1  0.455964  0.744761  0.868937  1
  Os  Os16  1  0.744269  0.455387  0.369809  1
  Os  Os17  1  0.543802  0.255072  0.131325  1
  Os  Os18  1  0.002432  0.997778  0.749967  1
  Os  Os19  1  0.997483  0.002477  0.249823  1
