# generated using pymatgen
data_La3Pr5Se12
_symmetry_space_group_name_H-M   'P 1'
_cell_length_a   7.93048402
_cell_length_b   4.27743900
_cell_length_c   16.51731004
_cell_angle_alpha   90.00000000
_cell_angle_beta   90.00745668
_cell_angle_gamma   90.00000000
_symmetry_Int_Tables_number   1
_chemical_formula_structural   La3Pr5Se12
_chemical_formula_sum   'La3 Pr5 Se12'
_cell_volume   560.30285583
_cell_formula_units_Z   1
loop_
 _symmetry_equiv_pos_site_id
 _symmetry_equiv_pos_as_xyz
  1  'x, y, z'
loop_
 _atom_site_type_symbol
 _atom_site_label
 _atom_site_symmetry_multiplicity
 _atom_site_fract_x
 _atom_site_fract_y
 _atom_site_fract_z
 _atom_site_occupancy
  La  La0  1  0.732997  0.499999  0.043024  1
  La  La1  1  0.142740  0.000000  0.204168  1
  La  La2  1  0.642495  0.000000  0.296041  1
  Pr  Pr3  1  0.233628  0.499999  0.456442  1
  Pr  Pr4  1  0.766274  0.000000  0.543992  1
  Pr  Pr5  1  0.357190  0.499999  0.704057  1
  Pr  Pr6  1  0.857549  0.499999  0.795506  1
  Pr  Pr7  1  0.265434  0.000000  0.955954  1
  Se  Se8  1  0.126593  0.499999  0.066614  1
  Se  Se9  1  0.506497  0.000000  0.109652  1
  Se  Se10  1  0.853215  0.499999  0.219273  1
  Se  Se11  1  0.352771  0.499999  0.281407  1
  Se  Se12  1  0.007801  0.000000  0.391043  1
  Se  Se13  1  0.625036  0.499999  0.433516  1
  Se  Se14  1  0.375458  0.000000  0.567221  1
  Se  Se15  1  0.992558  0.499999  0.609436  1
  Se  Se16  1  0.646793  0.000000  0.718851  1
  Se  Se17  1  0.146948  0.000000  0.781248  1
  Se  Se18  1  0.492373  0.499999  0.890305  1
  Se  Se19  1  0.875642  0.000000  0.932249  1
