# generated using pymatgen
data_Tb3Th(ReC2)2
_symmetry_space_group_name_H-M   'P 1'
_cell_length_a   5.22803000
_cell_length_b   6.64832400
_cell_length_c   9.88628100
_cell_angle_alpha   90.00000000
_cell_angle_beta   90.00000000
_cell_angle_gamma   90.00000000
_symmetry_Int_Tables_number   1
_chemical_formula_structural   Tb3Th(ReC2)2
_chemical_formula_sum   'Tb6 Th2 Re4 C8'
_cell_volume   343.62376946
_cell_formula_units_Z   2
loop_
 _symmetry_equiv_pos_site_id
 _symmetry_equiv_pos_as_xyz
  1  'x, y, z'
loop_
 _atom_site_type_symbol
 _atom_site_label
 _atom_site_symmetry_multiplicity
 _atom_site_fract_x
 _atom_site_fract_y
 _atom_site_fract_z
 _atom_site_occupancy
  Tb  Tb0  1  0.750000  0.673632  0.446965  1
  Tb  Tb1  1  0.250000  0.826368  0.946965  1
  Tb  Tb2  1  0.750000  0.179781  0.053185  1
  Tb  Tb3  1  0.250000  0.320219  0.553185  1
  Tb  Tb4  1  0.250000  0.468739  0.210641  1
  Tb  Tb5  1  0.750000  0.031261  0.710641  1
  Th  Th6  1  0.750000  0.530033  0.786693  1
  Th  Th7  1  0.250000  0.969967  0.286693  1
  Re  Re8  1  0.250000  0.277455  0.864658  1
  Re  Re9  1  0.250000  0.776732  0.636344  1
  Re  Re10  1  0.750000  0.222545  0.364658  1
  Re  Re11  1  0.750000  0.723268  0.136344  1
  C  C12  1  0.250000  0.676977  0.450827  1
  C  C13  1  0.250000  0.544128  0.760032  1
  C  C14  1  0.750000  0.455599  0.239900  1
  C  C15  1  0.750000  0.823023  0.950827  1
  C  C16  1  0.250000  0.044401  0.739900  1
  C  C17  1  0.250000  0.174794  0.050756  1
  C  C18  1  0.750000  0.325206  0.550756  1
  C  C19  1  0.750000  0.955872  0.260032  1
