# generated using pymatgen
data_Dy4Mg4Ir3Pt
_symmetry_space_group_name_H-M   'P 1'
_cell_length_a   4.14096100
_cell_length_b   7.06455806
_cell_length_c   8.56040463
_cell_angle_alpha   89.29656984
_cell_angle_beta   90.00000000
_cell_angle_gamma   90.00000000
_symmetry_Int_Tables_number   1
_chemical_formula_structural   Dy4Mg4Ir3Pt
_chemical_formula_sum   'Dy4 Mg4 Ir3 Pt1'
_cell_volume   250.40771261
_cell_formula_units_Z   1
loop_
 _symmetry_equiv_pos_site_id
 _symmetry_equiv_pos_as_xyz
  1  'x, y, z'
loop_
 _atom_site_type_symbol
 _atom_site_label
 _atom_site_symmetry_multiplicity
 _atom_site_fract_x
 _atom_site_fract_y
 _atom_site_fract_z
 _atom_site_occupancy
  Dy  Dy0  1  0.250000  0.464552  0.180561  1
  Dy  Dy1  1  0.750000  0.547771  0.823076  1
  Dy  Dy2  1  0.750000  0.033606  0.669565  1
  Dy  Dy3  1  0.250000  0.960518  0.324466  1
  Mg  Mg4  1  0.250000  0.864123  0.939734  1
  Mg  Mg5  1  0.750000  0.135000  0.062570  1
  Mg  Mg6  1  0.750000  0.635057  0.439626  1
  Mg  Mg7  1  0.250000  0.363927  0.559657  1
  Ir  Ir8  1  0.250000  0.748457  0.628939  1
  Ir  Ir9  1  0.750000  0.249308  0.372297  1
  Ir  Ir10  1  0.750000  0.749024  0.125102  1
  Pt  Pt11  1  0.250000  0.248658  0.874407  1
