# generated using pymatgen
data_Ho12Th4Mg3HgRu4
_symmetry_space_group_name_H-M   'P 1'
_cell_length_a   9.69822192
_cell_length_b   9.69822180
_cell_length_c   9.69822173
_cell_angle_alpha   60.07020229
_cell_angle_beta   60.07020061
_cell_angle_gamma   60.07020107
_symmetry_Int_Tables_number   1
_chemical_formula_structural   Ho12Th4Mg3HgRu4
_chemical_formula_sum   'Ho12 Th4 Mg3 Hg1 Ru4'
_cell_volume   646.02857213
_cell_formula_units_Z   1
loop_
 _symmetry_equiv_pos_site_id
 _symmetry_equiv_pos_as_xyz
  1  'x, y, z'
loop_
 _atom_site_type_symbol
 _atom_site_label
 _atom_site_symmetry_multiplicity
 _atom_site_fract_x
 _atom_site_fract_y
 _atom_site_fract_z
 _atom_site_occupancy
  Ho  Ho0  1  0.812881  0.186766  0.186766  1
  Ho  Ho1  1  0.186795  0.812514  0.812514  1
  Ho  Ho2  1  0.186766  0.812881  0.186766  1
  Ho  Ho3  1  0.812514  0.186795  0.812514  1
  Ho  Ho4  1  0.186766  0.186766  0.812881  1
  Ho  Ho5  1  0.812514  0.812514  0.186795  1
  Ho  Ho6  1  0.931774  0.564679  0.564679  1
  Ho  Ho7  1  0.563546  0.935441  0.935441  1
  Ho  Ho8  1  0.564679  0.931774  0.564679  1
  Ho  Ho9  1  0.935441  0.563546  0.935441  1
  Ho  Ho10  1  0.564679  0.564679  0.931774  1
  Ho  Ho11  1  0.935441  0.935441  0.563546  1
  Th  Th12  1  0.346019  0.346019  0.346019  1
  Th  Th13  1  0.347768  0.347768  0.957928  1
  Th  Th14  1  0.347768  0.957928  0.347768  1
  Th  Th15  1  0.957928  0.347768  0.347768  1
  Mg  Mg16  1  0.579707  0.579707  0.262560  1
  Mg  Mg17  1  0.579707  0.262560  0.579707  1
  Mg  Mg18  1  0.262560  0.579707  0.579707  1
  Hg  Hg19  1  0.583213  0.583213  0.583213  1
  Ru  Ru20  1  0.142914  0.142914  0.142914  1
  Ru  Ru21  1  0.144458  0.144458  0.569707  1
  Ru  Ru22  1  0.144458  0.569707  0.144458  1
  Ru  Ru23  1  0.569707  0.144458  0.144458  1
