# generated using pymatgen
data_Ba3NiP6Os5
_symmetry_space_group_name_H-M   'P 1'
_cell_length_a   8.88745410
_cell_length_b   8.90321605
_cell_length_c   8.90321639
_cell_angle_alpha   153.81909228
_cell_angle_beta   90.51875348
_cell_angle_gamma   95.37781317
_symmetry_Int_Tables_number   1
_chemical_formula_structural   Ba3NiP6Os5
_chemical_formula_sum   'Ba3 Ni1 P6 Os5'
_cell_volume   302.41539641
_cell_formula_units_Z   1
loop_
 _symmetry_equiv_pos_site_id
 _symmetry_equiv_pos_as_xyz
  1  'x, y, z'
loop_
 _atom_site_type_symbol
 _atom_site_label
 _atom_site_symmetry_multiplicity
 _atom_site_fract_x
 _atom_site_fract_y
 _atom_site_fract_z
 _atom_site_occupancy
  Ba  Ba0  1  0.333825  0.332427  0.001397  1
  Ba  Ba1  1  0.664688  0.667435  0.997252  1
  Ba  Ba2  1  0.001694  0.000195  0.001499  1
  Ni  Ni3  1  0.918929  0.166509  0.752420  1
  P  P4  1  0.321719  0.666152  0.655567  1
  P  P5  1  0.681731  0.337701  0.344030  1
  P  P6  1  0.982895  0.328984  0.653912  1
  P  P7  1  0.341718  0.996715  0.345003  1
  P  P8  1  0.016231  0.666381  0.349850  1
  P  P9  1  0.656478  0.003945  0.652533  1
  Os  Os10  1  0.585766  0.837745  0.748021  1
  Os  Os11  1  0.244724  0.495642  0.749081  1
  Os  Os12  1  0.756006  0.507573  0.248432  1
  Os  Os13  1  0.075666  0.825842  0.249824  1
  Os  Os14  1  0.417931  0.166754  0.251179  1
