# generated using pymatgen
data_HfZr11(Ga3Sb)3
_symmetry_space_group_name_H-M   'P 1'
_cell_length_a   5.72936400
_cell_length_b   8.79011303
_cell_length_c   9.42903156
_cell_angle_alpha   89.86026455
_cell_angle_beta   89.99935763
_cell_angle_gamma   90.00175910
_symmetry_Int_Tables_number   1
_chemical_formula_structural   HfZr11(Ga3Sb)3
_chemical_formula_sum   'Hf1 Zr11 Ga9 Sb3'
_cell_volume   474.86118521
_cell_formula_units_Z   1
loop_
 _symmetry_equiv_pos_site_id
 _symmetry_equiv_pos_as_xyz
  1  'x, y, z'
loop_
 _atom_site_type_symbol
 _atom_site_label
 _atom_site_symmetry_multiplicity
 _atom_site_fract_x
 _atom_site_fract_y
 _atom_site_fract_z
 _atom_site_occupancy
  Hf  Hf0  1  0.497590  0.745348  0.119477  1
  Zr  Zr1  1  0.001722  0.746276  0.118534  1
  Zr  Zr2  1  0.497057  0.252976  0.884117  1
  Zr  Zr3  1  0.002947  0.252959  0.883771  1
  Zr  Zr4  1  0.750057  0.470175  0.611419  1
  Zr  Zr5  1  0.250118  0.528714  0.378873  1
  Zr  Zr6  1  0.750030  0.969148  0.390646  1
  Zr  Zr7  1  0.250009  0.030441  0.610349  1
  Zr  Zr8  1  0.749985  0.379021  0.197312  1
  Zr  Zr9  1  0.250169  0.617489  0.807827  1
  Zr  Zr10  1  0.749977  0.875769  0.802996  1
  Zr  Zr11  1  0.249871  0.131857  0.193902  1
  Ga  Ga12  1  0.003616  0.748044  0.571633  1
  Ga  Ga13  1  0.499974  0.250411  0.428468  1
  Ga  Ga14  1  0.000027  0.250467  0.428398  1
  Ga  Ga15  1  0.496404  0.748063  0.571483  1
  Ga  Ga16  1  0.250749  0.449033  0.085154  1
  Ga  Ga17  1  0.750003  0.140475  0.646086  1
  Ga  Ga18  1  0.250945  0.864399  0.353218  1
  Ga  Ga19  1  0.749255  0.638994  0.355781  1
  Ga  Ga20  1  0.250039  0.362340  0.642278  1
  Sb  Sb21  1  0.749416  0.051692  0.088193  1
  Sb  Sb22  1  0.250901  0.946457  0.913269  1
  Sb  Sb23  1  0.749137  0.549452  0.916815  1
