# generated using pymatgen
data_Er2Tm2LuBiAu2
_symmetry_space_group_name_H-M   'P 1'
_cell_length_a   8.62715274
_cell_length_b   8.62715270
_cell_length_c   8.62715312
_cell_angle_alpha   124.27926420
_cell_angle_beta   124.27926335
_cell_angle_gamma   82.73526568
_symmetry_Int_Tables_number   1
_chemical_formula_structural   Er2Tm2LuBiAu2
_chemical_formula_sum   'Er4 Tm4 Lu2 Bi2 Au4'
_cell_volume   420.94947310
_cell_formula_units_Z   2
loop_
 _symmetry_equiv_pos_site_id
 _symmetry_equiv_pos_as_xyz
  1  'x, y, z'
loop_
 _atom_site_type_symbol
 _atom_site_label
 _atom_site_symmetry_multiplicity
 _atom_site_fract_x
 _atom_site_fract_y
 _atom_site_fract_z
 _atom_site_occupancy
  Er  Er0  1  0.485907  0.985907  0.191129  1
  Er  Er1  1  0.794779  0.294779  0.808871  1
  Er  Er2  1  0.985907  0.794779  0.500000  1
  Er  Er3  1  0.294779  0.485907  0.500000  1
  Tm  Tm4  1  0.514264  0.014264  0.808419  1
  Tm  Tm5  1  0.205844  0.705844  0.191581  1
  Tm  Tm6  1  0.014264  0.205844  0.500000  1
  Tm  Tm7  1  0.705844  0.514264  0.500000  1
  Lu  Lu8  1  0.499848  0.499848  0.000000  1
  Lu  Lu9  1  0.999848  0.999848  0.000000  1
  Bi  Bi10  1  0.250017  0.250017  0.000000  1
  Bi  Bi11  1  0.750017  0.750017  0.000000  1
  Au  Au12  1  0.138990  0.638990  0.778640  1
  Au  Au13  1  0.860350  0.360350  0.221360  1
  Au  Au14  1  0.638990  0.860350  0.500000  1
  Au  Au15  1  0.360350  0.138990  0.500000  1
