# generated using pymatgen
data_Eu4ZnCuH12
_symmetry_space_group_name_H-M   'P 1'
_cell_length_a   7.21482567
_cell_length_b   7.21482410
_cell_length_c   5.32599703
_cell_angle_alpha   90.00437082
_cell_angle_beta   90.00437636
_cell_angle_gamma   136.68370969
_symmetry_Int_Tables_number   1
_chemical_formula_structural   Eu4ZnCuH12
_chemical_formula_sum   'Eu4 Zn1 Cu1 H12'
_cell_volume   190.19215401
_cell_formula_units_Z   1
loop_
 _symmetry_equiv_pos_site_id
 _symmetry_equiv_pos_as_xyz
  1  'x, y, z'
loop_
 _atom_site_type_symbol
 _atom_site_label
 _atom_site_symmetry_multiplicity
 _atom_site_fract_x
 _atom_site_fract_y
 _atom_site_fract_z
 _atom_site_occupancy
  Eu  Eu0  1  0.144706  0.855294  0.500000  1
  Eu  Eu1  1  0.645039  0.354961  0.000000  1
  Eu  Eu2  1  0.855294  0.144706  0.500000  1
  Eu  Eu3  1  0.354961  0.645039  0.000000  1
  Zn  Zn4  1  0.500000  0.500000  0.500000  1
  Cu  Cu5  1  0.000000  0.000000  0.000000  1
  H  H6  1  0.999982  0.499980  0.749361  1
  H  H7  1  0.500020  0.000018  0.250639  1
  H  H8  1  0.000018  0.500020  0.250639  1
  H  H9  1  0.499980  0.999982  0.749361  1
  H  H10  1  0.370119  0.629881  0.500000  1
  H  H11  1  0.875032  0.124968  0.000000  1
  H  H12  1  0.629881  0.370119  0.500000  1
  H  H13  1  0.124968  0.875032  0.000000  1
  H  H14  1  0.247555  0.247555  0.752504  1
  H  H15  1  0.752445  0.752445  0.247496  1
  H  H16  1  0.246677  0.246677  0.246931  1
  H  H17  1  0.753323  0.753323  0.753069  1
