# generated using pymatgen
data_TbPr2Mg3HgPb2
_symmetry_space_group_name_H-M   'P 1'
_cell_length_a   7.72818799
_cell_length_b   7.72818813
_cell_length_c   4.68570000
_cell_angle_alpha   90.00000000
_cell_angle_beta   90.00000000
_cell_angle_gamma   119.57028260
_symmetry_Int_Tables_number   1
_chemical_formula_structural   TbPr2Mg3HgPb2
_chemical_formula_sum   'Tb1 Pr2 Mg3 Hg1 Pb2'
_cell_volume   243.40235838
_cell_formula_units_Z   1
loop_
 _symmetry_equiv_pos_site_id
 _symmetry_equiv_pos_as_xyz
  1  'x, y, z'
loop_
 _atom_site_type_symbol
 _atom_site_label
 _atom_site_symmetry_multiplicity
 _atom_site_fract_x
 _atom_site_fract_y
 _atom_site_fract_z
 _atom_site_occupancy
  Tb  Tb0  1  0.409247  0.409247  0.500000  1
  Pr  Pr1  1  0.588287  0.997332  0.500000  1
  Pr  Pr2  1  0.997332  0.588287  0.500000  1
  Mg  Mg3  1  0.765916  0.765916  0.000000  1
  Mg  Mg4  1  0.235749  0.000260  0.000000  1
  Mg  Mg5  1  0.000260  0.235749  0.000000  1
  Hg  Hg6  1  0.009059  0.009059  0.500000  1
  Pb  Pb7  1  0.659719  0.334431  0.000000  1
  Pb  Pb8  1  0.334431  0.659719  0.000000  1
