# generated using pymatgen
data_NaTb5PrCoBr12
_symmetry_space_group_name_H-M   'P 1'
_cell_length_a   9.32057307
_cell_length_b   9.25649277
_cell_length_c   9.21742944
_cell_angle_alpha   106.62185122
_cell_angle_beta   106.82417246
_cell_angle_gamma   107.39970742
_symmetry_Int_Tables_number   1
_chemical_formula_structural   NaTb5PrCoBr12
_chemical_formula_sum   'Na1 Tb5 Pr1 Co1 Br12'
_cell_volume   663.18584993
_cell_formula_units_Z   1
loop_
 _symmetry_equiv_pos_site_id
 _symmetry_equiv_pos_as_xyz
  1  'x, y, z'
loop_
 _atom_site_type_symbol
 _atom_site_label
 _atom_site_symmetry_multiplicity
 _atom_site_fract_x
 _atom_site_fract_y
 _atom_site_fract_z
 _atom_site_occupancy
  Na  Na0  1  0.499948  0.500417  0.499405  1
  Tb  Tb1  1  0.104850  0.304786  0.028088  1
  Tb  Tb2  1  0.320455  0.030450  0.110152  1
  Tb  Tb3  1  0.028532  0.105700  0.305762  1
  Tb  Tb4  1  0.972634  0.898185  0.695536  1
  Tb  Tb5  1  0.679444  0.968327  0.890034  1
  Pr  Pr6  1  0.893305  0.686051  0.972235  1
  Co  Co7  1  0.000169  0.999172  0.001070  1
  Br  Br8  1  0.228634  0.684468  0.076509  1
  Br  Br9  1  0.448052  0.369112  0.145966  1
  Br  Br10  1  0.684050  0.073831  0.219004  1
  Br  Br11  1  0.929283  0.788976  0.328561  1
  Br  Br12  1  0.147192  0.449008  0.367501  1
  Br  Br13  1  0.367084  0.147493  0.449271  1
  Br  Br14  1  0.633407  0.854269  0.551571  1
  Br  Br15  1  0.851543  0.551121  0.619561  1
  Br  Br16  1  0.073912  0.220089  0.684778  1
  Br  Br17  1  0.316496  0.927977  0.782006  1
  Br  Br18  1  0.539564  0.630223  0.847168  1
  Br  Br19  1  0.781452  0.310348  0.925826  1
