# generated using pymatgen
data_Ho3Er5Cd2OsPd
_symmetry_space_group_name_H-M   'P 1'
_cell_length_a   9.58905164
_cell_length_b   9.58905084
_cell_length_c   9.67486900
_cell_angle_alpha   59.70350889
_cell_angle_beta   59.70351166
_cell_angle_gamma   59.43426785
_symmetry_Int_Tables_number   1
_chemical_formula_structural   Ho3Er5Cd2OsPd
_chemical_formula_sum   'Ho6 Er10 Cd4 Os2 Pd2'
_cell_volume   623.51349414
_cell_formula_units_Z   2
loop_
 _symmetry_equiv_pos_site_id
 _symmetry_equiv_pos_as_xyz
  1  'x, y, z'
loop_
 _atom_site_type_symbol
 _atom_site_label
 _atom_site_symmetry_multiplicity
 _atom_site_fract_x
 _atom_site_fract_y
 _atom_site_fract_z
 _atom_site_occupancy
  Ho  Ho0  1  0.937505  0.556522  0.567796  1
  Ho  Ho1  1  0.556522  0.937505  0.938178  1
  Ho  Ho2  1  0.556522  0.937505  0.567796  1
  Ho  Ho3  1  0.937505  0.556522  0.938178  1
  Ho  Ho4  1  0.565072  0.565072  0.934928  1
  Ho  Ho5  1  0.939087  0.939087  0.560913  1
  Er  Er6  1  0.350467  0.350467  0.354152  1
  Er  Er7  1  0.350467  0.350467  0.944914  1
  Er  Er8  1  0.345390  0.954147  0.350232  1
  Er  Er9  1  0.954147  0.345390  0.350232  1
  Er  Er10  1  0.816474  0.186771  0.190156  1
  Er  Er11  1  0.186771  0.816474  0.806601  1
  Er  Er12  1  0.186771  0.816474  0.190156  1
  Er  Er13  1  0.816474  0.186771  0.806601  1
  Er  Er14  1  0.187663  0.187663  0.812337  1
  Er  Er15  1  0.809145  0.809145  0.190855  1
  Cd  Cd16  1  0.579747  0.579747  0.581665  1
  Cd  Cd17  1  0.579747  0.579747  0.258838  1
  Cd  Cd18  1  0.581053  0.255136  0.581905  1
  Cd  Cd19  1  0.255136  0.581053  0.581905  1
  Os  Os20  1  0.145258  0.145258  0.137492  1
  Os  Os21  1  0.145258  0.145258  0.571990  1
  Pd  Pd22  1  0.145624  0.572198  0.141089  1
  Pd  Pd23  1  0.572198  0.145624  0.141089  1
