# generated using pymatgen
data_Yb6Nb5Al11Os7
_symmetry_space_group_name_H-M   'P 1'
_cell_length_a   9.08827414
_cell_length_b   9.08827404
_cell_length_c   9.03397800
_cell_angle_alpha   59.80098562
_cell_angle_beta   59.80098599
_cell_angle_gamma   59.99999348
_symmetry_Int_Tables_number   1
_chemical_formula_structural   Yb6Nb5Al11Os7
_chemical_formula_sum   'Yb6 Nb5 Al11 Os7'
_cell_volume   526.03406652
_cell_formula_units_Z   1
loop_
 _symmetry_equiv_pos_site_id
 _symmetry_equiv_pos_as_xyz
  1  'x, y, z'
loop_
 _atom_site_type_symbol
 _atom_site_label
 _atom_site_symmetry_multiplicity
 _atom_site_fract_x
 _atom_site_fract_y
 _atom_site_fract_z
 _atom_site_occupancy
  Yb  Yb0  1  0.708345  0.708345  0.293951  1
  Yb  Yb1  1  0.289358  0.708345  0.293951  1
  Yb  Yb2  1  0.708345  0.289358  0.293951  1
  Yb  Yb3  1  0.292973  0.292973  0.709945  1
  Yb  Yb4  1  0.704108  0.292973  0.709945  1
  Yb  Yb5  1  0.292973  0.704108  0.709945  1
  Nb  Nb6  1  0.880725  0.880725  0.357825  1
  Nb  Nb7  1  0.876914  0.362437  0.883736  1
  Nb  Nb8  1  0.362437  0.876914  0.883736  1
  Nb  Nb9  1  0.876914  0.876914  0.883736  1
  Nb  Nb10  1  0.125244  0.125244  0.624268  1
  Al  Al11  1  0.118343  0.642183  0.121131  1
  Al  Al12  1  0.642183  0.118343  0.121131  1
  Al  Al13  1  0.118343  0.118343  0.121131  1
  Al  Al14  1  0.667945  0.667945  0.996164  1
  Al  Al15  1  0.669658  0.992325  0.668359  1
  Al  Al16  1  0.992325  0.669658  0.668359  1
  Al  Al17  1  0.669658  0.669658  0.668359  1
  Al  Al18  1  0.328735  0.328735  0.013794  1
  Al  Al19  1  0.333722  0.008319  0.324236  1
  Al  Al20  1  0.008319  0.333722  0.324236  1
  Al  Al21  1  0.333722  0.333722  0.324236  1
  Os  Os22  1  0.004571  0.004571  0.986286  1
  Os  Os23  1  0.998073  0.998073  0.507498  1
  Os  Os24  1  0.496356  0.998073  0.507498  1
  Os  Os25  1  0.998073  0.496356  0.507498  1
  Os  Os26  1  0.501904  0.501904  0.998365  1
  Os  Os27  1  0.997828  0.501904  0.998365  1
  Os  Os28  1  0.501904  0.997828  0.998365  1
