# generated using pymatgen
data_Pr2MnAl20FeIr2
_symmetry_space_group_name_H-M   'P 1'
_cell_length_a   6.86787848
_cell_length_b   6.87235344
_cell_length_c   9.16897146
_cell_angle_alpha   89.97809660
_cell_angle_beta   90.13022791
_cell_angle_gamma   96.87412472
_symmetry_Int_Tables_number   1
_chemical_formula_structural   Pr2MnAl20FeIr2
_chemical_formula_sum   'Pr2 Mn1 Al20 Fe1 Ir2'
_cell_volume   429.64957065
_cell_formula_units_Z   1
loop_
 _symmetry_equiv_pos_site_id
 _symmetry_equiv_pos_as_xyz
  1  'x, y, z'
loop_
 _atom_site_type_symbol
 _atom_site_label
 _atom_site_symmetry_multiplicity
 _atom_site_fract_x
 _atom_site_fract_y
 _atom_site_fract_z
 _atom_site_occupancy
  Pr  Pr0  1  0.873990  0.123847  0.749866  1
  Pr  Pr1  1  0.126010  0.876153  0.250134  1
  Mn  Mn2  1  0.500000  0.000000  0.500000  1
  Al  Al3  1  0.618521  0.373172  0.549762  1
  Al  Al4  1  0.381479  0.626828  0.450238  1
  Al  Al5  1  0.374080  0.618927  0.050536  1
  Al  Al6  1  0.625920  0.381073  0.949464  1
  Al  Al7  1  0.230695  0.222281  0.495459  1
  Al  Al8  1  0.769305  0.777719  0.504541  1
  Al  Al9  1  0.777167  0.768957  0.004194  1
  Al  Al10  1  0.222833  0.231043  0.995806  1
  Al  Al11  1  0.844263  0.166328  0.101705  1
  Al  Al12  1  0.155737  0.833672  0.898295  1
  Al  Al13  1  0.165462  0.844241  0.600724  1
  Al  Al14  1  0.834538  0.155759  0.399276  1
  Al  Al15  1  0.861301  0.588737  0.754406  1
  Al  Al16  1  0.138699  0.411263  0.245594  1
  Al  Al17  1  0.410964  0.138848  0.745699  1
  Al  Al18  1  0.589036  0.861152  0.254301  1
  Al  Al19  1  0.221553  0.482265  0.755318  1
  Al  Al20  1  0.778447  0.517735  0.244682  1
  Al  Al21  1  0.517778  0.778704  0.744975  1
  Al  Al22  1  0.482222  0.221296  0.255025  1
  Fe  Fe23  1  0.000000  0.500000  0.000000  1
  Ir  Ir24  1  0.000000  0.500000  0.500000  1
  Ir  Ir25  1  0.500000  0.000000  0.000000  1
