# generated using pymatgen
data_HfZr9Al2(SnSb2)2
_symmetry_space_group_name_H-M   'P 1'
_cell_length_a   8.70318806
_cell_length_b   8.71664696
_cell_length_c   5.87948204
_cell_angle_alpha   90.00341870
_cell_angle_beta   90.00913308
_cell_angle_gamma   120.04418819
_symmetry_Int_Tables_number   1
_chemical_formula_structural   HfZr9Al2(SnSb2)2
_chemical_formula_sum   'Hf1 Zr9 Al2 Sn2 Sb4'
_cell_volume   386.10369963
_cell_formula_units_Z   1
loop_
 _symmetry_equiv_pos_site_id
 _symmetry_equiv_pos_as_xyz
  1  'x, y, z'
loop_
 _atom_site_type_symbol
 _atom_site_label
 _atom_site_symmetry_multiplicity
 _atom_site_fract_x
 _atom_site_fract_y
 _atom_site_fract_z
 _atom_site_occupancy
  Hf  Hf0  1  0.667363  0.333854  0.998414  1
  Zr  Zr1  1  0.727536  0.726177  0.750208  1
  Zr  Zr2  1  0.272737  0.999121  0.750210  1
  Zr  Zr3  1  0.999793  0.275232  0.750199  1
  Zr  Zr4  1  0.268137  0.267171  0.249909  1
  Zr  Zr5  1  0.732176  0.999616  0.249853  1
  Zr  Zr6  1  0.999701  0.732177  0.249844  1
  Zr  Zr7  1  0.332535  0.666497  0.998712  1
  Zr  Zr8  1  0.332517  0.666513  0.501318  1
  Zr  Zr9  1  0.667535  0.334063  0.501299  1
  Al  Al10  1  0.999990  0.001445  0.993440  1
  Al  Al11  1  0.000009  0.001463  0.506554  1
  Sn  Sn12  1  0.383307  0.382925  0.750406  1
  Sn  Sn13  1  0.617079  0.000392  0.750431  1
  Sb  Sb14  1  0.999612  0.614758  0.750397  1
  Sb  Sb15  1  0.609734  0.609986  0.249588  1
  Sb  Sb16  1  0.390663  0.001065  0.249617  1
  Sb  Sb17  1  0.999577  0.387544  0.249601  1
