# generated using pymatgen
data_Li4LaPr3As8
_symmetry_space_group_name_H-M   'P 1'
_cell_length_a   3.99776200
_cell_length_b   4.04478101
_cell_length_c   21.54465721
_cell_angle_alpha   90.02731705
_cell_angle_beta   90.00000000
_cell_angle_gamma   90.00000000
_symmetry_Int_Tables_number   1
_chemical_formula_structural   Li4LaPr3As8
_chemical_formula_sum   'Li4 La1 Pr3 As8'
_cell_volume   348.37861477
_cell_formula_units_Z   1
loop_
 _symmetry_equiv_pos_site_id
 _symmetry_equiv_pos_as_xyz
  1  'x, y, z'
loop_
 _atom_site_type_symbol
 _atom_site_label
 _atom_site_symmetry_multiplicity
 _atom_site_fract_x
 _atom_site_fract_y
 _atom_site_fract_z
 _atom_site_occupancy
  Li  Li0  1  0.750000  0.726243  0.250003  1
  Li  Li1  1  0.250000  0.226154  0.250042  1
  Li  Li2  1  0.750000  0.773855  0.749359  1
  Li  Li3  1  0.250000  0.273698  0.749372  1
  La  La4  1  0.750000  0.271385  0.882548  1
  Pr  Pr5  1  0.250000  0.728072  0.117583  1
  Pr  Pr6  1  0.750000  0.228636  0.383027  1
  Pr  Pr7  1  0.250000  0.771260  0.616830  1
  As  As8  1  0.750000  0.225509  0.171684  1
  As  As9  1  0.250000  0.725935  0.328615  1
  As  As10  1  0.750000  0.273993  0.671379  1
  As  As11  1  0.250000  0.773843  0.827432  1
  As  As12  1  0.250000  0.205925  0.003138  1
  As  As13  1  0.750000  0.706148  0.497994  1
  As  As14  1  0.250000  0.294029  0.501891  1
  As  As15  1  0.750000  0.795314  0.999104  1
