# generated using pymatgen
data_Hf4Si4PdPt2Rh
_symmetry_space_group_name_H-M   'P 1'
_cell_length_a   3.88972900
_cell_length_b   6.58347720
_cell_length_c   7.57937398
_cell_angle_alpha   89.69551225
_cell_angle_beta   90.00000000
_cell_angle_gamma   90.00000000
_symmetry_Int_Tables_number   1
_chemical_formula_structural   Hf4Si4PdPt2Rh
_chemical_formula_sum   'Hf4 Si4 Pd1 Pt2 Rh1'
_cell_volume   194.08943000
_cell_formula_units_Z   1
loop_
 _symmetry_equiv_pos_site_id
 _symmetry_equiv_pos_as_xyz
  1  'x, y, z'
loop_
 _atom_site_type_symbol
 _atom_site_label
 _atom_site_symmetry_multiplicity
 _atom_site_fract_x
 _atom_site_fract_y
 _atom_site_fract_z
 _atom_site_occupancy
  Hf  Hf0  1  0.250000  0.527465  0.179351  1
  Hf  Hf1  1  0.750000  0.477140  0.819343  1
  Hf  Hf2  1  0.250000  0.024708  0.324026  1
  Hf  Hf3  1  0.750000  0.973542  0.676501  1
  Si  Si4  1  0.250000  0.762586  0.872925  1
  Si  Si5  1  0.750000  0.236234  0.122482  1
  Si  Si6  1  0.250000  0.267251  0.621975  1
  Si  Si7  1  0.750000  0.734528  0.384291  1
  Pd  Pd8  1  0.250000  0.148824  0.935822  1
  Pt  Pt9  1  0.750000  0.851141  0.065914  1
  Pt  Pt10  1  0.750000  0.351594  0.433956  1
  Rh  Rh11  1  0.250000  0.644989  0.563416  1
