# generated using pymatgen
data_La3Y2(Sn5Ir2)2
_symmetry_space_group_name_H-M   'P 1'
_cell_length_a   14.17979400
_cell_length_b   14.17979400
_cell_length_c   4.65845400
_cell_angle_alpha   90.00000000
_cell_angle_beta   90.00000000
_cell_angle_gamma   90.00000000
_symmetry_Int_Tables_number   1
_chemical_formula_structural   La3Y2(Sn5Ir2)2
_chemical_formula_sum   'La6 Y4 Sn20 Ir8'
_cell_volume   936.65931083
_cell_formula_units_Z   2
loop_
 _symmetry_equiv_pos_site_id
 _symmetry_equiv_pos_as_xyz
  1  'x, y, z'
loop_
 _atom_site_type_symbol
 _atom_site_label
 _atom_site_symmetry_multiplicity
 _atom_site_fract_x
 _atom_site_fract_y
 _atom_site_fract_z
 _atom_site_occupancy
  La  La0  1  0.500000  0.500000  0.000000  1
  La  La1  1  0.000000  0.000000  0.000000  1
  La  La2  1  0.887182  0.387182  0.500000  1
  La  La3  1  0.112818  0.612818  0.500000  1
  La  La4  1  0.387182  0.112818  0.500000  1
  La  La5  1  0.612818  0.887182  0.500000  1
  Y  Y6  1  0.675844  0.175844  0.500000  1
  Y  Y7  1  0.324156  0.824156  0.500000  1
  Y  Y8  1  0.175844  0.324156  0.500000  1
  Y  Y9  1  0.824156  0.675844  0.500000  1
  Sn  Sn10  1  0.570154  0.070154  0.000000  1
  Sn  Sn11  1  0.429846  0.929846  0.000000  1
  Sn  Sn12  1  0.070154  0.429846  0.000000  1
  Sn  Sn13  1  0.929846  0.570154  0.000000  1
  Sn  Sn14  1  0.655611  0.698145  0.000000  1
  Sn  Sn15  1  0.344389  0.301855  0.000000  1
  Sn  Sn16  1  0.155611  0.801855  0.000000  1
  Sn  Sn17  1  0.844389  0.198145  0.000000  1
  Sn  Sn18  1  0.301855  0.655611  0.000000  1
  Sn  Sn19  1  0.698145  0.344389  0.000000  1
  Sn  Sn20  1  0.198145  0.155611  0.000000  1
  Sn  Sn21  1  0.801855  0.844389  0.000000  1
  Sn  Sn22  1  0.663492  0.505726  0.500000  1
  Sn  Sn23  1  0.336508  0.494274  0.500000  1
  Sn  Sn24  1  0.163492  0.994274  0.500000  1
  Sn  Sn25  1  0.836508  0.005726  0.500000  1
  Sn  Sn26  1  0.494274  0.663492  0.500000  1
  Sn  Sn27  1  0.505726  0.336508  0.500000  1
  Sn  Sn28  1  0.005726  0.163492  0.500000  1
  Sn  Sn29  1  0.994274  0.836508  0.500000  1
  Ir  Ir30  1  0.747083  0.529155  0.000000  1
  Ir  Ir31  1  0.252917  0.470845  0.000000  1
  Ir  Ir32  1  0.247083  0.970845  0.000000  1
  Ir  Ir33  1  0.752917  0.029155  0.000000  1
  Ir  Ir34  1  0.470845  0.747083  0.000000  1
  Ir  Ir35  1  0.529155  0.252917  0.000000  1
  Ir  Ir36  1  0.029155  0.247083  0.000000  1
  Ir  Ir37  1  0.970845  0.752917  0.000000  1
