# generated using pymatgen
data_LaY7(HgPd)2
_symmetry_space_group_name_H-M   'P 1'
_cell_length_a   9.77251792
_cell_length_b   9.77251694
_cell_length_c   9.76008900
_cell_angle_alpha   60.04206274
_cell_angle_beta   60.04206608
_cell_angle_gamma   60.18077387
_symmetry_Int_Tables_number   1
_chemical_formula_structural   LaY7(HgPd)2
_chemical_formula_sum   'La2 Y14 Hg4 Pd4'
_cell_volume   660.41677867
_cell_formula_units_Z   2
loop_
 _symmetry_equiv_pos_site_id
 _symmetry_equiv_pos_as_xyz
  1  'x, y, z'
loop_
 _atom_site_type_symbol
 _atom_site_label
 _atom_site_symmetry_multiplicity
 _atom_site_fract_x
 _atom_site_fract_y
 _atom_site_fract_z
 _atom_site_occupancy
  La  La0  1  0.354723  0.354723  0.356516  1
  La  La1  1  0.354723  0.354723  0.934039  1
  Y  Y2  1  0.360917  0.922612  0.358235  1
  Y  Y3  1  0.922612  0.360917  0.358235  1
  Y  Y4  1  0.813271  0.188308  0.187005  1
  Y  Y5  1  0.188308  0.813271  0.811415  1
  Y  Y6  1  0.188308  0.813271  0.187005  1
  Y  Y7  1  0.813271  0.188308  0.811415  1
  Y  Y8  1  0.186279  0.186279  0.813721  1
  Y  Y9  1  0.811298  0.811298  0.188702  1
  Y  Y10  1  0.934817  0.566435  0.566038  1
  Y  Y11  1  0.566435  0.934817  0.932711  1
  Y  Y12  1  0.566435  0.934817  0.566038  1
  Y  Y13  1  0.934817  0.566435  0.932711  1
  Y  Y14  1  0.567300  0.567300  0.932700  1
  Y  Y15  1  0.937066  0.937066  0.562934  1
  Hg  Hg16  1  0.590268  0.590268  0.583740  1
  Hg  Hg17  1  0.590268  0.590268  0.235724  1
  Hg  Hg18  1  0.592207  0.235033  0.586381  1
  Hg  Hg19  1  0.235033  0.592207  0.586381  1
  Pd  Pd20  1  0.141604  0.141604  0.152701  1
  Pd  Pd21  1  0.141604  0.141604  0.564089  1
  Pd  Pd22  1  0.138405  0.570030  0.145782  1
  Pd  Pd23  1  0.570030  0.138405  0.145782  1
