# generated using pymatgen
data_Pr2SmY3OsBr10
_symmetry_space_group_name_H-M   'P 1'
_cell_length_a   7.53844562
_cell_length_b   9.42849378
_cell_length_c   9.42279313
_cell_angle_alpha   107.18471944
_cell_angle_beta   95.67259657
_cell_angle_gamma   106.41067527
_symmetry_Int_Tables_number   1
_chemical_formula_structural   Pr2SmY3OsBr10
_chemical_formula_sum   'Pr2 Sm1 Y3 Os1 Br10'
_cell_volume   601.50303344
_cell_formula_units_Z   1
loop_
 _symmetry_equiv_pos_site_id
 _symmetry_equiv_pos_as_xyz
  1  'x, y, z'
loop_
 _atom_site_type_symbol
 _atom_site_label
 _atom_site_symmetry_multiplicity
 _atom_site_fract_x
 _atom_site_fract_y
 _atom_site_fract_z
 _atom_site_occupancy
  Pr  Pr0  1  0.625015  0.549545  0.261173  1
  Pr  Pr1  1  0.372137  0.449140  0.737975  1
  Sm  Sm2  1  0.866607  0.641073  0.681982  1
  Y  Y3  1  0.526796  0.197454  0.404159  1
  Y  Y4  1  0.471521  0.802129  0.594609  1
  Y  Y5  1  0.136390  0.361155  0.320905  1
  Os  Os6  1  0.499479  0.499801  0.500070  1
  Br  Br7  1  0.153207  0.051223  0.230860  1
  Br  Br8  1  0.842845  0.953049  0.768697  1
  Br  Br9  1  0.240525  0.412698  0.051789  1
  Br  Br10  1  0.754025  0.584577  0.951294  1
  Br  Br11  1  0.718615  0.240573  0.160988  1
  Br  Br12  1  0.292421  0.762351  0.843007  1
  Br  Br13  1  0.052663  0.673921  0.416254  1
  Br  Br14  1  0.948178  0.321451  0.576878  1
  Br  Br15  1  0.415552  0.121653  0.664539  1
  Br  Br16  1  0.584023  0.878207  0.334822  1
