# generated using pymatgen
data_Y4Zn2AgRu
_symmetry_space_group_name_H-M   'P 1'
_cell_length_a   7.20667801
_cell_length_b   6.95024900
_cell_length_c   7.20665501
_cell_angle_alpha   90.00000000
_cell_angle_beta   90.00634441
_cell_angle_gamma   90.00000000
_symmetry_Int_Tables_number   1
_chemical_formula_structural   Y4Zn2AgRu
_chemical_formula_sum   'Y8 Zn4 Ag2 Ru2'
_cell_volume   360.96842316
_cell_formula_units_Z   2
loop_
 _symmetry_equiv_pos_site_id
 _symmetry_equiv_pos_as_xyz
  1  'x, y, z'
loop_
 _atom_site_type_symbol
 _atom_site_label
 _atom_site_symmetry_multiplicity
 _atom_site_fract_x
 _atom_site_fract_y
 _atom_site_fract_z
 _atom_site_occupancy
  Y  Y0  1  0.761035  0.500078  0.261030  1
  Y  Y1  1  0.761035  0.999922  0.261030  1
  Y  Y2  1  0.237258  0.000089  0.262740  1
  Y  Y3  1  0.237258  0.499910  0.262740  1
  Y  Y4  1  0.762741  0.500068  0.737260  1
  Y  Y5  1  0.762741  0.999932  0.737260  1
  Y  Y6  1  0.238966  0.000098  0.738969  1
  Y  Y7  1  0.238966  0.499902  0.738969  1
  Zn  Zn8  1  0.999796  0.250000  0.000003  1
  Zn  Zn9  1  0.000203  0.750001  0.999996  1
  Zn  Zn10  1  0.500219  0.250000  0.499987  1
  Zn  Zn11  1  0.499782  0.750001  0.500012  1
  Ag  Ag12  1  0.500195  0.250000  0.000005  1
  Ag  Ag13  1  0.499804  0.750001  0.999996  1
  Ru  Ru14  1  0.000123  0.750001  0.500001  1
  Ru  Ru15  1  0.999877  0.250000  0.499997  1
