# generated using pymatgen
data_Ce3Er(B4W)4
_symmetry_space_group_name_H-M   'P 1'
_cell_length_a   3.67908000
_cell_length_b   6.05964127
_cell_length_c   11.72220138
_cell_angle_alpha   89.90087424
_cell_angle_beta   90.00000000
_cell_angle_gamma   90.00000000
_symmetry_Int_Tables_number   1
_chemical_formula_structural   Ce3Er(B4W)4
_chemical_formula_sum   'Ce3 Er1 B16 W4'
_cell_volume   261.33325290
_cell_formula_units_Z   1
loop_
 _symmetry_equiv_pos_site_id
 _symmetry_equiv_pos_as_xyz
  1  'x, y, z'
loop_
 _atom_site_type_symbol
 _atom_site_label
 _atom_site_symmetry_multiplicity
 _atom_site_fract_x
 _atom_site_fract_y
 _atom_site_fract_z
 _atom_site_occupancy
  Ce  Ce0  1  0.000000  0.625296  0.349348  1
  Ce  Ce1  1  0.000000  0.374542  0.651393  1
  Ce  Ce2  1  0.000000  0.124906  0.150032  1
  Er  Er3  1  0.000000  0.874400  0.850017  1
  B  B4  1  0.500000  0.786954  0.184777  1
  B  B5  1  0.500000  0.212690  0.814666  1
  B  B6  1  0.500000  0.285974  0.314229  1
  B  B7  1  0.500000  0.713871  0.686598  1
  B  B8  1  0.500000  0.865023  0.031547  1
  B  B9  1  0.500000  0.134956  0.967128  1
  B  B10  1  0.500000  0.364347  0.468227  1
  B  B11  1  0.500000  0.635931  0.532584  1
  B  B12  1  0.500000  0.886003  0.453664  1
  B  B13  1  0.500000  0.113421  0.547641  1
  B  B14  1  0.500000  0.386553  0.045782  1
  B  B15  1  0.500000  0.615879  0.952121  1
  B  B16  1  0.500000  0.974964  0.308164  1
  B  B17  1  0.500000  0.024488  0.693119  1
  B  B18  1  0.500000  0.475128  0.191266  1
  B  B19  1  0.500000  0.523962  0.808056  1
  W  W20  1  0.000000  0.630834  0.084746  1
  W  W21  1  0.000000  0.370324  0.914310  1
  W  W22  1  0.000000  0.130938  0.414520  1
  W  W23  1  0.000000  0.868617  0.586064  1
