# generated using pymatgen
data_V12Ga5Cu2NiN4
_symmetry_space_group_name_H-M   'P 1'
_cell_length_a   6.55491066
_cell_length_b   6.55416951
_cell_length_c   6.55599201
_cell_angle_alpha   90.10468093
_cell_angle_beta   90.10564307
_cell_angle_gamma   90.11701658
_symmetry_Int_Tables_number   1
_chemical_formula_structural   V12Ga5Cu2NiN4
_chemical_formula_sum   'V12 Ga5 Cu2 Ni1 N4'
_cell_volume   281.65696173
_cell_formula_units_Z   1
loop_
 _symmetry_equiv_pos_site_id
 _symmetry_equiv_pos_as_xyz
  1  'x, y, z'
loop_
 _atom_site_type_symbol
 _atom_site_label
 _atom_site_symmetry_multiplicity
 _atom_site_fract_x
 _atom_site_fract_y
 _atom_site_fract_z
 _atom_site_occupancy
  V  V0  1  0.788553  0.962831  0.375478  1
  V  V1  1  0.711821  0.040663  0.875337  1
  V  V2  1  0.209936  0.459408  0.125329  1
  V  V3  1  0.289892  0.539592  0.625410  1
  V  V4  1  0.960337  0.376067  0.790382  1
  V  V5  1  0.038800  0.874012  0.710762  1
  V  V6  1  0.461312  0.125844  0.212043  1
  V  V7  1  0.541605  0.624268  0.288346  1
  V  V8  1  0.376562  0.788881  0.961122  1
  V  V9  1  0.873822  0.709028  0.039433  1
  V  V10  1  0.123932  0.212520  0.458081  1
  V  V11  1  0.625876  0.289158  0.538601  1
  Ga  Ga12  1  0.678129  0.677940  0.678301  1
  Ga  Ga13  1  0.572168  0.418106  0.936498  1
  Ga  Ga14  1  0.418725  0.934662  0.570269  1
  Ga  Ga15  1  0.933350  0.568154  0.417266  1
  Ga  Ga16  1  0.071323  0.074784  0.073976  1
  Cu  Cu17  1  0.178144  0.821808  0.318833  1
  Cu  Cu18  1  0.318842  0.178645  0.822405  1
  Ni  Ni19  1  0.821948  0.318756  0.178503  1
  N  N20  1  0.878538  0.126075  0.624656  1
  N  N21  1  0.625054  0.877925  0.125006  1
  N  N22  1  0.125364  0.624380  0.878349  1
  N  N23  1  0.375970  0.376491  0.375614  1
