# generated using pymatgen
data_V4AsPC2
_symmetry_space_group_name_H-M   'P 1'
_cell_length_a   3.08158900
_cell_length_b   3.08158894
_cell_length_c   11.23693600
_cell_angle_alpha   90.00000000
_cell_angle_beta   90.00000000
_cell_angle_gamma   120.00001138
_symmetry_Int_Tables_number   1
_chemical_formula_structural   V4AsPC2
_chemical_formula_sum   'V4 As1 P1 C2'
_cell_volume   92.41190249
_cell_formula_units_Z   1
loop_
 _symmetry_equiv_pos_site_id
 _symmetry_equiv_pos_as_xyz
  1  'x, y, z'
loop_
 _atom_site_type_symbol
 _atom_site_label
 _atom_site_symmetry_multiplicity
 _atom_site_fract_x
 _atom_site_fract_y
 _atom_site_fract_z
 _atom_site_occupancy
  V  V0  1  0.333333  0.666667  0.396666  1
  V  V1  1  0.666667  0.333333  0.914378  1
  V  V2  1  0.666667  0.333333  0.585622  1
  V  V3  1  0.333333  0.666667  0.103334  1
  As  As4  1  0.333333  0.666667  0.750000  1
  P  P5  1  0.666667  0.333333  0.250000  1
  C  C6  1  0.000000  0.000000  0.006298  1
  C  C7  1  0.000000  0.000000  0.493702  1
