# generated using pymatgen
data_Sc3Tc8MoW4
_symmetry_space_group_name_H-M   'P 1'
_cell_length_a   6.33490900
_cell_length_b   4.46581800
_cell_length_c   8.92337001
_cell_angle_alpha   90.00000000
_cell_angle_beta   90.00415037
_cell_angle_gamma   90.00000000
_symmetry_Int_Tables_number   1
_chemical_formula_structural   Sc3Tc8MoW4
_chemical_formula_sum   'Sc3 Tc8 Mo1 W4'
_cell_volume   252.44705054
_cell_formula_units_Z   1
loop_
 _symmetry_equiv_pos_site_id
 _symmetry_equiv_pos_as_xyz
  1  'x, y, z'
loop_
 _atom_site_type_symbol
 _atom_site_label
 _atom_site_symmetry_multiplicity
 _atom_site_fract_x
 _atom_site_fract_y
 _atom_site_fract_z
 _atom_site_occupancy
  Sc  Sc0  1  0.750089  0.749999  0.374869  1
  Sc  Sc1  1  0.249915  0.250001  0.624984  1
  Sc  Sc2  1  0.749907  0.749999  0.875164  1
  Tc  Tc3  1  0.005389  0.749999  0.124993  1
  Tc  Tc4  1  0.494715  0.749999  0.125013  1
  Tc  Tc5  1  0.002437  0.250001  0.369266  1
  Tc  Tc6  1  0.497681  0.250001  0.369292  1
  Tc  Tc7  1  0.499805  0.749999  0.624993  1
  Tc  Tc8  1  0.000079  0.749999  0.625011  1
  Tc  Tc9  1  0.497544  0.250001  0.880722  1
  Tc  Tc10  1  0.002315  0.250001  0.880723  1
  Mo  Mo11  1  0.250093  0.250001  0.124962  1
  W  W12  1  0.750096  0.250001  0.125032  1
  W  W13  1  0.250082  0.749999  0.376855  1
  W  W14  1  0.749933  0.250001  0.625022  1
  W  W15  1  0.249921  0.749999  0.873099  1
