# generated using pymatgen
data_Tb9HoTl2In6Ir3Pd
_symmetry_space_group_name_H-M   'P 1'
_cell_length_a   3.66216800
_cell_length_b   8.10364715
_cell_length_c   18.29264100
_cell_angle_alpha   90.05796290
_cell_angle_beta   90.00000000
_cell_angle_gamma   90.00000000
_symmetry_Int_Tables_number   1
_chemical_formula_structural   Tb9HoTl2In6Ir3Pd
_chemical_formula_sum   'Tb9 Ho1 Tl2 In6 Ir3 Pd1'
_cell_volume   542.86891571
_cell_formula_units_Z   1
loop_
 _symmetry_equiv_pos_site_id
 _symmetry_equiv_pos_as_xyz
  1  'x, y, z'
loop_
 _atom_site_type_symbol
 _atom_site_label
 _atom_site_symmetry_multiplicity
 _atom_site_fract_x
 _atom_site_fract_y
 _atom_site_fract_z
 _atom_site_occupancy
  Tb  Tb0  1  0.000000  0.499498  0.500987  1
  Tb  Tb1  1  0.000000  0.000090  0.999585  1
  Tb  Tb2  1  0.000000  0.729374  0.278964  1
  Tb  Tb3  1  0.000000  0.258759  0.721326  1
  Tb  Tb4  1  0.000000  0.758742  0.777511  1
  Tb  Tb5  1  0.000000  0.253523  0.219815  1
  Tb  Tb6  1  0.000000  0.613765  0.088017  1
  Tb  Tb7  1  0.000000  0.386395  0.908882  1
  Tb  Tb8  1  0.000000  0.885302  0.589561  1
  Ho  Ho9  1  0.000000  0.115086  0.414580  1
  Tl  Tl10  1  0.500000  0.709771  0.932958  1
  Tl  Tl11  1  0.500000  0.289847  0.066212  1
  In  In12  1  0.500000  0.792180  0.433005  1
  In  In13  1  0.500000  0.206920  0.567539  1
  In  In14  1  0.500000  0.571987  0.648837  1
  In  In15  1  0.500000  0.421927  0.351887  1
  In  In16  1  0.500000  0.922496  0.150529  1
  In  In17  1  0.500000  0.073442  0.850363  1
  Ir  Ir18  1  0.500000  0.522550  0.197037  1
  Ir  Ir19  1  0.500000  0.482101  0.801996  1
  Ir  Ir20  1  0.500000  0.985831  0.695903  1
  Pd  Pd21  1  0.500000  0.020414  0.304508  1
