# generated using pymatgen
data_Na3Ga(SO4)3
_symmetry_space_group_name_H-M   'P 1'
_cell_length_a   8.42138742
_cell_length_b   8.42138776
_cell_length_c   8.42138764
_cell_angle_alpha   107.84595098
_cell_angle_beta   107.84594954
_cell_angle_gamma   107.84595181
_symmetry_Int_Tables_number   1
_chemical_formula_structural   Na3Ga(SO4)3
_chemical_formula_sum   'Na6 Ga2 S6 O24'
_cell_volume   485.45434922
_cell_formula_units_Z   2
loop_
 _symmetry_equiv_pos_site_id
 _symmetry_equiv_pos_as_xyz
  1  'x, y, z'
loop_
 _atom_site_type_symbol
 _atom_site_label
 _atom_site_symmetry_multiplicity
 _atom_site_fract_x
 _atom_site_fract_y
 _atom_site_fract_z
 _atom_site_occupancy
  Na  Na0  1  0.616351  0.764444  0.144604  1
  Na  Na1  1  0.144604  0.616351  0.764444  1
  Na  Na2  1  0.764444  0.144604  0.616351  1
  Na  Na3  1  0.383649  0.235556  0.855396  1
  Na  Na4  1  0.855396  0.383649  0.235556  1
  Na  Na5  1  0.235556  0.855396  0.383649  1
  Ga  Ga6  1  0.000000  0.000000  0.000000  1
  Ga  Ga7  1  0.500000  0.500000  0.500000  1
  S  S8  1  0.900596  0.764215  0.555104  1
  S  S9  1  0.555104  0.900596  0.764215  1
  S  S10  1  0.764215  0.555104  0.900596  1
  S  S11  1  0.099404  0.235785  0.444896  1
  S  S12  1  0.444896  0.099404  0.235785  1
  S  S13  1  0.235785  0.444896  0.099404  1
  O  O14  1  0.752661  0.581865  0.515511  1
  O  O15  1  0.515511  0.752661  0.581865  1
  O  O16  1  0.581865  0.515511  0.752661  1
  O  O17  1  0.247339  0.418135  0.484489  1
  O  O18  1  0.484489  0.247339  0.418135  1
  O  O19  1  0.418135  0.484489  0.247339  1
  O  O20  1  0.820207  0.868826  0.475769  1
  O  O21  1  0.475769  0.820207  0.868826  1
  O  O22  1  0.868826  0.475769  0.820207  1
  O  O23  1  0.179793  0.131174  0.524231  1
  O  O24  1  0.524231  0.179793  0.131174  1
  O  O25  1  0.131174  0.524231  0.179793  1
  O  O26  1  0.026169  0.712875  0.483748  1
  O  O27  1  0.483748  0.026169  0.712875  1
  O  O28  1  0.712875  0.483748  0.026169  1
  O  O29  1  0.973831  0.287125  0.516252  1
  O  O30  1  0.516252  0.973831  0.287125  1
  O  O31  1  0.287125  0.516252  0.973831  1
  O  O32  1  0.015589  0.873433  0.765356  1
  O  O33  1  0.765356  0.015589  0.873433  1
  O  O34  1  0.873433  0.765356  0.015589  1
  O  O35  1  0.984411  0.126567  0.234644  1
  O  O36  1  0.234644  0.984411  0.126567  1
  O  O37  1  0.126567  0.234644  0.984411  1
