# generated using pymatgen
data_Ta4Mn3NbRu8
_symmetry_space_group_name_H-M   'P 1'
_cell_length_a   6.29706500
_cell_length_b   4.42345400
_cell_length_c   8.83162000
_cell_angle_alpha   90.00000000
_cell_angle_beta   90.00038570
_cell_angle_gamma   90.00000000
_symmetry_Int_Tables_number   1
_chemical_formula_structural   Ta4Mn3NbRu8
_chemical_formula_sum   'Ta4 Mn3 Nb1 Ru8'
_cell_volume   246.00280885
_cell_formula_units_Z   1
loop_
 _symmetry_equiv_pos_site_id
 _symmetry_equiv_pos_as_xyz
  1  'x, y, z'
loop_
 _atom_site_type_symbol
 _atom_site_label
 _atom_site_symmetry_multiplicity
 _atom_site_fract_x
 _atom_site_fract_y
 _atom_site_fract_z
 _atom_site_occupancy
  Ta  Ta0  1  0.749996  0.249999  0.124975  1
  Ta  Ta1  1  0.249997  0.749999  0.386516  1
  Ta  Ta2  1  0.750000  0.249999  0.624984  1
  Ta  Ta3  1  0.250005  0.749999  0.863473  1
  Mn  Mn4  1  0.749989  0.749999  0.374232  1
  Mn  Mn5  1  0.250010  0.249999  0.624975  1
  Mn  Mn6  1  0.750004  0.749999  0.875791  1
  Nb  Nb7  1  0.249998  0.249999  0.124996  1
  Ru  Ru8  1  0.003848  0.749999  0.125024  1
  Ru  Ru9  1  0.496136  0.749999  0.125022  1
  Ru  Ru10  1  0.000589  0.249999  0.373198  1
  Ru  Ru11  1  0.499406  0.249999  0.373201  1
  Ru  Ru12  1  0.503493  0.749999  0.625012  1
  Ru  Ru13  1  0.996521  0.749999  0.625009  1
  Ru  Ru14  1  0.499424  0.249999  0.876794  1
  Ru  Ru15  1  0.000584  0.249999  0.876793  1
