# generated using pymatgen
data_Th2Al18CoNi5
_symmetry_space_group_name_H-M   'P 1'
_cell_length_a   10.09661462
_cell_length_b   10.10374187
_cell_length_c   10.10025421
_cell_angle_alpha   42.66593846
_cell_angle_beta   42.68276713
_cell_angle_gamma   42.71167161
_symmetry_Int_Tables_number   1
_chemical_formula_structural   Th2Al18CoNi5
_chemical_formula_sum   'Th2 Al18 Co1 Ni5'
_cell_volume   429.02308613
_cell_formula_units_Z   1
loop_
 _symmetry_equiv_pos_site_id
 _symmetry_equiv_pos_as_xyz
  1  'x, y, z'
loop_
 _atom_site_type_symbol
 _atom_site_label
 _atom_site_symmetry_multiplicity
 _atom_site_fract_x
 _atom_site_fract_y
 _atom_site_fract_z
 _atom_site_occupancy
  Th  Th0  1  0.166932  0.166639  0.168022  1
  Th  Th1  1  0.834352  0.833500  0.832869  1
  Al  Al2  1  0.050068  0.050488  0.050892  1
  Al  Al3  1  0.702924  0.499664  0.297496  1
  Al  Al4  1  0.665062  0.334084  0.999833  1
  Al  Al5  1  0.104861  0.429700  0.755289  1
  Al  Al6  1  0.429993  0.755393  0.104495  1
  Al  Al7  1  0.385175  0.385776  0.384629  1
  Al  Al8  1  0.333564  0.999009  0.664961  1
  Al  Al9  1  0.611957  0.616435  0.614198  1
  Al  Al10  1  0.245140  0.573004  0.894221  1
  Al  Al11  1  0.568652  0.896473  0.247300  1
  Al  Al12  1  0.500330  0.296887  0.702647  1
  Al  Al13  1  0.755093  0.104459  0.429747  1
  Al  Al14  1  0.951504  0.949416  0.946824  1
  Al  Al15  1  0.298042  0.703784  0.500835  1
  Al  Al16  1  0.999808  0.665197  0.334123  1
  Al  Al17  1  0.717039  0.716501  0.717013  1
  Al  Al18  1  0.282814  0.280856  0.285063  1
  Al  Al19  1  0.898464  0.243390  0.571146  1
  Co  Co20  1  0.239609  0.923425  0.581393  1
  Ni  Ni21  1  0.922762  0.581467  0.239633  1
  Ni  Ni22  1  0.759714  0.418379  0.076841  1
  Ni  Ni23  1  0.077153  0.759698  0.418547  1
  Ni  Ni24  1  0.417970  0.076602  0.759019  1
  Ni  Ni25  1  0.581019  0.239777  0.922963  1
