# generated using pymatgen
data_Th3Mg3PtAu2
_symmetry_space_group_name_H-M   'P 1'
_cell_length_a   7.71203400
_cell_length_b   7.71203282
_cell_length_c   4.17258000
_cell_angle_alpha   90.00000000
_cell_angle_beta   90.00000000
_cell_angle_gamma   120.00000505
_symmetry_Int_Tables_number   1
_chemical_formula_structural   Th3Mg3PtAu2
_chemical_formula_sum   'Th3 Mg3 Pt1 Au2'
_cell_volume   214.91814654
_cell_formula_units_Z   1
loop_
 _symmetry_equiv_pos_site_id
 _symmetry_equiv_pos_as_xyz
  1  'x, y, z'
loop_
 _atom_site_type_symbol
 _atom_site_label
 _atom_site_symmetry_multiplicity
 _atom_site_fract_x
 _atom_site_fract_y
 _atom_site_fract_z
 _atom_site_occupancy
  Th  Th0  1  0.413022  0.424159  0.500000  1
  Th  Th1  1  0.575841  0.988863  0.500000  1
  Th  Th2  1  0.011137  0.586978  0.500000  1
  Mg  Mg3  1  0.759504  0.759114  0.000000  1
  Mg  Mg4  1  0.240886  0.000389  0.000000  1
  Mg  Mg5  1  0.999611  0.240496  0.000000  1
  Pt  Pt6  1  0.333333  0.666667  0.000000  1
  Au  Au7  1  0.666667  0.333333  0.000000  1
  Au  Au8  1  0.000000  0.000000  0.500000  1
