# generated using pymatgen
data_Li2TbThSi3
_symmetry_space_group_name_H-M   'P 1'
_cell_length_a   9.32141088
_cell_length_b   9.32141058
_cell_length_c   6.79648300
_cell_angle_alpha   90.00000000
_cell_angle_beta   90.00000000
_cell_angle_gamma   152.87856228
_symmetry_Int_Tables_number   1
_chemical_formula_structural   Li2TbThSi3
_chemical_formula_sum   'Li4 Tb2 Th2 Si6'
_cell_volume   269.21305537
_cell_formula_units_Z   2
loop_
 _symmetry_equiv_pos_site_id
 _symmetry_equiv_pos_as_xyz
  1  'x, y, z'
loop_
 _atom_site_type_symbol
 _atom_site_label
 _atom_site_symmetry_multiplicity
 _atom_site_fract_x
 _atom_site_fract_y
 _atom_site_fract_z
 _atom_site_occupancy
  Li  Li0  1  0.190292  0.809708  0.061511  1
  Li  Li1  1  0.190292  0.809708  0.438489  1
  Li  Li2  1  0.809708  0.190292  0.938489  1
  Li  Li3  1  0.809708  0.190292  0.561511  1
  Tb  Tb4  1  0.346015  0.653985  0.250000  1
  Tb  Tb5  1  0.653985  0.346015  0.750000  1
  Th  Th6  1  0.552906  0.447094  0.250000  1
  Th  Th7  1  0.447094  0.552906  0.750000  1
  Si  Si8  1  0.721968  0.278032  0.250000  1
  Si  Si9  1  0.278032  0.721968  0.750000  1
  Si  Si10  1  0.059906  0.940094  0.929339  1
  Si  Si11  1  0.940094  0.059906  0.070661  1
  Si  Si12  1  0.940094  0.059906  0.429339  1
  Si  Si13  1  0.059906  0.940094  0.570661  1
