# generated using pymatgen
data_Tm4Cd2CuNi3
_symmetry_space_group_name_H-M   'P 1'
_cell_length_a   7.40459200
_cell_length_b   7.40459260
_cell_length_c   3.62340200
_cell_angle_alpha   90.00000000
_cell_angle_beta   90.00000000
_cell_angle_gamma   90.43417608
_symmetry_Int_Tables_number   1
_chemical_formula_structural   Tm4Cd2CuNi3
_chemical_formula_sum   'Tm4 Cd2 Cu1 Ni3'
_cell_volume   198.65813420
_cell_formula_units_Z   1
loop_
 _symmetry_equiv_pos_site_id
 _symmetry_equiv_pos_as_xyz
  1  'x, y, z'
loop_
 _atom_site_type_symbol
 _atom_site_label
 _atom_site_symmetry_multiplicity
 _atom_site_fract_x
 _atom_site_fract_y
 _atom_site_fract_z
 _atom_site_occupancy
  Tm  Tm0  1  0.686169  0.167712  0.500000  1
  Tm  Tm1  1  0.332288  0.813831  0.500000  1
  Tm  Tm2  1  0.159552  0.340448  0.500000  1
  Tm  Tm3  1  0.825822  0.674178  0.500000  1
  Cd  Cd4  1  0.006777  0.998549  0.000000  1
  Cd  Cd5  1  0.501451  0.493223  0.000000  1
  Cu  Cu6  1  0.378723  0.121277  0.000000  1
  Ni  Ni7  1  0.117470  0.625888  0.000000  1
  Ni  Ni8  1  0.874112  0.382530  0.000000  1
  Ni  Ni9  1  0.617633  0.882367  0.000000  1
