# generated using pymatgen
data_SmGd3I8
_symmetry_space_group_name_H-M   'P 1'
_cell_length_a   8.67006874
_cell_length_b   8.68141158
_cell_length_c   8.67006800
_cell_angle_alpha   60.04321429
_cell_angle_beta   60.00000284
_cell_angle_gamma   60.04320894
_symmetry_Int_Tables_number   1
_chemical_formula_structural   SmGd3I8
_chemical_formula_sum   'Sm1 Gd3 I8'
_cell_volume   461.74664709
_cell_formula_units_Z   1
loop_
 _symmetry_equiv_pos_site_id
 _symmetry_equiv_pos_as_xyz
  1  'x, y, z'
loop_
 _atom_site_type_symbol
 _atom_site_label
 _atom_site_symmetry_multiplicity
 _atom_site_fract_x
 _atom_site_fract_y
 _atom_site_fract_z
 _atom_site_occupancy
  Sm  Sm0  1  0.860666  0.418003  0.860666  1
  Gd  Gd1  1  0.860965  0.860648  0.860965  1
  Gd  Gd2  1  0.860965  0.860648  0.417421  1
  Gd  Gd3  1  0.417421  0.860648  0.860965  1
  I  I4  1  0.123354  0.121036  0.123354  1
  I  I5  1  0.611364  0.614461  0.162810  1
  I  I6  1  0.123354  0.121036  0.632257  1
  I  I7  1  0.122309  0.633073  0.122309  1
  I  I8  1  0.613171  0.160486  0.613171  1
  I  I9  1  0.611364  0.614461  0.611364  1
  I  I10  1  0.632257  0.121036  0.123354  1
  I  I11  1  0.162810  0.614461  0.611364  1
