# generated using pymatgen
data_Nd4Tm6Co2Br15
_symmetry_space_group_name_H-M   'P 1'
_cell_length_a   9.44161922
_cell_length_b   10.23585057
_cell_length_c   10.99203700
_cell_angle_alpha   92.29878418
_cell_angle_beta   113.92674826
_cell_angle_gamma   110.70474790
_symmetry_Int_Tables_number   1
_chemical_formula_structural   Nd4Tm6Co2Br15
_chemical_formula_sum   'Nd4 Tm6 Co2 Br15'
_cell_volume   887.13680170
_cell_formula_units_Z   1
loop_
 _symmetry_equiv_pos_site_id
 _symmetry_equiv_pos_as_xyz
  1  'x, y, z'
loop_
 _atom_site_type_symbol
 _atom_site_label
 _atom_site_symmetry_multiplicity
 _atom_site_fract_x
 _atom_site_fract_y
 _atom_site_fract_z
 _atom_site_occupancy
  Nd  Nd0  1  0.800491  0.401895  0.270751  1
  Nd  Nd1  1  0.199509  0.598105  0.729249  1
  Nd  Nd2  1  0.669312  0.752773  0.820268  1
  Nd  Nd3  1  0.330688  0.247227  0.179732  1
  Tm  Tm4  1  0.527030  0.711155  0.096521  1
  Tm  Tm5  1  0.472970  0.288845  0.903479  1
  Tm  Tm6  1  0.588930  0.045703  0.328491  1
  Tm  Tm7  1  0.411070  0.954297  0.671509  1
  Tm  Tm8  1  0.719895  0.075630  0.046727  1
  Tm  Tm9  1  0.280105  0.924370  0.953273  1
  Co  Co10  1  0.468083  0.831263  0.883688  1
  Co  Co11  1  0.531917  0.168737  0.116312  1
  Br  Br12  1  0.000000  0.000000  0.000000  1
  Br  Br13  1  0.628282  0.894854  0.580704  1
  Br  Br14  1  0.371718  0.105146  0.419296  1
  Br  Br15  1  0.876060  0.290720  0.523771  1
  Br  Br16  1  0.123940  0.709280  0.476229  1
  Br  Br17  1  0.311446  0.768739  0.188799  1
  Br  Br18  1  0.688554  0.231261  0.811201  1
  Br  Br19  1  0.048831  0.329211  0.214464  1
  Br  Br20  1  0.181568  0.061153  0.702615  1
  Br  Br21  1  0.818432  0.938847  0.297385  1
  Br  Br22  1  0.258487  0.418213  0.951288  1
  Br  Br23  1  0.741513  0.581787  0.048712  1
  Br  Br24  1  0.407121  0.457469  0.673467  1
  Br  Br25  1  0.592879  0.542531  0.326533  1
  Br  Br26  1  0.951169  0.670789  0.785536  1
