# generated using pymatgen
data_SmY3(Rh2O7)2
_symmetry_space_group_name_H-M   'P 1'
_cell_length_a   7.27548149
_cell_length_b   7.27548267
_cell_length_c   7.27548219
_cell_angle_alpha   59.79519995
_cell_angle_beta   59.79519035
_cell_angle_gamma   59.79519766
_symmetry_Int_Tables_number   1
_chemical_formula_structural   SmY3(Rh2O7)2
_chemical_formula_sum   'Sm1 Y3 Rh4 O14'
_cell_volume   271.04814092
_cell_formula_units_Z   1
loop_
 _symmetry_equiv_pos_site_id
 _symmetry_equiv_pos_as_xyz
  1  'x, y, z'
loop_
 _atom_site_type_symbol
 _atom_site_label
 _atom_site_symmetry_multiplicity
 _atom_site_fract_x
 _atom_site_fract_y
 _atom_site_fract_z
 _atom_site_occupancy
  Sm  Sm0  1  0.500000  0.500000  0.500000  1
  Y  Y1  1  0.000000  0.500000  0.500000  1
  Y  Y2  1  0.500000  0.500000  0.000000  1
  Y  Y3  1  0.500000  0.000000  0.500000  1
  Rh  Rh4  1  0.000000  0.000000  0.000000  1
  Rh  Rh5  1  0.500000  0.000000  0.000000  1
  Rh  Rh6  1  0.000000  0.000000  0.500000  1
  Rh  Rh7  1  0.000000  0.500000  0.000000  1
  O  O8  1  0.373122  0.373122  0.373122  1
  O  O9  1  0.626878  0.626878  0.626878  1
  O  O10  1  0.916872  0.335706  0.335706  1
  O  O11  1  0.336389  0.913638  0.913638  1
  O  O12  1  0.335706  0.335706  0.916872  1
  O  O13  1  0.913638  0.913638  0.336389  1
  O  O14  1  0.913638  0.336389  0.913638  1
  O  O15  1  0.335706  0.916872  0.335706  1
  O  O16  1  0.083128  0.664294  0.664294  1
  O  O17  1  0.663611  0.086362  0.086362  1
  O  O18  1  0.664294  0.664294  0.083128  1
  O  O19  1  0.086362  0.086362  0.663611  1
  O  O20  1  0.086362  0.663611  0.086362  1
  O  O21  1  0.664294  0.083128  0.664294  1
