# generated using pymatgen
data_Y4Hf3ReF28
_symmetry_space_group_name_H-M   'P 1'
_cell_length_a   5.69374764
_cell_length_b   9.03452937
_cell_length_c   12.15853308
_cell_angle_alpha   62.40109181
_cell_angle_beta   90.03355749
_cell_angle_gamma   90.01598453
_symmetry_Int_Tables_number   1
_chemical_formula_structural   Y4Hf3ReF28
_chemical_formula_sum   'Y4 Hf3 Re1 F28'
_cell_volume   554.27166891
_cell_formula_units_Z   1
loop_
 _symmetry_equiv_pos_site_id
 _symmetry_equiv_pos_as_xyz
  1  'x, y, z'
loop_
 _atom_site_type_symbol
 _atom_site_label
 _atom_site_symmetry_multiplicity
 _atom_site_fract_x
 _atom_site_fract_y
 _atom_site_fract_z
 _atom_site_occupancy
  Y  Y0  1  0.256732  0.814401  0.267258  1
  Y  Y1  1  0.743333  0.185973  0.733507  1
  Y  Y2  1  0.757480  0.184955  0.234779  1
  Y  Y3  1  0.241883  0.814872  0.762929  1
  Hf  Hf4  1  0.755951  0.726351  0.043794  1
  Hf  Hf5  1  0.244303  0.274344  0.955321  1
  Hf  Hf6  1  0.256646  0.274489  0.455804  1
  Re  Re7  1  0.741482  0.726620  0.544276  1
  F  F8  1  0.943069  0.707509  0.418794  1
  F  F9  1  0.040797  0.289237  0.580003  1
  F  F10  1  0.460920  0.290437  0.079105  1
  F  F11  1  0.536987  0.710514  0.920837  1
  F  F12  1  0.486222  0.732678  0.147811  1
  F  F13  1  0.516401  0.267734  0.853101  1
  F  F14  1  0.983901  0.268059  0.353625  1
  F  F15  1  0.022589  0.729884  0.639579  1
  F  F16  1  0.965987  0.746532  0.170501  1
  F  F17  1  0.037792  0.252524  0.828462  1
  F  F18  1  0.464354  0.255338  0.328057  1
  F  F19  1  0.545330  0.743628  0.673768  1
  F  F20  1  0.772576  0.476908  0.139992  1
  F  F21  1  0.226165  0.523799  0.858352  1
  F  F22  1  0.269538  0.524253  0.360645  1
  F  F23  1  0.731270  0.479778  0.641828  1
  F  F24  1  0.953091  0.277730  0.049056  1
  F  F25  1  0.045800  0.722365  0.949442  1
  F  F26  1  0.449520  0.720853  0.455829  1
  F  F27  1  0.548485  0.281182  0.547672  1
  F  F28  1  0.741418  0.972940  0.448186  1
  F  F29  1  0.261731  0.025495  0.555577  1
  F  F30  1  0.241999  0.025716  0.058091  1
  F  F31  1  0.758964  0.975230  0.942428  1
  F  F32  1  0.575664  0.970971  0.235761  1
  F  F33  1  0.423005  0.028162  0.765200  1
  F  F34  1  0.076238  0.027030  0.269236  1
  F  F35  1  0.922378  0.971505  0.731396  1
