# generated using pymatgen
data_SmThMnCo16
_symmetry_space_group_name_H-M   'P 1'
_cell_length_a   6.31901316
_cell_length_b   6.31901136
_cell_length_c   6.31901286
_cell_angle_alpha   83.13739117
_cell_angle_beta   83.13739096
_cell_angle_gamma   83.13739705
_symmetry_Int_Tables_number   1
_chemical_formula_structural   SmThMnCo16
_chemical_formula_sum   'Sm1 Th1 Mn1 Co16'
_cell_volume   247.29437135
_cell_formula_units_Z   1
loop_
 _symmetry_equiv_pos_site_id
 _symmetry_equiv_pos_as_xyz
  1  'x, y, z'
loop_
 _atom_site_type_symbol
 _atom_site_label
 _atom_site_symmetry_multiplicity
 _atom_site_fract_x
 _atom_site_fract_y
 _atom_site_fract_z
 _atom_site_occupancy
  Sm  Sm0  1  0.345109  0.345109  0.345109  1
  Th  Th1  1  0.654943  0.654943  0.654943  1
  Mn  Mn2  1  0.096737  0.096737  0.096737  1
  Co  Co3  1  0.714165  0.287021  0.998804  1
  Co  Co4  1  0.998804  0.714165  0.287021  1
  Co  Co5  1  0.287021  0.998804  0.714165  1
  Co  Co6  1  0.998804  0.287021  0.714165  1
  Co  Co7  1  0.714165  0.998804  0.287021  1
  Co  Co8  1  0.287021  0.714165  0.998804  1
  Co  Co9  1  0.347529  0.347529  0.848557  1
  Co  Co10  1  0.848557  0.347529  0.347529  1
  Co  Co11  1  0.347529  0.848557  0.347529  1
  Co  Co12  1  0.655097  0.655097  0.147126  1
  Co  Co13  1  0.147126  0.655097  0.655097  1
  Co  Co14  1  0.655097  0.147126  0.655097  1
  Co  Co15  1  0.999805  0.999805  0.504241  1
  Co  Co16  1  0.504241  0.999805  0.999805  1
  Co  Co17  1  0.999805  0.504241  0.999805  1
  Co  Co18  1  0.898448  0.898448  0.898448  1
