# generated using pymatgen
data_Mo2P5W3
_symmetry_space_group_name_H-M   'P 1'
_cell_length_a   3.23058197
_cell_length_b   6.43010155
_cell_length_c   14.54130500
_cell_angle_alpha   77.22648901
_cell_angle_beta   83.62226863
_cell_angle_gamma   90.00000158
_symmetry_Int_Tables_number   1
_chemical_formula_structural   Mo2P5W3
_chemical_formula_sum   'Mo4 P10 W6'
_cell_volume   292.67328152
_cell_formula_units_Z   2
loop_
 _symmetry_equiv_pos_site_id
 _symmetry_equiv_pos_as_xyz
  1  'x, y, z'
loop_
 _atom_site_type_symbol
 _atom_site_label
 _atom_site_symmetry_multiplicity
 _atom_site_fract_x
 _atom_site_fract_y
 _atom_site_fract_z
 _atom_site_occupancy
  Mo  Mo0  1  0.010743  0.510743  0.978516  1
  Mo  Mo1  1  0.410527  0.910527  0.178946  1
  Mo  Mo2  1  0.810979  0.310979  0.378040  1
  Mo  Mo3  1  0.210699  0.710699  0.578600  1
  P  P4  1  0.944081  0.194639  0.111837  1
  P  P5  1  0.344272  0.594769  0.311455  1
  P  P6  1  0.744480  0.994809  0.511039  1
  P  P7  1  0.144297  0.394261  0.711408  1
  P  P8  1  0.543954  0.794176  0.912092  1
  P  P9  1  0.944081  0.693523  0.111837  1
  P  P10  1  0.344272  0.093778  0.311455  1
  P  P11  1  0.744480  0.494151  0.511039  1
  P  P12  1  0.144297  0.894332  0.711408  1
  P  P13  1  0.543954  0.293732  0.912092  1
  W  W14  1  0.211041  0.211041  0.577917  1
  W  W15  1  0.610686  0.610686  0.778627  1
  W  W16  1  0.010793  0.010793  0.978414  1
  W  W17  1  0.410814  0.410814  0.178372  1
  W  W18  1  0.811092  0.811092  0.377816  1
  W  W19  1  0.610455  0.110455  0.779091  1
