# generated using pymatgen
data_Hf6Al6Ir5Pd
_symmetry_space_group_name_H-M   'P 1'
_cell_length_a   7.17058300
_cell_length_b   7.17058285
_cell_length_c   6.99397800
_cell_angle_alpha   90.00000000
_cell_angle_beta   90.00000000
_cell_angle_gamma   120.00001453
_symmetry_Int_Tables_number   1
_chemical_formula_structural   Hf6Al6Ir5Pd
_chemical_formula_sum   'Hf6 Al6 Ir5 Pd1'
_cell_volume   311.43237326
_cell_formula_units_Z   1
loop_
 _symmetry_equiv_pos_site_id
 _symmetry_equiv_pos_as_xyz
  1  'x, y, z'
loop_
 _atom_site_type_symbol
 _atom_site_label
 _atom_site_symmetry_multiplicity
 _atom_site_fract_x
 _atom_site_fract_y
 _atom_site_fract_z
 _atom_site_occupancy
  Hf  Hf0  1  0.401426  0.398147  0.250000  1
  Hf  Hf1  1  0.585617  0.996420  0.750000  1
  Hf  Hf2  1  0.410803  0.414383  0.750000  1
  Hf  Hf3  1  0.003580  0.589197  0.750000  1
  Hf  Hf4  1  0.996721  0.598574  0.250000  1
  Hf  Hf5  1  0.601853  0.003279  0.250000  1
  Al  Al6  1  0.261304  0.000015  0.001739  1
  Al  Al7  1  0.261304  0.000015  0.498261  1
  Al  Al8  1  0.999985  0.261289  0.498261  1
  Al  Al9  1  0.999985  0.261289  0.001739  1
  Al  Al10  1  0.738711  0.738696  0.001739  1
  Al  Al11  1  0.738711  0.738696  0.498261  1
  Ir  Ir12  1  0.666667  0.333333  0.504893  1
  Ir  Ir13  1  0.666667  0.333333  0.995107  1
  Ir  Ir14  1  0.333333  0.666667  0.004522  1
  Ir  Ir15  1  0.333333  0.666667  0.495478  1
  Ir  Ir16  1  0.000000  0.000000  0.250000  1
  Pd  Pd17  1  0.000000  0.000000  0.750000  1
