# generated using pymatgen
data_SrScGe4N7
_symmetry_space_group_name_H-M   'P 1'
_cell_length_a   6.19241900
_cell_length_b   6.19241724
_cell_length_c   10.11212000
_cell_angle_alpha   90.00000000
_cell_angle_beta   90.00000000
_cell_angle_gamma   119.99999337
_symmetry_Int_Tables_number   1
_chemical_formula_structural   SrScGe4N7
_chemical_formula_sum   'Sr2 Sc2 Ge8 N14'
_cell_volume   335.80984253
_cell_formula_units_Z   2
loop_
 _symmetry_equiv_pos_site_id
 _symmetry_equiv_pos_as_xyz
  1  'x, y, z'
loop_
 _atom_site_type_symbol
 _atom_site_label
 _atom_site_symmetry_multiplicity
 _atom_site_fract_x
 _atom_site_fract_y
 _atom_site_fract_z
 _atom_site_occupancy
  Sr  Sr0  1  0.666667  0.333333  0.582774  1
  Sr  Sr1  1  0.333333  0.666667  0.082774  1
  Sc  Sc2  1  0.666667  0.333333  0.951420  1
  Sc  Sc3  1  0.333333  0.666667  0.451420  1
  Ge  Ge4  1  0.173738  0.347475  0.761165  1
  Ge  Ge5  1  0.826262  0.173738  0.261165  1
  Ge  Ge6  1  0.347475  0.173738  0.261165  1
  Ge  Ge7  1  0.652525  0.826262  0.761165  1
  Ge  Ge8  1  0.173738  0.826262  0.761165  1
  Ge  Ge9  1  0.826262  0.652525  0.261165  1
  Ge  Ge10  1  0.000000  0.000000  0.023385  1
  Ge  Ge11  1  0.000000  0.000000  0.523385  1
  N  N12  1  0.000000  0.000000  0.830413  1
  N  N13  1  0.000000  0.000000  0.330413  1
  N  N14  1  0.836654  0.673307  0.078372  1
  N  N15  1  0.163346  0.836654  0.578372  1
  N  N16  1  0.673307  0.836654  0.578372  1
  N  N17  1  0.326693  0.163346  0.078372  1
  N  N18  1  0.836654  0.163346  0.078372  1
  N  N19  1  0.163346  0.326693  0.578372  1
  N  N20  1  0.498810  0.501190  0.822073  1
  N  N21  1  0.997621  0.498810  0.322073  1
  N  N22  1  0.501190  0.002379  0.322073  1
  N  N23  1  0.498810  0.997621  0.822073  1
  N  N24  1  0.501190  0.498810  0.322073  1
  N  N25  1  0.002379  0.501190  0.822073  1
