# generated using pymatgen
data_Lu4Ge5PIr7
_symmetry_space_group_name_H-M   'P 1'
_cell_length_a   7.18214685
_cell_length_b   7.18214727
_cell_length_c   7.18214696
_cell_angle_alpha   109.27805946
_cell_angle_beta   109.27806542
_cell_angle_gamma   109.85823396
_symmetry_Int_Tables_number   1
_chemical_formula_structural   Lu4Ge5PIr7
_chemical_formula_sum   'Lu4 Ge5 P1 Ir7'
_cell_volume   285.18461821
_cell_formula_units_Z   1
loop_
 _symmetry_equiv_pos_site_id
 _symmetry_equiv_pos_as_xyz
  1  'x, y, z'
loop_
 _atom_site_type_symbol
 _atom_site_label
 _atom_site_symmetry_multiplicity
 _atom_site_fract_x
 _atom_site_fract_y
 _atom_site_fract_z
 _atom_site_occupancy
  Lu  Lu0  1  0.996926  0.996926  0.477319  1
  Lu  Lu1  1  0.996926  0.519607  0.000000  1
  Lu  Lu2  1  0.519607  0.996926  0.000000  1
  Lu  Lu3  1  0.519607  0.519607  0.522681  1
  Ge  Ge4  1  0.323206  0.007007  0.316199  1
  Ge  Ge5  1  0.007007  0.323206  0.316199  1
  Ge  Ge6  1  0.300654  0.300654  0.000000  1
  Ge  Ge7  1  0.690809  0.007007  0.683801  1
  Ge  Ge8  1  0.007007  0.690809  0.683801  1
  P  P9  1  0.661045  0.661045  0.000000  1
  Ir  Ir10  1  0.753529  0.253529  0.500000  1
  Ir  Ir11  1  0.744837  0.497880  0.246957  1
  Ir  Ir12  1  0.497880  0.250923  0.753043  1
  Ir  Ir13  1  0.250923  0.497880  0.753043  1
  Ir  Ir14  1  0.253529  0.753529  0.500000  1
  Ir  Ir15  1  0.497880  0.744837  0.246957  1
  Ir  Ir16  1  0.978628  0.978628  0.000000  1
