# generated using pymatgen
data_Ho4Si4IrPd2Ru
_symmetry_space_group_name_H-M   'P 1'
_cell_length_a   4.23584300
_cell_length_b   6.89069062
_cell_length_c   7.51966498
_cell_angle_alpha   90.82166592
_cell_angle_beta   90.00000000
_cell_angle_gamma   90.00000000
_symmetry_Int_Tables_number   1
_chemical_formula_structural   Ho4Si4IrPd2Ru
_chemical_formula_sum   'Ho4 Si4 Ir1 Pd2 Ru1'
_cell_volume   219.46053763
_cell_formula_units_Z   1
loop_
 _symmetry_equiv_pos_site_id
 _symmetry_equiv_pos_as_xyz
  1  'x, y, z'
loop_
 _atom_site_type_symbol
 _atom_site_label
 _atom_site_symmetry_multiplicity
 _atom_site_fract_x
 _atom_site_fract_y
 _atom_site_fract_z
 _atom_site_occupancy
  Ho  Ho0  1  0.250000  0.999026  0.805768  1
  Ho  Ho1  1  0.750000  0.000956  0.195641  1
  Ho  Ho2  1  0.250000  0.504074  0.687634  1
  Ho  Ho3  1  0.750000  0.497791  0.310923  1
  Si  Si4  1  0.250000  0.298757  0.094690  1
  Si  Si5  1  0.750000  0.701286  0.908615  1
  Si  Si6  1  0.250000  0.787860  0.380221  1
  Si  Si7  1  0.750000  0.213254  0.616717  1
  Ir  Ir8  1  0.750000  0.343519  0.934446  1
  Pd  Pd9  1  0.750000  0.836108  0.574253  1
  Pd  Pd10  1  0.250000  0.164956  0.426124  1
  Ru  Ru11  1  0.250000  0.652415  0.064967  1
