# generated using pymatgen
data_Pr3AgHg2Pd3
_symmetry_space_group_name_H-M   'P 1'
_cell_length_a   7.77881636
_cell_length_b   7.77881649
_cell_length_c   4.02287400
_cell_angle_alpha   90.00000000
_cell_angle_beta   90.00000000
_cell_angle_gamma   119.79571431
_symmetry_Int_Tables_number   1
_chemical_formula_structural   Pr3AgHg2Pd3
_chemical_formula_sum   'Pr3 Ag1 Hg2 Pd3'
_cell_volume   211.24402533
_cell_formula_units_Z   1
loop_
 _symmetry_equiv_pos_site_id
 _symmetry_equiv_pos_as_xyz
  1  'x, y, z'
loop_
 _atom_site_type_symbol
 _atom_site_label
 _atom_site_symmetry_multiplicity
 _atom_site_fract_x
 _atom_site_fract_y
 _atom_site_fract_z
 _atom_site_occupancy
  Pr  Pr0  1  0.400412  0.400412  0.500000  1
  Pr  Pr1  1  0.601810  0.997744  0.500000  1
  Pr  Pr2  1  0.997744  0.601810  0.500000  1
  Ag  Ag3  1  0.741642  0.741642  0.000000  1
  Hg  Hg4  1  0.260153  0.999015  0.000000  1
  Hg  Hg5  1  0.999015  0.260153  0.000000  1
  Pd  Pd6  1  0.664975  0.334495  0.000000  1
  Pd  Pd7  1  0.334495  0.664975  0.000000  1
  Pd  Pd8  1  0.999754  0.999754  0.500000  1
