# generated using pymatgen
data_Dy3YNbOs7
_symmetry_space_group_name_H-M   'P 1'
_cell_length_a   5.30267259
_cell_length_b   5.30267337
_cell_length_c   8.97223505
_cell_angle_alpha   90.01033705
_cell_angle_beta   89.98966534
_cell_angle_gamma   117.56424314
_symmetry_Int_Tables_number   1
_chemical_formula_structural   Dy3YNbOs7
_chemical_formula_sum   'Dy3 Y1 Nb1 Os7'
_cell_volume   223.64819974
_cell_formula_units_Z   1
loop_
 _symmetry_equiv_pos_site_id
 _symmetry_equiv_pos_as_xyz
  1  'x, y, z'
loop_
 _atom_site_type_symbol
 _atom_site_label
 _atom_site_symmetry_multiplicity
 _atom_site_fract_x
 _atom_site_fract_y
 _atom_site_fract_z
 _atom_site_occupancy
  Dy  Dy0  1  0.666609  0.333391  0.568874  1
  Dy  Dy1  1  0.666572  0.333428  0.931322  1
  Dy  Dy2  1  0.329595  0.670405  0.059768  1
  Y  Y3  1  0.329566  0.670434  0.439836  1
  Nb  Nb4  1  0.836415  0.163585  0.249965  1
  Os  Os5  1  0.997897  0.002103  0.506630  1
  Os  Os6  1  0.998192  0.001808  0.993635  1
  Os  Os7  1  0.822718  0.654350  0.249773  1
  Os  Os8  1  0.345650  0.177282  0.249773  1
  Os  Os9  1  0.175575  0.824425  0.750155  1
  Os  Os10  1  0.173054  0.341841  0.750135  1
  Os  Os11  1  0.658159  0.826946  0.750135  1
