# generated using pymatgen
data_K3ScIrO6
_symmetry_space_group_name_H-M   'P 1'
_cell_length_a   7.13108558
_cell_length_b   7.13097091
_cell_length_c   7.13100167
_cell_angle_alpha   95.81655970
_cell_angle_beta   95.81622358
_cell_angle_gamma   95.81638821
_symmetry_Int_Tables_number   1
_chemical_formula_structural   K3ScIrO6
_chemical_formula_sum   'K6 Sc2 Ir2 O12'
_cell_volume   356.60913023
_cell_formula_units_Z   2
loop_
 _symmetry_equiv_pos_site_id
 _symmetry_equiv_pos_as_xyz
  1  'x, y, z'
loop_
 _atom_site_type_symbol
 _atom_site_label
 _atom_site_symmetry_multiplicity
 _atom_site_fract_x
 _atom_site_fract_y
 _atom_site_fract_z
 _atom_site_occupancy
  K  K0  1  0.750007  0.387315  0.112686  1
  K  K1  1  0.612697  0.887327  0.250021  1
  K  K2  1  0.112675  0.750008  0.387335  1
  K  K3  1  0.249992  0.612685  0.887313  1
  K  K4  1  0.887325  0.249993  0.612666  1
  K  K5  1  0.387302  0.112673  0.749979  1
  Sc  Sc6  1  0.749947  0.749970  0.750088  1
  Sc  Sc7  1  0.250054  0.250029  0.249912  1
  Ir  Ir8  1  0.500000  0.500000  0.499999  1
  Ir  Ir9  1  0.000000  0.000000  0.000000  1
  O  O10  1  0.765456  0.595877  0.478780  1
  O  O11  1  0.595850  0.478715  0.765497  1
  O  O12  1  0.478715  0.765458  0.595898  1
  O  O13  1  0.021233  0.904105  0.734556  1
  O  O14  1  0.904120  0.734522  0.021308  1
  O  O15  1  0.734513  0.021252  0.904152  1
  O  O16  1  0.234545  0.404124  0.521220  1
  O  O17  1  0.404149  0.521284  0.234504  1
  O  O18  1  0.521284  0.234541  0.404102  1
  O  O19  1  0.978767  0.095895  0.265443  1
  O  O20  1  0.265487  0.978748  0.095848  1
  O  O21  1  0.095881  0.265479  0.978691  1
