# generated using pymatgen
data_Lu3Zr(Tc3Os)2
_symmetry_space_group_name_H-M   'P 1'
_cell_length_a   5.23843900
_cell_length_b   5.23843903
_cell_length_c   8.93375900
_cell_angle_alpha   90.00000000
_cell_angle_beta   90.00000000
_cell_angle_gamma   120.00000610
_symmetry_Int_Tables_number   1
_chemical_formula_structural   Lu3Zr(Tc3Os)2
_chemical_formula_sum   'Lu3 Zr1 Tc6 Os2'
_cell_volume   212.30910644
_cell_formula_units_Z   1
loop_
 _symmetry_equiv_pos_site_id
 _symmetry_equiv_pos_as_xyz
  1  'x, y, z'
loop_
 _atom_site_type_symbol
 _atom_site_label
 _atom_site_symmetry_multiplicity
 _atom_site_fract_x
 _atom_site_fract_y
 _atom_site_fract_z
 _atom_site_occupancy
  Lu  Lu0  1  0.333333  0.666667  0.436627  1
  Lu  Lu1  1  0.666667  0.333333  0.562922  1
  Lu  Lu2  1  0.666667  0.333333  0.937353  1
  Zr  Zr3  1  0.333333  0.666667  0.064707  1
  Tc  Tc4  1  0.828805  0.171195  0.248548  1
  Tc  Tc5  1  0.828805  0.657610  0.248548  1
  Tc  Tc6  1  0.342390  0.171195  0.248548  1
  Tc  Tc7  1  0.171135  0.828865  0.751232  1
  Tc  Tc8  1  0.171135  0.342271  0.751232  1
  Tc  Tc9  1  0.657729  0.828865  0.751232  1
  Os  Os10  1  0.000000  0.000000  0.499472  1
  Os  Os11  1  0.000000  0.000000  0.999579  1
