# generated using pymatgen
data_Hf7Zr(TaGa3)4
_symmetry_space_group_name_H-M   'P 1'
_cell_length_a   5.53618800
_cell_length_b   8.48698640
_cell_length_c   9.15056244
_cell_angle_alpha   90.03536031
_cell_angle_beta   90.00000000
_cell_angle_gamma   90.00000000
_symmetry_Int_Tables_number   1
_chemical_formula_structural   Hf7Zr(TaGa3)4
_chemical_formula_sum   'Hf7 Zr1 Ta4 Ga12'
_cell_volume   429.94414789
_cell_formula_units_Z   1
loop_
 _symmetry_equiv_pos_site_id
 _symmetry_equiv_pos_as_xyz
  1  'x, y, z'
loop_
 _atom_site_type_symbol
 _atom_site_label
 _atom_site_symmetry_multiplicity
 _atom_site_fract_x
 _atom_site_fract_y
 _atom_site_fract_z
 _atom_site_occupancy
  Hf  Hf0  1  0.250000  0.530622  0.377628  1
  Hf  Hf1  1  0.750000  0.969272  0.377771  1
  Hf  Hf2  1  0.250000  0.031440  0.622263  1
  Hf  Hf3  1  0.750000  0.367074  0.182510  1
  Hf  Hf4  1  0.250000  0.633314  0.818528  1
  Hf  Hf5  1  0.750000  0.866413  0.818213  1
  Hf  Hf6  1  0.250000  0.132437  0.181870  1
  Zr  Zr7  1  0.750000  0.469754  0.621047  1
  Ta  Ta8  1  0.000106  0.750323  0.110622  1
  Ta  Ta9  1  0.499860  0.249483  0.889803  1
  Ta  Ta10  1  0.000140  0.249483  0.889803  1
  Ta  Ta11  1  0.499894  0.750323  0.110622  1
  Ga  Ga12  1  0.000950  0.750814  0.571295  1
  Ga  Ga13  1  0.499038  0.249488  0.428066  1
  Ga  Ga14  1  0.000962  0.249488  0.428066  1
  Ga  Ga15  1  0.499050  0.750814  0.571295  1
  Ga  Ga16  1  0.750000  0.044494  0.080111  1
  Ga  Ga17  1  0.250000  0.955309  0.919983  1
  Ga  Ga18  1  0.750000  0.544453  0.920665  1
  Ga  Ga19  1  0.250000  0.455455  0.079811  1
  Ga  Ga20  1  0.750000  0.131408  0.653559  1
  Ga  Ga21  1  0.250000  0.867580  0.346886  1
  Ga  Ga22  1  0.750000  0.632826  0.346189  1
  Ga  Ga23  1  0.250000  0.367930  0.653396  1
