# generated using pymatgen
data_LiYbLuSi3
_symmetry_space_group_name_H-M   'P 1'
_cell_length_a   4.21527200
_cell_length_b   10.39196300
_cell_length_c   10.84463200
_cell_angle_alpha   90.00000000
_cell_angle_beta   90.00000000
_cell_angle_gamma   90.00000000
_symmetry_Int_Tables_number   1
_chemical_formula_structural   LiYbLuSi3
_chemical_formula_sum   'Li4 Yb4 Lu4 Si12'
_cell_volume   475.04856967
_cell_formula_units_Z   4
loop_
 _symmetry_equiv_pos_site_id
 _symmetry_equiv_pos_as_xyz
  1  'x, y, z'
loop_
 _atom_site_type_symbol
 _atom_site_label
 _atom_site_symmetry_multiplicity
 _atom_site_fract_x
 _atom_site_fract_y
 _atom_site_fract_z
 _atom_site_occupancy
  Li  Li0  1  0.500000  0.859957  0.282575  1
  Li  Li1  1  0.500000  0.140043  0.717425  1
  Li  Li2  1  0.000000  0.359957  0.217425  1
  Li  Li3  1  0.000000  0.640043  0.782575  1
  Yb  Yb4  1  0.500000  0.822069  0.575135  1
  Yb  Yb5  1  0.500000  0.177931  0.424865  1
  Yb  Yb6  1  0.000000  0.322069  0.924865  1
  Yb  Yb7  1  0.000000  0.677931  0.075135  1
  Lu  Lu8  1  0.500000  0.553546  0.351658  1
  Lu  Lu9  1  0.500000  0.446454  0.648342  1
  Lu  Lu10  1  0.000000  0.053546  0.148342  1
  Lu  Lu11  1  0.000000  0.946454  0.851658  1
  Si  Si12  1  0.500000  0.894277  0.045038  1
  Si  Si13  1  0.500000  0.105723  0.954962  1
  Si  Si14  1  0.000000  0.394277  0.454962  1
  Si  Si15  1  0.000000  0.605723  0.545038  1
  Si  Si16  1  0.000000  0.967559  0.397500  1
  Si  Si17  1  0.000000  0.032441  0.602500  1
  Si  Si18  1  0.500000  0.467559  0.102500  1
  Si  Si19  1  0.500000  0.532441  0.897500  1
  Si  Si20  1  0.000000  0.260056  0.637149  1
  Si  Si21  1  0.000000  0.739944  0.362851  1
  Si  Si22  1  0.500000  0.760056  0.862851  1
  Si  Si23  1  0.500000  0.239944  0.137149  1
