# generated using pymatgen
data_Ca2La(ZnPt)4
_symmetry_space_group_name_H-M   'P 1'
_cell_length_a   8.28022429
_cell_length_b   8.28022471
_cell_length_c   8.28022395
_cell_angle_alpha   150.49188654
_cell_angle_beta   127.66939527
_cell_angle_gamma   61.22376229
_symmetry_Int_Tables_number   1
_chemical_formula_structural   Ca2La(ZnPt)4
_chemical_formula_sum   'Ca2 La1 Zn4 Pt4'
_cell_volume   219.47552535
_cell_formula_units_Z   1
loop_
 _symmetry_equiv_pos_site_id
 _symmetry_equiv_pos_as_xyz
  1  'x, y, z'
loop_
 _atom_site_type_symbol
 _atom_site_label
 _atom_site_symmetry_multiplicity
 _atom_site_fract_x
 _atom_site_fract_y
 _atom_site_fract_z
 _atom_site_occupancy
  Ca  Ca0  1  0.874950  0.874950  0.000000  1
  Ca  Ca1  1  0.125050  0.125050  0.000000  1
  La  La2  1  0.500000  0.000000  0.500000  1
  Zn  Zn3  1  0.476858  0.674398  0.802460  1
  Zn  Zn4  1  0.871938  0.674398  0.197540  1
  Zn  Zn5  1  0.128062  0.325602  0.802460  1
  Zn  Zn6  1  0.523142  0.325602  0.197540  1
  Pt  Pt7  1  0.280703  0.780703  0.500000  1
  Pt  Pt8  1  0.719297  0.219297  0.500000  1
  Pt  Pt9  1  0.806450  0.500000  0.306450  1
  Pt  Pt10  1  0.193550  0.500000  0.693550  1
