# generated using pymatgen
data_Eu2SnSbPd2
_symmetry_space_group_name_H-M   'P 1'
_cell_length_a   4.74141600
_cell_length_b   7.58651219
_cell_length_c   8.03229461
_cell_angle_alpha   91.22707805
_cell_angle_beta   90.00000000
_cell_angle_gamma   90.00000000
_symmetry_Int_Tables_number   1
_chemical_formula_structural   Eu2SnSbPd2
_chemical_formula_sum   'Eu4 Sn2 Sb2 Pd4'
_cell_volume   288.86188701
_cell_formula_units_Z   2
loop_
 _symmetry_equiv_pos_site_id
 _symmetry_equiv_pos_as_xyz
  1  'x, y, z'
loop_
 _atom_site_type_symbol
 _atom_site_label
 _atom_site_symmetry_multiplicity
 _atom_site_fract_x
 _atom_site_fract_y
 _atom_site_fract_z
 _atom_site_occupancy
  Eu  Eu0  1  0.250000  0.484172  0.205888  1
  Eu  Eu1  1  0.750000  0.515828  0.794112  1
  Eu  Eu2  1  0.750000  0.010793  0.693827  1
  Eu  Eu3  1  0.250000  0.989207  0.306173  1
  Sn  Sn4  1  0.250000  0.816567  0.915356  1
  Sn  Sn5  1  0.750000  0.183433  0.084644  1
  Sb  Sb6  1  0.750000  0.691363  0.407457  1
  Sb  Sb7  1  0.250000  0.308637  0.592543  1
  Pd  Pd8  1  0.250000  0.697541  0.587124  1
  Pd  Pd9  1  0.750000  0.302459  0.412876  1
  Pd  Pd10  1  0.750000  0.804699  0.084030  1
  Pd  Pd11  1  0.250000  0.195301  0.915970  1
