# generated using pymatgen
data_LiLa2Nd6CdIr2
_symmetry_space_group_name_H-M   'P 1'
_cell_length_a   10.01445164
_cell_length_b   10.01445235
_cell_length_c   9.99683100
_cell_angle_alpha   60.05818648
_cell_angle_beta   60.05818416
_cell_angle_gamma   60.14152190
_symmetry_Int_Tables_number   1
_chemical_formula_structural   LiLa2Nd6CdIr2
_chemical_formula_sum   'Li2 La4 Nd12 Cd2 Ir4'
_cell_volume   710.30731375
_cell_formula_units_Z   2
loop_
 _symmetry_equiv_pos_site_id
 _symmetry_equiv_pos_as_xyz
  1  'x, y, z'
loop_
 _atom_site_type_symbol
 _atom_site_label
 _atom_site_symmetry_multiplicity
 _atom_site_fract_x
 _atom_site_fract_y
 _atom_site_fract_z
 _atom_site_occupancy
  Li  Li0  1  0.571155  0.571155  0.576244  1
  Li  Li1  1  0.571155  0.571155  0.281447  1
  La  La2  1  0.348390  0.348390  0.349135  1
  La  La3  1  0.348390  0.348390  0.954087  1
  La  La4  1  0.347273  0.959087  0.346820  1
  La  La5  1  0.959087  0.347273  0.346820  1
  Nd  Nd6  1  0.812652  0.187665  0.188849  1
  Nd  Nd7  1  0.187665  0.812652  0.810834  1
  Nd  Nd8  1  0.187665  0.812652  0.188849  1
  Nd  Nd9  1  0.812652  0.187665  0.810834  1
  Nd  Nd10  1  0.190726  0.190726  0.809274  1
  Nd  Nd11  1  0.815930  0.815930  0.184070  1
  Nd  Nd12  1  0.938472  0.562268  0.562990  1
  Nd  Nd13  1  0.562268  0.938472  0.936269  1
  Nd  Nd14  1  0.562268  0.938472  0.562990  1
  Nd  Nd15  1  0.938472  0.562268  0.936269  1
  Nd  Nd16  1  0.562588  0.562588  0.937412  1
  Nd  Nd17  1  0.937883  0.937883  0.562117  1
  Cd  Cd18  1  0.583306  0.256541  0.580077  1
  Cd  Cd19  1  0.256541  0.583306  0.580077  1
  Ir  Ir20  1  0.143128  0.143128  0.140233  1
  Ir  Ir21  1  0.143128  0.143128  0.573510  1
  Ir  Ir22  1  0.144262  0.574945  0.140396  1
  Ir  Ir23  1  0.574945  0.144262  0.140396  1
