# generated using pymatgen
data_Y2PaAs4Pd7
_symmetry_space_group_name_H-M   'P 1'
_cell_length_a   8.12415427
_cell_length_b   8.12415445
_cell_length_c   9.68413670
_cell_angle_alpha   55.08284510
_cell_angle_beta   55.08284537
_cell_angle_gamma   29.60062181
_symmetry_Int_Tables_number   1
_chemical_formula_structural   Y2PaAs4Pd7
_chemical_formula_sum   'Y2 Pa1 As4 Pd7'
_cell_volume   254.44245103
_cell_formula_units_Z   1
loop_
 _symmetry_equiv_pos_site_id
 _symmetry_equiv_pos_as_xyz
  1  'x, y, z'
loop_
 _atom_site_type_symbol
 _atom_site_label
 _atom_site_symmetry_multiplicity
 _atom_site_fract_x
 _atom_site_fract_y
 _atom_site_fract_z
 _atom_site_occupancy
  Y  Y0  1  0.678661  0.678661  0.324390  1
  Y  Y1  1  0.321339  0.321339  0.675610  1
  Pa  Pa2  1  0.000000  0.000000  0.000000  1
  As  As3  1  0.345374  0.345374  0.243453  1
  As  As4  1  0.654626  0.654626  0.756547  1
  As  As5  1  0.896150  0.896150  0.824635  1
  As  As6  1  0.103850  0.103850  0.175365  1
  Pd  Pd7  1  0.307450  0.307450  0.022974  1
  Pd  Pd8  1  0.692550  0.692550  0.977026  1
  Pd  Pd9  1  0.513382  0.513382  0.701623  1
  Pd  Pd10  1  0.831765  0.831765  0.431617  1
  Pd  Pd11  1  0.486618  0.486618  0.298377  1
  Pd  Pd12  1  0.168235  0.168235  0.568383  1
  Pd  Pd13  1  0.000000  0.000000  0.500000  1
