# generated using pymatgen
data_Ho10IrOsAu4
_symmetry_space_group_name_H-M   'P 1'
_cell_length_a   11.28677200
_cell_length_b   11.28677200
_cell_length_c   6.32166900
_cell_angle_alpha   90.00000000
_cell_angle_beta   90.00000000
_cell_angle_gamma   90.00000000
_symmetry_Int_Tables_number   1
_chemical_formula_structural   Ho10IrOsAu4
_chemical_formula_sum   'Ho20 Ir2 Os2 Au8'
_cell_volume   805.32514013
_cell_formula_units_Z   2
loop_
 _symmetry_equiv_pos_site_id
 _symmetry_equiv_pos_as_xyz
  1  'x, y, z'
loop_
 _atom_site_type_symbol
 _atom_site_label
 _atom_site_symmetry_multiplicity
 _atom_site_fract_x
 _atom_site_fract_y
 _atom_site_fract_z
 _atom_site_occupancy
  Ho  Ho0  1  0.301974  0.082866  0.357514  1
  Ho  Ho1  1  0.301974  0.917134  0.857514  1
  Ho  Ho2  1  0.698026  0.082866  0.857514  1
  Ho  Ho3  1  0.698026  0.917134  0.357514  1
  Ho  Ho4  1  0.582866  0.801974  0.857514  1
  Ho  Ho5  1  0.582866  0.198026  0.357514  1
  Ho  Ho6  1  0.417134  0.801974  0.357514  1
  Ho  Ho7  1  0.417134  0.198026  0.857514  1
  Ho  Ho8  1  0.201598  0.415857  0.642068  1
  Ho  Ho9  1  0.201598  0.584143  0.142068  1
  Ho  Ho10  1  0.798402  0.415857  0.142068  1
  Ho  Ho11  1  0.798402  0.584143  0.642068  1
  Ho  Ho12  1  0.915857  0.701598  0.142068  1
  Ho  Ho13  1  0.915857  0.298402  0.642068  1
  Ho  Ho14  1  0.084143  0.701598  0.642068  1
  Ho  Ho15  1  0.084143  0.298402  0.142068  1
  Ho  Ho16  1  0.000000  0.000000  0.498301  1
  Ho  Ho17  1  0.000000  0.000000  0.998301  1
  Ho  Ho18  1  0.500000  0.500000  0.998301  1
  Ho  Ho19  1  0.500000  0.500000  0.498301  1
  Ir  Ir20  1  0.000000  0.500000  0.893274  1
  Ir  Ir21  1  0.000000  0.500000  0.393274  1
  Os  Os22  1  0.500000  0.000000  0.110851  1
  Os  Os23  1  0.500000  0.000000  0.610851  1
  Au  Au24  1  0.845781  0.156503  0.250237  1
  Au  Au25  1  0.845781  0.843497  0.750237  1
  Au  Au26  1  0.154219  0.156503  0.750237  1
  Au  Au27  1  0.154219  0.843497  0.250237  1
  Au  Au28  1  0.656503  0.345781  0.750237  1
  Au  Au29  1  0.656503  0.654219  0.250237  1
  Au  Au30  1  0.343497  0.345781  0.250237  1
  Au  Au31  1  0.343497  0.654219  0.750237  1
