# generated using pymatgen
data_Er2Fe2O7
_symmetry_space_group_name_H-M   'P 1'
_cell_length_a   7.11113827
_cell_length_b   7.11080166
_cell_length_c   7.11106300
_cell_angle_alpha   60.00156503
_cell_angle_beta   60.00085577
_cell_angle_gamma   60.00043153
_symmetry_Int_Tables_number   1
_chemical_formula_structural   Er2Fe2O7
_chemical_formula_sum   'Er4 Fe4 O14'
_cell_volume   254.26499743
_cell_formula_units_Z   2
loop_
 _symmetry_equiv_pos_site_id
 _symmetry_equiv_pos_as_xyz
  1  'x, y, z'
loop_
 _atom_site_type_symbol
 _atom_site_label
 _atom_site_symmetry_multiplicity
 _atom_site_fract_x
 _atom_site_fract_y
 _atom_site_fract_z
 _atom_site_occupancy
  Er  Er0  1  0.625003  0.125001  0.125000  1
  Er  Er1  1  0.124999  0.625003  0.124996  1
  Er  Er2  1  0.124997  0.125000  0.125003  1
  Er  Er3  1  0.125001  0.124996  0.625002  1
  Fe  Fe4  1  0.624999  0.624999  0.124999  1
  Fe  Fe5  1  0.624999  0.624999  0.625003  1
  Fe  Fe6  1  0.625003  0.124999  0.624998  1
  Fe  Fe7  1  0.124999  0.625003  0.624999  1
  O  O8  1  0.290164  0.709838  0.290160  1
  O  O9  1  0.249998  0.250000  0.250003  1
  O  O10  1  0.540172  0.959838  0.540152  1
  O  O11  1  0.290155  0.290163  0.709843  1
  O  O12  1  0.290157  0.709836  0.709843  1
  O  O13  1  0.540169  0.540157  0.959841  1
  O  O14  1  0.540171  0.959830  0.959838  1
  O  O15  1  0.709829  0.709838  0.290162  1
  O  O16  1  0.709825  0.290173  0.290163  1
  O  O17  1  0.959843  0.540163  0.540155  1
  O  O18  1  0.959849  0.959841  0.540151  1
  O  O19  1  0.709824  0.290163  0.709848  1
  O  O20  1  0.959838  0.540161  0.959842  1
  O  O21  1  0.000003  0.999999  0.999998  1
