# generated using pymatgen
data_TbScF36
_symmetry_space_group_name_H-M   'P 1'
_cell_length_a   7.32326566
_cell_length_b   8.15908344
_cell_length_c   12.54363493
_cell_angle_alpha   111.17011448
_cell_angle_beta   83.02822836
_cell_angle_gamma   109.96908211
_symmetry_Int_Tables_number   1
_chemical_formula_structural   TbScF36
_chemical_formula_sum   'Tb1 Sc1 F36'
_cell_volume   656.89219447
_cell_formula_units_Z   1
loop_
 _symmetry_equiv_pos_site_id
 _symmetry_equiv_pos_as_xyz
  1  'x, y, z'
loop_
 _atom_site_type_symbol
 _atom_site_label
 _atom_site_symmetry_multiplicity
 _atom_site_fract_x
 _atom_site_fract_y
 _atom_site_fract_z
 _atom_site_occupancy
  Tb  Tb0  1  0.022626  0.843263  0.146896  1
  Sc  Sc1  1  0.973694  0.140384  0.843400  1
  F  F2  1  0.710856  0.605457  0.390400  1
  F  F3  1  0.295561  0.390987  0.598153  1
  F  F4  1  0.064836  0.382643  0.390368  1
  F  F5  1  0.948032  0.616766  0.616503  1
  F  F6  1  0.167696  0.927272  0.957041  1
  F  F7  1  0.842460  0.089177  0.042856  1
  F  F8  1  0.851445  0.852576  0.304763  1
  F  F9  1  0.107490  0.144243  0.692281  1
  F  F10  1  0.109543  0.613830  0.158589  1
  F  F11  1  0.936408  0.386646  0.850029  1
  F  F12  1  0.625510  0.431285  0.407952  1
  F  F13  1  0.397402  0.575802  0.600836  1
  F  F14  1  0.957742  0.103935  0.154085  1
  F  F15  1  0.030719  0.909666  0.847172  1
  F  F16  1  0.123148  0.025809  0.319852  1
  F  F17  1  0.838963  0.971462  0.693172  1
  F  F18  1  0.084046  0.475055  0.310166  1
  F  F19  1  0.935953  0.526197  0.696735  1
  F  F20  1  0.730696  0.670215  0.067105  1
  F  F21  1  0.242490  0.299119  0.924064  1
  F  F22  1  0.836164  0.528326  0.962253  1
  F  F23  1  0.174986  0.455344  0.038243  1
  F  F24  1  0.577305  0.595553  0.822150  1
  F  F25  1  0.435799  0.388235  0.173043  1
  F  F26  1  0.564069  0.076744  0.280308  1
  F  F27  1  0.419452  0.930230  0.719737  1
  F  F28  1  0.252897  0.858400  0.481378  1
  F  F29  1  0.745554  0.148245  0.517075  1
  F  F30  1  0.308325  0.941469  0.061767  1
  F  F31  1  0.717525  0.077189  0.925409  1
  F  F32  1  0.451661  0.884853  0.234420  1
  F  F33  1  0.496174  0.127684  0.766718  1
  F  F34  1  0.604070  0.331073  0.142071  1
  F  F35  1  0.417737  0.664818  0.859829  1
  F  F36  1  0.408555  0.782534  0.454932  1
  F  F37  1  0.592409  0.227510  0.548248  1
