# generated using pymatgen
data_YCdRh2O7
_symmetry_space_group_name_H-M   'P 1'
_cell_length_a   7.23558597
_cell_length_b   7.23558599
_cell_length_c   7.23558520
_cell_angle_alpha   120.58484182
_cell_angle_beta   119.03864163
_cell_angle_gamma   90.33157180
_symmetry_Int_Tables_number   1
_chemical_formula_structural   YCdRh2O7
_chemical_formula_sum   'Y2 Cd2 Rh4 O14'
_cell_volume   268.55552098
_cell_formula_units_Z   2
loop_
 _symmetry_equiv_pos_site_id
 _symmetry_equiv_pos_as_xyz
  1  'x, y, z'
loop_
 _atom_site_type_symbol
 _atom_site_label
 _atom_site_symmetry_multiplicity
 _atom_site_fract_x
 _atom_site_fract_y
 _atom_site_fract_z
 _atom_site_occupancy
  Y  Y0  1  0.000000  0.500000  0.500000  1
  Y  Y1  1  0.500000  0.500000  0.000000  1
  Cd  Cd2  1  0.000000  0.500000  0.000000  1
  Cd  Cd3  1  0.000000  0.000000  0.500000  1
  Rh  Rh4  1  0.500000  0.000000  0.000000  1
  Rh  Rh5  1  0.500000  0.500000  0.500000  1
  Rh  Rh6  1  0.500000  0.000000  0.500000  1
  Rh  Rh7  1  0.000000  0.000000  0.000000  1
  O  O8  1  0.876946  0.626946  0.250000  1
  O  O9  1  0.123054  0.373054  0.750000  1
  O  O10  1  0.826021  0.076021  0.750000  1
  O  O11  1  0.412746  0.662746  0.750000  1
  O  O12  1  0.827350  0.669249  0.740111  1
  O  O13  1  0.429138  0.087240  0.759889  1
  O  O14  1  0.827350  0.087240  0.158102  1
  O  O15  1  0.429138  0.669249  0.341898  1
  O  O16  1  0.173979  0.923979  0.250000  1
  O  O17  1  0.587254  0.337254  0.250000  1
  O  O18  1  0.172650  0.330751  0.259889  1
  O  O19  1  0.570862  0.912760  0.240111  1
  O  O20  1  0.172650  0.912760  0.841898  1
  O  O21  1  0.570862  0.330751  0.658102  1
