# generated using pymatgen
data_Pr16Sm4Si15Ir
_symmetry_space_group_name_H-M   'P 1'
_cell_length_a   7.91342491
_cell_length_b   7.89632961
_cell_length_c   15.26517700
_cell_angle_alpha   89.97428473
_cell_angle_beta   89.77704807
_cell_angle_gamma   90.10313034
_symmetry_Int_Tables_number   1
_chemical_formula_structural   Pr16Sm4Si15Ir
_chemical_formula_sum   'Pr16 Sm4 Si15 Ir1'
_cell_volume   953.86642417
_cell_formula_units_Z   1
loop_
 _symmetry_equiv_pos_site_id
 _symmetry_equiv_pos_as_xyz
  1  'x, y, z'
loop_
 _atom_site_type_symbol
 _atom_site_label
 _atom_site_symmetry_multiplicity
 _atom_site_fract_x
 _atom_site_fract_y
 _atom_site_fract_z
 _atom_site_occupancy
  Pr  Pr0  1  0.373908  0.010451  0.448336  1
  Pr  Pr1  1  0.488636  0.876071  0.698354  1
  Pr  Pr2  1  0.510917  0.123460  0.197506  1
  Pr  Pr3  1  0.876120  0.488062  0.300688  1
  Pr  Pr4  1  0.123868  0.507072  0.800081  1
  Pr  Pr5  1  0.626281  0.988486  0.948539  1
  Pr  Pr6  1  0.005692  0.373654  0.552953  1
  Pr  Pr7  1  0.989035  0.625721  0.052065  1
  Pr  Pr8  1  0.134543  0.986671  0.873466  1
  Pr  Pr9  1  0.518312  0.630836  0.126364  1
  Pr  Pr10  1  0.472456  0.361825  0.629460  1
  Pr  Pr11  1  0.627469  0.517409  0.873481  1
  Pr  Pr12  1  0.372697  0.481784  0.372940  1
  Pr  Pr13  1  0.872654  0.021425  0.376612  1
  Pr  Pr14  1  0.981212  0.127014  0.124120  1
  Pr  Pr15  1  0.025796  0.880196  0.624243  1
  Sm  Sm16  1  0.306712  0.307382  0.999148  1
  Sm  Sm17  1  0.190637  0.809292  0.249901  1
  Sm  Sm18  1  0.820580  0.188620  0.749824  1
  Sm  Sm19  1  0.691791  0.687376  0.500463  1
  Si  Si20  1  0.331953  0.693675  0.952323  1
  Si  Si21  1  0.664537  0.305273  0.453504  1
  Si  Si22  1  0.695412  0.334065  0.048252  1
  Si  Si23  1  0.306836  0.669384  0.546155  1
  Si  Si24  1  0.807932  0.831086  0.204330  1
  Si  Si25  1  0.169169  0.194458  0.296397  1
  Si  Si26  1  0.833017  0.804663  0.797568  1
  Si  Si27  1  0.288003  0.923268  0.060194  1
  Si  Si28  1  0.578756  0.786054  0.311416  1
  Si  Si29  1  0.429282  0.207522  0.813460  1
  Si  Si30  1  0.782307  0.581214  0.688721  1
  Si  Si31  1  0.212971  0.423398  0.188625  1
  Si  Si32  1  0.705411  0.072818  0.559479  1
  Si  Si33  1  0.920743  0.288149  0.940464  1
  Si  Si34  1  0.078819  0.715480  0.439571  1
  Ir  Ir35  1  0.185534  0.176684  0.701001  1
