# generated using pymatgen
data_Ba4DyEr(CoO5)2
_symmetry_space_group_name_H-M   'P 1'
_cell_length_a   6.15542300
_cell_length_b   7.95602209
_cell_length_c   12.48171397
_cell_angle_alpha   91.36657198
_cell_angle_beta   90.00000000
_cell_angle_gamma   90.00000000
_symmetry_Int_Tables_number   1
_chemical_formula_structural   Ba4DyEr(CoO5)2
_chemical_formula_sum   'Ba8 Dy2 Er2 Co4 O20'
_cell_volume   611.08914204
_cell_formula_units_Z   2
loop_
 _symmetry_equiv_pos_site_id
 _symmetry_equiv_pos_as_xyz
  1  'x, y, z'
loop_
 _atom_site_type_symbol
 _atom_site_label
 _atom_site_symmetry_multiplicity
 _atom_site_fract_x
 _atom_site_fract_y
 _atom_site_fract_z
 _atom_site_occupancy
  Ba  Ba0  1  0.758387  0.493211  0.361112  1
  Ba  Ba1  1  0.741613  0.993211  0.861112  1
  Ba  Ba2  1  0.243229  0.506739  0.638585  1
  Ba  Ba3  1  0.256771  0.006739  0.138585  1
  Ba  Ba4  1  0.754428  0.992866  0.382501  1
  Ba  Ba5  1  0.745572  0.492866  0.882501  1
  Ba  Ba6  1  0.246895  0.006994  0.617427  1
  Ba  Ba7  1  0.253105  0.506994  0.117427  1
  Dy  Dy8  1  0.748891  0.261857  0.628915  1
  Dy  Dy9  1  0.751109  0.761857  0.128915  1
  Er  Er10  1  0.251917  0.738403  0.371135  1
  Er  Er11  1  0.248083  0.238403  0.871135  1
  Co  Co12  1  0.741356  0.745909  0.591642  1
  Co  Co13  1  0.758644  0.245909  0.091642  1
  Co  Co14  1  0.259003  0.253746  0.407026  1
  Co  Co15  1  0.240997  0.753746  0.907026  1
  O  O16  1  0.756929  0.970078  0.634863  1
  O  O17  1  0.743071  0.470078  0.134863  1
  O  O18  1  0.243270  0.028755  0.364938  1
  O  O19  1  0.256730  0.528755  0.864938  1
  O  O20  1  0.738141  0.053577  0.169095  1
  O  O21  1  0.761859  0.553577  0.669095  1
  O  O22  1  0.261888  0.948222  0.831527  1
  O  O23  1  0.238112  0.448222  0.331527  1
  O  O24  1  0.538054  0.747015  0.270467  1
  O  O25  1  0.961946  0.247015  0.770467  1
  O  O26  1  0.460604  0.252548  0.731724  1
  O  O27  1  0.039396  0.752548  0.231724  1
  O  O28  1  0.529436  0.231278  0.987074  1
  O  O29  1  0.970564  0.731278  0.487074  1
  O  O30  1  0.468156  0.768645  0.012390  1
  O  O31  1  0.031844  0.268645  0.512390  1
  O  O32  1  0.031007  0.235522  0.017957  1
  O  O33  1  0.468993  0.735522  0.517957  1
  O  O34  1  0.970153  0.764634  0.981621  1
  O  O35  1  0.529847  0.264634  0.481621  1
