# generated using pymatgen
data_Er9Lu(Al2Ru3)2
_symmetry_space_group_name_H-M   'P 1'
_cell_length_a   8.29418448
_cell_length_b   8.29418342
_cell_length_c   8.29418400
_cell_angle_alpha   109.47586743
_cell_angle_beta   109.47586482
_cell_angle_gamma   109.47588339
_symmetry_Int_Tables_number   1
_chemical_formula_structural   Er9Lu(Al2Ru3)2
_chemical_formula_sum   'Er9 Lu1 Al4 Ru6'
_cell_volume   439.16153010
_cell_formula_units_Z   1
loop_
 _symmetry_equiv_pos_site_id
 _symmetry_equiv_pos_as_xyz
  1  'x, y, z'
loop_
 _atom_site_type_symbol
 _atom_site_label
 _atom_site_symmetry_multiplicity
 _atom_site_fract_x
 _atom_site_fract_y
 _atom_site_fract_z
 _atom_site_occupancy
  Er  Er0  1  0.477749  0.156625  0.226147  1
  Er  Er1  1  0.156625  0.226147  0.477749  1
  Er  Er2  1  0.226147  0.477749  0.156625  1
  Er  Er3  1  0.408659  0.693509  0.906701  1
  Er  Er4  1  0.693509  0.906701  0.408659  1
  Er  Er5  1  0.906701  0.408659  0.693509  1
  Er  Er6  1  0.657638  0.087675  0.837743  1
  Er  Er7  1  0.087675  0.837743  0.657638  1
  Er  Er8  1  0.837743  0.657638  0.087675  1
  Lu  Lu9  1  0.616147  0.616147  0.616147  1
  Al  Al10  1  0.408472  0.318195  0.909572  1
  Al  Al11  1  0.318195  0.909572  0.408472  1
  Al  Al12  1  0.909572  0.408472  0.318195  1
  Al  Al13  1  0.994488  0.994488  0.994488  1
  Ru  Ru14  1  0.034709  0.158131  0.784151  1
  Ru  Ru15  1  0.158131  0.784151  0.034709  1
  Ru  Ru16  1  0.784151  0.034709  0.158131  1
  Ru  Ru17  1  0.659047  0.531148  0.283494  1
  Ru  Ru18  1  0.531148  0.283494  0.659047  1
  Ru  Ru19  1  0.283494  0.659047  0.531148  1
