# generated using pymatgen
data_Sc3AlP2Rh3
_symmetry_space_group_name_H-M   'P 1'
_cell_length_a   6.60485600
_cell_length_b   6.60485593
_cell_length_c   3.75162800
_cell_angle_alpha   90.00000000
_cell_angle_beta   90.00000000
_cell_angle_gamma   120.00000037
_symmetry_Int_Tables_number   1
_chemical_formula_structural   Sc3AlP2Rh3
_chemical_formula_sum   'Sc3 Al1 P2 Rh3'
_cell_volume   141.73499764
_cell_formula_units_Z   1
loop_
 _symmetry_equiv_pos_site_id
 _symmetry_equiv_pos_as_xyz
  1  'x, y, z'
loop_
 _atom_site_type_symbol
 _atom_site_label
 _atom_site_symmetry_multiplicity
 _atom_site_fract_x
 _atom_site_fract_y
 _atom_site_fract_z
 _atom_site_occupancy
  Sc  Sc0  1  0.424401  0.424401  0.500000  1
  Sc  Sc1  1  0.575599  0.000000  0.500000  1
  Sc  Sc2  1  0.000000  0.575599  0.500000  1
  Al  Al3  1  0.000000  0.000000  0.500000  1
  P  P4  1  0.666667  0.333333  0.000000  1
  P  P5  1  0.333333  0.666667  0.000000  1
  Rh  Rh6  1  0.000000  0.254473  0.000000  1
  Rh  Rh7  1  0.254473  0.000000  0.000000  1
  Rh  Rh8  1  0.745527  0.745527  0.000000  1
