# generated using pymatgen
data_NaCa2V3(NiO6)2
_symmetry_space_group_name_H-M   'P 1'
_cell_length_a   10.88681738
_cell_length_b   10.88681738
_cell_length_c   10.88681738
_cell_angle_alpha   109.39029381
_cell_angle_beta   109.39029381
_cell_angle_gamma   109.63319580
_symmetry_Int_Tables_number   1
_chemical_formula_structural   NaCa2V3(NiO6)2
_chemical_formula_sum   'Na4 Ca8 V12 Ni8 O48'
_cell_volume   993.29515989
_cell_formula_units_Z   4
loop_
 _symmetry_equiv_pos_site_id
 _symmetry_equiv_pos_as_xyz
  1  'x, y, z'
loop_
 _atom_site_type_symbol
 _atom_site_label
 _atom_site_symmetry_multiplicity
 _atom_site_fract_x
 _atom_site_fract_y
 _atom_site_fract_z
 _atom_site_occupancy
  Na  Na0  1  0.500000  0.000000  0.500000  1
  Na  Na1  1  0.000000  0.500000  0.500000  1
  Na  Na2  1  0.250000  0.250000  0.000000  1
  Na  Na3  1  0.750000  0.750000  0.000000  1
  Ca  Ca4  1  0.875000  0.747237  0.372237  1
  Ca  Ca5  1  0.252763  0.625000  0.127763  1
  Ca  Ca6  1  0.497237  0.125000  0.872237  1
  Ca  Ca7  1  0.875000  0.247237  0.872237  1
  Ca  Ca8  1  0.375000  0.502763  0.627763  1
  Ca  Ca9  1  0.752763  0.625000  0.627763  1
  Ca  Ca10  1  0.997237  0.125000  0.372237  1
  Ca  Ca11  1  0.375000  0.002763  0.127763  1
  V  V12  1  0.248298  0.125000  0.623298  1
  V  V13  1  0.500000  0.500000  0.000000  1
  V  V14  1  0.250000  0.750000  0.500000  1
  V  V15  1  0.875000  0.998298  0.623298  1
  V  V16  1  0.875000  0.498298  0.123298  1
  V  V17  1  0.501702  0.625000  0.376702  1
  V  V18  1  0.748298  0.125000  0.123298  1
  V  V19  1  0.375000  0.251702  0.376702  1
  V  V20  1  0.000000  0.000000  0.000000  1
  V  V21  1  0.375000  0.751702  0.876702  1
  V  V22  1  0.750000  0.250000  0.500000  1
  V  V23  1  0.001702  0.625000  0.876702  1
  Ni  Ni24  1  0.625000  0.375000  0.250000  1
  Ni  Ni25  1  0.125000  0.375000  0.750000  1
  Ni  Ni26  1  0.125000  0.375000  0.250000  1
  Ni  Ni27  1  0.625000  0.875000  0.750000  1
  Ni  Ni28  1  0.625000  0.875000  0.250000  1
  Ni  Ni29  1  0.125000  0.875000  0.750000  1
  Ni  Ni30  1  0.125000  0.875000  0.250000  1
  Ni  Ni31  1  0.625000  0.375000  0.750000  1
  O  O32  1  0.830481  0.960236  0.438712  1
  O  O33  1  0.431780  0.172788  0.663320  1
  O  O34  1  0.718788  0.261775  0.650592  1
  O  O35  1  0.108230  0.978476  0.438712  1
  O  O36  1  0.638818  0.681804  0.150592  1
  O  O37  1  0.922788  0.681780  0.163320  1
  O  O38  1  0.238225  0.781212  0.349408  1
  O  O39  1  0.111182  0.761775  0.542987  1
  O  O40  1  0.731540  0.990532  0.663320  1
  O  O41  1  0.431804  0.888818  0.650592  1
  O  O42  1  0.511775  0.361182  0.042987  1
  O  O43  1  0.039764  0.478476  0.870245  1
  O  O44  1  0.509468  0.768460  0.336680  1
  O  O45  1  0.728476  0.358230  0.938712  1
  O  O46  1  0.827212  0.490532  0.258992  1
  O  O47  1  0.240532  0.077212  0.758992  1
  O  O48  1  0.021524  0.460236  0.129755  1
  O  O49  1  0.318196  0.468788  0.957013  1
  O  O50  1  0.218788  0.568196  0.457013  1
  O  O51  1  0.919519  0.858230  0.629755  1
  O  O52  1  0.539764  0.669519  0.561288  1
  O  O53  1  0.318220  0.481540  0.241008  1
  O  O54  1  0.608230  0.169519  0.129755  1
  O  O55  1  0.018460  0.181780  0.758992  1
  O  O56  1  0.231540  0.568220  0.741008  1
  O  O57  1  0.641770  0.580481  0.370245  1
  O  O58  1  0.931780  0.268460  0.258992  1
  O  O59  1  0.710236  0.080481  0.938712  1
  O  O60  1  0.330481  0.891770  0.870245  1
  O  O61  1  0.031212  0.181804  0.042987  1
  O  O62  1  0.931804  0.281212  0.542987  1
  O  O63  1  0.228476  0.289764  0.370245  1
  O  O64  1  0.009468  0.672788  0.741008  1
  O  O65  1  0.422788  0.259468  0.241008  1
  O  O66  1  0.521524  0.391770  0.561288  1
  O  O67  1  0.740532  0.981540  0.163320  1
  O  O68  1  0.210236  0.271524  0.629755  1
  O  O69  1  0.738225  0.388818  0.457013  1
  O  O70  1  0.818196  0.861182  0.849408  1
  O  O71  1  0.518460  0.759468  0.836680  1
  O  O72  1  0.138818  0.988225  0.957013  1
  O  O73  1  0.011775  0.968788  0.150592  1
  O  O74  1  0.327212  0.068220  0.336680  1
  O  O75  1  0.611182  0.068196  0.349408  1
  O  O76  1  0.141770  0.771524  0.061288  1
  O  O77  1  0.818220  0.577212  0.836680  1
  O  O78  1  0.531212  0.488225  0.849408  1
  O  O79  1  0.419519  0.789764  0.061288  1
