# generated using pymatgen
data_LiHo8GaPd23
_symmetry_space_group_name_H-M   'P 1'
_cell_length_a   8.27245500
_cell_length_b   8.34866500
_cell_length_c   8.38061300
_cell_angle_alpha   90.00000000
_cell_angle_beta   90.00000000
_cell_angle_gamma   90.00000000
_symmetry_Int_Tables_number   1
_chemical_formula_structural   LiHo8GaPd23
_chemical_formula_sum   'Li1 Ho8 Ga1 Pd23'
_cell_volume   578.79828348
_cell_formula_units_Z   1
loop_
 _symmetry_equiv_pos_site_id
 _symmetry_equiv_pos_as_xyz
  1  'x, y, z'
loop_
 _atom_site_type_symbol
 _atom_site_label
 _atom_site_symmetry_multiplicity
 _atom_site_fract_x
 _atom_site_fract_y
 _atom_site_fract_z
 _atom_site_occupancy
  Li  Li0  1  0.265397  0.500000  0.000000  1
  Ho  Ho1  1  0.252209  0.247119  0.258884  1
  Ho  Ho2  1  0.747463  0.746783  0.749412  1
  Ho  Ho3  1  0.747463  0.746783  0.250588  1
  Ho  Ho4  1  0.747463  0.253217  0.749412  1
  Ho  Ho5  1  0.252209  0.247119  0.741116  1
  Ho  Ho6  1  0.252209  0.752881  0.258884  1
  Ho  Ho7  1  0.252209  0.752881  0.741116  1
  Ho  Ho8  1  0.747463  0.253217  0.250588  1
  Ga  Ga9  1  0.996446  0.000000  0.000000  1
  Pd  Pd10  1  0.742241  0.500000  0.000000  1
  Pd  Pd11  1  0.997894  0.259314  0.500000  1
  Pd  Pd12  1  0.493434  0.263803  0.000000  1
  Pd  Pd13  1  0.997894  0.740686  0.500000  1
  Pd  Pd14  1  0.493434  0.736197  0.000000  1
  Pd  Pd15  1  0.500386  0.000000  0.259932  1
  Pd  Pd16  1  0.258780  0.000000  0.500000  1
  Pd  Pd17  1  0.500386  0.000000  0.740068  1
  Pd  Pd18  1  0.740025  0.000000  0.500000  1
  Pd  Pd19  1  0.002863  0.500000  0.259928  1
  Pd  Pd20  1  0.002863  0.500000  0.740072  1
  Pd  Pd21  1  0.252312  0.500000  0.500000  1
  Pd  Pd22  1  0.747686  0.500000  0.500000  1
  Pd  Pd23  1  0.501678  0.252784  0.500000  1
  Pd  Pd24  1  0.501678  0.747216  0.500000  1
  Pd  Pd25  1  0.495837  0.500000  0.251036  1
  Pd  Pd26  1  0.495837  0.500000  0.748964  1
  Pd  Pd27  1  0.289917  0.000000  0.000000  1
  Pd  Pd28  1  0.703883  0.000000  0.000000  1
  Pd  Pd29  1  0.011888  0.294856  0.000000  1
  Pd  Pd30  1  0.011888  0.705144  0.000000  1
  Pd  Pd31  1  0.998331  0.000000  0.290211  1
  Pd  Pd32  1  0.998331  0.000000  0.709789  1
