# generated using pymatgen
data_Rb4Ba2UAs4
_symmetry_space_group_name_H-M   'P 1'
_cell_length_a   11.12590561
_cell_length_b   11.12590500
_cell_length_c   8.36718004
_cell_angle_alpha   88.24905752
_cell_angle_beta   88.24905936
_cell_angle_gamma   119.81405739
_symmetry_Int_Tables_number   1
_chemical_formula_structural   Rb4Ba2UAs4
_chemical_formula_sum   'Rb8 Ba4 U2 As8'
_cell_volume   896.98104518
_cell_formula_units_Z   2
loop_
 _symmetry_equiv_pos_site_id
 _symmetry_equiv_pos_as_xyz
  1  'x, y, z'
loop_
 _atom_site_type_symbol
 _atom_site_label
 _atom_site_symmetry_multiplicity
 _atom_site_fract_x
 _atom_site_fract_y
 _atom_site_fract_z
 _atom_site_occupancy
  Rb  Rb0  1  0.472213  0.939210  0.385559  1
  Rb  Rb1  1  0.939210  0.472213  0.885559  1
  Rb  Rb2  1  0.867256  0.723664  0.174504  1
  Rb  Rb3  1  0.267018  0.127694  0.233188  1
  Rb  Rb4  1  0.858177  0.139343  0.200449  1
  Rb  Rb5  1  0.127694  0.267018  0.733188  1
  Rb  Rb6  1  0.723664  0.867256  0.674504  1
  Rb  Rb7  1  0.139343  0.858177  0.700449  1
  Ba  Ba8  1  0.072131  0.534330  0.394367  1
  Ba  Ba9  1  0.473397  0.533339  0.379353  1
  Ba  Ba10  1  0.534330  0.072131  0.894367  1
  Ba  Ba11  1  0.533339  0.473397  0.879353  1
  U  U12  1  0.665142  0.334639  0.485565  1
  U  U13  1  0.334639  0.665142  0.985565  1
  As  As14  1  0.639880  0.326815  0.152713  1
  As  As15  1  0.326815  0.639880  0.652713  1
  As  As16  1  0.209061  0.400630  0.131828  1
  As  As17  1  0.606244  0.797404  0.079738  1
  As  As18  1  0.206726  0.805493  0.100406  1
  As  As19  1  0.797404  0.606244  0.579738  1
  As  As20  1  0.400630  0.209061  0.631828  1
  As  As21  1  0.805493  0.206726  0.600406  1
