# generated using pymatgen
data_TbNd3(PI)2
_symmetry_space_group_name_H-M   'P 1'
_cell_length_a   4.16965300
_cell_length_b   4.16965238
_cell_length_c   15.28218100
_cell_angle_alpha   90.00000000
_cell_angle_beta   90.00000000
_cell_angle_gamma   119.99999696
_symmetry_Int_Tables_number   1
_chemical_formula_structural   TbNd3(PI)2
_chemical_formula_sum   'Tb1 Nd3 P2 I2'
_cell_volume   230.09953902
_cell_formula_units_Z   1
loop_
 _symmetry_equiv_pos_site_id
 _symmetry_equiv_pos_as_xyz
  1  'x, y, z'
loop_
 _atom_site_type_symbol
 _atom_site_label
 _atom_site_symmetry_multiplicity
 _atom_site_fract_x
 _atom_site_fract_y
 _atom_site_fract_z
 _atom_site_occupancy
  Tb  Tb0  1  0.333333  0.666667  0.906107  1
  Nd  Nd1  1  0.333333  0.666667  0.598365  1
  Nd  Nd2  1  0.666667  0.333333  0.404385  1
  Nd  Nd3  1  0.666667  0.333333  0.091756  1
  P  P4  1  0.000000  0.000000  0.992763  1
  P  P5  1  0.000000  0.000000  0.501457  1
  I  I6  1  0.333333  0.666667  0.247666  1
  I  I7  1  0.666667  0.333333  0.757502  1
