# generated using pymatgen
data_Cs3K(CrN2)4
_symmetry_space_group_name_H-M   'P 1'
_cell_length_a   5.79810300
_cell_length_b   8.20835200
_cell_length_c   11.59666600
_cell_angle_alpha   90.00000000
_cell_angle_beta   90.00000000
_cell_angle_gamma   90.00000000
_symmetry_Int_Tables_number   1
_chemical_formula_structural   Cs3K(CrN2)4
_chemical_formula_sum   'Cs6 K2 Cr8 N16'
_cell_volume   551.91862150
_cell_formula_units_Z   2
loop_
 _symmetry_equiv_pos_site_id
 _symmetry_equiv_pos_as_xyz
  1  'x, y, z'
loop_
 _atom_site_type_symbol
 _atom_site_label
 _atom_site_symmetry_multiplicity
 _atom_site_fract_x
 _atom_site_fract_y
 _atom_site_fract_z
 _atom_site_occupancy
  Cs  Cs0  1  0.250000  0.881548  0.000000  1
  Cs  Cs1  1  0.750000  0.118452  0.500000  1
  Cs  Cs2  1  0.740915  0.371445  0.246628  1
  Cs  Cs3  1  0.240915  0.628555  0.253372  1
  Cs  Cs4  1  0.259085  0.628555  0.746628  1
  Cs  Cs5  1  0.759085  0.371445  0.753372  1
  K  K6  1  0.750000  0.124961  0.000000  1
  K  K7  1  0.250000  0.875039  0.500000  1
  Cr  Cr8  1  0.250000  0.373389  0.000000  1
  Cr  Cr9  1  0.750000  0.626611  0.500000  1
  Cr  Cr10  1  0.750000  0.624861  0.000000  1
  Cr  Cr11  1  0.250000  0.375139  0.500000  1
  Cr  Cr12  1  0.242485  0.124345  0.250639  1
  Cr  Cr13  1  0.742485  0.875655  0.249361  1
  Cr  Cr14  1  0.757515  0.875655  0.750639  1
  Cr  Cr15  1  0.257515  0.124345  0.749361  1
  N  N16  1  0.988373  0.004014  0.249593  1
  N  N17  1  0.488373  0.995986  0.250407  1
  N  N18  1  0.011627  0.995986  0.749593  1
  N  N19  1  0.511627  0.004014  0.750407  1
  N  N20  1  0.247517  0.248475  0.375537  1
  N  N21  1  0.747517  0.751525  0.124463  1
  N  N22  1  0.752483  0.751525  0.875537  1
  N  N23  1  0.252483  0.248475  0.624463  1
  N  N24  1  0.752186  0.751580  0.624532  1
  N  N25  1  0.252186  0.248420  0.875468  1
  N  N26  1  0.247814  0.248420  0.124532  1
  N  N27  1  0.747814  0.751580  0.375468  1
  N  N28  1  0.499279  0.501476  0.499961  1
  N  N29  1  0.999279  0.498524  0.000039  1
  N  N30  1  0.500721  0.498524  0.999961  1
  N  N31  1  0.000721  0.501476  0.500039  1
