# generated using pymatgen
data_Sc2Fe9NiP7Ru2
_symmetry_space_group_name_H-M   'P 1'
_cell_length_a   8.87240311
_cell_length_b   8.89374225
_cell_length_c   3.64288500
_cell_angle_alpha   90.00000000
_cell_angle_beta   90.00000000
_cell_angle_gamma   119.29859861
_symmetry_Int_Tables_number   1
_chemical_formula_structural   Sc2Fe9NiP7Ru2
_chemical_formula_sum   'Sc2 Fe9 Ni1 P7 Ru2'
_cell_volume   250.68492085
_cell_formula_units_Z   1
loop_
 _symmetry_equiv_pos_site_id
 _symmetry_equiv_pos_as_xyz
  1  'x, y, z'
loop_
 _atom_site_type_symbol
 _atom_site_label
 _atom_site_symmetry_multiplicity
 _atom_site_fract_x
 _atom_site_fract_y
 _atom_site_fract_z
 _atom_site_occupancy
  Sc  Sc0  1  0.673173  0.340498  0.500000  1
  Sc  Sc1  1  0.327312  0.659969  0.000000  1
  Fe  Fe2  1  0.385116  0.433213  0.500000  1
  Fe  Fe3  1  0.056103  0.615410  0.500000  1
  Fe  Fe4  1  0.222200  0.099441  0.500000  1
  Fe  Fe5  1  0.713762  0.878861  0.000000  1
  Fe  Fe6  1  0.122188  0.845278  0.000000  1
  Fe  Fe7  1  0.160511  0.274704  0.000000  1
  Fe  Fe8  1  0.943942  0.372231  0.000000  1
  Fe  Fe9  1  0.629994  0.569690  0.000000  1
  Fe  Fe10  1  0.431655  0.058887  0.000000  1
  Ni  Ni11  1  0.554558  0.943637  0.500000  1
  P  P12  1  0.998580  0.000746  0.000000  1
  P  P13  1  0.420222  0.300746  0.000000  1
  P  P14  1  0.586037  0.701974  0.500000  1
  P  P15  1  0.282630  0.881473  0.500000  1
  P  P16  1  0.122178  0.409396  0.500000  1
  P  P17  1  0.703978  0.124291  0.000000  1
  P  P18  1  0.887582  0.584621  0.000000  1
  Ru  Ru19  1  0.876928  0.783037  0.500000  1
  Ru  Ru20  1  0.901351  0.121899  0.500000  1
