# generated using pymatgen
data_Tb3DyThRu2
_symmetry_space_group_name_H-M   'P 1'
_cell_length_a   8.70520454
_cell_length_b   8.70520349
_cell_length_c   7.22020055
_cell_angle_alpha   83.56556809
_cell_angle_beta   83.56556846
_cell_angle_gamma   43.31085506
_symmetry_Int_Tables_number   1
_chemical_formula_structural   Tb3DyThRu2
_chemical_formula_sum   'Tb6 Dy2 Th2 Ru4'
_cell_volume   372.58327994
_cell_formula_units_Z   2
loop_
 _symmetry_equiv_pos_site_id
 _symmetry_equiv_pos_as_xyz
  1  'x, y, z'
loop_
 _atom_site_type_symbol
 _atom_site_label
 _atom_site_symmetry_multiplicity
 _atom_site_fract_x
 _atom_site_fract_y
 _atom_site_fract_z
 _atom_site_occupancy
  Tb  Tb0  1  0.210624  0.357110  0.311419  1
  Tb  Tb1  1  0.642890  0.789376  0.188581  1
  Tb  Tb2  1  0.791055  0.641661  0.685329  1
  Tb  Tb3  1  0.358339  0.208945  0.814671  1
  Tb  Tb4  1  0.978672  0.206981  0.085079  1
  Tb  Tb5  1  0.793019  0.021328  0.414921  1
  Dy  Dy6  1  0.576979  0.423021  0.750000  1
  Dy  Dy7  1  0.420648  0.579352  0.250000  1
  Th  Th8  1  0.201027  0.990775  0.591300  1
  Th  Th9  1  0.009225  0.798973  0.908700  1
  Ru  Ru10  1  0.170338  0.611736  0.586744  1
  Ru  Ru11  1  0.388264  0.829662  0.913256  1
  Ru  Ru12  1  0.841139  0.382218  0.429312  1
  Ru  Ru13  1  0.617782  0.158861  0.070688  1
