# generated using pymatgen
data_YHo(Co3Si2)2
_symmetry_space_group_name_H-M   'P 1'
_cell_length_a   6.25552128
_cell_length_b   6.25684969
_cell_length_c   6.25552236
_cell_angle_alpha   130.59892263
_cell_angle_beta   113.05191157
_cell_angle_gamma   87.56683745
_symmetry_Int_Tables_number   1
_chemical_formula_structural   YHo(Co3Si2)2
_chemical_formula_sum   'Y1 Ho1 Co6 Si4'
_cell_volume   162.96538480
_cell_formula_units_Z   1
loop_
 _symmetry_equiv_pos_site_id
 _symmetry_equiv_pos_as_xyz
  1  'x, y, z'
loop_
 _atom_site_type_symbol
 _atom_site_label
 _atom_site_symmetry_multiplicity
 _atom_site_fract_x
 _atom_site_fract_y
 _atom_site_fract_z
 _atom_site_occupancy
  Y  Y0  1  0.749986  0.471079  0.721093  1
  Ho  Ho1  1  0.250005  0.530405  0.280401  1
  Co  Co2  1  0.000401  0.999438  0.499838  1
  Co  Co3  1  0.499600  0.999438  0.999035  1
  Co  Co4  1  0.724120  0.999249  0.724120  1
  Co  Co5  1  0.224883  0.500003  0.724132  1
  Co  Co6  1  0.275129  0.999249  0.275128  1
  Co  Co7  1  0.775871  0.500003  0.275119  1
  Si  Si8  1  0.080976  0.873466  0.792489  1
  Si  Si9  1  0.919499  0.127576  0.208076  1
  Si  Si10  1  0.580500  0.788673  0.208172  1
  Si  Si11  1  0.419030  0.211425  0.792396  1
