# generated using pymatgen
data_Tm6Lu2Nb9Si16Mo3
_symmetry_space_group_name_H-M   'P 1'
_cell_length_a   6.76084301
_cell_length_b   7.00874627
_cell_length_c   13.27506939
_cell_angle_alpha   89.97222503
_cell_angle_beta   89.99830730
_cell_angle_gamma   89.95893472
_symmetry_Int_Tables_number   1
_chemical_formula_structural   Tm6Lu2Nb9Si16Mo3
_chemical_formula_sum   'Tm6 Lu2 Nb9 Si16 Mo3'
_cell_volume   629.03936864
_cell_formula_units_Z   1
loop_
 _symmetry_equiv_pos_site_id
 _symmetry_equiv_pos_as_xyz
  1  'x, y, z'
loop_
 _atom_site_type_symbol
 _atom_site_label
 _atom_site_symmetry_multiplicity
 _atom_site_fract_x
 _atom_site_fract_y
 _atom_site_fract_z
 _atom_site_occupancy
  Tm  Tm0  1  0.501459  0.327683  0.094679  1
  Tm  Tm1  1  0.001433  0.172435  0.405194  1
  Tm  Tm2  1  0.498188  0.672464  0.594812  1
  Tm  Tm3  1  0.997849  0.827710  0.905561  1
  Tm  Tm4  1  0.498166  0.672590  0.905133  1
  Tm  Tm5  1  0.997859  0.827560  0.594486  1
  Lu  Lu6  1  0.501246  0.327432  0.405049  1
  Lu  Lu7  1  0.001138  0.172669  0.095102  1
  Nb  Nb8  1  0.834816  0.329361  0.625585  1
  Nb  Nb9  1  0.334465  0.171305  0.874601  1
  Nb  Nb10  1  0.165572  0.670089  0.126473  1
  Nb  Nb11  1  0.666198  0.829835  0.372938  1
  Nb  Nb12  1  0.165682  0.669836  0.373622  1
  Nb  Nb13  1  0.666309  0.830035  0.127003  1
  Nb  Nb14  1  0.835148  0.329162  0.874505  1
  Nb  Nb15  1  0.334742  0.171527  0.625276  1
  Nb  Nb16  1  0.660430  0.007523  0.750026  1
  Si  Si17  1  0.664615  0.037456  0.540820  1
  Si  Si18  1  0.164501  0.461930  0.957843  1
  Si  Si19  1  0.335153  0.962635  0.043191  1
  Si  Si20  1  0.834793  0.537359  0.457150  1
  Si  Si21  1  0.336163  0.962820  0.456869  1
  Si  Si22  1  0.835795  0.537152  0.042798  1
  Si  Si23  1  0.664942  0.037196  0.959127  1
  Si  Si24  1  0.164822  0.462182  0.542199  1
  Si  Si25  1  0.533234  0.382121  0.750029  1
  Si  Si26  1  0.038127  0.120780  0.749968  1
  Si  Si27  1  0.465544  0.619359  0.250142  1
  Si  Si28  1  0.966676  0.881027  0.249873  1
  Si  Si29  1  0.798108  0.630667  0.750011  1
  Si  Si30  1  0.293098  0.864561  0.749977  1
  Si  Si31  1  0.202102  0.365488  0.249950  1
  Si  Si32  1  0.702292  0.134965  0.250051  1
  Mo  Mo33  1  0.160918  0.492925  0.749931  1
  Mo  Mo34  1  0.339733  0.993994  0.249889  1
  Mo  Mo35  1  0.838689  0.506168  0.250137  1
