# generated using pymatgen
data_ZrSc21Os8
_symmetry_space_group_name_H-M   'P 1'
_cell_length_a   9.42774691
_cell_length_b   9.42787277
_cell_length_c   9.42776178
_cell_angle_alpha   60.60789021
_cell_angle_beta   60.60970708
_cell_angle_gamma   60.60853204
_symmetry_Int_Tables_number   1
_chemical_formula_structural   ZrSc21Os8
_chemical_formula_sum   'Zr1 Sc21 Os8'
_cell_volume   600.68225197
_cell_formula_units_Z   1
loop_
 _symmetry_equiv_pos_site_id
 _symmetry_equiv_pos_as_xyz
  1  'x, y, z'
loop_
 _atom_site_type_symbol
 _atom_site_label
 _atom_site_symmetry_multiplicity
 _atom_site_fract_x
 _atom_site_fract_y
 _atom_site_fract_z
 _atom_site_occupancy
  Zr  Zr0  1  0.843263  0.843209  0.843263  1
  Sc  Sc1  1  0.532952  0.154958  0.154908  1
  Sc  Sc2  1  0.154901  0.154961  0.532959  1
  Sc  Sc3  1  0.154899  0.533029  0.154904  1
  Sc  Sc4  1  0.845745  0.845697  0.466534  1
  Sc  Sc5  1  0.845747  0.466493  0.845744  1
  Sc  Sc6  1  0.466536  0.845698  0.845746  1
  Sc  Sc7  1  0.156952  0.157006  0.156949  1
  Sc  Sc8  1  0.198499  0.802456  0.198501  1
  Sc  Sc9  1  0.200875  0.800429  0.800331  1
  Sc  Sc10  1  0.802392  0.198492  0.198553  1
  Sc  Sc11  1  0.800335  0.800437  0.200867  1
  Sc  Sc12  1  0.198553  0.198488  0.802397  1
  Sc  Sc13  1  0.800397  0.200816  0.800409  1
  Sc  Sc14  1  0.381718  0.381686  0.381715  1
  Sc  Sc15  1  0.150490  0.614527  0.614507  1
  Sc  Sc16  1  0.614525  0.150476  0.614523  1
  Sc  Sc17  1  0.614505  0.614528  0.150491  1
  Sc  Sc18  1  0.384566  0.850403  0.384559  1
  Sc  Sc19  1  0.384569  0.384550  0.850403  1
  Sc  Sc20  1  0.850402  0.384552  0.384573  1
  Sc  Sc21  1  0.618485  0.618506  0.618485  1
  Os  Os22  1  0.499823  0.499815  0.999559  1
  Os  Os23  1  0.998481  0.998466  0.502630  1
  Os  Os24  1  0.499825  0.999551  0.499823  1
  Os  Os25  1  0.999559  0.499816  0.499822  1
  Os  Os26  1  0.502633  0.998468  0.998481  1
  Os  Os27  1  0.998482  0.502615  0.998481  1
  Os  Os28  1  0.500238  0.500227  0.500240  1
  Os  Os29  1  0.999650  0.999645  0.999644  1
