# generated using pymatgen
data_U4V3TcC8
_symmetry_space_group_name_H-M   'P 1'
_cell_length_a   3.19048600
_cell_length_b   5.55611581
_cell_length_c   10.86417561
_cell_angle_alpha   89.93785383
_cell_angle_beta   90.00000000
_cell_angle_gamma   90.00000000
_symmetry_Int_Tables_number   1
_chemical_formula_structural   U4V3TcC8
_chemical_formula_sum   'U4 V3 Tc1 C8'
_cell_volume   192.58597398
_cell_formula_units_Z   1
loop_
 _symmetry_equiv_pos_site_id
 _symmetry_equiv_pos_as_xyz
  1  'x, y, z'
loop_
 _atom_site_type_symbol
 _atom_site_label
 _atom_site_symmetry_multiplicity
 _atom_site_fract_x
 _atom_site_fract_y
 _atom_site_fract_z
 _atom_site_occupancy
  U  U0  1  0.250000  0.080514  0.860552  1
  U  U1  1  0.250000  0.578567  0.642185  1
  U  U2  1  0.750000  0.921590  0.141311  1
  U  U3  1  0.750000  0.421000  0.356771  1
  V  V4  1  0.250000  0.421240  0.100678  1
  V  V5  1  0.250000  0.919407  0.398770  1
  V  V6  1  0.750000  0.579607  0.900574  1
  Tc  Tc7  1  0.750000  0.075810  0.601356  1
  C  C8  1  0.250000  0.166366  0.243809  1
  C  C9  1  0.250000  0.667277  0.253936  1
  C  C10  1  0.750000  0.833040  0.757081  1
  C  C11  1  0.750000  0.337736  0.748801  1
  C  C12  1  0.250000  0.735749  0.991971  1
  C  C13  1  0.250000  0.239517  0.504704  1
  C  C14  1  0.750000  0.266071  0.009491  1
  C  C15  1  0.750000  0.756509  0.488011  1
