# generated using pymatgen
data_Nd8Y7Ho5Ga16
_symmetry_space_group_name_H-M   'P 1'
_cell_length_a   7.96169801
_cell_length_b   7.96119306
_cell_length_c   14.82548500
_cell_angle_alpha   90.00291474
_cell_angle_beta   89.99676161
_cell_angle_gamma   89.99336464
_symmetry_Int_Tables_number   1
_chemical_formula_structural   Nd8Y7Ho5Ga16
_chemical_formula_sum   'Nd8 Y7 Ho5 Ga16'
_cell_volume   939.70764981
_cell_formula_units_Z   1
loop_
 _symmetry_equiv_pos_site_id
 _symmetry_equiv_pos_as_xyz
  1  'x, y, z'
loop_
 _atom_site_type_symbol
 _atom_site_label
 _atom_site_symmetry_multiplicity
 _atom_site_fract_x
 _atom_site_fract_y
 _atom_site_fract_z
 _atom_site_occupancy
  Nd  Nd0  1  0.635827  0.988547  0.456752  1
  Nd  Nd1  1  0.363697  0.011913  0.956700  1
  Nd  Nd2  1  0.988532  0.635912  0.543263  1
  Nd  Nd3  1  0.488360  0.864302  0.206948  1
  Nd  Nd4  1  0.511884  0.135841  0.706403  1
  Nd  Nd5  1  0.864249  0.488153  0.792993  1
  Nd  Nd6  1  0.135865  0.511455  0.293405  1
  Nd  Nd7  1  0.012164  0.363864  0.043544  1
  Y  Y8  1  0.860787  0.011046  0.874938  1
  Y  Y9  1  0.139186  0.989686  0.374890  1
  Y  Y10  1  0.510524  0.639011  0.624913  1
  Y  Y11  1  0.360247  0.489124  0.874613  1
  Y  Y12  1  0.639292  0.510396  0.375292  1
  Y  Y13  1  0.010770  0.861221  0.125179  1
  Y  Y14  1  0.683945  0.683948  0.000219  1
  Ho  Ho15  1  0.489826  0.360694  0.125226  1
  Ho  Ho16  1  0.990004  0.138904  0.624920  1
  Ho  Ho17  1  0.315257  0.315229  0.500073  1
  Ho  Ho18  1  0.183972  0.816092  0.749740  1
  Ho  Ho19  1  0.815277  0.184747  0.250035  1
  Ga  Ga20  1  0.286939  0.934885  0.562263  1
  Ga  Ga21  1  0.712108  0.066404  0.062508  1
  Ga  Ga22  1  0.934846  0.287160  0.438130  1
  Ga  Ga23  1  0.434842  0.212889  0.311963  1
  Ga  Ga24  1  0.565320  0.787760  0.811887  1
  Ga  Ga25  1  0.211974  0.434050  0.687438  1
  Ga  Ga26  1  0.787108  0.564820  0.188017  1
  Ga  Ga27  1  0.066041  0.712591  0.937775  1
  Ga  Ga28  1  0.801160  0.843329  0.690468  1
  Ga  Ga29  1  0.199904  0.158002  0.190510  1
  Ga  Ga30  1  0.842465  0.800866  0.309208  1
  Ga  Ga31  1  0.342451  0.699183  0.440847  1
  Ga  Ga32  1  0.656987  0.301032  0.941055  1
  Ga  Ga33  1  0.700040  0.341987  0.559639  1
  Ga  Ga34  1  0.300858  0.656418  0.059687  1
  Ga  Ga35  1  0.157292  0.198541  0.808558  1
