# generated using pymatgen
data_Sm2Si2Pt3Rh
_symmetry_space_group_name_H-M   'P 1'
_cell_length_a   9.44520796
_cell_length_b   9.44520788
_cell_length_c   4.09891100
_cell_angle_alpha   90.00000000
_cell_angle_beta   90.00000000
_cell_angle_gamma   155.50575520
_symmetry_Int_Tables_number   1
_chemical_formula_structural   Sm2Si2Pt3Rh
_chemical_formula_sum   'Sm2 Si2 Pt3 Rh1'
_cell_volume   151.60822267
_cell_formula_units_Z   1
loop_
 _symmetry_equiv_pos_site_id
 _symmetry_equiv_pos_as_xyz
  1  'x, y, z'
loop_
 _atom_site_type_symbol
 _atom_site_label
 _atom_site_symmetry_multiplicity
 _atom_site_fract_x
 _atom_site_fract_y
 _atom_site_fract_z
 _atom_site_occupancy
  Sm  Sm0  1  0.102100  0.897900  0.750000  1
  Sm  Sm1  1  0.897372  0.102628  0.250000  1
  Si  Si2  1  0.323417  0.676583  0.750000  1
  Si  Si3  1  0.676628  0.323372  0.250000  1
  Pt  Pt4  1  0.548161  0.451839  0.250000  1
  Pt  Pt5  1  0.451946  0.548054  0.750000  1
  Pt  Pt6  1  0.250163  0.749837  0.250000  1
  Rh  Rh7  1  0.750213  0.249787  0.750000  1
