# generated using pymatgen
data_Er2Hf3Ni9P7
_symmetry_space_group_name_H-M   'P 1'
_cell_length_a   9.43522400
_cell_length_b   9.43522392
_cell_length_c   3.71857000
_cell_angle_alpha   90.00000000
_cell_angle_beta   90.00000000
_cell_angle_gamma   120.00000731
_symmetry_Int_Tables_number   1
_chemical_formula_structural   Er2Hf3Ni9P7
_chemical_formula_sum   'Er2 Hf3 Ni9 P7'
_cell_volume   286.68897201
_cell_formula_units_Z   1
loop_
 _symmetry_equiv_pos_site_id
 _symmetry_equiv_pos_as_xyz
  1  'x, y, z'
loop_
 _atom_site_type_symbol
 _atom_site_label
 _atom_site_symmetry_multiplicity
 _atom_site_fract_x
 _atom_site_fract_y
 _atom_site_fract_z
 _atom_site_occupancy
  Er  Er0  1  0.333333  0.666667  0.000000  1
  Er  Er1  1  0.666667  0.333333  0.500000  1
  Hf  Hf2  1  0.229977  0.121474  0.500000  1
  Hf  Hf3  1  0.878526  0.108503  0.500000  1
  Hf  Hf4  1  0.891497  0.770023  0.500000  1
  Ni  Ni5  1  0.129134  0.288090  0.000000  1
  Ni  Ni6  1  0.711910  0.841043  0.000000  1
  Ni  Ni7  1  0.158957  0.870866  0.000000  1
  Ni  Ni8  1  0.432071  0.366746  0.000000  1
  Ni  Ni9  1  0.633254  0.065326  0.000000  1
  Ni  Ni10  1  0.934674  0.567929  0.000000  1
  Ni  Ni11  1  0.057374  0.446279  0.500000  1
  Ni  Ni12  1  0.553721  0.611096  0.500000  1
  Ni  Ni13  1  0.388904  0.942626  0.500000  1
  P  P14  1  0.288829  0.415794  0.500000  1
  P  P15  1  0.584206  0.873034  0.500000  1
  P  P16  1  0.126966  0.711171  0.500000  1
  P  P17  1  0.422179  0.110057  0.000000  1
  P  P18  1  0.889943  0.312122  0.000000  1
  P  P19  1  0.687878  0.577821  0.000000  1
  P  P20  1  0.000000  0.000000  0.000000  1
