# generated using pymatgen
data_Hf3Zr2(PaPt5)2
_symmetry_space_group_name_H-M   'P 1'
_cell_length_a   8.29355406
_cell_length_b   8.29355432
_cell_length_c   9.81601300
_cell_angle_alpha   90.00000000
_cell_angle_beta   90.00000000
_cell_angle_gamma   107.31929426
_symmetry_Int_Tables_number   1
_chemical_formula_structural   Hf3Zr2(PaPt5)2
_chemical_formula_sum   'Hf6 Zr4 Pa4 Pt20'
_cell_volume   644.56318933
_cell_formula_units_Z   2
loop_
 _symmetry_equiv_pos_site_id
 _symmetry_equiv_pos_as_xyz
  1  'x, y, z'
loop_
 _atom_site_type_symbol
 _atom_site_label
 _atom_site_symmetry_multiplicity
 _atom_site_fract_x
 _atom_site_fract_y
 _atom_site_fract_z
 _atom_site_occupancy
  Hf  Hf0  1  0.000000  0.000000  0.000000  1
  Hf  Hf1  1  0.500000  0.500000  0.500000  1
  Hf  Hf2  1  0.000380  0.500380  0.250000  1
  Hf  Hf3  1  0.999620  0.499620  0.750000  1
  Hf  Hf4  1  0.499620  0.999620  0.750000  1
  Hf  Hf5  1  0.500380  0.000380  0.250000  1
  Zr  Zr6  1  0.309202  0.309202  0.189458  1
  Zr  Zr7  1  0.690798  0.690798  0.810542  1
  Zr  Zr8  1  0.190798  0.190798  0.689458  1
  Zr  Zr9  1  0.809202  0.809202  0.310542  1
  Pa  Pa10  1  0.689516  0.310484  0.000000  1
  Pa  Pa11  1  0.310484  0.689516  0.000000  1
  Pa  Pa12  1  0.810484  0.189516  0.500000  1
  Pa  Pa13  1  0.189516  0.810484  0.500000  1
  Pt  Pt14  1  0.850993  0.141475  0.207476  1
  Pt  Pt15  1  0.149007  0.858525  0.792524  1
  Pt  Pt16  1  0.649007  0.358525  0.707476  1
  Pt  Pt17  1  0.641475  0.350993  0.292524  1
  Pt  Pt18  1  0.350993  0.641475  0.292524  1
  Pt  Pt19  1  0.358525  0.649007  0.707476  1
  Pt  Pt20  1  0.858525  0.149007  0.792524  1
  Pt  Pt21  1  0.141475  0.850993  0.207476  1
  Pt  Pt22  1  0.938206  0.647349  0.997007  1
  Pt  Pt23  1  0.061794  0.352651  0.002993  1
  Pt  Pt24  1  0.561794  0.852651  0.497007  1
  Pt  Pt25  1  0.147349  0.438206  0.502993  1
  Pt  Pt26  1  0.438206  0.147349  0.502993  1
  Pt  Pt27  1  0.852651  0.561794  0.497007  1
  Pt  Pt28  1  0.352651  0.061794  0.002993  1
  Pt  Pt29  1  0.647349  0.938206  0.997007  1
  Pt  Pt30  1  0.106778  0.106778  0.393357  1
  Pt  Pt31  1  0.893222  0.893222  0.606643  1
  Pt  Pt32  1  0.393222  0.393222  0.893357  1
  Pt  Pt33  1  0.606778  0.606778  0.106643  1
