# generated using pymatgen
data_Li4Er16Si15Ge
_symmetry_space_group_name_H-M   'P 1'
_cell_length_a   6.97290494
_cell_length_b   7.57689203
_cell_length_c   14.45191300
_cell_angle_alpha   90.00000000
_cell_angle_beta   90.00000000
_cell_angle_gamma   89.94040593
_symmetry_Int_Tables_number   1
_chemical_formula_structural   Li4Er16Si15Ge
_chemical_formula_sum   'Li4 Er16 Si15 Ge1'
_cell_volume   763.53675286
_cell_formula_units_Z   1
loop_
 _symmetry_equiv_pos_site_id
 _symmetry_equiv_pos_as_xyz
  1  'x, y, z'
loop_
 _atom_site_type_symbol
 _atom_site_label
 _atom_site_symmetry_multiplicity
 _atom_site_fract_x
 _atom_site_fract_y
 _atom_site_fract_z
 _atom_site_occupancy
  Li  Li0  1  0.159892  0.522820  0.750000  1
  Li  Li1  1  0.840977  0.476734  0.250000  1
  Li  Li2  1  0.340988  0.023271  0.250000  1
  Li  Li3  1  0.658476  0.977855  0.750000  1
  Er  Er4  1  0.327598  0.178384  0.628410  1
  Er  Er5  1  0.672196  0.821275  0.371224  1
  Er  Er6  1  0.172124  0.678486  0.371196  1
  Er  Er7  1  0.672196  0.821275  0.128776  1
  Er  Er8  1  0.827396  0.320359  0.628234  1
  Er  Er9  1  0.327598  0.178384  0.871590  1
  Er  Er10  1  0.827396  0.320359  0.871766  1
  Er  Er11  1  0.172124  0.678486  0.128804  1
  Er  Er12  1  0.015886  0.187247  0.098075  1
  Er  Er13  1  0.985284  0.814009  0.903404  1
  Er  Er14  1  0.483035  0.686887  0.902826  1
  Er  Er15  1  0.985284  0.814009  0.596596  1
  Er  Er16  1  0.515900  0.312880  0.097908  1
  Er  Er17  1  0.015886  0.187247  0.401925  1
  Er  Er18  1  0.515900  0.312880  0.402092  1
  Er  Er19  1  0.483035  0.686887  0.597174  1
  Si  Si20  1  0.021367  0.080176  0.750000  1
  Si  Si21  1  0.978733  0.920189  0.250000  1
  Si  Si22  1  0.478703  0.579902  0.250000  1
  Si  Si23  1  0.519710  0.417465  0.750000  1
  Si  Si24  1  0.276737  0.868208  0.750000  1
  Si  Si25  1  0.723231  0.131550  0.250000  1
  Si  Si26  1  0.223575  0.368370  0.250000  1
  Si  Si27  1  0.158463  0.466831  0.534633  1
  Si  Si28  1  0.840886  0.532991  0.465373  1
  Si  Si29  1  0.340802  0.966711  0.465203  1
  Si  Si30  1  0.840886  0.532991  0.034627  1
  Si  Si31  1  0.658679  0.032710  0.534446  1
  Si  Si32  1  0.158463  0.466831  0.965367  1
  Si  Si33  1  0.658679  0.032710  0.965554  1
  Si  Si34  1  0.340802  0.966711  0.034797  1
  Ge  Ge35  1  0.781113  0.635920  0.750000  1
