# generated using pymatgen
data_Ba2PrAuO6
_symmetry_space_group_name_H-M   'P 1'
_cell_length_a   6.11296141
_cell_length_b   6.11296104
_cell_length_c   6.13477871
_cell_angle_alpha   119.71618997
_cell_angle_beta   90.17462679
_cell_angle_gamma   119.96480722
_symmetry_Int_Tables_number   1
_chemical_formula_structural   Ba2PrAuO6
_chemical_formula_sum   'Ba2 Pr1 Au1 O6'
_cell_volume   162.63411064
_cell_formula_units_Z   1
loop_
 _symmetry_equiv_pos_site_id
 _symmetry_equiv_pos_as_xyz
  1  'x, y, z'
loop_
 _atom_site_type_symbol
 _atom_site_label
 _atom_site_symmetry_multiplicity
 _atom_site_fract_x
 _atom_site_fract_y
 _atom_site_fract_z
 _atom_site_occupancy
  Ba  Ba0  1  0.752198  0.503370  0.255568  1
  Ba  Ba1  1  0.247801  0.496629  0.744431  1
  Pr  Pr2  1  0.000000  0.000000  0.000000  1
  Au  Au3  1  0.500000  0.000000  0.500000  1
  O  O4  1  0.266816  0.950229  0.217046  1
  O  O5  1  0.762331  0.004032  0.294970  1
  O  O6  1  0.290938  0.532639  0.294971  1
  O  O7  1  0.709062  0.467360  0.705029  1
  O  O8  1  0.237669  0.995967  0.705030  1
  O  O9  1  0.733184  0.049771  0.782955  1
