# generated using pymatgen
data_Cs12NaTbS8
_symmetry_space_group_name_H-M   'P 1'
_cell_length_a   11.03585100
_cell_length_b   11.03585134
_cell_length_c   8.35114800
_cell_angle_alpha   90.00000000
_cell_angle_beta   90.00000000
_cell_angle_gamma   119.99999598
_symmetry_Int_Tables_number   1
_chemical_formula_structural   Cs12NaTbS8
_chemical_formula_sum   'Cs12 Na1 Tb1 S8'
_cell_volume   880.82270214
_cell_formula_units_Z   1
loop_
 _symmetry_equiv_pos_site_id
 _symmetry_equiv_pos_as_xyz
  1  'x, y, z'
loop_
 _atom_site_type_symbol
 _atom_site_label
 _atom_site_symmetry_multiplicity
 _atom_site_fract_x
 _atom_site_fract_y
 _atom_site_fract_z
 _atom_site_occupancy
  Cs  Cs0  1  0.140882  0.859118  0.542286  1
  Cs  Cs1  1  0.293668  0.146834  0.044114  1
  Cs  Cs2  1  0.853166  0.706332  0.044114  1
  Cs  Cs3  1  0.140882  0.281764  0.542286  1
  Cs  Cs4  1  0.718236  0.859118  0.542286  1
  Cs  Cs5  1  0.853166  0.146834  0.044114  1
  Cs  Cs6  1  0.538064  0.461936  0.377156  1
  Cs  Cs7  1  0.045805  0.522902  0.849679  1
  Cs  Cs8  1  0.477098  0.954195  0.849679  1
  Cs  Cs9  1  0.538064  0.076128  0.377156  1
  Cs  Cs10  1  0.923872  0.461936  0.377156  1
  Cs  Cs11  1  0.477098  0.522902  0.849679  1
  Na  Na12  1  0.666667  0.333333  0.756476  1
  Tb  Tb13  1  0.333333  0.666667  0.251593  1
  S  S14  1  0.333333  0.666667  0.566034  1
  S  S15  1  0.666667  0.333333  0.089505  1
  S  S16  1  0.202696  0.797304  0.151354  1
  S  S17  1  0.377557  0.188779  0.654011  1
  S  S18  1  0.811221  0.622443  0.654011  1
  S  S19  1  0.202696  0.405392  0.151354  1
  S  S20  1  0.594608  0.797304  0.151354  1
  S  S21  1  0.811221  0.188779  0.654011  1
