# generated using pymatgen
data_TbPu3(TcB6)2
_symmetry_space_group_name_H-M   'P 1'
_cell_length_a   3.66613900
_cell_length_b   9.28632299
_cell_length_c   11.40315557
_cell_angle_alpha   90.09130742
_cell_angle_beta   90.00000000
_cell_angle_gamma   90.00000000
_symmetry_Int_Tables_number   1
_chemical_formula_structural   TbPu3(TcB6)2
_chemical_formula_sum   'Tb2 Pu6 Tc4 B24'
_cell_volume   388.21937825
_cell_formula_units_Z   2
loop_
 _symmetry_equiv_pos_site_id
 _symmetry_equiv_pos_as_xyz
  1  'x, y, z'
loop_
 _atom_site_type_symbol
 _atom_site_label
 _atom_site_symmetry_multiplicity
 _atom_site_fract_x
 _atom_site_fract_y
 _atom_site_fract_z
 _atom_site_occupancy
  Tb  Tb0  1  0.000000  0.336230  0.408640  1
  Tb  Tb1  1  0.000000  0.663770  0.591360  1
  Pu  Pu2  1  0.000000  0.835338  0.091217  1
  Pu  Pu3  1  0.000000  0.164662  0.908783  1
  Pu  Pu4  1  0.000000  0.953476  0.390019  1
  Pu  Pu5  1  0.000000  0.046524  0.609981  1
  Pu  Pu6  1  0.000000  0.454406  0.110476  1
  Pu  Pu7  1  0.000000  0.545594  0.889524  1
  Tc  Tc8  1  0.000000  0.646208  0.318222  1
  Tc  Tc9  1  0.000000  0.353792  0.681778  1
  Tc  Tc10  1  0.000000  0.144193  0.179911  1
  Tc  Tc11  1  0.000000  0.855807  0.820089  1
  B  B12  1  0.500000  0.553670  0.431385  1
  B  B13  1  0.500000  0.446330  0.568615  1
  B  B14  1  0.500000  0.053220  0.068206  1
  B  B15  1  0.500000  0.946780  0.931794  1
  B  B16  1  0.500000  0.745351  0.421669  1
  B  B17  1  0.500000  0.254649  0.578331  1
  B  B18  1  0.500000  0.244969  0.078018  1
  B  B19  1  0.500000  0.755031  0.921982  1
  B  B20  1  0.500000  0.801924  0.271607  1
  B  B21  1  0.500000  0.198076  0.728393  1
  B  B22  1  0.500000  0.301637  0.228186  1
  B  B23  1  0.500000  0.698363  0.771814  1
  B  B24  1  0.500000  0.642373  0.187781  1
  B  B25  1  0.500000  0.357627  0.812219  1
  B  B26  1  0.500000  0.141726  0.312208  1
  B  B27  1  0.500000  0.858274  0.687792  1
  B  B28  1  0.500000  0.988080  0.217720  1
  B  B29  1  0.500000  0.011920  0.782280  1
  B  B30  1  0.500000  0.488335  0.282022  1
  B  B31  1  0.500000  0.511665  0.717978  1
  B  B32  1  0.500000  0.637623  0.037705  1
  B  B33  1  0.500000  0.362377  0.962295  1
  B  B34  1  0.500000  0.136143  0.462426  1
  B  B35  1  0.500000  0.863857  0.537574  1
