# generated using pymatgen
data_Zr6SiSe
_symmetry_space_group_name_H-M   'P 1'
_cell_length_a   11.02848000
_cell_length_b   11.02848000
_cell_length_c   5.46734300
_cell_angle_alpha   90.00000000
_cell_angle_beta   90.00000000
_cell_angle_gamma   90.00000000
_symmetry_Int_Tables_number   1
_chemical_formula_structural   Zr6SiSe
_chemical_formula_sum   'Zr24 Si4 Se4'
_cell_volume   664.97855605
_cell_formula_units_Z   4
loop_
 _symmetry_equiv_pos_site_id
 _symmetry_equiv_pos_as_xyz
  1  'x, y, z'
loop_
 _atom_site_type_symbol
 _atom_site_label
 _atom_site_symmetry_multiplicity
 _atom_site_fract_x
 _atom_site_fract_y
 _atom_site_fract_z
 _atom_site_occupancy
  Zr  Zr0  1  0.916657  0.607389  0.536296  1
  Zr  Zr1  1  0.083343  0.392611  0.536296  1
  Zr  Zr2  1  0.892611  0.416657  0.036296  1
  Zr  Zr3  1  0.107389  0.583343  0.036296  1
  Zr  Zr4  1  0.582716  0.894999  0.964422  1
  Zr  Zr5  1  0.417284  0.105001  0.964422  1
  Zr  Zr6  1  0.605001  0.082716  0.464422  1
  Zr  Zr7  1  0.394999  0.917284  0.464422  1
  Zr  Zr8  1  0.863507  0.972457  0.718954  1
  Zr  Zr9  1  0.136493  0.027543  0.718954  1
  Zr  Zr10  1  0.527543  0.363507  0.218954  1
  Zr  Zr11  1  0.472457  0.636493  0.218954  1
  Zr  Zr12  1  0.640397  0.527194  0.781566  1
  Zr  Zr13  1  0.359603  0.472806  0.781566  1
  Zr  Zr14  1  0.972806  0.140397  0.281566  1
  Zr  Zr15  1  0.027194  0.859603  0.281566  1
  Zr  Zr16  1  0.819601  0.713696  0.009860  1
  Zr  Zr17  1  0.180399  0.286304  0.009860  1
  Zr  Zr18  1  0.786304  0.319601  0.509860  1
  Zr  Zr19  1  0.213696  0.680399  0.509860  1
  Zr  Zr20  1  0.681557  0.783342  0.487932  1
  Zr  Zr21  1  0.318443  0.216658  0.487932  1
  Zr  Zr22  1  0.716658  0.181557  0.987932  1
  Zr  Zr23  1  0.283342  0.818443  0.987932  1
  Si  Si24  1  0.705736  0.541229  0.288222  1
  Si  Si25  1  0.294264  0.458771  0.288222  1
  Si  Si26  1  0.958771  0.205736  0.788222  1
  Si  Si27  1  0.041229  0.794264  0.788222  1
  Se  Se28  1  0.793368  0.959640  0.212748  1
  Se  Se29  1  0.206632  0.040360  0.212748  1
  Se  Se30  1  0.540360  0.293368  0.712748  1
  Se  Se31  1  0.459640  0.706632  0.712748  1
