# generated using pymatgen
data_CaMg(Si7Rh3)2
_symmetry_space_group_name_H-M   'P 1'
_cell_length_a   7.96767046
_cell_length_b   7.96766974
_cell_length_c   7.96767100
_cell_angle_alpha   57.04270662
_cell_angle_beta   57.04270139
_cell_angle_gamma   57.04270109
_symmetry_Int_Tables_number   1
_chemical_formula_structural   CaMg(Si7Rh3)2
_chemical_formula_sum   'Ca1 Mg1 Si14 Rh6'
_cell_volume   333.28355603
_cell_formula_units_Z   1
loop_
 _symmetry_equiv_pos_site_id
 _symmetry_equiv_pos_as_xyz
  1  'x, y, z'
loop_
 _atom_site_type_symbol
 _atom_site_label
 _atom_site_symmetry_multiplicity
 _atom_site_fract_x
 _atom_site_fract_y
 _atom_site_fract_z
 _atom_site_occupancy
  Ca  Ca0  1  0.000000  0.000000  0.000000  1
  Mg  Mg1  1  0.500000  0.500000  0.500000  1
  Si  Si2  1  0.750464  0.750464  0.750464  1
  Si  Si3  1  0.249536  0.249536  0.249536  1
  Si  Si4  1  0.850811  0.067385  0.671382  1
  Si  Si5  1  0.671382  0.850811  0.067385  1
  Si  Si6  1  0.067385  0.671382  0.850811  1
  Si  Si7  1  0.649236  0.826443  0.434906  1
  Si  Si8  1  0.434906  0.649236  0.826443  1
  Si  Si9  1  0.826443  0.434906  0.649236  1
  Si  Si10  1  0.173557  0.565094  0.350764  1
  Si  Si11  1  0.565094  0.350764  0.173557  1
  Si  Si12  1  0.350764  0.173557  0.565094  1
  Si  Si13  1  0.932615  0.328618  0.149189  1
  Si  Si14  1  0.328618  0.149189  0.932615  1
  Si  Si15  1  0.149189  0.932615  0.328618  1
  Rh  Rh16  1  0.073743  0.430697  0.747770  1
  Rh  Rh17  1  0.252230  0.926257  0.569303  1
  Rh  Rh18  1  0.569303  0.252230  0.926257  1
  Rh  Rh19  1  0.926257  0.569303  0.252230  1
  Rh  Rh20  1  0.430697  0.747770  0.073743  1
  Rh  Rh21  1  0.747770  0.073743  0.430697  1
