# generated using pymatgen
data_Li14HfFeN8
_symmetry_space_group_name_H-M   'P 1'
_cell_length_a   6.90539300
_cell_length_b   6.90539300
_cell_length_c   4.92620300
_cell_angle_alpha   90.00000000
_cell_angle_beta   90.00000000
_cell_angle_gamma   90.00000000
_symmetry_Int_Tables_number   1
_chemical_formula_structural   Li14HfFeN8
_chemical_formula_sum   'Li14 Hf1 Fe1 N8'
_cell_volume   234.90329288
_cell_formula_units_Z   1
loop_
 _symmetry_equiv_pos_site_id
 _symmetry_equiv_pos_as_xyz
  1  'x, y, z'
loop_
 _atom_site_type_symbol
 _atom_site_label
 _atom_site_symmetry_multiplicity
 _atom_site_fract_x
 _atom_site_fract_y
 _atom_site_fract_z
 _atom_site_occupancy
  Li  Li0  1  0.500000  0.000000  0.541201  1
  Li  Li1  1  0.240167  0.759833  0.000000  1
  Li  Li2  1  0.000000  0.500000  0.928880  1
  Li  Li3  1  0.759833  0.240167  0.000000  1
  Li  Li4  1  0.268707  0.731293  0.500000  1
  Li  Li5  1  0.000000  0.000000  0.000000  1
  Li  Li6  1  0.500000  0.000000  0.071120  1
  Li  Li7  1  0.731293  0.731293  0.500000  1
  Li  Li8  1  0.268707  0.268707  0.500000  1
  Li  Li9  1  0.240167  0.240167  0.000000  1
  Li  Li10  1  0.759833  0.759833  0.000000  1
  Li  Li11  1  0.731293  0.268707  0.500000  1
  Li  Li12  1  0.000000  0.500000  0.458799  1
  Li  Li13  1  0.500000  0.500000  0.500000  1
  Hf  Hf14  1  0.000000  0.000000  0.500000  1
  Fe  Fe15  1  0.500000  0.500000  0.000000  1
  N  N16  1  0.000000  0.248732  0.727049  1
  N  N17  1  0.290555  0.500000  0.210682  1
  N  N18  1  0.500000  0.290555  0.789318  1
  N  N19  1  0.000000  0.751268  0.727049  1
  N  N20  1  0.500000  0.709445  0.789318  1
  N  N21  1  0.751268  0.000000  0.272951  1
  N  N22  1  0.709445  0.500000  0.210682  1
  N  N23  1  0.248732  0.000000  0.272951  1
