# generated using pymatgen
data_Tb5Pr4Y(Sn5Rh2)4
_symmetry_space_group_name_H-M   'P 1'
_cell_length_a   14.16653900
_cell_length_b   14.16669000
_cell_length_c   4.57474500
_cell_angle_alpha   90.00000000
_cell_angle_beta   90.00000000
_cell_angle_gamma   89.99930436
_symmetry_Int_Tables_number   1
_chemical_formula_structural   Tb5Pr4Y(Sn5Rh2)4
_chemical_formula_sum   'Tb5 Pr4 Y1 Sn20 Rh8'
_cell_volume   918.11914448
_cell_formula_units_Z   1
loop_
 _symmetry_equiv_pos_site_id
 _symmetry_equiv_pos_as_xyz
  1  'x, y, z'
loop_
 _atom_site_type_symbol
 _atom_site_label
 _atom_site_symmetry_multiplicity
 _atom_site_fract_x
 _atom_site_fract_y
 _atom_site_fract_z
 _atom_site_occupancy
  Tb  Tb0  1  0.499980  0.500012  0.000000  1
  Tb  Tb1  1  0.999989  0.000023  0.000000  1
  Tb  Tb2  1  0.677366  0.177412  0.500000  1
  Tb  Tb3  1  0.322590  0.822634  0.500000  1
  Tb  Tb4  1  0.177371  0.322630  0.500000  1
  Pr  Pr5  1  0.888087  0.388088  0.500000  1
  Pr  Pr6  1  0.111913  0.611916  0.500000  1
  Pr  Pr7  1  0.388050  0.111950  0.500000  1
  Pr  Pr8  1  0.611927  0.888073  0.500000  1
  Y  Y9  1  0.822665  0.677334  0.500000  1
  Sn  Sn10  1  0.570313  0.070293  0.000000  1
  Sn  Sn11  1  0.429707  0.929688  0.000000  1
  Sn  Sn12  1  0.070290  0.429711  0.000000  1
  Sn  Sn13  1  0.929635  0.570366  0.000000  1
  Sn  Sn14  1  0.654246  0.698023  0.000000  1
  Sn  Sn15  1  0.345800  0.301939  0.000000  1
  Sn  Sn16  1  0.154189  0.801932  0.000000  1
  Sn  Sn17  1  0.845831  0.198050  0.000000  1
  Sn  Sn18  1  0.301949  0.654171  0.000000  1
  Sn  Sn19  1  0.698068  0.345813  0.000000  1
  Sn  Sn20  1  0.198060  0.154200  0.000000  1
  Sn  Sn21  1  0.801978  0.845755  0.000000  1
  Sn  Sn22  1  0.661622  0.505655  0.500000  1
  Sn  Sn23  1  0.338412  0.494395  0.500000  1
  Sn  Sn24  1  0.161624  0.994407  0.500000  1
  Sn  Sn25  1  0.838423  0.005678  0.500000  1
  Sn  Sn26  1  0.494323  0.661577  0.500000  1
  Sn  Sn27  1  0.505594  0.338377  0.500000  1
  Sn  Sn28  1  0.005606  0.161587  0.500000  1
  Sn  Sn29  1  0.994345  0.838377  0.500000  1
  Rh  Rh30  1  0.746097  0.529311  0.000000  1
  Rh  Rh31  1  0.253939  0.470753  0.000000  1
  Rh  Rh32  1  0.246050  0.970709  0.000000  1
  Rh  Rh33  1  0.753942  0.029229  0.000000  1
  Rh  Rh34  1  0.470780  0.746054  0.000000  1
  Rh  Rh35  1  0.529300  0.253928  0.000000  1
  Rh  Rh36  1  0.029243  0.246058  0.000000  1
  Rh  Rh37  1  0.970694  0.753895  0.000000  1
