# generated using pymatgen
data_Tb3Y(CO)2
_symmetry_space_group_name_H-M   'P 1'
_cell_length_a   6.13718616
_cell_length_b   6.13718553
_cell_length_c   6.13718607
_cell_angle_alpha   132.11212809
_cell_angle_beta   132.21447765
_cell_angle_gamma   69.97125552
_symmetry_Int_Tables_number   1
_chemical_formula_structural   Tb3Y(CO)2
_chemical_formula_sum   'Tb3 Y1 C2 O2'
_cell_volume   124.52288231
_cell_formula_units_Z   1
loop_
 _symmetry_equiv_pos_site_id
 _symmetry_equiv_pos_as_xyz
  1  'x, y, z'
loop_
 _atom_site_type_symbol
 _atom_site_label
 _atom_site_symmetry_multiplicity
 _atom_site_fract_x
 _atom_site_fract_y
 _atom_site_fract_z
 _atom_site_occupancy
  Tb  Tb0  1  0.752669  0.752669  0.000000  1
  Tb  Tb1  1  0.247040  0.247040  0.000000  1
  Tb  Tb2  1  0.997078  0.497078  0.500000  1
  Y  Y3  1  0.502811  0.002811  0.500000  1
  C  C4  1  0.000173  0.000173  0.000000  1
  C  C5  1  0.749971  0.249971  0.500000  1
  O  O6  1  0.499964  0.499964  0.000000  1
  O  O7  1  0.250294  0.750294  0.500000  1
