# generated using pymatgen
data_Hf6Al16Ir2Rh2Au3
_symmetry_space_group_name_H-M   'P 1'
_cell_length_a   8.81364620
_cell_length_b   8.79047231
_cell_length_c   8.77255905
_cell_angle_alpha   60.02571958
_cell_angle_beta   59.97975809
_cell_angle_gamma   59.77820711
_symmetry_Int_Tables_number   1
_chemical_formula_structural   Hf6Al16Ir2Rh2Au3
_chemical_formula_sum   'Hf6 Al16 Ir2 Rh2 Au3'
_cell_volume   479.80375955
_cell_formula_units_Z   1
loop_
 _symmetry_equiv_pos_site_id
 _symmetry_equiv_pos_as_xyz
  1  'x, y, z'
loop_
 _atom_site_type_symbol
 _atom_site_label
 _atom_site_symmetry_multiplicity
 _atom_site_fract_x
 _atom_site_fract_y
 _atom_site_fract_z
 _atom_site_occupancy
  Hf  Hf0  1  0.681923  0.318077  0.318076  1
  Hf  Hf1  1  0.318077  0.681923  0.681924  1
  Hf  Hf2  1  0.318566  0.679631  0.320369  1
  Hf  Hf3  1  0.681434  0.320369  0.679631  1
  Hf  Hf4  1  0.316872  0.318632  0.681368  1
  Hf  Hf5  1  0.683128  0.681368  0.318632  1
  Al  Al6  1  0.331438  0.341759  0.334028  1
  Al  Al7  1  0.668562  0.658241  0.665972  1
  Al  Al8  1  0.337941  0.338813  0.994097  1
  Al  Al9  1  0.329149  0.994097  0.338813  1
  Al  Al10  1  0.662059  0.661187  0.005903  1
  Al  Al11  1  0.670851  0.005903  0.661187  1
  Al  Al12  1  0.992775  0.334028  0.341759  1
  Al  Al13  1  0.007225  0.665972  0.658241  1
  Al  Al14  1  0.108886  0.112889  0.131011  1
  Al  Al15  1  0.891114  0.887111  0.868989  1
  Al  Al16  1  0.107278  0.126805  0.643183  1
  Al  Al17  1  0.122735  0.643183  0.126805  1
  Al  Al18  1  0.892722  0.873195  0.356817  1
  Al  Al19  1  0.877265  0.356817  0.873195  1
  Al  Al20  1  0.647214  0.131011  0.112889  1
  Al  Al21  1  0.352786  0.868989  0.887111  1
  Ir  Ir22  1  0.000000  0.000000  0.500000  1
  Ir  Ir23  1  0.500000  0.500000  0.000000  1
  Rh  Rh24  1  0.000000  0.500000  0.500000  1
  Rh  Rh25  1  0.000000  0.000000  0.000000  1
  Au  Au26  1  0.500000  0.000000  0.000000  1
  Au  Au27  1  0.000000  0.500000  0.000000  1
  Au  Au28  1  0.500000  0.000000  0.500000  1
