# generated using pymatgen
data_NaLa4Fe8(CoP5)2
_symmetry_space_group_name_H-M   'P 1'
_cell_length_a   8.45688280
_cell_length_b   8.16250116
_cell_length_c   8.45714424
_cell_angle_alpha   58.80507488
_cell_angle_beta   89.98314394
_cell_angle_gamma   58.73226424
_symmetry_Int_Tables_number   1
_chemical_formula_structural   NaLa4Fe8(CoP5)2
_chemical_formula_sum   'Na1 La4 Fe8 Co2 P10'
_cell_volume   397.01397920
_cell_formula_units_Z   1
loop_
 _symmetry_equiv_pos_site_id
 _symmetry_equiv_pos_as_xyz
  1  'x, y, z'
loop_
 _atom_site_type_symbol
 _atom_site_label
 _atom_site_symmetry_multiplicity
 _atom_site_fract_x
 _atom_site_fract_y
 _atom_site_fract_z
 _atom_site_occupancy
  Na  Na0  1  0.999858  0.000040  0.000111  1
  La  La1  1  0.195899  0.999791  0.606482  1
  La  La2  1  0.393963  0.999521  0.196218  1
  La  La3  1  0.606659  0.999939  0.804320  1
  La  La4  1  0.803953  0.000796  0.392965  1
  Fe  Fe5  1  0.348206  0.501631  0.049436  1
  Fe  Fe6  1  0.551267  0.500110  0.650790  1
  Fe  Fe7  1  0.750037  0.499930  0.250955  1
  Fe  Fe8  1  0.851706  0.498100  0.553609  1
  Fe  Fe9  1  0.049714  0.502940  0.149562  1
  Fe  Fe10  1  0.248035  0.499918  0.748483  1
  Fe  Fe11  1  0.446358  0.501425  0.348381  1
  Fe  Fe12  1  0.654005  0.497632  0.949703  1
  Co  Co13  1  0.950815  0.497548  0.850735  1
  Co  Co14  1  0.149638  0.500966  0.447977  1
  P  P15  1  0.154101  0.295014  0.750905  1
  P  P16  1  0.353652  0.294222  0.350628  1
  P  P17  1  0.548980  0.300025  0.950549  1
  P  P18  1  0.748660  0.299591  0.548916  1
  P  P19  1  0.952276  0.297565  0.155443  1
  P  P20  1  0.645877  0.706024  0.646800  1
  P  P21  1  0.844436  0.703114  0.249437  1
  P  P22  1  0.048900  0.702460  0.847995  1
  P  P23  1  0.251176  0.702102  0.450849  1
  P  P24  1  0.451826  0.699596  0.048751  1
