# generated using pymatgen
data_CaYb(ZrH5)2
_symmetry_space_group_name_H-M   'P 1'
_cell_length_a   3.46597000
_cell_length_b   5.19236701
_cell_length_c   14.10152402
_cell_angle_alpha   90.00595759
_cell_angle_beta   90.00000000
_cell_angle_gamma   90.00000000
_symmetry_Int_Tables_number   1
_chemical_formula_structural   CaYb(ZrH5)2
_chemical_formula_sum   'Ca2 Yb2 Zr4 H20'
_cell_volume   253.77932045
_cell_formula_units_Z   2
loop_
 _symmetry_equiv_pos_site_id
 _symmetry_equiv_pos_as_xyz
  1  'x, y, z'
loop_
 _atom_site_type_symbol
 _atom_site_label
 _atom_site_symmetry_multiplicity
 _atom_site_fract_x
 _atom_site_fract_y
 _atom_site_fract_z
 _atom_site_occupancy
  Ca  Ca0  1  0.763579  0.499183  0.313200  1
  Ca  Ca1  1  0.263579  0.000817  0.686800  1
  Yb  Yb2  1  0.735545  0.501283  0.812854  1
  Yb  Yb3  1  0.235545  0.998717  0.187146  1
  Zr  Zr4  1  0.232747  0.000887  0.932814  1
  Zr  Zr5  1  0.732747  0.499113  0.067186  1
  Zr  Zr6  1  0.267419  0.999435  0.432375  1
  Zr  Zr7  1  0.767419  0.500565  0.567625  1
  H  H8  1  0.728222  0.755698  0.949960  1
  H  H9  1  0.228222  0.744302  0.050040  1
  H  H10  1  0.771995  0.242141  0.450999  1
  H  H11  1  0.271995  0.257859  0.549001  1
  H  H12  1  0.233670  0.754814  0.824094  1
  H  H13  1  0.733670  0.745186  0.175906  1
  H  H14  1  0.266127  0.244336  0.322778  1
  H  H15  1  0.766127  0.255664  0.677222  1
  H  H16  1  0.733690  0.252554  0.175614  1
  H  H17  1  0.233690  0.247446  0.824386  1
  H  H18  1  0.766086  0.746255  0.676932  1
  H  H19  1  0.266086  0.753745  0.323068  1
  H  H20  1  0.730299  0.001180  0.841033  1
  H  H21  1  0.230299  0.498820  0.158967  1
  H  H22  1  0.770393  0.998814  0.339320  1
  H  H23  1  0.270393  0.501186  0.660680  1
  H  H24  1  0.228302  0.253633  0.050614  1
  H  H25  1  0.728302  0.246367  0.949386  1
  H  H26  1  0.271926  0.743931  0.549558  1
  H  H27  1  0.771926  0.756069  0.450442  1
