# generated using pymatgen
data_Dy2Y8Ir5Au
_symmetry_space_group_name_H-M   'P 1'
_cell_length_a   11.08010535
_cell_length_b   11.02258400
_cell_length_c   6.36266702
_cell_angle_alpha   90.00000000
_cell_angle_beta   89.87783686
_cell_angle_gamma   90.00000000
_symmetry_Int_Tables_number   1
_chemical_formula_structural   Dy2Y8Ir5Au
_chemical_formula_sum   'Dy4 Y16 Ir10 Au2'
_cell_volume   777.07961301
_cell_formula_units_Z   2
loop_
 _symmetry_equiv_pos_site_id
 _symmetry_equiv_pos_as_xyz
  1  'x, y, z'
loop_
 _atom_site_type_symbol
 _atom_site_label
 _atom_site_symmetry_multiplicity
 _atom_site_fract_x
 _atom_site_fract_y
 _atom_site_fract_z
 _atom_site_occupancy
  Dy  Dy0  1  0.009521  0.997368  0.499867  1
  Dy  Dy1  1  0.009521  0.002632  0.999867  1
  Dy  Dy2  1  0.499685  0.498835  0.000396  1
  Dy  Dy3  1  0.499685  0.501165  0.500396  1
  Y  Y4  1  0.291955  0.088683  0.373389  1
  Y  Y5  1  0.291955  0.911317  0.873389  1
  Y  Y6  1  0.698295  0.092212  0.866605  1
  Y  Y7  1  0.698295  0.907788  0.366605  1
  Y  Y8  1  0.578648  0.789765  0.878338  1
  Y  Y9  1  0.578648  0.210235  0.378338  1
  Y  Y10  1  0.408117  0.791073  0.377928  1
  Y  Y11  1  0.408117  0.208927  0.877928  1
  Y  Y12  1  0.209628  0.411040  0.620502  1
  Y  Y13  1  0.209628  0.588960  0.120502  1
  Y  Y14  1  0.789164  0.419266  0.122253  1
  Y  Y15  1  0.789164  0.580734  0.622253  1
  Y  Y16  1  0.916898  0.705155  0.137865  1
  Y  Y17  1  0.916898  0.294845  0.637865  1
  Y  Y18  1  0.096096  0.702675  0.623155  1
  Y  Y19  1  0.096096  0.297325  0.123155  1
  Ir  Ir20  1  0.153599  0.153480  0.750426  1
  Ir  Ir21  1  0.153599  0.846520  0.250426  1
  Ir  Ir22  1  0.655363  0.346692  0.747763  1
  Ir  Ir23  1  0.655363  0.653308  0.247763  1
  Ir  Ir24  1  0.347901  0.346491  0.251626  1
  Ir  Ir25  1  0.347901  0.653509  0.751626  1
  Ir  Ir26  1  0.499793  0.999789  0.122141  1
  Ir  Ir27  1  0.499793  0.000211  0.622141  1
  Ir  Ir28  1  0.999634  0.501042  0.877709  1
  Ir  Ir29  1  0.999634  0.498958  0.377709  1
  Au  Au30  1  0.845705  0.154893  0.250034  1
  Au  Au31  1  0.845705  0.845107  0.750034  1
