# generated using pymatgen
data_Y3Mn2Co9B4
_symmetry_space_group_name_H-M   'P 1'
_cell_length_a   5.08025300
_cell_length_b   5.08298047
_cell_length_c   9.66744300
_cell_angle_alpha   89.99990505
_cell_angle_beta   90.00017872
_cell_angle_gamma   119.98225786
_symmetry_Int_Tables_number   1
_chemical_formula_structural   Y3Mn2Co9B4
_chemical_formula_sum   'Y3 Mn2 Co9 B4'
_cell_volume   216.23383469
_cell_formula_units_Z   1
loop_
 _symmetry_equiv_pos_site_id
 _symmetry_equiv_pos_as_xyz
  1  'x, y, z'
loop_
 _atom_site_type_symbol
 _atom_site_label
 _atom_site_symmetry_multiplicity
 _atom_site_fract_x
 _atom_site_fract_y
 _atom_site_fract_z
 _atom_site_occupancy
  Y  Y0  1  0.999983  0.000000  0.999987  1
  Y  Y1  1  0.999995  0.000000  0.341100  1
  Y  Y2  1  0.000002  0.000000  0.659000  1
  Mn  Mn3  1  0.333343  0.666723  0.999960  1
  Mn  Mn4  1  0.666620  0.333277  0.999960  1
  Co  Co5  1  0.499999  0.000000  0.500010  1
  Co  Co6  1  0.499997  0.500001  0.500031  1
  Co  Co7  1  0.999997  0.499999  0.500031  1
  Co  Co8  1  0.499992  0.000000  0.205502  1
  Co  Co9  1  0.499992  0.500000  0.205453  1
  Co  Co10  1  0.999992  0.500000  0.205453  1
  Co  Co11  1  0.500000  0.000000  0.794536  1
  Co  Co12  1  0.500000  0.500001  0.794481  1
  Co  Co13  1  0.999998  0.499999  0.794481  1
  B  B14  1  0.333342  0.666690  0.350461  1
  B  B15  1  0.666651  0.333310  0.350461  1
  B  B16  1  0.666734  0.333472  0.649549  1
  B  B17  1  0.333261  0.666528  0.649549  1
