# generated using pymatgen
data_K8Mg3Fe5P8(O7F2)4
_symmetry_space_group_name_H-M   'P 1'
_cell_length_a   6.94419900
_cell_length_b   10.57902200
_cell_length_c   11.41415900
_cell_angle_alpha   90.00000000
_cell_angle_beta   90.00000000
_cell_angle_gamma   90.00000000
_symmetry_Int_Tables_number   1
_chemical_formula_structural   K8Mg3Fe5P8(O7F2)4
_chemical_formula_sum   'K8 Mg3 Fe5 P8 O28 F8'
_cell_volume   838.51646779
_cell_formula_units_Z   1
loop_
 _symmetry_equiv_pos_site_id
 _symmetry_equiv_pos_as_xyz
  1  'x, y, z'
loop_
 _atom_site_type_symbol
 _atom_site_label
 _atom_site_symmetry_multiplicity
 _atom_site_fract_x
 _atom_site_fract_y
 _atom_site_fract_z
 _atom_site_occupancy
  K  K0  1  0.498066  0.062847  0.824201  1
  K  K1  1  0.000101  0.563261  0.675587  1
  K  K2  1  0.998563  0.936085  0.675505  1
  K  K3  1  0.502274  0.435680  0.826126  1
  K  K4  1  0.499990  0.935707  0.174588  1
  K  K5  1  0.001891  0.435349  0.325871  1
  K  K6  1  0.998867  0.065038  0.325731  1
  K  K7  1  0.500237  0.565510  0.172594  1
  Mg  Mg8  1  0.000831  0.248007  0.837284  1
  Mg  Mg9  1  0.500560  0.749720  0.662884  1
  Mg  Mg10  1  0.000686  0.000885  0.998070  1
  Fe  Fe11  1  0.999238  0.752007  0.163228  1
  Fe  Fe12  1  0.499690  0.250253  0.336457  1
  Fe  Fe13  1  0.499616  0.500840  0.501591  1
  Fe  Fe14  1  0.500004  0.999306  0.501796  1
  Fe  Fe15  1  0.999800  0.499249  0.998272  1
  P  P16  1  0.215675  0.246713  0.581270  1
  P  P17  1  0.283554  0.749430  0.918315  1
  P  P18  1  0.716574  0.753475  0.918992  1
  P  P19  1  0.783774  0.251804  0.582163  1
  P  P20  1  0.782913  0.753530  0.422248  1
  P  P21  1  0.717545  0.251054  0.078162  1
  P  P22  1  0.282070  0.246245  0.077527  1
  P  P23  1  0.217536  0.747792  0.421413  1
  O  O24  1  0.999779  0.249601  0.521199  1
  O  O25  1  0.499254  0.752529  0.979030  1
  O  O26  1  0.000189  0.750330  0.480337  1
  O  O27  1  0.500614  0.247634  0.019476  1
  O  O28  1  0.172750  0.324460  0.984263  1
  O  O29  1  0.328934  0.824154  0.514816  1
  O  O30  1  0.671923  0.676107  0.514736  1
  O  O31  1  0.830154  0.170945  0.988330  1
  O  O32  1  0.825976  0.671703  0.009291  1
  O  O33  1  0.671919  0.171980  0.491741  1
  O  O34  1  0.327248  0.327761  0.492026  1
  O  O35  1  0.170863  0.833186  0.004864  1
  O  O36  1  0.277232  0.107586  0.584262  1
  O  O37  1  0.221226  0.610334  0.917397  1
  O  O38  1  0.781026  0.891489  0.915627  1
  O  O39  1  0.723200  0.390573  0.587114  1
  O  O40  1  0.722976  0.892883  0.416296  1
  O  O41  1  0.778005  0.390439  0.082082  1
  O  O42  1  0.219462  0.107949  0.083515  1
  O  O43  1  0.276411  0.608787  0.413711  1
  O  O44  1  0.198404  0.304702  0.703874  1
  O  O45  1  0.302680  0.805224  0.795006  1
  O  O46  1  0.697395  0.693293  0.797426  1
  O  O47  1  0.803220  0.191123  0.703504  1
  O  O48  1  0.795082  0.691783  0.300942  1
  O  O49  1  0.703877  0.191575  0.200353  1
  O  O50  1  0.295943  0.309689  0.197975  1
  O  O51  1  0.203444  0.811865  0.301259  1
  F  F52  1  0.103783  0.074703  0.850401  1
  F  F53  1  0.393434  0.576476  0.653937  1
  F  F54  1  0.612603  0.919844  0.654279  1
  F  F55  1  0.888374  0.418319  0.845335  1
  F  F56  1  0.894898  0.929460  0.147920  1
  F  F57  1  0.609217  0.427388  0.347207  1
  F  F58  1  0.384858  0.076488  0.346507  1
  F  F59  1  0.113592  0.577851  0.154086  1
