# generated using pymatgen
data_Lu3ThCdOs
_symmetry_space_group_name_H-M   'P 1'
_cell_length_a   9.60114930
_cell_length_b   9.60114899
_cell_length_c   9.60114900
_cell_angle_alpha   59.99999650
_cell_angle_beta   59.99999760
_cell_angle_gamma   59.99999730
_symmetry_Int_Tables_number   1
_chemical_formula_structural   Lu3ThCdOs
_chemical_formula_sum   'Lu12 Th4 Cd4 Os4'
_cell_volume   625.82746065
_cell_formula_units_Z   4
loop_
 _symmetry_equiv_pos_site_id
 _symmetry_equiv_pos_as_xyz
  1  'x, y, z'
loop_
 _atom_site_type_symbol
 _atom_site_label
 _atom_site_symmetry_multiplicity
 _atom_site_fract_x
 _atom_site_fract_y
 _atom_site_fract_z
 _atom_site_occupancy
  Lu  Lu0  1  0.812425  0.187575  0.187575  1
  Lu  Lu1  1  0.187575  0.812425  0.812425  1
  Lu  Lu2  1  0.187575  0.812425  0.187575  1
  Lu  Lu3  1  0.812425  0.187575  0.812425  1
  Lu  Lu4  1  0.187575  0.187575  0.812425  1
  Lu  Lu5  1  0.812425  0.812425  0.187575  1
  Lu  Lu6  1  0.936327  0.563673  0.563673  1
  Lu  Lu7  1  0.563673  0.936327  0.936327  1
  Lu  Lu8  1  0.563673  0.936327  0.563673  1
  Lu  Lu9  1  0.936327  0.563673  0.936327  1
  Lu  Lu10  1  0.563673  0.563673  0.936327  1
  Lu  Lu11  1  0.936327  0.936327  0.563673  1
  Th  Th12  1  0.349090  0.349090  0.349090  1
  Th  Th13  1  0.349090  0.349090  0.952730  1
  Th  Th14  1  0.349090  0.952730  0.349090  1
  Th  Th15  1  0.952730  0.349090  0.349090  1
  Cd  Cd16  1  0.583476  0.583476  0.583476  1
  Cd  Cd17  1  0.583476  0.583476  0.249571  1
  Cd  Cd18  1  0.583476  0.249571  0.583476  1
  Cd  Cd19  1  0.249571  0.583476  0.583476  1
  Os  Os20  1  0.140945  0.140945  0.140945  1
  Os  Os21  1  0.140945  0.140945  0.577163  1
  Os  Os22  1  0.140945  0.577163  0.140945  1
  Os  Os23  1  0.577163  0.140945  0.140945  1
