# generated using pymatgen
data_ScUIr6
_symmetry_space_group_name_H-M   'P 1'
_cell_length_a   5.65028718
_cell_length_b   5.65028713
_cell_length_c   5.65028700
_cell_angle_alpha   59.99999492
_cell_angle_beta   59.99999520
_cell_angle_gamma   59.99999990
_symmetry_Int_Tables_number   1
_chemical_formula_structural   ScUIr6
_chemical_formula_sum   'Sc1 U1 Ir6'
_cell_volume   127.55471510
_cell_formula_units_Z   1
loop_
 _symmetry_equiv_pos_site_id
 _symmetry_equiv_pos_as_xyz
  1  'x, y, z'
loop_
 _atom_site_type_symbol
 _atom_site_label
 _atom_site_symmetry_multiplicity
 _atom_site_fract_x
 _atom_site_fract_y
 _atom_site_fract_z
 _atom_site_occupancy
  Sc  Sc0  1  0.000000  0.000000  0.000000  1
  U  U1  1  0.500000  0.500000  0.500000  1
  Ir  Ir2  1  0.500000  0.000000  0.000000  1
  Ir  Ir3  1  0.000000  0.500000  0.000000  1
  Ir  Ir4  1  0.500000  0.500000  0.000000  1
  Ir  Ir5  1  0.000000  0.000000  0.500000  1
  Ir  Ir6  1  0.500000  0.000000  0.500000  1
  Ir  Ir7  1  0.000000  0.500000  0.500000  1
