# generated using pymatgen
data_Gd3Dy(ErSb5)4
_symmetry_space_group_name_H-M   'P 1'
_cell_length_a   4.23882800
_cell_length_b   13.15185825
_cell_length_c   14.63737800
_cell_angle_alpha   77.71064053
_cell_angle_beta   90.00000000
_cell_angle_gamma   90.00000000
_symmetry_Int_Tables_number   1
_chemical_formula_structural   Gd3Dy(ErSb5)4
_chemical_formula_sum   'Gd3 Dy1 Er4 Sb20'
_cell_volume   797.31255310
_cell_formula_units_Z   1
loop_
 _symmetry_equiv_pos_site_id
 _symmetry_equiv_pos_as_xyz
  1  'x, y, z'
loop_
 _atom_site_type_symbol
 _atom_site_label
 _atom_site_symmetry_multiplicity
 _atom_site_fract_x
 _atom_site_fract_y
 _atom_site_fract_z
 _atom_site_occupancy
  Gd  Gd0  1  0.250000  0.669031  0.577137  1
  Gd  Gd1  1  0.750000  0.330772  0.423429  1
  Gd  Gd2  1  0.250000  0.952087  0.359716  1
  Dy  Dy3  1  0.750000  0.047927  0.639968  1
  Er  Er4  1  0.250000  0.395331  0.773124  1
  Er  Er5  1  0.750000  0.604399  0.226705  1
  Er  Er6  1  0.250000  0.662504  0.856067  1
  Er  Er7  1  0.750000  0.337921  0.143552  1
  Sb  Sb8  1  0.250000  0.144103  0.781117  1
  Sb  Sb9  1  0.750000  0.855059  0.218084  1
  Sb  Sb10  1  0.250000  0.142825  0.482567  1
  Sb  Sb11  1  0.750000  0.857676  0.518812  1
  Sb  Sb12  1  0.250000  0.154247  0.172018  1
  Sb  Sb13  1  0.750000  0.846336  0.828097  1
  Sb  Sb14  1  0.250000  0.420528  0.976313  1
  Sb  Sb15  1  0.750000  0.579629  0.023355  1
  Sb  Sb16  1  0.750000  0.030519  0.904952  1
  Sb  Sb17  1  0.250000  0.969625  0.095113  1
  Sb  Sb18  1  0.750000  0.139559  0.321228  1
  Sb  Sb19  1  0.250000  0.861570  0.678513  1
  Sb  Sb20  1  0.750000  0.280163  0.938930  1
  Sb  Sb21  1  0.250000  0.719885  0.060842  1
  Sb  Sb22  1  0.750000  0.288713  0.654507  1
  Sb  Sb23  1  0.250000  0.710386  0.345689  1
  Sb  Sb24  1  0.750000  0.575195  0.737437  1
  Sb  Sb25  1  0.250000  0.424602  0.262505  1
  Sb  Sb26  1  0.750000  0.573909  0.444731  1
  Sb  Sb27  1  0.250000  0.425498  0.555493  1
