# generated using pymatgen
data_Ti2VSi2Mo
_symmetry_space_group_name_H-M   'P 1'
_cell_length_a   6.68099400
_cell_length_b   3.34032300
_cell_length_c   8.01394900
_cell_angle_alpha   90.00000000
_cell_angle_beta   90.00000000
_cell_angle_gamma   90.00000000
_symmetry_Int_Tables_number   1
_chemical_formula_structural   Ti2VSi2Mo
_chemical_formula_sum   'Ti4 V2 Si4 Mo2'
_cell_volume   178.84471871
_cell_formula_units_Z   2
loop_
 _symmetry_equiv_pos_site_id
 _symmetry_equiv_pos_as_xyz
  1  'x, y, z'
loop_
 _atom_site_type_symbol
 _atom_site_label
 _atom_site_symmetry_multiplicity
 _atom_site_fract_x
 _atom_site_fract_y
 _atom_site_fract_z
 _atom_site_occupancy
  Ti  Ti0  1  0.051526  0.249999  0.166987  1
  Ti  Ti1  1  0.551525  0.249999  0.333013  1
  Ti  Ti2  1  0.450824  0.750001  0.667292  1
  Ti  Ti3  1  0.950823  0.750001  0.832708  1
  V  V4  1  0.127722  0.249999  0.563461  1
  V  V5  1  0.627721  0.249999  0.936538  1
  Si  Si6  1  0.753090  0.750001  0.134661  1
  Si  Si7  1  0.253089  0.750001  0.365338  1
  Si  Si8  1  0.746779  0.249999  0.643709  1
  Si  Si9  1  0.246779  0.249999  0.856290  1
  Mo  Mo10  1  0.370061  0.750001  0.061528  1
  Mo  Mo11  1  0.870060  0.750001  0.438472  1
