# generated using pymatgen
data_Ca6CdHg12Pb5
_symmetry_space_group_name_H-M   'P 1'
_cell_length_a   5.27122601
_cell_length_b   7.62450200
_cell_length_c   16.13327800
_cell_angle_alpha   90.00000000
_cell_angle_beta   90.00359899
_cell_angle_gamma   90.00000000
_symmetry_Int_Tables_number   1
_chemical_formula_structural   Ca6CdHg12Pb5
_chemical_formula_sum   'Ca6 Cd1 Hg12 Pb5'
_cell_volume   648.40407630
_cell_formula_units_Z   1
loop_
 _symmetry_equiv_pos_site_id
 _symmetry_equiv_pos_as_xyz
  1  'x, y, z'
loop_
 _atom_site_type_symbol
 _atom_site_label
 _atom_site_symmetry_multiplicity
 _atom_site_fract_x
 _atom_site_fract_y
 _atom_site_fract_z
 _atom_site_occupancy
  Ca  Ca0  1  0.000002  0.000000  0.999647  1
  Ca  Ca1  1  0.499983  0.500000  0.161582  1
  Ca  Ca2  1  0.999993  0.000000  0.333424  1
  Ca  Ca3  1  0.500004  0.500000  0.504989  1
  Ca  Ca4  1  0.000010  0.000000  0.666932  1
  Ca  Ca5  1  0.500014  0.500000  0.833418  1
  Cd  Cd6  1  0.500013  0.000000  0.833278  1
  Hg  Hg7  1  0.500000  0.241128  0.993151  1
  Hg  Hg8  1  0.500000  0.758873  0.993151  1
  Hg  Hg9  1  0.999985  0.249049  0.167639  1
  Hg  Hg10  1  0.999985  0.750951  0.167639  1
  Hg  Hg11  1  0.499994  0.250479  0.333328  1
  Hg  Hg12  1  0.499994  0.749521  0.333328  1
  Hg  Hg13  1  0.000008  0.249292  0.499018  1
  Hg  Hg14  1  0.000008  0.750708  0.499018  1
  Hg  Hg15  1  0.500009  0.241254  0.673532  1
  Hg  Hg16  1  0.500009  0.758746  0.673532  1
  Hg  Hg17  1  0.000014  0.247054  0.833338  1
  Hg  Hg18  1  0.000014  0.752946  0.833338  1
  Pb  Pb19  1  0.999998  0.500000  0.999926  1
  Pb  Pb20  1  0.499964  0.000000  0.165249  1
  Pb  Pb21  1  0.999989  0.500000  0.333258  1
  Pb  Pb22  1  0.500005  0.000000  0.501449  1
  Pb  Pb23  1  0.000005  0.500000  0.666836  1
