# generated using pymatgen
data_Sr2Li3Cd14
_symmetry_space_group_name_H-M   'P 1'
_cell_length_a   7.68689595
_cell_length_b   7.68689656
_cell_length_c   7.68689579
_cell_angle_alpha   82.61920023
_cell_angle_beta   82.61921078
_cell_angle_gamma   82.61918678
_symmetry_Int_Tables_number   1
_chemical_formula_structural   Sr2Li3Cd14
_chemical_formula_sum   'Sr2 Li3 Cd14'
_cell_volume   443.80651472
_cell_formula_units_Z   1
loop_
 _symmetry_equiv_pos_site_id
 _symmetry_equiv_pos_as_xyz
  1  'x, y, z'
loop_
 _atom_site_type_symbol
 _atom_site_label
 _atom_site_symmetry_multiplicity
 _atom_site_fract_x
 _atom_site_fract_y
 _atom_site_fract_z
 _atom_site_occupancy
  Sr  Sr0  1  0.343363  0.343363  0.343363  1
  Sr  Sr1  1  0.656637  0.656637  0.656637  1
  Li  Li2  1  0.000000  0.000000  0.500000  1
  Li  Li3  1  0.500000  0.000000  0.000000  1
  Li  Li4  1  0.000000  0.500000  0.000000  1
  Cd  Cd5  1  0.295920  0.704080  0.000000  1
  Cd  Cd6  1  0.853662  0.346434  0.346434  1
  Cd  Cd7  1  0.653566  0.146338  0.653566  1
  Cd  Cd8  1  0.105924  0.105924  0.105924  1
  Cd  Cd9  1  0.295920  0.000000  0.704080  1
  Cd  Cd10  1  0.704080  0.295920  0.000000  1
  Cd  Cd11  1  0.346434  0.346434  0.853662  1
  Cd  Cd12  1  0.894076  0.894076  0.894076  1
  Cd  Cd13  1  0.000000  0.704080  0.295920  1
  Cd  Cd14  1  0.704080  0.000000  0.295920  1
  Cd  Cd15  1  0.346434  0.853662  0.346434  1
  Cd  Cd16  1  0.146338  0.653566  0.653566  1
  Cd  Cd17  1  0.653566  0.653566  0.146338  1
  Cd  Cd18  1  0.000000  0.295920  0.704080  1
