# generated using pymatgen
data_GdNp7H24
_symmetry_space_group_name_H-M   'P 1'
_cell_length_a   6.64580700
_cell_length_b   6.58888400
_cell_length_c   6.58888400
_cell_angle_alpha   90.00000000
_cell_angle_beta   90.00000000
_cell_angle_gamma   90.00000000
_symmetry_Int_Tables_number   1
_chemical_formula_structural   GdNp7H24
_chemical_formula_sum   'Gd1 Np7 H24'
_cell_volume   288.51702688
_cell_formula_units_Z   1
loop_
 _symmetry_equiv_pos_site_id
 _symmetry_equiv_pos_as_xyz
  1  'x, y, z'
loop_
 _atom_site_type_symbol
 _atom_site_label
 _atom_site_symmetry_multiplicity
 _atom_site_fract_x
 _atom_site_fract_y
 _atom_site_fract_z
 _atom_site_occupancy
  Gd  Gd0  1  0.250000  0.000000  0.500000  1
  Np  Np1  1  0.999368  0.000000  0.000000  1
  Np  Np2  1  0.500632  0.500000  0.500000  1
  Np  Np3  1  0.750000  0.000000  0.500000  1
  Np  Np4  1  0.000237  0.500000  0.250807  1
  Np  Np5  1  0.000237  0.500000  0.749193  1
  Np  Np6  1  0.499763  0.750807  0.000000  1
  Np  Np7  1  0.499763  0.249193  0.000000  1
  H  H8  1  0.995700  0.155172  0.303522  1
  H  H9  1  0.504300  0.196478  0.655172  1
  H  H10  1  0.504300  0.803522  0.344828  1
  H  H11  1  0.804285  0.655089  0.500000  1
  H  H12  1  0.197101  0.653132  0.500000  1
  H  H13  1  0.344422  0.500000  0.803418  1
  H  H14  1  0.655475  0.500000  0.804607  1
  H  H15  1  0.302899  0.000000  0.153132  1
  H  H16  1  0.155578  0.303418  0.000000  1
  H  H17  1  0.844525  0.695393  0.000000  1
  H  H18  1  0.302899  0.000000  0.846868  1
  H  H19  1  0.844525  0.304607  0.000000  1
  H  H20  1  0.695715  0.000000  0.155089  1
  H  H21  1  0.695715  0.000000  0.844911  1
  H  H22  1  0.155578  0.696582  0.000000  1
  H  H23  1  0.995700  0.844828  0.696478  1
  H  H24  1  0.995700  0.155172  0.696478  1
  H  H25  1  0.995700  0.844828  0.303522  1
  H  H26  1  0.655475  0.500000  0.195393  1
  H  H27  1  0.344422  0.500000  0.196582  1
  H  H28  1  0.804285  0.344911  0.500000  1
  H  H29  1  0.197101  0.346868  0.500000  1
  H  H30  1  0.504300  0.803522  0.655172  1
  H  H31  1  0.504300  0.196478  0.344828  1
