# generated using pymatgen
data_PrYCo4(B2Ru)4
_symmetry_space_group_name_H-M   'P 1'
_cell_length_a   7.28616713
_cell_length_b   7.25536313
_cell_length_c   3.91924700
_cell_angle_alpha   90.00000000
_cell_angle_beta   90.00000000
_cell_angle_gamma   90.02145826
_symmetry_Int_Tables_number   1
_chemical_formula_structural   PrYCo4(B2Ru)4
_chemical_formula_sum   'Pr1 Y1 Co4 B8 Ru4'
_cell_volume   207.18622924
_cell_formula_units_Z   1
loop_
 _symmetry_equiv_pos_site_id
 _symmetry_equiv_pos_as_xyz
  1  'x, y, z'
loop_
 _atom_site_type_symbol
 _atom_site_label
 _atom_site_symmetry_multiplicity
 _atom_site_fract_x
 _atom_site_fract_y
 _atom_site_fract_z
 _atom_site_occupancy
  Pr  Pr0  1  0.500000  0.500000  0.578591  1
  Y  Y1  1  0.000000  0.000000  0.089978  1
  Co  Co2  1  0.622981  0.115962  0.377245  1
  Co  Co3  1  0.377019  0.884038  0.377245  1
  Co  Co4  1  0.617641  0.878708  0.877672  1
  Co  Co5  1  0.382359  0.121292  0.877672  1
  B  B6  1  0.339529  0.822093  0.881799  1
  B  B7  1  0.660471  0.177907  0.881799  1
  B  B8  1  0.316089  0.156504  0.379150  1
  B  B9  1  0.683911  0.843496  0.379150  1
  B  B10  1  0.171471  0.733656  0.598478  1
  B  B11  1  0.828529  0.266344  0.598478  1
  B  B12  1  0.223978  0.324668  0.097661  1
  B  B13  1  0.776022  0.675332  0.097661  1
  Ru  Ru14  1  0.843632  0.388338  0.101986  1
  Ru  Ru15  1  0.156368  0.611662  0.101986  1
  Ru  Ru16  1  0.890809  0.662711  0.601724  1
  Ru  Ru17  1  0.109191  0.337289  0.601724  1
