# generated using pymatgen
data_Cs2Np(Br2O)2
_symmetry_space_group_name_H-M   'P 1'
_cell_length_a   10.17355752
_cell_length_b   9.95009200
_cell_length_c   6.65374388
_cell_angle_alpha   90.00000000
_cell_angle_beta   105.09407426
_cell_angle_gamma   90.00000000
_symmetry_Int_Tables_number   1
_chemical_formula_structural   Cs2Np(Br2O)2
_chemical_formula_sum   'Cs4 Np2 Br8 O4'
_cell_volume   650.30651491
_cell_formula_units_Z   2
loop_
 _symmetry_equiv_pos_site_id
 _symmetry_equiv_pos_as_xyz
  1  'x, y, z'
loop_
 _atom_site_type_symbol
 _atom_site_label
 _atom_site_symmetry_multiplicity
 _atom_site_fract_x
 _atom_site_fract_y
 _atom_site_fract_z
 _atom_site_occupancy
  Cs  Cs0  1  0.163427  0.616276  0.320256  1
  Cs  Cs1  1  0.663428  0.883725  0.320257  1
  Cs  Cs2  1  0.336573  0.116276  0.679744  1
  Cs  Cs3  1  0.836574  0.383725  0.679744  1
  Np  Np4  1  0.000000  0.000000  0.000000  1
  Np  Np5  1  0.500000  0.500000  0.000000  1
  Br  Br6  1  0.279669  0.941584  0.161176  1
  Br  Br7  1  0.779669  0.558416  0.161177  1
  Br  Br8  1  0.525258  0.269737  0.254400  1
  Br  Br9  1  0.025258  0.230263  0.254401  1
  Br  Br10  1  0.474742  0.730263  0.745599  1
  Br  Br11  1  0.974741  0.769737  0.745599  1
  Br  Br12  1  0.720331  0.058416  0.838823  1
  Br  Br13  1  0.220331  0.441584  0.838824  1
  O  O14  1  0.461730  0.600504  0.200818  1
  O  O15  1  0.961730  0.899495  0.200818  1
  O  O16  1  0.538270  0.399496  0.799182  1
  O  O17  1  0.038270  0.100504  0.799183  1
