# generated using pymatgen
data_Er5Lu11(In3Co)2
_symmetry_space_group_name_H-M   'P 1'
_cell_length_a   10.17188009
_cell_length_b   10.17188051
_cell_length_c   6.89906500
_cell_angle_alpha   90.00281045
_cell_angle_beta   89.99719374
_cell_angle_gamma   119.98485177
_symmetry_Int_Tables_number   1
_chemical_formula_structural   Er5Lu11(In3Co)2
_chemical_formula_sum   'Er5 Lu11 In6 Co2'
_cell_volume   618.28629736
_cell_formula_units_Z   1
loop_
 _symmetry_equiv_pos_site_id
 _symmetry_equiv_pos_as_xyz
  1  'x, y, z'
loop_
 _atom_site_type_symbol
 _atom_site_label
 _atom_site_symmetry_multiplicity
 _atom_site_fract_x
 _atom_site_fract_y
 _atom_site_fract_z
 _atom_site_occupancy
  Er  Er0  1  0.533622  0.067222  0.521753  1
  Er  Er1  1  0.932778  0.466378  0.521753  1
  Er  Er2  1  0.533443  0.466557  0.521930  1
  Er  Er3  1  0.466354  0.932589  0.021716  1
  Er  Er4  1  0.067411  0.533646  0.021716  1
  Lu  Lu5  1  0.465989  0.534011  0.022017  1
  Lu  Lu6  1  0.179167  0.357577  0.729604  1
  Lu  Lu7  1  0.642423  0.820833  0.729604  1
  Lu  Lu8  1  0.178603  0.821397  0.729059  1
  Lu  Lu9  1  0.820848  0.642601  0.228609  1
  Lu  Lu10  1  0.357399  0.179152  0.228609  1
  Lu  Lu11  1  0.821474  0.178526  0.229004  1
  Lu  Lu12  1  0.666419  0.333581  0.912885  1
  Lu  Lu13  1  0.333610  0.666390  0.412551  1
  Lu  Lu14  1  0.000043  0.999957  0.507893  1
  Lu  Lu15  1  0.000003  0.999997  0.007976  1
  In  In16  1  0.836960  0.673917  0.769714  1
  In  In17  1  0.326083  0.163040  0.769714  1
  In  In18  1  0.836954  0.163046  0.769536  1
  In  In19  1  0.163367  0.326352  0.269368  1
  In  In20  1  0.673648  0.836633  0.269368  1
  In  In21  1  0.163018  0.836982  0.269727  1
  Co  Co22  1  0.666700  0.333300  0.295630  1
  Co  Co23  1  0.333683  0.666317  0.795945  1
