# generated using pymatgen
data_Sm6Mg(SiS7)2
_symmetry_space_group_name_H-M   'P 1'
_cell_length_a   10.11543600
_cell_length_b   10.11543603
_cell_length_c   5.67820900
_cell_angle_alpha   90.00000000
_cell_angle_beta   90.00000000
_cell_angle_gamma   120.00000645
_symmetry_Int_Tables_number   1
_chemical_formula_structural   Sm6Mg(SiS7)2
_chemical_formula_sum   'Sm6 Mg1 Si2 S14'
_cell_volume   503.16588928
_cell_formula_units_Z   1
loop_
 _symmetry_equiv_pos_site_id
 _symmetry_equiv_pos_as_xyz
  1  'x, y, z'
loop_
 _atom_site_type_symbol
 _atom_site_label
 _atom_site_symmetry_multiplicity
 _atom_site_fract_x
 _atom_site_fract_y
 _atom_site_fract_z
 _atom_site_occupancy
  Sm  Sm0  1  0.975936  0.432984  0.751944  1
  Sm  Sm1  1  0.457047  0.024064  0.751944  1
  Sm  Sm2  1  0.567016  0.542953  0.751944  1
  Sm  Sm3  1  0.690251  0.900031  0.247171  1
  Sm  Sm4  1  0.209781  0.309749  0.247171  1
  Sm  Sm5  1  0.099969  0.790219  0.247171  1
  Mg  Mg6  1  0.333333  0.666667  0.514025  1
  Si  Si7  1  0.666667  0.333333  0.164882  1
  Si  Si8  1  0.000000  0.000000  0.659060  1
  S  S9  1  0.666667  0.333333  0.535193  1
  S  S10  1  0.000000  0.000000  0.030070  1
  S  S11  1  0.084461  0.504776  0.274931  1
  S  S12  1  0.420316  0.915539  0.274931  1
  S  S13  1  0.495224  0.579684  0.274931  1
  S  S14  1  0.581815  0.830694  0.756305  1
  S  S15  1  0.248879  0.418185  0.756305  1
  S  S16  1  0.169306  0.751121  0.756305  1
  S  S17  1  0.812012  0.555667  0.017155  1
  S  S18  1  0.743654  0.187988  0.017155  1
  S  S19  1  0.444333  0.256346  0.017155  1
  S  S20  1  0.854694  0.777462  0.512762  1
  S  S21  1  0.922769  0.145306  0.512762  1
  S  S22  1  0.222538  0.077231  0.512762  1
