# generated using pymatgen
data_Li3Ca2ErAu3
_symmetry_space_group_name_H-M   'P 1'
_cell_length_a   7.42878600
_cell_length_b   7.42878360
_cell_length_c   4.18182600
_cell_angle_alpha   90.00000000
_cell_angle_beta   90.00000000
_cell_angle_gamma   119.98571788
_symmetry_Int_Tables_number   1
_chemical_formula_structural   Li3Ca2ErAu3
_chemical_formula_sum   'Li3 Ca2 Er1 Au3'
_cell_volume   199.89163917
_cell_formula_units_Z   1
loop_
 _symmetry_equiv_pos_site_id
 _symmetry_equiv_pos_as_xyz
  1  'x, y, z'
loop_
 _atom_site_type_symbol
 _atom_site_label
 _atom_site_symmetry_multiplicity
 _atom_site_fract_x
 _atom_site_fract_y
 _atom_site_fract_z
 _atom_site_occupancy
  Li  Li0  1  0.238163  0.000121  0.500000  1
  Li  Li1  1  0.000121  0.238163  0.500000  1
  Li  Li2  1  0.762611  0.762611  0.500000  1
  Ca  Ca3  1  0.589006  0.998658  0.000000  1
  Ca  Ca4  1  0.998658  0.589006  0.000000  1
  Er  Er5  1  0.408664  0.408664  0.000000  1
  Au  Au6  1  0.338045  0.651929  0.500000  1
  Au  Au7  1  0.651929  0.338045  0.500000  1
  Au  Au8  1  0.012802  0.012802  0.000000  1
