# generated using pymatgen
data_Pu4MgSn3
_symmetry_space_group_name_H-M   'P 1'
_cell_length_a   8.99790834
_cell_length_b   8.99790748
_cell_length_c   8.99790917
_cell_angle_alpha   96.26472544
_cell_angle_beta   96.26471271
_cell_angle_gamma   141.42161068
_symmetry_Int_Tables_number   1
_chemical_formula_structural   Pu4MgSn3
_chemical_formula_sum   'Pu8 Mg2 Sn6'
_cell_volume   428.77477934
_cell_formula_units_Z   2
loop_
 _symmetry_equiv_pos_site_id
 _symmetry_equiv_pos_as_xyz
  1  'x, y, z'
loop_
 _atom_site_type_symbol
 _atom_site_label
 _atom_site_symmetry_multiplicity
 _atom_site_fract_x
 _atom_site_fract_y
 _atom_site_fract_z
 _atom_site_occupancy
  Pu  Pu0  1  0.086343  0.224835  0.311177  1
  Pu  Pu1  1  0.913657  0.775165  0.688823  1
  Pu  Pu2  1  0.775165  0.086343  0.861508  1
  Pu  Pu3  1  0.413657  0.724835  0.138492  1
  Pu  Pu4  1  0.224835  0.913657  0.138492  1
  Pu  Pu5  1  0.586343  0.275165  0.861508  1
  Pu  Pu6  1  0.724835  0.586343  0.311177  1
  Pu  Pu7  1  0.275165  0.413657  0.688823  1
  Mg  Mg8  1  0.250000  0.750000  0.500000  1
  Mg  Mg9  1  0.750000  0.250000  0.500000  1
  Sn  Sn10  1  0.153168  0.653168  0.806337  1
  Sn  Sn11  1  0.846832  0.346832  0.193663  1
  Sn  Sn12  1  0.346832  0.153168  0.500000  1
  Sn  Sn13  1  0.653168  0.846832  0.500000  1
  Sn  Sn14  1  0.250000  0.250000  0.000000  1
  Sn  Sn15  1  0.750000  0.750000  0.000000  1
