# generated using pymatgen
data_Ti8VReSi6
_symmetry_space_group_name_H-M   'P 1'
_cell_length_a   7.40105600
_cell_length_b   7.40105506
_cell_length_c   5.05870100
_cell_angle_alpha   90.00000000
_cell_angle_beta   90.00000000
_cell_angle_gamma   119.99999527
_symmetry_Int_Tables_number   1
_chemical_formula_structural   Ti8VReSi6
_chemical_formula_sum   'Ti8 V1 Re1 Si6'
_cell_volume   239.97002039
_cell_formula_units_Z   1
loop_
 _symmetry_equiv_pos_site_id
 _symmetry_equiv_pos_as_xyz
  1  'x, y, z'
loop_
 _atom_site_type_symbol
 _atom_site_label
 _atom_site_symmetry_multiplicity
 _atom_site_fract_x
 _atom_site_fract_y
 _atom_site_fract_z
 _atom_site_occupancy
  Ti  Ti0  1  0.753984  0.752759  0.250017  1
  Ti  Ti1  1  0.998775  0.246016  0.250017  1
  Ti  Ti2  1  0.753984  0.001225  0.749983  1
  Ti  Ti3  1  0.333333  0.666667  0.500000  1
  Ti  Ti4  1  0.247241  0.001225  0.250017  1
  Ti  Ti5  1  0.666667  0.333333  0.500000  1
  Ti  Ti6  1  0.998775  0.752759  0.749983  1
  Ti  Ti7  1  0.247241  0.246016  0.749983  1
  V  V8  1  0.666667  0.333333  0.000000  1
  Re  Re9  1  0.333333  0.666667  0.000000  1
  Si  Si10  1  0.605524  0.603788  0.761261  1
  Si  Si11  1  0.396212  0.001736  0.761261  1
  Si  Si12  1  0.605524  0.001736  0.238739  1
  Si  Si13  1  0.998264  0.394476  0.761261  1
  Si  Si14  1  0.396212  0.394476  0.238739  1
  Si  Si15  1  0.998264  0.603788  0.238739  1
