# generated using pymatgen
data_VRe5Sb14
_symmetry_space_group_name_H-M   'P 1'
_cell_length_a   8.26126033
_cell_length_b   8.26125978
_cell_length_c   8.26126024
_cell_angle_alpha   109.15790674
_cell_angle_beta   109.15790610
_cell_angle_gamma   110.09969182
_symmetry_Int_Tables_number   1
_chemical_formula_structural   VRe5Sb14
_chemical_formula_sum   'V1 Re5 Sb14'
_cell_volume   433.98799002
_cell_formula_units_Z   1
loop_
 _symmetry_equiv_pos_site_id
 _symmetry_equiv_pos_as_xyz
  1  'x, y, z'
loop_
 _atom_site_type_symbol
 _atom_site_label
 _atom_site_symmetry_multiplicity
 _atom_site_fract_x
 _atom_site_fract_y
 _atom_site_fract_z
 _atom_site_occupancy
  V  V0  1  0.341960  0.341960  0.000000  1
  Re  Re1  1  0.000551  0.342390  0.341839  1
  Re  Re2  1  0.000551  0.658712  0.658161  1
  Re  Re3  1  0.658712  0.000551  0.658161  1
  Re  Re4  1  0.342390  0.000551  0.341839  1
  Re  Re5  1  0.661317  0.661317  0.000000  1
  Sb  Sb6  1  0.750382  0.250382  0.500000  1
  Sb  Sb7  1  0.496626  0.247584  0.750958  1
  Sb  Sb8  1  0.496626  0.745669  0.249042  1
  Sb  Sb9  1  0.247584  0.496626  0.750958  1
  Sb  Sb10  1  0.745669  0.496626  0.249042  1
  Sb  Sb11  1  0.250382  0.750382  0.500000  1
  Sb  Sb12  1  0.326674  0.326674  0.322272  1
  Sb  Sb13  1  0.999917  0.999917  0.327285  1
  Sb  Sb14  1  0.326674  0.004402  0.000000  1
  Sb  Sb15  1  0.004402  0.326674  0.000000  1
  Sb  Sb16  1  0.672632  0.999917  0.000000  1
  Sb  Sb17  1  0.999917  0.672632  0.000000  1
  Sb  Sb18  1  0.004402  0.004402  0.677728  1
  Sb  Sb19  1  0.672632  0.672632  0.672715  1
