# generated using pymatgen
data_Er9TmPt5Rh
_symmetry_space_group_name_H-M   'P 1'
_cell_length_a   10.96007500
_cell_length_b   10.96536200
_cell_length_c   6.36724200
_cell_angle_alpha   90.00000000
_cell_angle_beta   90.00000000
_cell_angle_gamma   90.00000000
_symmetry_Int_Tables_number   1
_chemical_formula_structural   Er9TmPt5Rh
_chemical_formula_sum   'Er18 Tm2 Pt10 Rh2'
_cell_volume   765.22272008
_cell_formula_units_Z   2
loop_
 _symmetry_equiv_pos_site_id
 _symmetry_equiv_pos_as_xyz
  1  'x, y, z'
loop_
 _atom_site_type_symbol
 _atom_site_label
 _atom_site_symmetry_multiplicity
 _atom_site_fract_x
 _atom_site_fract_y
 _atom_site_fract_z
 _atom_site_occupancy
  Er  Er0  1  0.291853  0.088159  0.376246  1
  Er  Er1  1  0.291853  0.911841  0.876246  1
  Er  Er2  1  0.708147  0.088159  0.876246  1
  Er  Er3  1  0.708147  0.911841  0.376246  1
  Er  Er4  1  0.588221  0.792145  0.876022  1
  Er  Er5  1  0.588221  0.207855  0.376022  1
  Er  Er6  1  0.411779  0.792145  0.376022  1
  Er  Er7  1  0.411779  0.207855  0.876022  1
  Er  Er8  1  0.205895  0.412148  0.624113  1
  Er  Er9  1  0.205895  0.587852  0.124113  1
  Er  Er10  1  0.794105  0.412148  0.124113  1
  Er  Er11  1  0.794105  0.587852  0.624113  1
  Er  Er12  1  0.912195  0.706353  0.123931  1
  Er  Er13  1  0.912195  0.293647  0.623931  1
  Er  Er14  1  0.087805  0.706353  0.623931  1
  Er  Er15  1  0.087805  0.293647  0.123931  1
  Er  Er16  1  0.500000  0.500000  0.000983  1
  Er  Er17  1  0.500000  0.500000  0.500983  1
  Tm  Tm18  1  0.000000  0.000000  0.501229  1
  Tm  Tm19  1  0.000000  0.000000  0.001229  1
  Pt  Pt20  1  0.846670  0.153140  0.250570  1
  Pt  Pt21  1  0.846670  0.846860  0.750570  1
  Pt  Pt22  1  0.153330  0.153140  0.750570  1
  Pt  Pt23  1  0.153330  0.846860  0.250570  1
  Pt  Pt24  1  0.653869  0.345958  0.750428  1
  Pt  Pt25  1  0.653869  0.654042  0.250428  1
  Pt  Pt26  1  0.346131  0.345958  0.250428  1
  Pt  Pt27  1  0.346131  0.654042  0.750428  1
  Pt  Pt28  1  0.500000  0.000000  0.115463  1
  Pt  Pt29  1  0.500000  0.000000  0.615463  1
  Rh  Rh30  1  0.000000  0.500000  0.879699  1
  Rh  Rh31  1  0.000000  0.500000  0.379699  1
