# generated using pymatgen
data_Th6H8I15
_symmetry_space_group_name_H-M   'P 1'
_cell_length_a   10.49362228
_cell_length_b   10.49362249
_cell_length_c   10.49362300
_cell_angle_alpha   109.47121969
_cell_angle_beta   109.47122009
_cell_angle_gamma   109.47122078
_symmetry_Int_Tables_number   1
_chemical_formula_structural   Th6H8I15
_chemical_formula_sum   'Th6 H8 I15'
_cell_volume   889.51737996
_cell_formula_units_Z   1
loop_
 _symmetry_equiv_pos_site_id
 _symmetry_equiv_pos_as_xyz
  1  'x, y, z'
loop_
 _atom_site_type_symbol
 _atom_site_label
 _atom_site_symmetry_multiplicity
 _atom_site_fract_x
 _atom_site_fract_y
 _atom_site_fract_z
 _atom_site_occupancy
  Th  Th0  1  0.230436  0.230436  0.000000  1
  Th  Th1  1  0.769564  0.769564  0.000000  1
  Th  Th2  1  0.230436  0.000000  0.230436  1
  Th  Th3  1  0.000000  0.230436  0.230436  1
  Th  Th4  1  0.769564  0.000000  0.769564  1
  Th  Th5  1  0.000000  0.769564  0.769564  1
  H  H6  1  0.176902  0.000000  0.000000  1
  H  H7  1  0.823099  0.000000  0.000000  1
  H  H8  1  0.000000  0.176902  0.000000  1
  H  H9  1  0.000000  0.823099  0.000000  1
  H  H10  1  0.000000  0.000000  0.176902  1
  H  H11  1  0.176902  0.176902  0.176902  1
  H  H12  1  0.000000  0.000000  0.823099  1
  H  H13  1  0.823099  0.823099  0.823099  1
  I  I14  1  0.741475  0.258526  0.000000  1
  I  I15  1  0.500000  0.500000  0.000000  1
  I  I16  1  0.258526  0.741475  0.000000  1
  I  I17  1  0.741475  0.000000  0.258526  1
  I  I18  1  0.000000  0.741475  0.258526  1
  I  I19  1  0.517052  0.258526  0.258526  1
  I  I20  1  0.258526  0.517052  0.258526  1
  I  I21  1  0.741475  0.741475  0.482948  1
  I  I22  1  0.500000  0.000000  0.500000  1
  I  I23  1  0.000000  0.500000  0.500000  1
  I  I24  1  0.258526  0.258526  0.517052  1
  I  I25  1  0.258526  0.000000  0.741475  1
  I  I26  1  0.000000  0.258526  0.741475  1
  I  I27  1  0.741475  0.482948  0.741475  1
  I  I28  1  0.482948  0.741475  0.741475  1
