# generated using pymatgen
data_Sc3TiRh2O
_symmetry_space_group_name_H-M   'P 1'
_cell_length_a   8.54632650
_cell_length_b   8.54632527
_cell_length_c   8.54632600
_cell_angle_alpha   59.99999718
_cell_angle_beta   60.00000193
_cell_angle_gamma   59.99999654
_symmetry_Int_Tables_number   1
_chemical_formula_structural   Sc3TiRh2O
_chemical_formula_sum   'Sc12 Ti4 Rh8 O4'
_cell_volume   441.39086541
_cell_formula_units_Z   4
loop_
 _symmetry_equiv_pos_site_id
 _symmetry_equiv_pos_as_xyz
  1  'x, y, z'
loop_
 _atom_site_type_symbol
 _atom_site_label
 _atom_site_symmetry_multiplicity
 _atom_site_fract_x
 _atom_site_fract_y
 _atom_site_fract_z
 _atom_site_occupancy
  Sc  Sc0  1  0.814865  0.814865  0.185135  1
  Sc  Sc1  1  0.185135  0.185135  0.814865  1
  Sc  Sc2  1  0.814865  0.185135  0.814865  1
  Sc  Sc3  1  0.185135  0.814865  0.185135  1
  Sc  Sc4  1  0.185135  0.814865  0.814865  1
  Sc  Sc5  1  0.814865  0.185135  0.185135  1
  Sc  Sc6  1  0.435135  0.435135  0.064865  1
  Sc  Sc7  1  0.064865  0.064865  0.435135  1
  Sc  Sc8  1  0.435135  0.064865  0.435135  1
  Sc  Sc9  1  0.064865  0.435135  0.064865  1
  Sc  Sc10  1  0.064865  0.435135  0.435135  1
  Sc  Sc11  1  0.435135  0.064865  0.064865  1
  Ti  Ti12  1  0.125000  0.625000  0.625000  1
  Ti  Ti13  1  0.625000  0.125000  0.625000  1
  Ti  Ti14  1  0.625000  0.625000  0.125000  1
  Ti  Ti15  1  0.625000  0.625000  0.625000  1
  Rh  Rh16  1  0.753286  0.415571  0.415571  1
  Rh  Rh17  1  0.415571  0.753286  0.415571  1
  Rh  Rh18  1  0.415571  0.415571  0.753286  1
  Rh  Rh19  1  0.415571  0.415571  0.415571  1
  Rh  Rh20  1  0.496714  0.834429  0.834429  1
  Rh  Rh21  1  0.834429  0.496714  0.834429  1
  Rh  Rh22  1  0.834429  0.834429  0.496714  1
  Rh  Rh23  1  0.834429  0.834429  0.834429  1
  O  O24  1  0.625000  0.125000  0.125000  1
  O  O25  1  0.125000  0.625000  0.125000  1
  O  O26  1  0.125000  0.125000  0.625000  1
  O  O27  1  0.125000  0.125000  0.125000  1
