# generated using pymatgen
data_Hf4Mn2ZnSi4Au
_symmetry_space_group_name_H-M   'P 1'
_cell_length_a   3.83034900
_cell_length_b   6.54840923
_cell_length_c   7.63368435
_cell_angle_alpha   89.22138232
_cell_angle_beta   90.00000000
_cell_angle_gamma   90.00000000
_symmetry_Int_Tables_number   1
_chemical_formula_structural   Hf4Mn2ZnSi4Au
_chemical_formula_sum   'Hf4 Mn2 Zn1 Si4 Au1'
_cell_volume   191.45567929
_cell_formula_units_Z   1
loop_
 _symmetry_equiv_pos_site_id
 _symmetry_equiv_pos_as_xyz
  1  'x, y, z'
loop_
 _atom_site_type_symbol
 _atom_site_label
 _atom_site_symmetry_multiplicity
 _atom_site_fract_x
 _atom_site_fract_y
 _atom_site_fract_z
 _atom_site_occupancy
  Hf  Hf0  1  0.250000  0.974347  0.315548  1
  Hf  Hf1  1  0.250000  0.472027  0.169065  1
  Hf  Hf2  1  0.750000  0.020981  0.685110  1
  Hf  Hf3  1  0.750000  0.527215  0.835223  1
  Mn  Mn4  1  0.250000  0.861502  0.939509  1
  Mn  Mn5  1  0.750000  0.137479  0.057859  1
  Zn  Zn6  1  0.750000  0.654917  0.433727  1
  Si  Si7  1  0.250000  0.743873  0.639187  1
  Si  Si8  1  0.250000  0.223224  0.890034  1
  Si  Si9  1  0.750000  0.254137  0.356550  1
  Si  Si10  1  0.750000  0.775430  0.113509  1
  Au  Au11  1  0.250000  0.354867  0.564679  1
