# generated using pymatgen
data_DyY3Ga4(CoNi)2
_symmetry_space_group_name_H-M   'P 1'
_cell_length_a   4.40444200
_cell_length_b   6.96561664
_cell_length_c   7.01866112
_cell_angle_alpha   89.67573883
_cell_angle_beta   90.00000000
_cell_angle_gamma   90.00000000
_symmetry_Int_Tables_number   1
_chemical_formula_structural   DyY3Ga4(CoNi)2
_chemical_formula_sum   'Dy1 Y3 Ga4 Co2 Ni2'
_cell_volume   215.32664971
_cell_formula_units_Z   1
loop_
 _symmetry_equiv_pos_site_id
 _symmetry_equiv_pos_as_xyz
  1  'x, y, z'
loop_
 _atom_site_type_symbol
 _atom_site_label
 _atom_site_symmetry_multiplicity
 _atom_site_fract_x
 _atom_site_fract_y
 _atom_site_fract_z
 _atom_site_occupancy
  Dy  Dy0  1  0.750000  0.803465  0.480789  1
  Y  Y1  1  0.250000  0.194829  0.518118  1
  Y  Y2  1  0.250000  0.305448  0.023863  1
  Y  Y3  1  0.750000  0.694608  0.976022  1
  Ga  Ga4  1  0.250000  0.890565  0.194757  1
  Ga  Ga5  1  0.750000  0.401945  0.304090  1
  Ga  Ga6  1  0.250000  0.598225  0.695979  1
  Ga  Ga7  1  0.750000  0.109342  0.804974  1
  Co  Co8  1  0.250000  0.566849  0.346510  1
  Co  Co9  1  0.750000  0.435001  0.653908  1
  Ni  Ni10  1  0.250000  0.930825  0.835344  1
  Ni  Ni11  1  0.750000  0.068897  0.165646  1
