# generated using pymatgen
data_Pr7SmSc12Si15Sn
_symmetry_space_group_name_H-M   'P 1'
_cell_length_a   7.28915733
_cell_length_b   7.56621271
_cell_length_c   14.32434929
_cell_angle_alpha   90.00582262
_cell_angle_beta   89.67545874
_cell_angle_gamma   90.08307700
_symmetry_Int_Tables_number   1
_chemical_formula_structural   Pr7SmSc12Si15Sn
_chemical_formula_sum   'Pr7 Sm1 Sc12 Si15 Sn1'
_cell_volume   789.99319058
_cell_formula_units_Z   1
loop_
 _symmetry_equiv_pos_site_id
 _symmetry_equiv_pos_as_xyz
  1  'x, y, z'
loop_
 _atom_site_type_symbol
 _atom_site_label
 _atom_site_symmetry_multiplicity
 _atom_site_fract_x
 _atom_site_fract_y
 _atom_site_fract_z
 _atom_site_occupancy
  Pr  Pr0  1  0.513297  0.324688  0.398326  1
  Pr  Pr1  1  0.488682  0.672065  0.902880  1
  Pr  Pr2  1  0.498942  0.679513  0.600542  1
  Pr  Pr3  1  0.987896  0.834269  0.598621  1
  Pr  Pr4  1  0.987330  0.828020  0.903056  1
  Pr  Pr5  1  0.511755  0.327682  0.098226  1
  Pr  Pr6  1  0.012879  0.172614  0.097695  1
  Sm  Sm7  1  0.007991  0.167459  0.397275  1
  Sc  Sc8  1  0.341389  0.163993  0.630150  1
  Sc  Sc9  1  0.665576  0.825256  0.373058  1
  Sc  Sc10  1  0.660829  0.002477  0.752127  1
  Sc  Sc11  1  0.166969  0.682154  0.370114  1
  Sc  Sc12  1  0.830411  0.324249  0.875947  1
  Sc  Sc13  1  0.820465  0.323039  0.626413  1
  Sc  Sc14  1  0.839668  0.501937  0.249342  1
  Sc  Sc15  1  0.339819  0.998115  0.249328  1
  Sc  Sc16  1  0.329174  0.175132  0.875469  1
  Sc  Sc17  1  0.169662  0.675733  0.125107  1
  Sc  Sc18  1  0.670175  0.823754  0.124397  1
  Sc  Sc19  1  0.160628  0.498675  0.755288  1
  Si  Si20  1  0.287973  0.880484  0.751938  1
  Si  Si21  1  0.464784  0.625896  0.248671  1
  Si  Si22  1  0.034698  0.128173  0.751028  1
  Si  Si23  1  0.534194  0.375039  0.751868  1
  Si  Si24  1  0.963548  0.876338  0.248270  1
  Si  Si25  1  0.712033  0.115901  0.248860  1
  Si  Si26  1  0.848662  0.536449  0.040117  1
  Si  Si27  1  0.348933  0.963038  0.039942  1
  Si  Si28  1  0.151324  0.463443  0.961082  1
  Si  Si29  1  0.654349  0.039868  0.537774  1
  Si  Si30  1  0.344020  0.963236  0.459311  1
  Si  Si31  1  0.837629  0.540025  0.457036  1
  Si  Si32  1  0.791798  0.616422  0.751300  1
  Si  Si33  1  0.208841  0.382466  0.250093  1
  Si  Si34  1  0.650317  0.037230  0.960635  1
  Sn  Sn35  1  0.163358  0.455167  0.538711  1
