# generated using pymatgen
data_CaDy4(In2Rh)2
_symmetry_space_group_name_H-M   'P 1'
_cell_length_a   3.66832500
_cell_length_b   8.06243400
_cell_length_c   18.31745700
_cell_angle_alpha   90.00000000
_cell_angle_beta   90.00000000
_cell_angle_gamma   90.00000000
_symmetry_Int_Tables_number   1
_chemical_formula_structural   CaDy4(In2Rh)2
_chemical_formula_sum   'Ca2 Dy8 In8 Rh4'
_cell_volume   541.75029786
_cell_formula_units_Z   2
loop_
 _symmetry_equiv_pos_site_id
 _symmetry_equiv_pos_as_xyz
  1  'x, y, z'
loop_
 _atom_site_type_symbol
 _atom_site_label
 _atom_site_symmetry_multiplicity
 _atom_site_fract_x
 _atom_site_fract_y
 _atom_site_fract_z
 _atom_site_occupancy
  Ca  Ca0  1  0.000000  0.000000  0.000000  1
  Ca  Ca1  1  0.000000  0.500000  0.500000  1
  Dy  Dy2  1  0.000000  0.117129  0.411345  1
  Dy  Dy3  1  0.000000  0.882871  0.588655  1
  Dy  Dy4  1  0.000000  0.382871  0.911345  1
  Dy  Dy5  1  0.000000  0.617129  0.088655  1
  Dy  Dy6  1  0.000000  0.245829  0.221138  1
  Dy  Dy7  1  0.000000  0.754171  0.778862  1
  Dy  Dy8  1  0.000000  0.254171  0.721138  1
  Dy  Dy9  1  0.000000  0.745829  0.278862  1
  In  In10  1  0.500000  0.427810  0.348151  1
  In  In11  1  0.500000  0.572190  0.651849  1
  In  In12  1  0.500000  0.072190  0.848151  1
  In  In13  1  0.500000  0.927810  0.151849  1
  In  In14  1  0.500000  0.295393  0.068232  1
  In  In15  1  0.500000  0.704607  0.931768  1
  In  In16  1  0.500000  0.204607  0.568232  1
  In  In17  1  0.500000  0.795393  0.431768  1
  Rh  Rh18  1  0.500000  0.022676  0.305814  1
  Rh  Rh19  1  0.500000  0.977324  0.694186  1
  Rh  Rh20  1  0.500000  0.477324  0.805814  1
  Rh  Rh21  1  0.500000  0.522676  0.194186  1
