# generated using pymatgen
data_TmNb8FeSe16
_symmetry_space_group_name_H-M   'P 1'
_cell_length_a   6.98664000
_cell_length_b   6.98664024
_cell_length_c   13.50115200
_cell_angle_alpha   90.00000000
_cell_angle_beta   90.00000000
_cell_angle_gamma   119.99999888
_symmetry_Int_Tables_number   1
_chemical_formula_structural   TmNb8FeSe16
_chemical_formula_sum   'Tm1 Nb8 Fe1 Se16'
_cell_volume   570.73986732
_cell_formula_units_Z   1
loop_
 _symmetry_equiv_pos_site_id
 _symmetry_equiv_pos_as_xyz
  1  'x, y, z'
loop_
 _atom_site_type_symbol
 _atom_site_label
 _atom_site_symmetry_multiplicity
 _atom_site_fract_x
 _atom_site_fract_y
 _atom_site_fract_z
 _atom_site_occupancy
  Tm  Tm0  1  0.000000  0.000000  0.500000  1
  Nb  Nb1  1  0.000000  0.000000  0.237521  1
  Nb  Nb2  1  0.000000  0.000000  0.762479  1
  Nb  Nb3  1  0.507459  0.014919  0.236501  1
  Nb  Nb4  1  0.985081  0.492541  0.236501  1
  Nb  Nb5  1  0.507459  0.492541  0.236501  1
  Nb  Nb6  1  0.492541  0.985081  0.763499  1
  Nb  Nb7  1  0.014919  0.507459  0.763499  1
  Nb  Nb8  1  0.492541  0.507459  0.763499  1
  Fe  Fe9  1  0.000000  0.000000  0.000000  1
  Se  Se10  1  0.333333  0.666667  0.890901  1
  Se  Se11  1  0.666667  0.333333  0.109099  1
  Se  Se12  1  0.666667  0.333333  0.366267  1
  Se  Se13  1  0.333333  0.666667  0.633733  1
  Se  Se14  1  0.170017  0.829983  0.360837  1
  Se  Se15  1  0.170017  0.340034  0.360837  1
  Se  Se16  1  0.659966  0.829983  0.360837  1
  Se  Se17  1  0.829983  0.170017  0.639163  1
  Se  Se18  1  0.829983  0.659966  0.639163  1
  Se  Se19  1  0.340034  0.170017  0.639163  1
  Se  Se20  1  0.831727  0.168273  0.886057  1
  Se  Se21  1  0.831727  0.663455  0.886057  1
  Se  Se22  1  0.336545  0.168273  0.886057  1
  Se  Se23  1  0.168273  0.831727  0.113943  1
  Se  Se24  1  0.168273  0.336545  0.113943  1
  Se  Se25  1  0.663455  0.831727  0.113943  1
