# generated using pymatgen
data_Nd8YHoSn6
_symmetry_space_group_name_H-M   'P 1'
_cell_length_a   9.23663400
_cell_length_b   9.23663427
_cell_length_c   6.78595400
_cell_angle_alpha   90.00000000
_cell_angle_beta   90.00000000
_cell_angle_gamma   119.99999904
_symmetry_Int_Tables_number   1
_chemical_formula_structural   Nd8YHoSn6
_chemical_formula_sum   'Nd8 Y1 Ho1 Sn6'
_cell_volume   501.38233684
_cell_formula_units_Z   1
loop_
 _symmetry_equiv_pos_site_id
 _symmetry_equiv_pos_as_xyz
  1  'x, y, z'
loop_
 _atom_site_type_symbol
 _atom_site_label
 _atom_site_symmetry_multiplicity
 _atom_site_fract_x
 _atom_site_fract_y
 _atom_site_fract_z
 _atom_site_occupancy
  Nd  Nd0  1  0.758618  0.758652  0.248537  1
  Nd  Nd1  1  0.000034  0.241382  0.248537  1
  Nd  Nd2  1  0.758618  0.999966  0.751463  1
  Nd  Nd3  1  0.333333  0.666667  0.500000  1
  Nd  Nd4  1  0.241348  0.999966  0.248537  1
  Nd  Nd5  1  0.666667  0.333333  0.500000  1
  Nd  Nd6  1  0.000034  0.758652  0.751463  1
  Nd  Nd7  1  0.241348  0.241382  0.751463  1
  Y  Y8  1  0.666667  0.333333  0.000000  1
  Ho  Ho9  1  0.333333  0.666667  0.000000  1
  Sn  Sn10  1  0.602931  0.603100  0.756866  1
  Sn  Sn11  1  0.396900  0.999831  0.756866  1
  Sn  Sn12  1  0.602931  0.999831  0.243134  1
  Sn  Sn13  1  0.000169  0.397069  0.756866  1
  Sn  Sn14  1  0.396900  0.397069  0.243134  1
  Sn  Sn15  1  0.000169  0.603100  0.243134  1
