# generated using pymatgen
data_KRb3Ba2(YbBi2)2
_symmetry_space_group_name_H-M   'P 1'
_cell_length_a   5.51282100
_cell_length_b   9.00182970
_cell_length_c   10.55621317
_cell_angle_alpha   90.08006899
_cell_angle_beta   90.00000000
_cell_angle_gamma   90.00000000
_symmetry_Int_Tables_number   1
_chemical_formula_structural   KRb3Ba2(YbBi2)2
_chemical_formula_sum   'K1 Rb3 Ba2 Yb2 Bi4'
_cell_volume   523.85658940
_cell_formula_units_Z   1
loop_
 _symmetry_equiv_pos_site_id
 _symmetry_equiv_pos_as_xyz
  1  'x, y, z'
loop_
 _atom_site_type_symbol
 _atom_site_label
 _atom_site_symmetry_multiplicity
 _atom_site_fract_x
 _atom_site_fract_y
 _atom_site_fract_z
 _atom_site_occupancy
  K  K0  1  0.000000  0.845247  0.661545  1
  Rb  Rb1  1  0.500000  0.023700  0.420806  1
  Rb  Rb2  1  0.000000  0.339545  0.341708  1
  Rb  Rb3  1  0.500000  0.525534  0.581405  1
  Ba  Ba4  1  0.000000  0.996772  0.052346  1
  Ba  Ba5  1  0.000000  0.496017  0.944752  1
  Yb  Yb6  1  0.500000  0.149424  0.820827  1
  Yb  Yb7  1  0.500000  0.651438  0.178085  1
  Bi  Bi8  1  0.000000  0.240706  0.685767  1
  Bi  Bi9  1  0.500000  0.288567  0.107339  1
  Bi  Bi10  1  0.000000  0.746690  0.317164  1
  Bi  Bi11  1  0.500000  0.787559  0.888257  1
