# generated using pymatgen
data_GdHo19Pb16
_symmetry_space_group_name_H-M   'P 1'
_cell_length_a   8.19869700
_cell_length_b   8.25617419
_cell_length_c   15.59726700
_cell_angle_alpha   89.98611356
_cell_angle_beta   89.78635012
_cell_angle_gamma   89.84561602
_symmetry_Int_Tables_number   1
_chemical_formula_structural   GdHo19Pb16
_chemical_formula_sum   'Gd1 Ho19 Pb16'
_cell_volume   1055.76578368
_cell_formula_units_Z   1
loop_
 _symmetry_equiv_pos_site_id
 _symmetry_equiv_pos_as_xyz
  1  'x, y, z'
loop_
 _atom_site_type_symbol
 _atom_site_label
 _atom_site_symmetry_multiplicity
 _atom_site_fract_x
 _atom_site_fract_y
 _atom_site_fract_z
 _atom_site_occupancy
  Gd  Gd0  1  0.965848  0.823754  0.598473  1
  Ho  Ho1  1  0.623175  0.158183  0.621390  1
  Ho  Ho2  1  0.121623  0.341879  0.879557  1
  Ho  Ho3  1  0.378853  0.842368  0.121261  1
  Ho  Ho4  1  0.876441  0.657824  0.378058  1
  Ho  Ho5  1  0.376931  0.841654  0.378474  1
  Ho  Ho6  1  0.878444  0.657943  0.121196  1
  Ho  Ho7  1  0.621278  0.157866  0.879154  1
  Ho  Ho8  1  0.122770  0.341833  0.621322  1
  Ho  Ho9  1  0.463526  0.675061  0.599522  1
  Ho  Ho10  1  0.961959  0.824447  0.899544  1
  Ho  Ho11  1  0.537518  0.324718  0.100596  1
  Ho  Ho12  1  0.036019  0.175935  0.400153  1
  Ho  Ho13  1  0.536039  0.324190  0.400307  1
  Ho  Ho14  1  0.038061  0.175439  0.100478  1
  Ho  Ho15  1  0.462436  0.675198  0.900026  1
  Ho  Ho16  1  0.789968  0.495466  0.750374  1
  Ho  Ho17  1  0.290349  0.004419  0.750415  1
  Ho  Ho18  1  0.209408  0.504292  0.249971  1
  Ho  Ho19  1  0.709513  0.995501  0.249635  1
  Pb  Pb20  1  0.716660  0.967034  0.455947  1
  Pb  Pb21  1  0.219777  0.533945  0.043008  1
  Pb  Pb22  1  0.280134  0.032410  0.957488  1
  Pb  Pb23  1  0.781005  0.464629  0.542228  1
  Pb  Pb24  1  0.284787  0.036433  0.542150  1
  Pb  Pb25  1  0.780199  0.466600  0.957767  1
  Pb  Pb26  1  0.720029  0.967307  0.043033  1
  Pb  Pb27  1  0.217717  0.533839  0.456989  1
  Pb  Pb28  1  0.427018  0.374391  0.750304  1
  Pb  Pb29  1  0.927392  0.126618  0.750539  1
  Pb  Pb30  1  0.572423  0.625675  0.249690  1
  Pb  Pb31  1  0.072664  0.874282  0.249757  1
  Pb  Pb32  1  0.649806  0.845301  0.749973  1
  Pb  Pb33  1  0.151888  0.653413  0.750742  1
  Pb  Pb34  1  0.349147  0.154773  0.250381  1
  Pb  Pb35  1  0.849195  0.345382  0.250096  1
