# generated using pymatgen
data_TbY5(Tm2Sb3)2
_symmetry_space_group_name_H-M   'P 1'
_cell_length_a   8.96458500
_cell_length_b   8.96688818
_cell_length_c   6.26153400
_cell_angle_alpha   90.00000000
_cell_angle_beta   90.00000000
_cell_angle_gamma   119.99150002
_symmetry_Int_Tables_number   1
_chemical_formula_structural   TbY5(Tm2Sb3)2
_chemical_formula_sum   'Tb1 Y5 Tm4 Sb6'
_cell_volume   435.93376639
_cell_formula_units_Z   1
loop_
 _symmetry_equiv_pos_site_id
 _symmetry_equiv_pos_as_xyz
  1  'x, y, z'
loop_
 _atom_site_type_symbol
 _atom_site_label
 _atom_site_symmetry_multiplicity
 _atom_site_fract_x
 _atom_site_fract_y
 _atom_site_fract_z
 _atom_site_occupancy
  Tb  Tb0  1  0.247583  0.000000  0.250000  1
  Y  Y1  1  0.999991  0.752428  0.750000  1
  Y  Y2  1  0.000021  0.247584  0.250000  1
  Y  Y3  1  0.752437  0.752416  0.250000  1
  Y  Y4  1  0.752459  0.000000  0.750000  1
  Y  Y5  1  0.247563  0.247572  0.750000  1
  Tm  Tm6  1  0.333341  0.666682  0.499969  1
  Tm  Tm7  1  0.666660  0.333318  0.000031  1
  Tm  Tm8  1  0.666660  0.333318  0.499969  1
  Tm  Tm9  1  0.333341  0.666682  0.000031  1
  Sb  Sb10  1  0.390076  0.000000  0.750000  1
  Sb  Sb11  1  0.390086  0.390166  0.250000  1
  Sb  Sb12  1  0.999919  0.609834  0.250000  1
  Sb  Sb13  1  0.999990  0.390081  0.750000  1
  Sb  Sb14  1  0.609909  0.609919  0.750000  1
  Sb  Sb15  1  0.609965  0.000000  0.250000  1
