# generated using pymatgen
data_Dy5Mn2P12Ir17
_symmetry_space_group_name_H-M   'P 1'
_cell_length_a   12.63626600
_cell_length_b   12.72291092
_cell_length_c   3.96921500
_cell_angle_alpha   90.00000000
_cell_angle_beta   90.00000000
_cell_angle_gamma   119.77497662
_symmetry_Int_Tables_number   1
_chemical_formula_structural   Dy5Mn2P12Ir17
_chemical_formula_sum   'Dy5 Mn2 P12 Ir17'
_cell_volume   553.88652354
_cell_formula_units_Z   1
loop_
 _symmetry_equiv_pos_site_id
 _symmetry_equiv_pos_as_xyz
  1  'x, y, z'
loop_
 _atom_site_type_symbol
 _atom_site_label
 _atom_site_symmetry_multiplicity
 _atom_site_fract_x
 _atom_site_fract_y
 _atom_site_fract_z
 _atom_site_occupancy
  Dy  Dy0  1  0.332563  0.663826  0.500000  1
  Dy  Dy1  1  0.668737  0.336174  0.500000  1
  Dy  Dy2  1  0.999898  0.811417  0.000000  1
  Dy  Dy3  1  0.188481  0.188583  0.000000  1
  Dy  Dy4  1  0.813580  0.000000  0.000000  1
  Mn  Mn5  1  0.999901  0.458101  0.500000  1
  Mn  Mn6  1  0.541800  0.541899  0.500000  1
  P  P7  1  0.999774  0.635089  0.500000  1
  P  P8  1  0.364685  0.364911  0.500000  1
  P  P9  1  0.643525  0.000000  0.500000  1
  P  P10  1  0.515615  0.683926  0.000000  1
  P  P11  1  0.309259  0.824773  0.000000  1
  P  P12  1  0.166792  0.481255  0.000000  1
  P  P13  1  0.484486  0.175227  0.000000  1
  P  P14  1  0.685536  0.518745  0.000000  1
  P  P15  1  0.831689  0.316074  0.000000  1
  P  P16  1  0.999799  0.178016  0.500000  1
  P  P17  1  0.821783  0.821984  0.500000  1
  P  P18  1  0.178983  0.000000  0.500000  1
  Ir  Ir19  1  0.505945  0.866151  0.000000  1
  Ir  Ir20  1  0.129550  0.638463  0.000000  1
  Ir  Ir21  1  0.358548  0.491634  0.000000  1
  Ir  Ir22  1  0.491088  0.361537  0.000000  1
  Ir  Ir23  1  0.866915  0.508366  0.000000  1
  Ir  Ir24  1  0.639795  0.133849  0.000000  1
  Ir  Ir25  1  0.462267  0.000000  0.500000  1
  Ir  Ir26  1  0.998202  0.282723  0.000000  1
  Ir  Ir27  1  0.715479  0.717277  0.000000  1
  Ir  Ir28  1  0.287031  0.000000  0.000000  1
  Ir  Ir29  1  0.622114  0.803979  0.500000  1
  Ir  Ir30  1  0.198250  0.821557  0.500000  1
  Ir  Ir31  1  0.178115  0.373557  0.500000  1
  Ir  Ir32  1  0.376693  0.178443  0.500000  1
  Ir  Ir33  1  0.804558  0.626443  0.500000  1
  Ir  Ir34  1  0.818134  0.196021  0.500000  1
  Ir  Ir35  1  0.000428  0.000000  0.500000  1
