# generated using pymatgen
data_Tb2SmYNi13C4
_symmetry_space_group_name_H-M   'P 1'
_cell_length_a   8.41387920
_cell_length_b   8.41387963
_cell_length_c   3.87880600
_cell_angle_alpha   90.00000000
_cell_angle_beta   90.00000000
_cell_angle_gamma   90.93108365
_symmetry_Int_Tables_number   1
_chemical_formula_structural   Tb2SmYNi13C4
_chemical_formula_sum   'Tb2 Sm1 Y1 Ni13 C4'
_cell_volume   274.55747972
_cell_formula_units_Z   1
loop_
 _symmetry_equiv_pos_site_id
 _symmetry_equiv_pos_as_xyz
  1  'x, y, z'
loop_
 _atom_site_type_symbol
 _atom_site_label
 _atom_site_symmetry_multiplicity
 _atom_site_fract_x
 _atom_site_fract_y
 _atom_site_fract_z
 _atom_site_occupancy
  Tb  Tb0  1  0.812689  0.187631  0.500000  1
  Tb  Tb1  1  0.187631  0.812689  0.500000  1
  Sm  Sm2  1  0.652025  0.652025  0.500000  1
  Y  Y3  1  0.348689  0.348689  0.500000  1
  Ni  Ni4  1  0.499373  0.001967  0.500000  1
  Ni  Ni5  1  0.001967  0.499373  0.500000  1
  Ni  Ni6  1  0.000532  0.000532  0.000000  1
  Ni  Ni7  1  0.429954  0.784125  0.000000  1
  Ni  Ni8  1  0.568858  0.214680  0.000000  1
  Ni  Ni9  1  0.214680  0.568858  0.000000  1
  Ni  Ni10  1  0.784125  0.429954  0.000000  1
  Ni  Ni11  1  0.709504  0.928181  0.000000  1
  Ni  Ni12  1  0.291241  0.074011  0.000000  1
  Ni  Ni13  1  0.074011  0.291241  0.000000  1
  Ni  Ni14  1  0.928181  0.709504  0.000000  1
  Ni  Ni15  1  0.878322  0.878322  0.500000  1
  Ni  Ni16  1  0.123306  0.123306  0.500000  1
  C  C17  1  0.441135  0.555082  0.000000  1
  C  C18  1  0.555082  0.441135  0.000000  1
  C  C19  1  0.499642  0.999053  0.000000  1
  C  C20  1  0.999053  0.499642  0.000000  1
