# generated using pymatgen
data_Li3Pr4MgPt4
_symmetry_space_group_name_H-M   'P 1'
_cell_length_a   4.14136600
_cell_length_b   7.29967095
_cell_length_c   8.76367296
_cell_angle_alpha   90.12762580
_cell_angle_beta   90.00000000
_cell_angle_gamma   90.00000000
_symmetry_Int_Tables_number   1
_chemical_formula_structural   Li3Pr4MgPt4
_chemical_formula_sum   'Li3 Pr4 Mg1 Pt4'
_cell_volume   264.93051413
_cell_formula_units_Z   1
loop_
 _symmetry_equiv_pos_site_id
 _symmetry_equiv_pos_as_xyz
  1  'x, y, z'
loop_
 _atom_site_type_symbol
 _atom_site_label
 _atom_site_symmetry_multiplicity
 _atom_site_fract_x
 _atom_site_fract_y
 _atom_site_fract_z
 _atom_site_occupancy
  Li  Li0  1  0.250000  0.125615  0.945121  1
  Li  Li1  1  0.750000  0.876994  0.052627  1
  Li  Li2  1  0.250000  0.629397  0.557826  1
  Pr  Pr3  1  0.250000  0.039770  0.311679  1
  Pr  Pr4  1  0.750000  0.952246  0.684603  1
  Pr  Pr5  1  0.250000  0.549354  0.179770  1
  Pr  Pr6  1  0.750000  0.453749  0.818338  1
  Mg  Mg7  1  0.750000  0.372838  0.442759  1
  Pt  Pt8  1  0.750000  0.254134  0.125832  1
  Pt  Pt9  1  0.250000  0.750371  0.880881  1
  Pt  Pt10  1  0.750000  0.746891  0.382375  1
  Pt  Pt11  1  0.250000  0.248639  0.618186  1
