# generated using pymatgen
data_HfZr3FeCo7P6
_symmetry_space_group_name_H-M   'P 1'
_cell_length_a   12.12371931
_cell_length_b   12.10170558
_cell_length_c   3.66054000
_cell_angle_alpha   90.00000000
_cell_angle_beta   90.00000000
_cell_angle_gamma   120.07340531
_symmetry_Int_Tables_number   1
_chemical_formula_structural   HfZr3FeCo7P6
_chemical_formula_sum   'Hf2 Zr6 Fe2 Co14 P12'
_cell_volume   464.76833293
_cell_formula_units_Z   2
loop_
 _symmetry_equiv_pos_site_id
 _symmetry_equiv_pos_as_xyz
  1  'x, y, z'
loop_
 _atom_site_type_symbol
 _atom_site_label
 _atom_site_symmetry_multiplicity
 _atom_site_fract_x
 _atom_site_fract_y
 _atom_site_fract_z
 _atom_site_occupancy
  Hf  Hf0  1  0.443174  0.443858  0.000000  1
  Hf  Hf1  1  0.556231  0.000064  0.000000  1
  Zr  Zr2  1  0.000068  0.555966  0.000000  1
  Zr  Zr3  1  0.666365  0.333384  0.000000  1
  Zr  Zr4  1  0.332324  0.666174  0.000000  1
  Zr  Zr5  1  0.823528  0.823434  0.500000  1
  Zr  Zr6  1  0.176892  0.000271  0.500000  1
  Zr  Zr7  1  0.000449  0.177265  0.500000  1
  Fe  Fe8  1  0.195916  0.372667  0.000000  1
  Fe  Fe9  1  0.178156  0.805600  0.000000  1
  Co  Co10  1  0.820514  0.627918  0.000000  1
  Co  Co11  1  0.806222  0.177687  0.000000  1
  Co  Co12  1  0.372622  0.193582  0.000000  1
  Co  Co13  1  0.125026  0.480050  0.500000  1
  Co  Co14  1  0.357085  0.875716  0.500000  1
  Co  Co15  1  0.519665  0.645556  0.500000  1
  Co  Co16  1  0.644890  0.519171  0.500000  1
  Co  Co17  1  0.871686  0.353243  0.500000  1
  Co  Co18  1  0.482285  0.127319  0.500000  1
  Co  Co19  1  0.999690  0.999469  0.000000  1
  Co  Co20  1  0.721119  0.999923  0.500000  1
  Co  Co21  1  0.997467  0.721178  0.500000  1
  Co  Co22  1  0.628115  0.822479  0.000000  1
  Co  Co23  1  0.280057  0.277302  0.500000  1
  P  P24  1  0.653187  0.653642  0.000000  1
  P  P25  1  0.345386  0.998318  0.000000  1
  P  P26  1  0.002604  0.346431  0.000000  1
  P  P27  1  0.481726  0.309108  0.500000  1
  P  P28  1  0.690509  0.172469  0.500000  1
  P  P29  1  0.826316  0.518363  0.500000  1
  P  P30  1  0.517461  0.826867  0.500000  1
  P  P31  1  0.174080  0.694010  0.500000  1
  P  P32  1  0.825326  0.000172  0.000000  1
  P  P33  1  0.002437  0.825468  0.000000  1
  P  P34  1  0.306775  0.479781  0.500000  1
  P  P35  1  0.174648  0.176097  0.000000  1
