# generated using pymatgen
data_Y3Ho(CCl)2
_symmetry_space_group_name_H-M   'P 1'
_cell_length_a   3.64757100
_cell_length_b   3.64757062
_cell_length_c   13.61937500
_cell_angle_alpha   90.00000000
_cell_angle_beta   90.00000000
_cell_angle_gamma   119.99999436
_symmetry_Int_Tables_number   1
_chemical_formula_structural   Y3Ho(CCl)2
_chemical_formula_sum   'Y3 Ho1 C2 Cl2'
_cell_volume   156.92614198
_cell_formula_units_Z   1
loop_
 _symmetry_equiv_pos_site_id
 _symmetry_equiv_pos_as_xyz
  1  'x, y, z'
loop_
 _atom_site_type_symbol
 _atom_site_label
 _atom_site_symmetry_multiplicity
 _atom_site_fract_x
 _atom_site_fract_y
 _atom_site_fract_z
 _atom_site_occupancy
  Y  Y0  1  0.666667  0.333333  0.593437  1
  Y  Y1  1  0.666667  0.333333  0.907023  1
  Y  Y2  1  0.333333  0.666667  0.405310  1
  Ho  Ho3  1  0.333333  0.666667  0.093541  1
  C  C4  1  0.000000  0.000000  0.002440  1
  C  C5  1  0.000000  0.000000  0.499311  1
  Cl  Cl6  1  0.333333  0.666667  0.750643  1
  Cl  Cl7  1  0.666667  0.333333  0.248296  1
