# generated using pymatgen
data_Yb2SmTm(Pt2O7)2
_symmetry_space_group_name_H-M   'P 1'
_cell_length_a   7.26637793
_cell_length_b   7.26707490
_cell_length_c   7.26637720
_cell_angle_alpha   60.12023197
_cell_angle_beta   60.08133575
_cell_angle_gamma   60.12023218
_symmetry_Int_Tables_number   1
_chemical_formula_structural   Yb2SmTm(Pt2O7)2
_chemical_formula_sum   'Yb2 Sm1 Tm1 Pt4 O14'
_cell_volume   271.97853771
_cell_formula_units_Z   1
loop_
 _symmetry_equiv_pos_site_id
 _symmetry_equiv_pos_as_xyz
  1  'x, y, z'
loop_
 _atom_site_type_symbol
 _atom_site_label
 _atom_site_symmetry_multiplicity
 _atom_site_fract_x
 _atom_site_fract_y
 _atom_site_fract_z
 _atom_site_occupancy
  Yb  Yb0  1  0.625000  0.625000  0.125000  1
  Yb  Yb1  1  0.125000  0.625000  0.625000  1
  Sm  Sm2  1  0.625000  0.125000  0.625000  1
  Tm  Tm3  1  0.625000  0.625000  0.625000  1
  Pt  Pt4  1  0.125000  0.125000  0.125000  1
  Pt  Pt5  1  0.625000  0.125000  0.125000  1
  Pt  Pt6  1  0.125000  0.625000  0.125000  1
  Pt  Pt7  1  0.125000  0.125000  0.625000  1
  O  O8  1  0.031814  0.459891  0.460259  1
  O  O9  1  0.789741  0.790109  0.218186  1
  O  O10  1  0.789754  0.209538  0.210128  1
  O  O11  1  0.461622  0.031612  0.461622  1
  O  O12  1  0.039872  0.040462  0.460246  1
  O  O13  1  0.041976  0.458502  0.041976  1
  O  O14  1  0.746237  0.746054  0.746237  1
  O  O15  1  0.503763  0.503946  0.503763  1
  O  O16  1  0.788378  0.218388  0.788378  1
  O  O17  1  0.208024  0.791498  0.208024  1
  O  O18  1  0.210128  0.209538  0.789754  1
  O  O19  1  0.460246  0.040462  0.039872  1
  O  O20  1  0.460259  0.459891  0.031814  1
  O  O21  1  0.218186  0.790109  0.789741  1
