# generated using pymatgen
data_Dy5TmLu2(P3Ir4)4
_symmetry_space_group_name_H-M   'P 1'
_cell_length_a   12.93768100
_cell_length_b   12.93802224
_cell_length_c   3.99259800
_cell_angle_alpha   90.00000000
_cell_angle_beta   90.00000000
_cell_angle_gamma   120.00087626
_symmetry_Int_Tables_number   1
_chemical_formula_structural   Dy5TmLu2(P3Ir4)4
_chemical_formula_sum   'Dy5 Tm1 Lu2 P12 Ir16'
_cell_volume   578.77093551
_cell_formula_units_Z   1
loop_
 _symmetry_equiv_pos_site_id
 _symmetry_equiv_pos_as_xyz
  1  'x, y, z'
loop_
 _atom_site_type_symbol
 _atom_site_label
 _atom_site_symmetry_multiplicity
 _atom_site_fract_x
 _atom_site_fract_y
 _atom_site_fract_z
 _atom_site_occupancy
  Dy  Dy0  1  0.333359  0.666674  0.500000  1
  Dy  Dy1  1  0.666641  0.333314  0.500000  1
  Dy  Dy2  1  0.000000  0.814265  0.000000  1
  Dy  Dy3  1  0.185763  0.185770  0.000000  1
  Dy  Dy4  1  0.814237  0.000007  0.000000  1
  Tm  Tm5  1  0.000000  0.446363  0.500000  1
  Lu  Lu6  1  0.553624  0.553599  0.500000  1
  Lu  Lu7  1  0.446376  0.999975  0.500000  1
  P  P8  1  0.000000  0.652089  0.500000  1
  P  P9  1  0.348503  0.348378  0.500000  1
  P  P10  1  0.651497  0.999875  0.500000  1
  P  P11  1  0.516735  0.687816  0.000000  1
  P  P12  1  0.312291  0.828996  0.000000  1
  P  P13  1  0.171439  0.483395  0.000000  1
  P  P14  1  0.483265  0.171080  0.000000  1
  P  P15  1  0.687709  0.516704  0.000000  1
  P  P16  1  0.828561  0.311954  0.000000  1
  P  P17  1  0.000000  0.176691  0.500000  1
  P  P18  1  0.823283  0.823293  0.500000  1
  P  P19  1  0.176717  0.000010  0.500000  1
  Ir  Ir20  1  0.509594  0.866325  0.000000  1
  Ir  Ir21  1  0.134009  0.643729  0.000000  1
  Ir  Ir22  1  0.356914  0.490522  0.000000  1
  Ir  Ir23  1  0.490406  0.356730  0.000000  1
  Ir  Ir24  1  0.865991  0.509719  0.000000  1
  Ir  Ir25  1  0.643086  0.133607  0.000000  1
  Ir  Ir26  1  0.000000  0.275559  0.000000  1
  Ir  Ir27  1  0.723895  0.723903  0.000000  1
  Ir  Ir28  1  0.276105  0.000008  0.000000  1
  Ir  Ir29  1  0.629598  0.808216  0.500000  1
  Ir  Ir30  1  0.191863  0.821562  0.500000  1
  Ir  Ir31  1  0.178953  0.370255  0.500000  1
  Ir  Ir32  1  0.370402  0.178618  0.500000  1
  Ir  Ir33  1  0.808137  0.629698  0.500000  1
  Ir  Ir34  1  0.821047  0.191302  0.500000  1
  Ir  Ir35  1  0.000000  0.999999  0.500000  1
