# generated using pymatgen
data_Lu16CdCo4Ag3
_symmetry_space_group_name_H-M   'P 1'
_cell_length_a   9.22507002
_cell_length_b   9.22166726
_cell_length_c   9.22507000
_cell_angle_alpha   59.98779302
_cell_angle_beta   60.00000009
_cell_angle_gamma   59.98778885
_symmetry_Int_Tables_number   1
_chemical_formula_structural   Lu16CdCo4Ag3
_chemical_formula_sum   'Lu16 Cd1 Co4 Ag3'
_cell_volume   554.82193483
_cell_formula_units_Z   1
loop_
 _symmetry_equiv_pos_site_id
 _symmetry_equiv_pos_as_xyz
  1  'x, y, z'
loop_
 _atom_site_type_symbol
 _atom_site_label
 _atom_site_symmetry_multiplicity
 _atom_site_fract_x
 _atom_site_fract_y
 _atom_site_fract_z
 _atom_site_occupancy
  Lu  Lu0  1  0.438137  0.437851  0.062006  1
  Lu  Lu1  1  0.597194  0.596709  0.597194  1
  Lu  Lu2  1  0.187752  0.812072  0.812424  1
  Lu  Lu3  1  0.061496  0.061646  0.438429  1
  Lu  Lu4  1  0.438429  0.061646  0.061496  1
  Lu  Lu5  1  0.812803  0.185224  0.812803  1
  Lu  Lu6  1  0.438429  0.061646  0.438429  1
  Lu  Lu7  1  0.597302  0.208094  0.597302  1
  Lu  Lu8  1  0.812424  0.812072  0.187752  1
  Lu  Lu9  1  0.208903  0.596709  0.597194  1
  Lu  Lu10  1  0.812803  0.185224  0.189171  1
  Lu  Lu11  1  0.062006  0.437851  0.438137  1
  Lu  Lu12  1  0.187752  0.812072  0.187752  1
  Lu  Lu13  1  0.597194  0.596709  0.208903  1
  Lu  Lu14  1  0.189171  0.185224  0.812803  1
  Lu  Lu15  1  0.062006  0.437851  0.062006  1
  Cd  Cd16  1  0.829337  0.511987  0.829337  1
  Co  Co17  1  0.391210  0.391483  0.391210  1
  Co  Co18  1  0.826096  0.391483  0.391210  1
  Co  Co19  1  0.391151  0.826548  0.391151  1
  Co  Co20  1  0.391210  0.391483  0.826096  1
  Ag  Ag21  1  0.831825  0.832805  0.503543  1
  Ag  Ag22  1  0.831825  0.832805  0.831825  1
  Ag  Ag23  1  0.503543  0.832805  0.831825  1
