# generated using pymatgen
data_Dy13Er7(FeBi2)4
_symmetry_space_group_name_H-M   'P 1'
_cell_length_a   7.90913420
_cell_length_b   8.91750900
_cell_length_c   12.35174516
_cell_angle_alpha   89.97267121
_cell_angle_beta   90.05605044
_cell_angle_gamma   90.06803504
_symmetry_Int_Tables_number   1
_chemical_formula_structural   Dy13Er7(FeBi2)4
_chemical_formula_sum   'Dy13 Er7 Fe4 Bi8'
_cell_volume   871.16468202
_cell_formula_units_Z   1
loop_
 _symmetry_equiv_pos_site_id
 _symmetry_equiv_pos_as_xyz
  1  'x, y, z'
loop_
 _atom_site_type_symbol
 _atom_site_label
 _atom_site_symmetry_multiplicity
 _atom_site_fract_x
 _atom_site_fract_y
 _atom_site_fract_z
 _atom_site_occupancy
  Dy  Dy0  1  0.848898  0.750621  0.799966  1
  Dy  Dy1  1  0.152204  0.249735  0.200874  1
  Dy  Dy2  1  0.348506  0.250170  0.700016  1
  Dy  Dy3  1  0.651361  0.749882  0.299839  1
  Dy  Dy4  1  0.382715  0.749472  0.685337  1
  Dy  Dy5  1  0.617371  0.250322  0.314154  1
  Dy  Dy6  1  0.881693  0.248901  0.813249  1
  Dy  Dy7  1  0.116894  0.751033  0.186349  1
  Dy  Dy8  1  0.945314  0.750119  0.505211  1
  Dy  Dy9  1  0.053788  0.249965  0.494860  1
  Dy  Dy10  1  0.447375  0.249138  0.994831  1
  Dy  Dy11  1  0.556013  0.750546  0.005460  1
  Dy  Dy12  1  0.174500  0.533932  0.936793  1
  Er  Er13  1  0.673131  0.036171  0.563958  1
  Er  Er14  1  0.326648  0.964352  0.435792  1
  Er  Er15  1  0.172931  0.964254  0.936928  1
  Er  Er16  1  0.326388  0.536131  0.435910  1
  Er  Er17  1  0.826914  0.037385  0.063833  1
  Er  Er18  1  0.673319  0.463701  0.563790  1
  Er  Er19  1  0.826548  0.463882  0.063975  1
  Fe  Fe20  1  0.567452  0.750317  0.507158  1
  Fe  Fe21  1  0.430743  0.250324  0.492122  1
  Fe  Fe22  1  0.068881  0.249558  0.992098  1
  Fe  Fe23  1  0.930621  0.750534  0.008294  1
  Bi  Bi24  1  0.570716  0.494172  0.826531  1
  Bi  Bi25  1  0.430253  0.505962  0.173040  1
  Bi  Bi26  1  0.069008  0.505732  0.673289  1
  Bi  Bi27  1  0.431052  0.994009  0.173502  1
  Bi  Bi28  1  0.930338  0.494172  0.326564  1
  Bi  Bi29  1  0.568636  0.005409  0.826167  1
  Bi  Bi30  1  0.929522  0.006152  0.326885  1
  Bi  Bi31  1  0.070266  0.993947  0.673223  1
