# generated using pymatgen
data_Tb8Zr11Si16Tc
_symmetry_space_group_name_H-M   'P 1'
_cell_length_a   7.31293781
_cell_length_b   7.31293811
_cell_length_c   13.41899302
_cell_angle_alpha   89.95888191
_cell_angle_beta   90.04111475
_cell_angle_gamma   89.97225846
_symmetry_Int_Tables_number   1
_chemical_formula_structural   Tb8Zr11Si16Tc
_chemical_formula_sum   'Tb8 Zr11 Si16 Tc1'
_cell_volume   717.63470109
_cell_formula_units_Z   1
loop_
 _symmetry_equiv_pos_site_id
 _symmetry_equiv_pos_as_xyz
  1  'x, y, z'
loop_
 _atom_site_type_symbol
 _atom_site_label
 _atom_site_symmetry_multiplicity
 _atom_site_fract_x
 _atom_site_fract_y
 _atom_site_fract_z
 _atom_site_occupancy
  Tb  Tb0  1  0.999560  0.344567  0.210141  1
  Tb  Tb1  1  0.004329  0.653872  0.716365  1
  Tb  Tb2  1  0.154625  0.495872  0.463874  1
  Tb  Tb3  1  0.500306  0.847934  0.034696  1
  Tb  Tb4  1  0.847934  0.500306  0.965304  1
  Tb  Tb5  1  0.495872  0.154625  0.536126  1
  Tb  Tb6  1  0.344567  0.999560  0.789859  1
  Tb  Tb7  1  0.653872  0.004329  0.283635  1
  Zr  Zr8  1  0.824484  0.824484  0.500000  1
  Zr  Zr9  1  0.323972  0.675689  0.247902  1
  Zr  Zr10  1  0.675689  0.323972  0.752098  1
  Zr  Zr11  1  0.145591  0.997389  0.372543  1
  Zr  Zr12  1  0.854906  0.005561  0.877971  1
  Zr  Zr13  1  0.503222  0.645845  0.625749  1
  Zr  Zr14  1  0.352092  0.494818  0.876610  1
  Zr  Zr15  1  0.494818  0.352092  0.123390  1
  Zr  Zr16  1  0.645845  0.503222  0.374251  1
  Zr  Zr17  1  0.997389  0.145591  0.627457  1
  Zr  Zr18  1  0.005561  0.854906  0.122029  1
  Si  Si19  1  0.360341  0.293324  0.315283  1
  Si  Si20  1  0.639334  0.706810  0.818042  1
  Si  Si21  1  0.206820  0.860972  0.566463  1
  Si  Si22  1  0.137911  0.795080  0.933150  1
  Si  Si23  1  0.795080  0.137911  0.066850  1
  Si  Si24  1  0.860972  0.206820  0.433537  1
  Si  Si25  1  0.293324  0.360341  0.684717  1
  Si  Si26  1  0.706810  0.639334  0.181958  1
  Si  Si27  1  0.292687  0.055962  0.181093  1
  Si  Si28  1  0.703944  0.948874  0.687736  1
  Si  Si29  1  0.447671  0.796406  0.436362  1
  Si  Si30  1  0.204990  0.547704  0.062411  1
  Si  Si31  1  0.547704  0.204990  0.937589  1
  Si  Si32  1  0.796406  0.447671  0.563638  1
  Si  Si33  1  0.055962  0.292687  0.818907  1
  Si  Si34  1  0.948874  0.703944  0.312264  1
  Tc  Tc35  1  0.176538  0.176538  0.000000  1
