# generated using pymatgen
data_Ho12Th4MgIn3Ru4
_symmetry_space_group_name_H-M   'P 1'
_cell_length_a   9.71402034
_cell_length_b   9.71394261
_cell_length_c   9.71394300
_cell_angle_alpha   60.00000206
_cell_angle_beta   60.00026677
_cell_angle_gamma   60.00026607
_symmetry_Int_Tables_number   1
_chemical_formula_structural   Ho12Th4MgIn3Ru4
_chemical_formula_sum   'Ho12 Th4 Mg1 In3 Ru4'
_cell_volume   648.15197708
_cell_formula_units_Z   1
loop_
 _symmetry_equiv_pos_site_id
 _symmetry_equiv_pos_as_xyz
  1  'x, y, z'
loop_
 _atom_site_type_symbol
 _atom_site_label
 _atom_site_symmetry_multiplicity
 _atom_site_fract_x
 _atom_site_fract_y
 _atom_site_fract_z
 _atom_site_occupancy
  Ho  Ho0  1  0.810927  0.188976  0.188976  1
  Ho  Ho1  1  0.187136  0.812571  0.812571  1
  Ho  Ho2  1  0.187136  0.812571  0.187723  1
  Ho  Ho3  1  0.810927  0.188976  0.811121  1
  Ho  Ho4  1  0.187136  0.187723  0.812571  1
  Ho  Ho5  1  0.810927  0.811121  0.188976  1
  Ho  Ho6  1  0.935808  0.563356  0.563356  1
  Ho  Ho7  1  0.563003  0.937386  0.937386  1
  Ho  Ho8  1  0.563003  0.937386  0.562225  1
  Ho  Ho9  1  0.935808  0.563356  0.937481  1
  Ho  Ho10  1  0.563003  0.562225  0.937386  1
  Ho  Ho11  1  0.935808  0.937481  0.563356  1
  Th  Th12  1  0.348297  0.347544  0.347544  1
  Th  Th13  1  0.348297  0.347544  0.956614  1
  Th  Th14  1  0.348297  0.956614  0.347544  1
  Th  Th15  1  0.957056  0.347648  0.347648  1
  Mg  Mg16  1  0.262639  0.579121  0.579121  1
  In  In17  1  0.582667  0.584116  0.584116  1
  In  In18  1  0.582667  0.584116  0.249103  1
  In  In19  1  0.582667  0.249103  0.584116  1
  Ru  Ru20  1  0.142875  0.143418  0.143418  1
  Ru  Ru21  1  0.142875  0.143418  0.570289  1
  Ru  Ru22  1  0.142875  0.570289  0.143418  1
  Ru  Ru23  1  0.568165  0.143945  0.143945  1
