# generated using pymatgen
data_Zr4GaSi3W4
_symmetry_space_group_name_H-M   'P 1'
_cell_length_a   3.54456800
_cell_length_b   7.02816636
_cell_length_c   8.32603415
_cell_angle_alpha   89.58913325
_cell_angle_beta   90.00000000
_cell_angle_gamma   90.00000000
_symmetry_Int_Tables_number   1
_chemical_formula_structural   Zr4GaSi3W4
_chemical_formula_sum   'Zr4 Ga1 Si3 W4'
_cell_volume   207.41127751
_cell_formula_units_Z   1
loop_
 _symmetry_equiv_pos_site_id
 _symmetry_equiv_pos_as_xyz
  1  'x, y, z'
loop_
 _atom_site_type_symbol
 _atom_site_label
 _atom_site_symmetry_multiplicity
 _atom_site_fract_x
 _atom_site_fract_y
 _atom_site_fract_z
 _atom_site_occupancy
  Zr  Zr0  1  0.250000  0.543563  0.169705  1
  Zr  Zr1  1  0.250000  0.042206  0.331934  1
  Zr  Zr2  1  0.750000  0.450882  0.832558  1
  Zr  Zr3  1  0.750000  0.958431  0.662189  1
  Ga  Ga4  1  0.250000  0.753662  0.859506  1
  Si  Si5  1  0.250000  0.256023  0.639995  1
  Si  Si6  1  0.750000  0.246555  0.140350  1
  Si  Si7  1  0.750000  0.743368  0.360387  1
  W  W8  1  0.250000  0.628074  0.556373  1
  W  W9  1  0.250000  0.132140  0.942242  1
  W  W10  1  0.750000  0.369121  0.439361  1
  W  W11  1  0.750000  0.875975  0.065399  1
