# generated using pymatgen
data_Bi(S8F)3
_symmetry_space_group_name_H-M   'P 1'
_cell_length_a   14.70421035
_cell_length_b   14.70420997
_cell_length_c   14.70420997
_cell_angle_alpha   118.61643952
_cell_angle_beta   118.61643888
_cell_angle_gamma   118.61642718
_symmetry_Int_Tables_number   1
_chemical_formula_structural   Bi(S8F)3
_chemical_formula_sum   'Bi1 S24 F3'
_cell_volume   964.90133361
_cell_formula_units_Z   1
loop_
 _symmetry_equiv_pos_site_id
 _symmetry_equiv_pos_as_xyz
  1  'x, y, z'
loop_
 _atom_site_type_symbol
 _atom_site_label
 _atom_site_symmetry_multiplicity
 _atom_site_fract_x
 _atom_site_fract_y
 _atom_site_fract_z
 _atom_site_occupancy
  Bi  Bi0  1  0.777282  0.777282  0.777282  1
  S  S1  1  0.801281  0.524301  0.524301  1
  S  S2  1  0.524301  0.524301  0.801281  1
  S  S3  1  0.524301  0.801281  0.524301  1
  S  S4  1  0.247826  0.380735  0.634253  1
  S  S5  1  0.346694  0.950023  0.346694  1
  S  S6  1  0.346694  0.346694  0.950023  1
  S  S7  1  0.950023  0.346694  0.346694  1
  S  S8  1  0.124409  0.740020  0.256544  1
  S  S9  1  0.256544  0.124409  0.740020  1
  S  S10  1  0.740020  0.256544  0.124409  1
  S  S11  1  0.740020  0.124409  0.256544  1
  S  S12  1  0.256544  0.740020  0.124409  1
  S  S13  1  0.124409  0.256544  0.740020  1
  S  S14  1  0.344826  0.877736  0.531246  1
  S  S15  1  0.531246  0.344826  0.877736  1
  S  S16  1  0.877736  0.531246  0.344826  1
  S  S17  1  0.877736  0.344826  0.531246  1
  S  S18  1  0.531246  0.877736  0.344826  1
  S  S19  1  0.344826  0.531246  0.877736  1
  S  S20  1  0.247826  0.634253  0.380735  1
  S  S21  1  0.380735  0.247826  0.634253  1
  S  S22  1  0.634253  0.380735  0.247826  1
  S  S23  1  0.634253  0.247826  0.380735  1
  S  S24  1  0.380735  0.634253  0.247826  1
  F  F25  1  0.914985  0.032274  0.032274  1
  F  F26  1  0.032274  0.032274  0.914985  1
  F  F27  1  0.032274  0.914985  0.032274  1
