# generated using pymatgen
data_Y3In3NiSnRu
_symmetry_space_group_name_H-M   'P 1'
_cell_length_a   7.80420500
_cell_length_b   7.80420580
_cell_length_c   3.83254600
_cell_angle_alpha   90.00000000
_cell_angle_beta   90.00000000
_cell_angle_gamma   119.99999237
_symmetry_Int_Tables_number   1
_chemical_formula_structural   Y3In3NiSnRu
_chemical_formula_sum   'Y3 In3 Ni1 Sn1 Ru1'
_cell_volume   202.15078102
_cell_formula_units_Z   1
loop_
 _symmetry_equiv_pos_site_id
 _symmetry_equiv_pos_as_xyz
  1  'x, y, z'
loop_
 _atom_site_type_symbol
 _atom_site_label
 _atom_site_symmetry_multiplicity
 _atom_site_fract_x
 _atom_site_fract_y
 _atom_site_fract_z
 _atom_site_occupancy
  Y  Y0  1  0.581160  0.969503  0.000000  1
  Y  Y1  1  0.030497  0.611657  0.000000  1
  Y  Y2  1  0.388343  0.418840  0.000000  1
  In  In3  1  0.242610  0.990293  0.500000  1
  In  In4  1  0.009707  0.252317  0.500000  1
  In  In5  1  0.747683  0.757390  0.500000  1
  Ni  Ni6  1  0.000000  0.000000  0.000000  1
  Sn  Sn7  1  0.666667  0.333333  0.500000  1
  Ru  Ru8  1  0.333333  0.666667  0.500000  1
