# generated using pymatgen
data_Gd2ErMg3CuGe2
_symmetry_space_group_name_H-M   'P 1'
_cell_length_a   7.24907300
_cell_length_b   7.24907435
_cell_length_c   4.27184800
_cell_angle_alpha   90.00000000
_cell_angle_beta   90.00000000
_cell_angle_gamma   119.59693379
_symmetry_Int_Tables_number   1
_chemical_formula_structural   Gd2ErMg3CuGe2
_chemical_formula_sum   'Gd2 Er1 Mg3 Cu1 Ge2'
_cell_volume   195.19157776
_cell_formula_units_Z   1
loop_
 _symmetry_equiv_pos_site_id
 _symmetry_equiv_pos_as_xyz
  1  'x, y, z'
loop_
 _atom_site_type_symbol
 _atom_site_label
 _atom_site_symmetry_multiplicity
 _atom_site_fract_x
 _atom_site_fract_y
 _atom_site_fract_z
 _atom_site_occupancy
  Gd  Gd0  1  0.998447  0.584348  0.000000  1
  Gd  Gd1  1  0.584348  0.998447  0.000000  1
  Er  Er2  1  0.413014  0.413014  0.000000  1
  Mg  Mg3  1  0.000940  0.240906  0.500000  1
  Mg  Mg4  1  0.758688  0.758688  0.500000  1
  Mg  Mg5  1  0.240906  0.000940  0.500000  1
  Cu  Cu6  1  0.005264  0.005264  0.000000  1
  Ge  Ge7  1  0.335097  0.663297  0.500000  1
  Ge  Ge8  1  0.663297  0.335097  0.500000  1
