# generated using pymatgen
data_ErCoCuNi2B
_symmetry_space_group_name_H-M   'P 1'
_cell_length_a   4.98487037
_cell_length_b   4.98486999
_cell_length_c   6.89746300
_cell_angle_alpha   90.00000000
_cell_angle_beta   90.00000000
_cell_angle_gamma   119.68049712
_symmetry_Int_Tables_number   1
_chemical_formula_structural   ErCoCuNi2B
_chemical_formula_sum   'Er2 Co2 Cu2 Ni4 B2'
_cell_volume   148.90763061
_cell_formula_units_Z   2
loop_
 _symmetry_equiv_pos_site_id
 _symmetry_equiv_pos_as_xyz
  1  'x, y, z'
loop_
 _atom_site_type_symbol
 _atom_site_label
 _atom_site_symmetry_multiplicity
 _atom_site_fract_x
 _atom_site_fract_y
 _atom_site_fract_z
 _atom_site_occupancy
  Er  Er0  1  0.000000  0.000000  0.499445  1
  Er  Er1  1  0.000000  0.000000  0.011087  1
  Co  Co2  1  0.500000  0.000000  0.295664  1
  Co  Co3  1  0.000000  0.500000  0.295664  1
  Cu  Cu4  1  0.331582  0.668418  0.998616  1
  Cu  Cu5  1  0.668418  0.331582  0.998616  1
  Ni  Ni6  1  0.500000  0.500000  0.291575  1
  Ni  Ni7  1  0.500000  0.000000  0.706279  1
  Ni  Ni8  1  0.500000  0.500000  0.704461  1
  Ni  Ni9  1  0.000000  0.500000  0.706279  1
  B  B10  1  0.669638  0.330362  0.496157  1
  B  B11  1  0.330362  0.669638  0.496157  1
