# generated using pymatgen
data_Hf4Zr6Sn6Se
_symmetry_space_group_name_H-M   'P 1'
_cell_length_a   5.85446500
_cell_length_b   8.59435766
_cell_length_c   8.59415504
_cell_angle_alpha   119.98800004
_cell_angle_beta   89.99889634
_cell_angle_gamma   89.99811163
_symmetry_Int_Tables_number   1
_chemical_formula_structural   Hf4Zr6Sn6Se
_chemical_formula_sum   'Hf4 Zr6 Sn6 Se1'
_cell_volume   374.53029671
_cell_formula_units_Z   1
loop_
 _symmetry_equiv_pos_site_id
 _symmetry_equiv_pos_as_xyz
  1  'x, y, z'
loop_
 _atom_site_type_symbol
 _atom_site_label
 _atom_site_symmetry_multiplicity
 _atom_site_fract_x
 _atom_site_fract_y
 _atom_site_fract_z
 _atom_site_occupancy
  Hf  Hf0  1  0.500008  0.333310  0.666654  1
  Hf  Hf1  1  0.499990  0.666695  0.333349  1
  Hf  Hf2  1  0.999999  0.666663  0.333339  1
  Hf  Hf3  1  0.999999  0.333343  0.666664  1
  Zr  Zr4  1  0.763353  0.257307  0.999986  1
  Zr  Zr5  1  0.763347  0.742650  0.742637  1
  Zr  Zr6  1  0.763365  0.000009  0.257335  1
  Zr  Zr7  1  0.236645  0.742682  0.999998  1
  Zr  Zr8  1  0.236650  0.257344  0.257374  1
  Zr  Zr9  1  0.236635  0.000001  0.742669  1
  Sn  Sn10  1  0.748490  0.607109  0.000019  1
  Sn  Sn11  1  0.748497  0.392872  0.392881  1
  Sn  Sn12  1  0.748490  0.999999  0.607115  1
  Sn  Sn13  1  0.251510  0.392889  0.999976  1
  Sn  Sn14  1  0.251490  0.607136  0.607118  1
  Sn  Sn15  1  0.251528  0.000000  0.392889  1
  Se  Se16  1  0.500000  0.999994  0.999999  1
