# generated using pymatgen
data_NdCoP3Ir4
_symmetry_space_group_name_H-M   'P 1'
_cell_length_a   3.99408800
_cell_length_b   10.78307800
_cell_length_c   12.45149900
_cell_angle_alpha   90.00000000
_cell_angle_beta   90.00000000
_cell_angle_gamma   90.00000000
_symmetry_Int_Tables_number   1
_chemical_formula_structural   NdCoP3Ir4
_chemical_formula_sum   'Nd4 Co4 P12 Ir16'
_cell_volume   536.26816219
_cell_formula_units_Z   4
loop_
 _symmetry_equiv_pos_site_id
 _symmetry_equiv_pos_as_xyz
  1  'x, y, z'
loop_
 _atom_site_type_symbol
 _atom_site_label
 _atom_site_symmetry_multiplicity
 _atom_site_fract_x
 _atom_site_fract_y
 _atom_site_fract_z
 _atom_site_occupancy
  Nd  Nd0  1  0.250000  0.585147  0.709538  1
  Nd  Nd1  1  0.250000  0.914853  0.209538  1
  Nd  Nd2  1  0.750000  0.414853  0.290462  1
  Nd  Nd3  1  0.750000  0.085147  0.790462  1
  Co  Co4  1  0.250000  0.461845  0.934475  1
  Co  Co5  1  0.250000  0.038155  0.434475  1
  Co  Co6  1  0.750000  0.538155  0.065525  1
  Co  Co7  1  0.750000  0.961845  0.565525  1
  P  P8  1  0.250000  0.426580  0.104604  1
  P  P9  1  0.250000  0.073420  0.604604  1
  P  P10  1  0.750000  0.573420  0.895396  1
  P  P11  1  0.750000  0.926580  0.395396  1
  P  P12  1  0.250000  0.273303  0.871381  1
  P  P13  1  0.250000  0.226697  0.371381  1
  P  P14  1  0.750000  0.726697  0.128619  1
  P  P15  1  0.750000  0.773303  0.628619  1
  P  P16  1  0.250000  0.596228  0.386145  1
  P  P17  1  0.250000  0.903772  0.886145  1
  P  P18  1  0.750000  0.403772  0.613855  1
  P  P19  1  0.750000  0.096228  0.113855  1
  Ir  Ir20  1  0.250000  0.720401  0.980054  1
  Ir  Ir21  1  0.250000  0.779599  0.480054  1
  Ir  Ir22  1  0.750000  0.279599  0.019946  1
  Ir  Ir23  1  0.750000  0.220401  0.519946  1
  Ir  Ir24  1  0.250000  0.406877  0.480985  1
  Ir  Ir25  1  0.250000  0.093123  0.980985  1
  Ir  Ir26  1  0.750000  0.593123  0.519015  1
  Ir  Ir27  1  0.750000  0.906877  0.019015  1
  Ir  Ir28  1  0.250000  0.230061  0.177971  1
  Ir  Ir29  1  0.250000  0.269939  0.677971  1
  Ir  Ir30  1  0.750000  0.769939  0.822029  1
  Ir  Ir31  1  0.750000  0.730061  0.322029  1
  Ir  Ir32  1  0.250000  0.883719  0.697899  1
  Ir  Ir33  1  0.250000  0.616281  0.197899  1
  Ir  Ir34  1  0.750000  0.116281  0.302101  1
  Ir  Ir35  1  0.750000  0.383719  0.802101  1
