# generated using pymatgen
data_TmLu2Sc3FeBi2
_symmetry_space_group_name_H-M   'P 1'
_cell_length_a   7.91122200
_cell_length_b   7.90705522
_cell_length_c   4.12044700
_cell_angle_alpha   90.00000000
_cell_angle_beta   90.00000000
_cell_angle_gamma   120.01742518
_symmetry_Int_Tables_number   1
_chemical_formula_structural   TmLu2Sc3FeBi2
_chemical_formula_sum   'Tm1 Lu2 Sc3 Fe1 Bi2'
_cell_volume   223.18089963
_cell_formula_units_Z   1
loop_
 _symmetry_equiv_pos_site_id
 _symmetry_equiv_pos_as_xyz
  1  'x, y, z'
loop_
 _atom_site_type_symbol
 _atom_site_label
 _atom_site_symmetry_multiplicity
 _atom_site_fract_x
 _atom_site_fract_y
 _atom_site_fract_z
 _atom_site_occupancy
  Tm  Tm0  1  0.617848  0.000000  0.000000  1
  Lu  Lu1  1  0.999921  0.618630  0.000000  1
  Lu  Lu2  1  0.381292  0.381370  0.000000  1
  Sc  Sc3  1  0.223738  0.000000  0.500000  1
  Sc  Sc4  1  0.000579  0.223927  0.500000  1
  Sc  Sc5  1  0.776651  0.776073  0.500000  1
  Fe  Fe6  1  0.000318  0.000000  0.000000  1
  Bi  Bi7  1  0.332885  0.666119  0.500000  1
  Bi  Bi8  1  0.666768  0.333881  0.500000  1
