# generated using pymatgen
data_Mg3(GaIr)2
_symmetry_space_group_name_H-M   'P 1'
_cell_length_a   8.55687100
_cell_length_b   8.55687154
_cell_length_c   7.69638600
_cell_angle_alpha   90.00000000
_cell_angle_beta   90.00000000
_cell_angle_gamma   120.00000177
_symmetry_Int_Tables_number   1
_chemical_formula_structural   Mg3(GaIr)2
_chemical_formula_sum   'Mg12 Ga8 Ir8'
_cell_volume   488.03105893
_cell_formula_units_Z   4
loop_
 _symmetry_equiv_pos_site_id
 _symmetry_equiv_pos_as_xyz
  1  'x, y, z'
loop_
 _atom_site_type_symbol
 _atom_site_label
 _atom_site_symmetry_multiplicity
 _atom_site_fract_x
 _atom_site_fract_y
 _atom_site_fract_z
 _atom_site_occupancy
  Mg  Mg0  1  0.800321  0.199679  0.934940  1
  Mg  Mg1  1  0.800321  0.600642  0.934940  1
  Mg  Mg2  1  0.399358  0.199679  0.934940  1
  Mg  Mg3  1  0.199679  0.800321  0.065060  1
  Mg  Mg4  1  0.199679  0.399358  0.065060  1
  Mg  Mg5  1  0.600642  0.800321  0.065060  1
  Mg  Mg6  1  0.539261  0.460739  0.285277  1
  Mg  Mg7  1  0.539261  0.078524  0.285277  1
  Mg  Mg8  1  0.921476  0.460739  0.285277  1
  Mg  Mg9  1  0.460739  0.539261  0.714723  1
  Mg  Mg10  1  0.460739  0.921476  0.714723  1
  Mg  Mg11  1  0.078524  0.539261  0.714723  1
  Ga  Ga12  1  0.179107  0.820893  0.427089  1
  Ga  Ga13  1  0.179107  0.358215  0.427089  1
  Ga  Ga14  1  0.641785  0.820893  0.427089  1
  Ga  Ga15  1  0.820893  0.179107  0.572911  1
  Ga  Ga16  1  0.820893  0.641785  0.572911  1
  Ga  Ga17  1  0.358215  0.179107  0.572911  1
  Ga  Ga18  1  0.000000  0.000000  0.500000  1
  Ga  Ga19  1  0.000000  0.000000  0.000000  1
  Ir  Ir20  1  0.878560  0.121440  0.254231  1
  Ir  Ir21  1  0.878560  0.757122  0.254231  1
  Ir  Ir22  1  0.242878  0.121440  0.254231  1
  Ir  Ir23  1  0.121440  0.878560  0.745769  1
  Ir  Ir24  1  0.121440  0.242878  0.745769  1
  Ir  Ir25  1  0.757122  0.878560  0.745769  1
  Ir  Ir26  1  0.333333  0.666667  0.314987  1
  Ir  Ir27  1  0.666667  0.333333  0.685013  1
