# generated using pymatgen
data_Nd3Al12Os3Pd
_symmetry_space_group_name_H-M   'P 1'
_cell_length_a   8.90632500
_cell_length_b   8.94906603
_cell_length_c   9.68891638
_cell_angle_alpha   89.97268230
_cell_angle_beta   90.00000000
_cell_angle_gamma   119.84213918
_symmetry_Int_Tables_number   1
_chemical_formula_structural   Nd3Al12Os3Pd
_chemical_formula_sum   'Nd6 Al24 Os6 Pd2'
_cell_volume   669.83936473
_cell_formula_units_Z   2
loop_
 _symmetry_equiv_pos_site_id
 _symmetry_equiv_pos_as_xyz
  1  'x, y, z'
loop_
 _atom_site_type_symbol
 _atom_site_label
 _atom_site_symmetry_multiplicity
 _atom_site_fract_x
 _atom_site_fract_y
 _atom_site_fract_z
 _atom_site_occupancy
  Nd  Nd0  1  0.190313  0.380626  0.250818  1
  Nd  Nd1  1  0.809687  0.619374  0.749182  1
  Nd  Nd2  1  0.616902  0.810692  0.252597  1
  Nd  Nd3  1  0.383098  0.189308  0.747403  1
  Nd  Nd4  1  0.193789  0.810692  0.252597  1
  Nd  Nd5  1  0.806211  0.189308  0.747403  1
  Al  Al6  1  0.336030  0.672061  0.018408  1
  Al  Al7  1  0.663970  0.327939  0.981592  1
  Al  Al8  1  0.666801  0.333601  0.517727  1
  Al  Al9  1  0.333199  0.666399  0.482273  1
  Al  Al10  1  0.163978  0.327956  0.572093  1
  Al  Al11  1  0.836022  0.672044  0.427907  1
  Al  Al12  1  0.671849  0.835291  0.573761  1
  Al  Al13  1  0.838409  0.676819  0.078696  1
  Al  Al14  1  0.328151  0.164709  0.426239  1
  Al  Al15  1  0.161591  0.323181  0.921304  1
  Al  Al16  1  0.163442  0.835291  0.573761  1
  Al  Al17  1  0.325352  0.156871  0.076908  1
  Al  Al18  1  0.836558  0.164709  0.426239  1
  Al  Al19  1  0.674648  0.843129  0.923092  1
  Al  Al20  1  0.831519  0.156871  0.076908  1
  Al  Al21  1  0.168481  0.843129  0.923092  1
  Al  Al22  1  0.562358  0.124716  0.249154  1
  Al  Al23  1  0.437642  0.875284  0.750846  1
  Al  Al24  1  0.873539  0.436727  0.252633  1
  Al  Al25  1  0.126461  0.563273  0.747367  1
  Al  Al26  1  0.563188  0.436727  0.252633  1
  Al  Al27  1  0.436812  0.563273  0.747367  1
  Al  Al28  1  0.000979  0.001958  0.250652  1
  Al  Al29  1  0.999021  0.998042  0.749348  1
  Os  Os30  1  0.500000  0.000000  0.000000  1
  Os  Os31  1  0.500000  0.000000  0.500000  1
  Os  Os32  1  0.000000  0.500000  0.500000  1
  Os  Os33  1  0.500000  0.500000  0.500000  1
  Os  Os34  1  0.000000  0.000000  0.000000  1
  Os  Os35  1  0.000000  0.000000  0.500000  1
  Pd  Pd36  1  0.000000  0.500000  0.000000  1
  Pd  Pd37  1  0.500000  0.500000  0.000000  1
