# generated using pymatgen
data_Zr4Ga2Pt3Rh7
_symmetry_space_group_name_H-M   'P 1'
_cell_length_a   5.58458460
_cell_length_b   5.61164200
_cell_length_c   8.24344800
_cell_angle_alpha   90.00000000
_cell_angle_beta   90.00000000
_cell_angle_gamma   97.04458212
_symmetry_Int_Tables_number   1
_chemical_formula_structural   Zr4Ga2Pt3Rh7
_chemical_formula_sum   'Zr4 Ga2 Pt3 Rh7'
_cell_volume   256.38866343
_cell_formula_units_Z   1
loop_
 _symmetry_equiv_pos_site_id
 _symmetry_equiv_pos_as_xyz
  1  'x, y, z'
loop_
 _atom_site_type_symbol
 _atom_site_label
 _atom_site_symmetry_multiplicity
 _atom_site_fract_x
 _atom_site_fract_y
 _atom_site_fract_z
 _atom_site_occupancy
  Zr  Zr0  1  0.776050  0.230047  0.496966  1
  Zr  Zr1  1  0.223946  0.769980  0.003022  1
  Zr  Zr2  1  0.223946  0.769980  0.496978  1
  Zr  Zr3  1  0.776050  0.230047  0.003034  1
  Ga  Ga4  1  0.502267  0.502141  0.750000  1
  Ga  Ga5  1  0.497826  0.497755  0.250000  1
  Pt  Pt6  1  0.499983  0.000226  0.750000  1
  Pt  Pt7  1  0.000145  0.000147  0.250000  1
  Pt  Pt8  1  0.999808  0.999877  0.750000  1
  Rh  Rh9  1  0.720762  0.721548  0.000724  1
  Rh  Rh10  1  0.720762  0.721548  0.499276  1
  Rh  Rh11  1  0.279242  0.278458  0.999071  1
  Rh  Rh12  1  0.279242  0.278458  0.500929  1
  Rh  Rh13  1  0.499973  0.999779  0.250000  1
  Rh  Rh14  1  0.000254  0.500046  0.750000  1
  Rh  Rh15  1  0.999745  0.499962  0.250000  1
