# generated using pymatgen
data_Nd10TcNiSb4
_symmetry_space_group_name_H-M   'P 1'
_cell_length_a   8.21458800
_cell_length_b   9.09473200
_cell_length_c   12.63053200
_cell_angle_alpha   90.00000000
_cell_angle_beta   90.00000000
_cell_angle_gamma   90.00000000
_symmetry_Int_Tables_number   1
_chemical_formula_structural   Nd10TcNiSb4
_chemical_formula_sum   'Nd20 Tc2 Ni2 Sb8'
_cell_volume   943.62043175
_cell_formula_units_Z   2
loop_
 _symmetry_equiv_pos_site_id
 _symmetry_equiv_pos_as_xyz
  1  'x, y, z'
loop_
 _atom_site_type_symbol
 _atom_site_label
 _atom_site_symmetry_multiplicity
 _atom_site_fract_x
 _atom_site_fract_y
 _atom_site_fract_z
 _atom_site_occupancy
  Nd  Nd0  1  0.160397  0.750000  0.211309  1
  Nd  Nd1  1  0.660397  0.250000  0.288691  1
  Nd  Nd2  1  0.848568  0.250000  0.792581  1
  Nd  Nd3  1  0.348568  0.750000  0.707419  1
  Nd  Nd4  1  0.449612  0.750000  0.995182  1
  Nd  Nd5  1  0.949612  0.250000  0.504818  1
  Nd  Nd6  1  0.546338  0.250000  0.000321  1
  Nd  Nd7  1  0.046338  0.750000  0.499679  1
  Nd  Nd8  1  0.627238  0.750000  0.302182  1
  Nd  Nd9  1  0.127238  0.250000  0.197818  1
  Nd  Nd10  1  0.373728  0.250000  0.697650  1
  Nd  Nd11  1  0.873728  0.750000  0.802350  1
  Nd  Nd12  1  0.818185  0.963289  0.068675  1
  Nd  Nd13  1  0.318185  0.036711  0.431325  1
  Nd  Nd14  1  0.181003  0.460497  0.935470  1
  Nd  Nd15  1  0.681003  0.539503  0.564530  1
  Nd  Nd16  1  0.181003  0.039503  0.935470  1
  Nd  Nd17  1  0.681003  0.960497  0.564530  1
  Nd  Nd18  1  0.818185  0.536711  0.068675  1
  Nd  Nd19  1  0.318185  0.463289  0.431325  1
  Tc  Tc20  1  0.413773  0.750000  0.485317  1
  Tc  Tc21  1  0.913773  0.250000  0.014683  1
  Ni  Ni22  1  0.577284  0.250000  0.510038  1
  Ni  Ni23  1  0.077284  0.750000  0.989962  1
  Sb  Sb24  1  0.928106  0.993015  0.328449  1
  Sb  Sb25  1  0.428106  0.006985  0.171551  1
  Sb  Sb26  1  0.074238  0.493080  0.673868  1
  Sb  Sb27  1  0.574238  0.506920  0.826132  1
  Sb  Sb28  1  0.074238  0.006920  0.673868  1
  Sb  Sb29  1  0.574238  0.993080  0.826132  1
  Sb  Sb30  1  0.928106  0.506985  0.328449  1
  Sb  Sb31  1  0.428106  0.493015  0.171551  1
