# generated using pymatgen
data_Ta4Si4Ir3Rh
_symmetry_space_group_name_H-M   'P 1'
_cell_length_a   3.80321200
_cell_length_b   6.43723099
_cell_length_c   7.33497144
_cell_angle_alpha   90.11072382
_cell_angle_beta   90.00000000
_cell_angle_gamma   90.00000000
_symmetry_Int_Tables_number   1
_chemical_formula_structural   Ta4Si4Ir3Rh
_chemical_formula_sum   'Ta4 Si4 Ir3 Rh1'
_cell_volume   179.57556618
_cell_formula_units_Z   1
loop_
 _symmetry_equiv_pos_site_id
 _symmetry_equiv_pos_as_xyz
  1  'x, y, z'
loop_
 _atom_site_type_symbol
 _atom_site_label
 _atom_site_symmetry_multiplicity
 _atom_site_fract_x
 _atom_site_fract_y
 _atom_site_fract_z
 _atom_site_occupancy
  Ta  Ta0  1  0.250000  0.525551  0.671317  1
  Ta  Ta1  1  0.750000  0.474724  0.328336  1
  Ta  Ta2  1  0.250000  0.024270  0.827380  1
  Ta  Ta3  1  0.750000  0.975412  0.172974  1
  Si  Si4  1  0.250000  0.267740  0.124452  1
  Si  Si5  1  0.750000  0.732202  0.876451  1
  Si  Si6  1  0.250000  0.766541  0.373907  1
  Si  Si7  1  0.750000  0.233115  0.624859  1
  Ir  Ir8  1  0.750000  0.854893  0.564217  1
  Ir  Ir9  1  0.250000  0.145537  0.435831  1
  Ir  Ir10  1  0.750000  0.354781  0.936055  1
  Rh  Rh11  1  0.250000  0.645236  0.064222  1
