# generated using pymatgen
data_Ti4MnCo10CuB4
_symmetry_space_group_name_H-M   'P 1'
_cell_length_a   8.42570800
_cell_length_b   8.42570800
_cell_length_c   2.96668800
_cell_angle_alpha   90.00000000
_cell_angle_beta   90.00000000
_cell_angle_gamma   90.00000000
_symmetry_Int_Tables_number   1
_chemical_formula_structural   Ti4MnCo10CuB4
_chemical_formula_sum   'Ti4 Mn1 Co10 Cu1 B4'
_cell_volume   210.61276190
_cell_formula_units_Z   1
loop_
 _symmetry_equiv_pos_site_id
 _symmetry_equiv_pos_as_xyz
  1  'x, y, z'
loop_
 _atom_site_type_symbol
 _atom_site_label
 _atom_site_symmetry_multiplicity
 _atom_site_fract_x
 _atom_site_fract_y
 _atom_site_fract_z
 _atom_site_occupancy
  Ti  Ti0  1  0.825066  0.322536  0.000000  1
  Ti  Ti1  1  0.322536  0.174934  0.000000  1
  Ti  Ti2  1  0.677464  0.825066  0.000000  1
  Ti  Ti3  1  0.174934  0.677464  0.000000  1
  Mn  Mn4  1  0.500000  0.500000  0.000000  1
  Co  Co5  1  0.500000  0.000000  0.500000  1
  Co  Co6  1  0.000000  0.500000  0.500000  1
  Co  Co7  1  0.069899  0.218659  0.500000  1
  Co  Co8  1  0.218659  0.930101  0.500000  1
  Co  Co9  1  0.781341  0.069899  0.500000  1
  Co  Co10  1  0.930101  0.781341  0.500000  1
  Co  Co11  1  0.429987  0.719278  0.500000  1
  Co  Co12  1  0.570013  0.280722  0.500000  1
  Co  Co13  1  0.719278  0.570013  0.500000  1
  Co  Co14  1  0.280722  0.429987  0.500000  1
  Cu  Cu15  1  0.000000  0.000000  0.000000  1
  B  B16  1  0.624337  0.118999  0.000000  1
  B  B17  1  0.118999  0.375663  0.000000  1
  B  B18  1  0.881001  0.624337  0.000000  1
  B  B19  1  0.375663  0.881001  0.000000  1
