# generated using pymatgen
data_Ba20Co5Ru7O44
_symmetry_space_group_name_H-M   'P 1'
_cell_length_a   5.89772500
_cell_length_b   11.26774549
_cell_length_c   19.09295500
_cell_angle_alpha   90.23340435
_cell_angle_beta   90.00000000
_cell_angle_gamma   90.00000000
_symmetry_Int_Tables_number   1
_chemical_formula_structural   Ba20Co5Ru7O44
_chemical_formula_sum   'Ba20 Co5 Ru7 O44'
_cell_volume   1268.79393123
_cell_formula_units_Z   1
loop_
 _symmetry_equiv_pos_site_id
 _symmetry_equiv_pos_as_xyz
  1  'x, y, z'
loop_
 _atom_site_type_symbol
 _atom_site_label
 _atom_site_symmetry_multiplicity
 _atom_site_fract_x
 _atom_site_fract_y
 _atom_site_fract_z
 _atom_site_occupancy
  Ba  Ba0  1  0.250000  0.129908  0.736029  1
  Ba  Ba1  1  0.250000  0.364007  0.251618  1
  Ba  Ba2  1  0.750000  0.867935  0.250734  1
  Ba  Ba3  1  0.750000  0.632092  0.751324  1
  Ba  Ba4  1  0.250000  0.447863  0.667144  1
  Ba  Ba5  1  0.250000  0.048096  0.169994  1
  Ba  Ba6  1  0.750000  0.543334  0.331892  1
  Ba  Ba7  1  0.750000  0.955988  0.829716  1
  Ba  Ba8  1  0.250000  0.891940  0.971749  1
  Ba  Ba9  1  0.250000  0.603717  0.473742  1
  Ba  Ba10  1  0.750000  0.107816  0.027183  1
  Ba  Ba11  1  0.750000  0.384858  0.527079  1
  Ba  Ba12  1  0.250000  0.819700  0.634686  1
  Ba  Ba13  1  0.250000  0.685878  0.135405  1
  Ba  Ba14  1  0.750000  0.190789  0.361859  1
  Ba  Ba15  1  0.750000  0.306848  0.860766  1
  Ba  Ba16  1  0.250000  0.526751  0.933332  1
  Ba  Ba17  1  0.250000  0.981423  0.443243  1
  Ba  Ba18  1  0.750000  0.466224  0.070986  1
  Ba  Ba19  1  0.750000  0.043765  0.572885  1
  Co  Co20  1  0.250000  0.762037  0.807801  1
  Co  Co21  1  0.250000  0.735518  0.307595  1
  Co  Co22  1  0.750000  0.235568  0.189062  1
  Co  Co23  1  0.750000  0.264542  0.688948  1
  Co  Co24  1  0.250000  0.206527  0.564455  1
  Ru  Ru25  1  0.250000  0.208088  0.936540  1
  Ru  Ru26  1  0.250000  0.293330  0.434930  1
  Ru  Ru27  1  0.750000  0.790949  0.066699  1
  Ru  Ru28  1  0.750000  0.706851  0.570864  1
  Ru  Ru29  1  0.250000  0.292512  0.059670  1
  Ru  Ru30  1  0.750000  0.796982  0.434826  1
  Ru  Ru31  1  0.750000  0.704022  0.935252  1
  O  O32  1  0.250000  0.040934  0.592292  1
  O  O33  1  0.250000  0.459954  0.087447  1
  O  O34  1  0.750000  0.959404  0.407467  1
  O  O35  1  0.750000  0.543257  0.904499  1
  O  O36  1  0.250000  0.305425  0.853016  1
  O  O37  1  0.250000  0.189082  0.351724  1
  O  O38  1  0.750000  0.686905  0.148109  1
  O  O39  1  0.750000  0.812994  0.650917  1
  O  O40  1  0.250000  0.908701  0.769126  1
  O  O41  1  0.250000  0.588762  0.270074  1
  O  O42  1  0.750000  0.084917  0.231336  1
  O  O43  1  0.750000  0.411395  0.729894  1
  O  O44  1  0.250000  0.630945  0.755109  1
  O  O45  1  0.250000  0.857463  0.248080  1
  O  O46  1  0.750000  0.361982  0.251870  1
  O  O47  1  0.750000  0.134565  0.745654  1
  O  O48  1  0.250000  0.376925  0.529458  1
  O  O49  1  0.250000  0.113677  0.030178  1
  O  O50  1  0.750000  0.623943  0.472856  1
  O  O51  1  0.750000  0.878113  0.972057  1
  O  O52  1  0.012976  0.324150  0.983153  1
  O  O53  1  0.473321  0.184242  0.488097  1
  O  O54  1  0.518910  0.679632  0.013384  1
  O  O55  1  0.974403  0.818877  0.514368  1
  O  O56  1  0.981090  0.679632  0.013384  1
  O  O57  1  0.525597  0.818877  0.514368  1
  O  O58  1  0.487024  0.324150  0.983153  1
  O  O59  1  0.026679  0.184242  0.488097  1
  O  O60  1  0.012506  0.106220  0.903358  1
  O  O61  1  0.486332  0.395843  0.400341  1
  O  O62  1  0.512928  0.890823  0.101082  1
  O  O63  1  0.989000  0.608038  0.602354  1
  O  O64  1  0.987072  0.890823  0.101082  1
  O  O65  1  0.511000  0.608038  0.602354  1
  O  O66  1  0.487494  0.106220  0.903358  1
  O  O67  1  0.013668  0.395843  0.400341  1
  O  O68  1  0.012481  0.248524  0.633320  1
  O  O69  1  0.489622  0.254417  0.128200  1
  O  O70  1  0.508633  0.752369  0.367294  1
  O  O71  1  0.985393  0.754265  0.865464  1
  O  O72  1  0.991367  0.752369  0.367294  1
  O  O73  1  0.514607  0.754265  0.865464  1
  O  O74  1  0.487519  0.248524  0.633320  1
  O  O75  1  0.010378  0.254417  0.128200  1
