# generated using pymatgen
data_Lu4HfTa5Si8
_symmetry_space_group_name_H-M   'P 1'
_cell_length_a   7.03403205
_cell_length_b   7.03288405
_cell_length_c   12.89164000
_cell_angle_alpha   90.00000000
_cell_angle_beta   90.00000000
_cell_angle_gamma   90.01355524
_symmetry_Int_Tables_number   1
_chemical_formula_structural   Lu4HfTa5Si8
_chemical_formula_sum   'Lu8 Hf2 Ta10 Si16'
_cell_volume   637.74337709
_cell_formula_units_Z   2
loop_
 _symmetry_equiv_pos_site_id
 _symmetry_equiv_pos_as_xyz
  1  'x, y, z'
loop_
 _atom_site_type_symbol
 _atom_site_label
 _atom_site_symmetry_multiplicity
 _atom_site_fract_x
 _atom_site_fract_y
 _atom_site_fract_z
 _atom_site_occupancy
  Lu  Lu0  1  0.498869  0.156613  0.531808  1
  Lu  Lu1  1  0.501131  0.843387  0.031808  1
  Lu  Lu2  1  0.655719  0.000654  0.282471  1
  Lu  Lu3  1  0.344281  0.999346  0.782471  1
  Lu  Lu4  1  0.841818  0.501704  0.967693  1
  Lu  Lu5  1  0.158182  0.498296  0.467693  1
  Lu  Lu6  1  0.002148  0.657695  0.717982  1
  Lu  Lu7  1  0.997852  0.342305  0.217982  1
  Hf  Hf8  1  0.003719  0.849537  0.123100  1
  Hf  Hf9  1  0.996281  0.150463  0.623100  1
  Ta  Ta10  1  0.672061  0.330889  0.750954  1
  Ta  Ta11  1  0.327939  0.669111  0.250954  1
  Ta  Ta12  1  0.824400  0.824883  0.499782  1
  Ta  Ta13  1  0.175600  0.175117  0.999782  1
  Ta  Ta14  1  0.492272  0.348827  0.126228  1
  Ta  Ta15  1  0.507728  0.651173  0.626228  1
  Ta  Ta16  1  0.850029  0.007602  0.876728  1
  Ta  Ta17  1  0.149971  0.992398  0.376728  1
  Ta  Ta18  1  0.647425  0.506611  0.373822  1
  Ta  Ta19  1  0.352575  0.493389  0.873822  1
  Si  Si20  1  0.793074  0.141332  0.069016  1
  Si  Si21  1  0.206926  0.858668  0.569016  1
  Si  Si22  1  0.637549  0.706227  0.820112  1
  Si  Si23  1  0.362451  0.293773  0.320112  1
  Si  Si24  1  0.861833  0.204963  0.427213  1
  Si  Si25  1  0.138167  0.795037  0.927213  1
  Si  Si26  1  0.699930  0.635333  0.180962  1
  Si  Si27  1  0.300070  0.364667  0.680962  1
  Si  Si28  1  0.546827  0.203727  0.935991  1
  Si  Si29  1  0.453173  0.796273  0.435991  1
  Si  Si30  1  0.701952  0.951967  0.686597  1
  Si  Si31  1  0.298048  0.048033  0.186597  1
  Si  Si32  1  0.795818  0.455845  0.563543  1
  Si  Si33  1  0.204182  0.544155  0.063543  1
  Si  Si34  1  0.951763  0.701416  0.315997  1
  Si  Si35  1  0.048237  0.298584  0.815997  1
