# generated using pymatgen
data_HfZr9Zn2(SnSb2)2
_symmetry_space_group_name_H-M   'P 1'
_cell_length_a   8.67698937
_cell_length_b   8.67794998
_cell_length_c   5.85616705
_cell_angle_alpha   89.99305036
_cell_angle_beta   90.01502833
_cell_angle_gamma   119.93681122
_symmetry_Int_Tables_number   1
_chemical_formula_structural   HfZr9Zn2(SnSb2)2
_chemical_formula_sum   'Hf1 Zr9 Zn2 Sn2 Sb4'
_cell_volume   382.12588614
_cell_formula_units_Z   1
loop_
 _symmetry_equiv_pos_site_id
 _symmetry_equiv_pos_as_xyz
  1  'x, y, z'
loop_
 _atom_site_type_symbol
 _atom_site_label
 _atom_site_symmetry_multiplicity
 _atom_site_fract_x
 _atom_site_fract_y
 _atom_site_fract_z
 _atom_site_occupancy
  Hf  Hf0  1  0.666434  0.333610  0.001098  1
  Zr  Zr1  1  0.333824  0.666436  0.000815  1
  Zr  Zr2  1  0.333725  0.666463  0.499139  1
  Zr  Zr3  1  0.666478  0.333864  0.499270  1
  Zr  Zr4  1  0.730587  0.730244  0.750205  1
  Zr  Zr5  1  0.269307  0.000645  0.750049  1
  Zr  Zr6  1  0.999989  0.268980  0.750047  1
  Zr  Zr7  1  0.270967  0.270735  0.249791  1
  Zr  Zr8  1  0.729972  0.999506  0.249825  1
  Zr  Zr9  1  0.998963  0.729756  0.249851  1
  Zn  Zn10  1  0.000802  0.000810  0.001790  1
  Zn  Zn11  1  0.000807  0.000796  0.498213  1
  Sn  Sn12  1  0.383568  0.000226  0.249584  1
  Sn  Sn13  1  0.999358  0.383134  0.249571  1
  Sb  Sb14  1  0.384629  0.384202  0.750431  1
  Sb  Sb15  1  0.614898  0.001019  0.750398  1
  Sb  Sb16  1  0.000146  0.614466  0.750400  1
  Sb  Sb17  1  0.615547  0.615106  0.249523  1
