# generated using pymatgen
data_Sr2VFeF10
_symmetry_space_group_name_H-M   'P 1'
_cell_length_a   10.63103900
_cell_length_b   5.78968305
_cell_length_c   7.97145654
_cell_angle_alpha   70.07499363
_cell_angle_beta   90.00000000
_cell_angle_gamma   90.00000000
_symmetry_Int_Tables_number   1
_chemical_formula_structural   Sr2VFeF10
_chemical_formula_sum   'Sr4 V2 Fe2 F20'
_cell_volume   461.27559204
_cell_formula_units_Z   2
loop_
 _symmetry_equiv_pos_site_id
 _symmetry_equiv_pos_as_xyz
  1  'x, y, z'
loop_
 _atom_site_type_symbol
 _atom_site_label
 _atom_site_symmetry_multiplicity
 _atom_site_fract_x
 _atom_site_fract_y
 _atom_site_fract_z
 _atom_site_occupancy
  Sr  Sr0  1  0.020760  0.530866  0.744017  1
  Sr  Sr1  1  0.520760  0.469134  0.755983  1
  Sr  Sr2  1  0.979297  0.469099  0.255230  1
  Sr  Sr3  1  0.479297  0.530901  0.244770  1
  V  V4  1  0.753389  0.110068  0.598617  1
  V  V5  1  0.253389  0.889932  0.901383  1
  Fe  Fe6  1  0.246604  0.892280  0.400790  1
  Fe  Fe7  1  0.746604  0.107720  0.099210  1
  F  F8  1  0.876344  0.383381  0.556445  1
  F  F9  1  0.376344  0.616619  0.943555  1
  F  F10  1  0.123258  0.617295  0.443433  1
  F  F11  1  0.623258  0.382705  0.056567  1
  F  F12  1  0.617139  0.351940  0.507657  1
  F  F13  1  0.117139  0.648060  0.992343  1
  F  F14  1  0.382903  0.648881  0.492674  1
  F  F15  1  0.882903  0.351119  0.007326  1
  F  F16  1  0.391673  0.109980  0.813713  1
  F  F17  1  0.891673  0.890020  0.686287  1
  F  F18  1  0.609029  0.890670  0.187041  1
  F  F19  1  0.109029  0.109330  0.312959  1
  F  F20  1  0.139736  0.158065  0.862635  1
  F  F21  1  0.639736  0.841935  0.637365  1
  F  F22  1  0.859730  0.842331  0.136225  1
  F  F23  1  0.359730  0.157669  0.363775  1
  F  F24  1  0.706810  0.146750  0.841965  1
  F  F25  1  0.206810  0.853250  0.658035  1
  F  F26  1  0.293328  0.853653  0.164427  1
  F  F27  1  0.793328  0.146347  0.335573  1
