# generated using pymatgen
data_Yb4B3N4
_symmetry_space_group_name_H-M   'P 1'
_cell_length_a   3.50648323
_cell_length_b   3.42059204
_cell_length_c   11.91247080
_cell_angle_alpha   98.74893556
_cell_angle_beta   90.89193936
_cell_angle_gamma   89.98222403
_symmetry_Int_Tables_number   1
_chemical_formula_structural   Yb4B3N4
_chemical_formula_sum   'Yb4 B3 N4'
_cell_volume   141.20120252
_cell_formula_units_Z   1
loop_
 _symmetry_equiv_pos_site_id
 _symmetry_equiv_pos_as_xyz
  1  'x, y, z'
loop_
 _atom_site_type_symbol
 _atom_site_label
 _atom_site_symmetry_multiplicity
 _atom_site_fract_x
 _atom_site_fract_y
 _atom_site_fract_z
 _atom_site_occupancy
  Yb  Yb0  1  0.480196  0.563177  0.149714  1
  Yb  Yb1  1  0.991583  0.168731  0.355750  1
  Yb  Yb2  1  0.008417  0.831271  0.644250  1
  Yb  Yb3  1  0.519806  0.436824  0.850286  1
  B  B4  1  0.000000  0.000000  0.000000  1
  B  B5  1  0.497534  0.722871  0.458629  1
  B  B6  1  0.502469  0.277127  0.541370  1
  N  N7  1  0.975038  0.043572  0.114576  1
  N  N8  1  0.490628  0.658259  0.336811  1
  N  N9  1  0.509372  0.341742  0.663190  1
  N  N10  1  0.024961  0.956430  0.885424  1
