# generated using pymatgen
data_Sc6Zn23Se
_symmetry_space_group_name_H-M   'P 1'
_cell_length_a   8.81678407
_cell_length_b   8.81678392
_cell_length_c   8.81678500
_cell_angle_alpha   59.99999969
_cell_angle_beta   60.00000025
_cell_angle_gamma   60.00000178
_symmetry_Int_Tables_number   1
_chemical_formula_structural   Sc6Zn23Se
_chemical_formula_sum   'Sc6 Zn23 Se1'
_cell_volume   484.63598728
_cell_formula_units_Z   1
loop_
 _symmetry_equiv_pos_site_id
 _symmetry_equiv_pos_as_xyz
  1  'x, y, z'
loop_
 _atom_site_type_symbol
 _atom_site_label
 _atom_site_symmetry_multiplicity
 _atom_site_fract_x
 _atom_site_fract_y
 _atom_site_fract_z
 _atom_site_occupancy
  Sc  Sc0  1  0.712573  0.287427  0.287427  1
  Sc  Sc1  1  0.712573  0.287427  0.712573  1
  Sc  Sc2  1  0.712573  0.712573  0.287427  1
  Sc  Sc3  1  0.287427  0.712573  0.712573  1
  Sc  Sc4  1  0.287427  0.712573  0.287427  1
  Sc  Sc5  1  0.287427  0.287427  0.712573  1
  Zn  Zn6  1  0.629926  0.123358  0.123358  1
  Zn  Zn7  1  0.123358  0.629926  0.123358  1
  Zn  Zn8  1  0.123358  0.123358  0.629926  1
  Zn  Zn9  1  0.123358  0.123358  0.123358  1
  Zn  Zn10  1  0.370074  0.876642  0.876642  1
  Zn  Zn11  1  0.876642  0.370074  0.876642  1
  Zn  Zn12  1  0.876642  0.876642  0.370074  1
  Zn  Zn13  1  0.876642  0.876642  0.876642  1
  Zn  Zn14  1  0.500000  0.000000  0.000000  1
  Zn  Zn15  1  0.500000  0.000000  0.500000  1
  Zn  Zn16  1  0.500000  0.500000  0.000000  1
  Zn  Zn17  1  0.000000  0.500000  0.500000  1
  Zn  Zn18  1  0.000000  0.500000  0.000000  1
  Zn  Zn19  1  0.000000  0.000000  0.500000  1
  Zn  Zn20  1  0.000000  0.000000  0.000000  1
  Zn  Zn21  1  0.006078  0.331307  0.331307  1
  Zn  Zn22  1  0.331307  0.006078  0.331307  1
  Zn  Zn23  1  0.331307  0.331307  0.006078  1
  Zn  Zn24  1  0.331307  0.331307  0.331307  1
  Zn  Zn25  1  0.993922  0.668693  0.668693  1
  Zn  Zn26  1  0.668693  0.993922  0.668693  1
  Zn  Zn27  1  0.668693  0.668693  0.993922  1
  Zn  Zn28  1  0.668693  0.668693  0.668693  1
  Se  Se29  1  0.500000  0.500000  0.500000  1
