# generated using pymatgen
data_SmTl3Pd4F28
_symmetry_space_group_name_H-M   'P 1'
_cell_length_a   5.55351068
_cell_length_b   8.92419501
_cell_length_c   12.01608500
_cell_angle_alpha   62.35060296
_cell_angle_beta   90.04457992
_cell_angle_gamma   90.01454355
_symmetry_Int_Tables_number   1
_chemical_formula_structural   SmTl3Pd4F28
_chemical_formula_sum   'Sm1 Tl3 Pd4 F28'
_cell_volume   527.51774200
_cell_formula_units_Z   1
loop_
 _symmetry_equiv_pos_site_id
 _symmetry_equiv_pos_as_xyz
  1  'x, y, z'
loop_
 _atom_site_type_symbol
 _atom_site_label
 _atom_site_symmetry_multiplicity
 _atom_site_fract_x
 _atom_site_fract_y
 _atom_site_fract_z
 _atom_site_occupancy
  Sm  Sm0  1  0.740147  0.812890  0.265145  1
  Tl  Tl1  1  0.763405  0.815383  0.762693  1
  Tl  Tl2  1  0.263940  0.185711  0.737213  1
  Tl  Tl3  1  0.233649  0.189935  0.236244  1
  Pd  Pd4  1  0.762198  0.276621  0.953669  1
  Pd  Pd5  1  0.259102  0.724646  0.548127  1
  Pd  Pd6  1  0.242116  0.723895  0.041572  1
  Pd  Pd7  1  0.737262  0.270312  0.456697  1
  F  F8  1  0.430774  0.694254  0.917131  1
  F  F9  1  0.923555  0.299612  0.582021  1
  F  F10  1  0.578273  0.307513  0.078668  1
  F  F11  1  0.070564  0.705816  0.418100  1
  F  F12  1  0.433039  0.276997  0.537324  1
  F  F13  1  0.937920  0.716056  0.961122  1
  F  F14  1  0.557670  0.722084  0.462955  1
  F  F15  1  0.066247  0.284752  0.033367  1
  F  F16  1  0.784446  0.523750  0.850733  1
  F  F17  1  0.280781  0.474827  0.645447  1
  F  F18  1  0.219083  0.476053  0.146162  1
  F  F19  1  0.721062  0.516782  0.359503  1
  F  F20  1  0.757121  0.030932  0.048614  1
  F  F21  1  0.254460  0.969212  0.459842  1
  F  F22  1  0.246636  0.969003  0.953149  1
  F  F23  1  0.743349  0.024708  0.546260  1
  F  F24  1  0.957614  0.720977  0.633346  1
  F  F25  1  0.458888  0.276912  0.869075  1
  F  F26  1  0.039738  0.277022  0.370443  1
  F  F27  1  0.534698  0.724489  0.131228  1
  F  F28  1  0.058823  0.743336  0.173743  1
  F  F29  1  0.560745  0.256597  0.318368  1
  F  F30  1  0.938734  0.256987  0.817461  1
  F  F31  1  0.436797  0.736466  0.685537  1
  F  F32  1  0.401977  0.975606  0.229000  1
  F  F33  1  0.908008  0.039359  0.270021  1
  F  F34  1  0.598431  0.032182  0.772542  1
  F  F35  1  0.098744  0.968323  0.727476  1
