# generated using pymatgen
data_Lu8V11Si16Ir
_symmetry_space_group_name_H-M   'P 1'
_cell_length_a   6.58533730
_cell_length_b   6.80426546
_cell_length_c   12.73881800
_cell_angle_alpha   90.00000000
_cell_angle_beta   90.00000000
_cell_angle_gamma   89.66252926
_symmetry_Int_Tables_number   1
_chemical_formula_structural   Lu8V11Si16Ir
_chemical_formula_sum   'Lu8 V11 Si16 Ir1'
_cell_volume   570.79593624
_cell_formula_units_Z   1
loop_
 _symmetry_equiv_pos_site_id
 _symmetry_equiv_pos_as_xyz
  1  'x, y, z'
loop_
 _atom_site_type_symbol
 _atom_site_label
 _atom_site_symmetry_multiplicity
 _atom_site_fract_x
 _atom_site_fract_y
 _atom_site_fract_z
 _atom_site_occupancy
  Lu  Lu0  1  0.495813  0.330303  0.093882  1
  Lu  Lu1  1  0.997798  0.167033  0.405743  1
  Lu  Lu2  1  0.501622  0.669679  0.595287  1
  Lu  Lu3  1  0.002148  0.830795  0.903825  1
  Lu  Lu4  1  0.501622  0.669679  0.904713  1
  Lu  Lu5  1  0.002148  0.830795  0.596175  1
  Lu  Lu6  1  0.495813  0.330303  0.406118  1
  Lu  Lu7  1  0.997798  0.167033  0.094257  1
  V  V8  1  0.836950  0.329201  0.624309  1
  V  V9  1  0.336013  0.172381  0.873260  1
  V  V10  1  0.168013  0.672673  0.126151  1
  V  V11  1  0.664785  0.832570  0.373381  1
  V  V12  1  0.168013  0.672673  0.373849  1
  V  V13  1  0.664785  0.832570  0.126619  1
  V  V14  1  0.836950  0.329201  0.875691  1
  V  V15  1  0.336013  0.172381  0.626740  1
  V  V16  1  0.664391  0.011235  0.750000  1
  V  V17  1  0.167188  0.485753  0.750000  1
  V  V18  1  0.333695  0.995581  0.250000  1
  Si  Si19  1  0.662657  0.042999  0.544600  1
  Si  Si20  1  0.162762  0.457589  0.956938  1
  Si  Si21  1  0.339256  0.958519  0.044069  1
  Si  Si22  1  0.838213  0.545393  0.456452  1
  Si  Si23  1  0.339256  0.958519  0.455931  1
  Si  Si24  1  0.838213  0.545393  0.043548  1
  Si  Si25  1  0.662657  0.042999  0.955400  1
  Si  Si26  1  0.162762  0.457589  0.543062  1
  Si  Si27  1  0.539646  0.368669  0.750000  1
  Si  Si28  1  0.036217  0.130702  0.750000  1
  Si  Si29  1  0.462975  0.635850  0.250000  1
  Si  Si30  1  0.961301  0.864847  0.250000  1
  Si  Si31  1  0.803964  0.621597  0.750000  1
  Si  Si32  1  0.304477  0.877690  0.750000  1
  Si  Si33  1  0.193882  0.377334  0.250000  1
  Si  Si34  1  0.693218  0.121177  0.250000  1
  Ir  Ir35  1  0.826989  0.491294  0.250000  1
