# generated using pymatgen
data_Li4Dy3Y(SiO4)4
_symmetry_space_group_name_H-M   'P 1'
_cell_length_a   5.44331352
_cell_length_b   10.94549901
_cell_length_c   6.23800119
_cell_angle_alpha   89.97175273
_cell_angle_beta   90.01364926
_cell_angle_gamma   113.60027620
_symmetry_Int_Tables_number   1
_chemical_formula_structural   Li4Dy3Y(SiO4)4
_chemical_formula_sum   'Li4 Dy3 Y1 Si4 O16'
_cell_volume   340.57347297
_cell_formula_units_Z   1
loop_
 _symmetry_equiv_pos_site_id
 _symmetry_equiv_pos_as_xyz
  1  'x, y, z'
loop_
 _atom_site_type_symbol
 _atom_site_label
 _atom_site_symmetry_multiplicity
 _atom_site_fract_x
 _atom_site_fract_y
 _atom_site_fract_z
 _atom_site_occupancy
  Li  Li0  1  0.918857  0.569820  0.133959  1
  Li  Li1  1  0.919220  0.069959  0.366019  1
  Li  Li2  1  0.080874  0.930195  0.633822  1
  Li  Li3  1  0.080934  0.430131  0.866101  1
  Dy  Dy4  1  0.445518  0.152287  0.116501  1
  Dy  Dy5  1  0.445313  0.652000  0.383457  1
  Dy  Dy6  1  0.554567  0.347739  0.616399  1
  Y  Y7  1  0.554309  0.847759  0.883352  1
  Si  Si8  1  0.095824  0.859200  0.152438  1
  Si  Si9  1  0.095827  0.359167  0.348035  1
  Si  Si10  1  0.903967  0.640585  0.651710  1
  Si  Si11  1  0.904433  0.141039  0.848037  1
  O  O12  1  0.773761  0.055711  0.071351  1
  O  O13  1  0.768989  0.776091  0.142158  1
  O  O14  1  0.184910  0.475569  0.163111  1
  O  O15  1  0.241039  0.752347  0.162625  1
  O  O16  1  0.241362  0.252444  0.337825  1
  O  O17  1  0.185231  0.975717  0.337014  1
  O  O18  1  0.768823  0.276371  0.358587  1
  O  O19  1  0.772996  0.554982  0.428891  1
  O  O20  1  0.226583  0.444582  0.571113  1
  O  O21  1  0.230871  0.723360  0.640650  1
  O  O22  1  0.815739  0.024836  0.662902  1
  O  O23  1  0.758956  0.747490  0.661548  1
  O  O24  1  0.758763  0.247702  0.837754  1
  O  O25  1  0.814991  0.524325  0.836797  1
  O  O26  1  0.231416  0.223832  0.858677  1
  O  O27  1  0.225926  0.944760  0.929163  1
