# generated using pymatgen
data_TbEr7(TcBr4)2
_symmetry_space_group_name_H-M   'P 1'
_cell_length_a   8.91561717
_cell_length_b   8.90061059
_cell_length_c   6.57335785
_cell_angle_alpha   89.49977627
_cell_angle_beta   89.36019786
_cell_angle_gamma   89.34528483
_symmetry_Int_Tables_number   1
_chemical_formula_structural   TbEr7(TcBr4)2
_chemical_formula_sum   'Tb1 Er7 Tc2 Br8'
_cell_volume   521.53922899
_cell_formula_units_Z   1
loop_
 _symmetry_equiv_pos_site_id
 _symmetry_equiv_pos_as_xyz
  1  'x, y, z'
loop_
 _atom_site_type_symbol
 _atom_site_label
 _atom_site_symmetry_multiplicity
 _atom_site_fract_x
 _atom_site_fract_y
 _atom_site_fract_z
 _atom_site_occupancy
  Tb  Tb0  1  0.250310  0.900684  0.010635  1
  Er  Er1  1  0.753195  0.098172  0.988132  1
  Er  Er2  1  0.097402  0.752793  0.487853  1
  Er  Er3  1  0.901481  0.247506  0.511939  1
  Er  Er4  1  0.753085  0.903215  0.507954  1
  Er  Er5  1  0.246084  0.097488  0.491473  1
  Er  Er6  1  0.096272  0.247649  0.991475  1
  Er  Er7  1  0.902405  0.752925  0.008381  1
  Tc  Tc8  1  0.993700  0.006313  0.250005  1
  Tc  Tc9  1  0.005294  0.994236  0.749297  1
  Br  Br10  1  0.420940  0.816907  0.408538  1
  Br  Br11  1  0.579274  0.182710  0.593985  1
  Br  Br12  1  0.181939  0.578217  0.094230  1
  Br  Br13  1  0.817050  0.420897  0.906055  1
  Br  Br14  1  0.415959  0.192803  0.096178  1
  Br  Br15  1  0.585777  0.807268  0.903853  1
  Br  Br16  1  0.808136  0.583943  0.403780  1
  Br  Br17  1  0.191698  0.416273  0.596237  1
