# generated using pymatgen
data_Er3Tm(CdGa2)2
_symmetry_space_group_name_H-M   'P 1'
_cell_length_a   7.29637919
_cell_length_b   7.29637919
_cell_length_c   4.23986100
_cell_angle_alpha   90.00000000
_cell_angle_beta   90.00000000
_cell_angle_gamma   89.85075284
_symmetry_Int_Tables_number   1
_chemical_formula_structural   Er3Tm(CdGa2)2
_chemical_formula_sum   'Er3 Tm1 Cd2 Ga4'
_cell_volume   225.71734713
_cell_formula_units_Z   1
loop_
 _symmetry_equiv_pos_site_id
 _symmetry_equiv_pos_as_xyz
  1  'x, y, z'
loop_
 _atom_site_type_symbol
 _atom_site_label
 _atom_site_symmetry_multiplicity
 _atom_site_fract_x
 _atom_site_fract_y
 _atom_site_fract_z
 _atom_site_occupancy
  Er  Er0  1  0.329351  0.170649  0.499999  1
  Er  Er1  1  0.828895  0.329166  0.499999  1
  Er  Er2  1  0.170834  0.671105  0.499999  1
  Tm  Tm3  1  0.671046  0.828954  0.499999  1
  Cd  Cd4  1  0.999766  0.999935  0.000000  1
  Cd  Cd5  1  0.500065  0.500234  0.000000  1
  Ga  Ga6  1  0.626919  0.126124  0.000000  1
  Ga  Ga7  1  0.126696  0.373304  0.000000  1
  Ga  Ga8  1  0.872553  0.627447  0.000000  1
  Ga  Ga9  1  0.373876  0.873081  0.000000  1
