# generated using pymatgen
data_GaPPd4
_symmetry_space_group_name_H-M   'P 1'
_cell_length_a   3.47239600
_cell_length_b   6.68399748
_cell_length_c   11.53796497
_cell_angle_alpha   89.94375411
_cell_angle_beta   90.00000000
_cell_angle_gamma   90.00000000
_symmetry_Int_Tables_number   1
_chemical_formula_structural   GaPPd4
_chemical_formula_sum   'Ga3 P3 Pd12'
_cell_volume   267.79010885
_cell_formula_units_Z   3
loop_
 _symmetry_equiv_pos_site_id
 _symmetry_equiv_pos_as_xyz
  1  'x, y, z'
loop_
 _atom_site_type_symbol
 _atom_site_label
 _atom_site_symmetry_multiplicity
 _atom_site_fract_x
 _atom_site_fract_y
 _atom_site_fract_z
 _atom_site_occupancy
  Ga  Ga0  1  0.000000  0.502013  0.166789  1
  Ga  Ga1  1  0.000000  0.498738  0.834085  1
  Ga  Ga2  1  0.000000  0.000984  0.332375  1
  P  P3  1  0.500000  0.002360  0.000650  1
  P  P4  1  0.500000  0.496655  0.499798  1
  P  P5  1  0.000000  0.996632  0.666281  1
  Pd  Pd6  1  0.000000  0.747593  0.998036  1
  Pd  Pd7  1  0.000000  0.238533  0.506745  1
  Pd  Pd8  1  0.000000  0.635608  0.628898  1
  Pd  Pd9  1  0.000000  0.128186  0.125451  1
  Pd  Pd10  1  0.000000  0.121100  0.864075  1
  Pd  Pd11  1  0.000000  0.628300  0.375834  1
  Pd  Pd12  1  0.500000  0.899598  0.507922  1
  Pd  Pd13  1  0.500000  0.391911  0.997639  1
  Pd  Pd14  1  0.500000  0.809331  0.796586  1
  Pd  Pd15  1  0.500000  0.302658  0.304835  1
  Pd  Pd16  1  0.500000  0.296935  0.694965  1
  Pd  Pd17  1  0.500000  0.803065  0.199036  1
