# generated using pymatgen
data_La5Pr4Sm(Al2Ru3)2
_symmetry_space_group_name_H-M   'P 1'
_cell_length_a   8.59997548
_cell_length_b   8.65661851
_cell_length_c   8.65661825
_cell_angle_alpha   109.65516098
_cell_angle_beta   109.63946015
_cell_angle_gamma   109.38488174
_symmetry_Int_Tables_number   1
_chemical_formula_structural   La5Pr4Sm(Al2Ru3)2
_chemical_formula_sum   'La5 Pr4 Sm1 Al4 Ru6'
_cell_volume   494.46609201
_cell_formula_units_Z   1
loop_
 _symmetry_equiv_pos_site_id
 _symmetry_equiv_pos_as_xyz
  1  'x, y, z'
loop_
 _atom_site_type_symbol
 _atom_site_label
 _atom_site_symmetry_multiplicity
 _atom_site_fract_x
 _atom_site_fract_y
 _atom_site_fract_z
 _atom_site_occupancy
  La  La0  1  0.750000  0.810577  0.060577  1
  La  La1  1  0.438604  0.247684  0.688282  1
  La  La2  1  0.690479  0.439216  0.250309  1
  La  La3  1  0.061396  0.749677  0.809079  1
  La  La4  1  0.809521  0.059830  0.748736  1
  Pr  Pr5  1  0.215582  0.216983  0.215398  1
  Pr  Pr6  1  0.497211  0.998498  0.283458  1
  Pr  Pr7  1  0.284418  0.499816  0.001400  1
  Pr  Pr8  1  0.002789  0.286246  0.501287  1
  Sm  Sm9  1  0.250000  0.684501  0.434501  1
  Al  Al10  1  0.583196  0.586456  0.585356  1
  Al  Al11  1  0.498811  0.997479  0.909675  1
  Al  Al12  1  0.916804  0.502160  0.003260  1
  Al  Al13  1  0.001189  0.910864  0.498669  1
  Ru  Ru14  1  0.250000  0.114902  0.864902  1
  Ru  Ru15  1  0.750000  0.386754  0.636754  1
  Ru  Ru16  1  0.866234  0.253366  0.116270  1
  Ru  Ru17  1  0.109744  0.866991  0.247709  1
  Ru  Ru18  1  0.633765  0.750034  0.387131  1
  Ru  Ru19  1  0.390256  0.637964  0.757248  1
