# generated using pymatgen
data_Eu2HoNbO6
_symmetry_space_group_name_H-M   'P 1'
_cell_length_a   5.75811995
_cell_length_b   5.94529000
_cell_length_c   8.24500966
_cell_angle_alpha   89.99986252
_cell_angle_beta   89.73254730
_cell_angle_gamma   89.99934377
_symmetry_Int_Tables_number   1
_chemical_formula_structural   Eu2HoNbO6
_chemical_formula_sum   'Eu4 Ho2 Nb2 O12'
_cell_volume   282.25405422
_cell_formula_units_Z   2
loop_
 _symmetry_equiv_pos_site_id
 _symmetry_equiv_pos_as_xyz
  1  'x, y, z'
loop_
 _atom_site_type_symbol
 _atom_site_label
 _atom_site_symmetry_multiplicity
 _atom_site_fract_x
 _atom_site_fract_y
 _atom_site_fract_z
 _atom_site_occupancy
  Eu  Eu0  1  0.985365  0.947551  0.250787  1
  Eu  Eu1  1  0.514629  0.447525  0.249203  1
  Eu  Eu2  1  0.014661  0.052489  0.749203  1
  Eu  Eu3  1  0.485368  0.552456  0.750778  1
  Ho  Ho4  1  0.499999  0.999985  0.000014  1
  Ho  Ho5  1  0.999997  0.500009  0.499983  1
  Nb  Nb6  1  0.500004  0.999998  0.500018  1
  Nb  Nb7  1  0.999998  0.500003  0.999986  1
  O  O8  1  0.311284  0.283541  0.556157  1
  O  O9  1  0.188723  0.783528  0.943849  1
  O  O10  1  0.688709  0.716458  0.443865  1
  O  O11  1  0.811268  0.216472  0.056141  1
  O  O12  1  0.285741  0.307057  0.949044  1
  O  O13  1  0.214280  0.807038  0.550959  1
  O  O14  1  0.714263  0.692939  0.050943  1
  O  O15  1  0.785725  0.192955  0.449062  1
  O  O16  1  0.100898  0.534839  0.237097  1
  O  O17  1  0.399098  0.034844  0.262905  1
  O  O18  1  0.899088  0.465165  0.762890  1
  O  O19  1  0.600899  0.965149  0.737112  1
