# generated using pymatgen
data_HoEr3(ScSb5)4
_symmetry_space_group_name_H-M   'P 1'
_cell_length_a   4.19763600
_cell_length_b   13.02564588
_cell_length_c   14.20672419
_cell_angle_alpha   78.83200026
_cell_angle_beta   90.00000000
_cell_angle_gamma   90.00000000
_symmetry_Int_Tables_number   1
_chemical_formula_structural   HoEr3(ScSb5)4
_chemical_formula_sum   'Ho1 Er3 Sc4 Sb20'
_cell_volume   762.07041757
_cell_formula_units_Z   1
loop_
 _symmetry_equiv_pos_site_id
 _symmetry_equiv_pos_as_xyz
  1  'x, y, z'
loop_
 _atom_site_type_symbol
 _atom_site_label
 _atom_site_symmetry_multiplicity
 _atom_site_fract_x
 _atom_site_fract_y
 _atom_site_fract_z
 _atom_site_occupancy
  Ho  Ho0  1  0.750000  0.046378  0.644973  1
  Er  Er1  1  0.250000  0.669294  0.576331  1
  Er  Er2  1  0.750000  0.330722  0.423643  1
  Er  Er3  1  0.250000  0.953508  0.355308  1
  Sc  Sc4  1  0.250000  0.396801  0.772493  1
  Sc  Sc5  1  0.750000  0.603218  0.227493  1
  Sc  Sc6  1  0.250000  0.657530  0.858572  1
  Sc  Sc7  1  0.750000  0.342461  0.141441  1
  Sb  Sb8  1  0.250000  0.147565  0.779929  1
  Sb  Sb9  1  0.750000  0.852641  0.220195  1
  Sb  Sb10  1  0.250000  0.143362  0.483306  1
  Sb  Sb11  1  0.750000  0.856711  0.516362  1
  Sb  Sb12  1  0.250000  0.162719  0.161362  1
  Sb  Sb13  1  0.750000  0.837221  0.838643  1
  Sb  Sb14  1  0.250000  0.422133  0.974944  1
  Sb  Sb15  1  0.750000  0.577857  0.025049  1
  Sb  Sb16  1  0.750000  0.028438  0.913726  1
  Sb  Sb17  1  0.250000  0.971569  0.086265  1
  Sb  Sb18  1  0.750000  0.142450  0.316355  1
  Sb  Sb19  1  0.250000  0.857235  0.683660  1
  Sb  Sb20  1  0.750000  0.279792  0.936354  1
  Sb  Sb21  1  0.250000  0.720222  0.063626  1
  Sb  Sb22  1  0.750000  0.289161  0.658655  1
  Sb  Sb23  1  0.250000  0.711002  0.341354  1
  Sb  Sb24  1  0.750000  0.573558  0.740871  1
  Sb  Sb25  1  0.250000  0.426435  0.259119  1
  Sb  Sb26  1  0.750000  0.570181  0.444104  1
  Sb  Sb27  1  0.250000  0.429838  0.555865  1
