# generated using pymatgen
data_SrDy2Ga8Ag3
_symmetry_space_group_name_H-M   'P 1'
_cell_length_a   4.39302642
_cell_length_b   8.49973531
_cell_length_c   8.49973511
_cell_angle_alpha   68.64119849
_cell_angle_beta   75.02358845
_cell_angle_gamma   75.02359192
_symmetry_Int_Tables_number   1
_chemical_formula_structural   SrDy2Ga8Ag3
_chemical_formula_sum   'Sr1 Dy2 Ga8 Ag3'
_cell_volume   280.73634049
_cell_formula_units_Z   1
loop_
 _symmetry_equiv_pos_site_id
 _symmetry_equiv_pos_as_xyz
  1  'x, y, z'
loop_
 _atom_site_type_symbol
 _atom_site_label
 _atom_site_symmetry_multiplicity
 _atom_site_fract_x
 _atom_site_fract_y
 _atom_site_fract_z
 _atom_site_occupancy
  Sr  Sr0  1  0.500000  0.500000  0.500000  1
  Dy  Dy1  1  0.799468  0.200532  0.200532  1
  Dy  Dy2  1  0.200532  0.799468  0.799468  1
  Ga  Ga3  1  0.646400  0.069909  0.637292  1
  Ga  Ga4  1  0.353600  0.930091  0.362708  1
  Ga  Ga5  1  0.646400  0.637292  0.069909  1
  Ga  Ga6  1  0.353600  0.362708  0.930091  1
  Ga  Ga7  1  0.837561  0.796213  0.528666  1
  Ga  Ga8  1  0.162439  0.203787  0.471334  1
  Ga  Ga9  1  0.837561  0.528666  0.796213  1
  Ga  Ga10  1  0.162439  0.471334  0.203787  1
  Ag  Ag11  1  0.500000  0.000000  0.000000  1
  Ag  Ag12  1  0.000000  0.809569  0.190431  1
  Ag  Ag13  1  0.000000  0.190431  0.809569  1
