# generated using pymatgen
data_Ac2AuO2
_symmetry_space_group_name_H-M   'P 1'
_cell_length_a   7.26302467
_cell_length_b   7.26302535
_cell_length_c   7.26302500
_cell_angle_alpha   146.19371463
_cell_angle_beta   146.19372268
_cell_angle_gamma   48.55912330
_symmetry_Int_Tables_number   1
_chemical_formula_structural   Ac2AuO2
_chemical_formula_sum   'Ac2 Au1 O2'
_cell_volume   118.09905498
_cell_formula_units_Z   1
loop_
 _symmetry_equiv_pos_site_id
 _symmetry_equiv_pos_as_xyz
  1  'x, y, z'
loop_
 _atom_site_type_symbol
 _atom_site_label
 _atom_site_symmetry_multiplicity
 _atom_site_fract_x
 _atom_site_fract_y
 _atom_site_fract_z
 _atom_site_occupancy
  Ac  Ac0  1  0.346483  0.346483  0.000000  1
  Ac  Ac1  1  0.653517  0.653517  0.000000  1
  Au  Au2  1  0.000000  0.000000  0.000000  1
  O  O3  1  0.750000  0.250000  0.500000  1
  O  O4  1  0.250000  0.750000  0.500000  1
