# generated using pymatgen
data_CaLa3(SiPd2)4
_symmetry_space_group_name_H-M   'P 1'
_cell_length_a   5.76473025
_cell_length_b   6.97048600
_cell_length_c   7.61384995
_cell_angle_alpha   90.00000000
_cell_angle_beta   89.73544412
_cell_angle_gamma   90.00000000
_symmetry_Int_Tables_number   1
_chemical_formula_structural   CaLa3(SiPd2)4
_chemical_formula_sum   'Ca1 La3 Si4 Pd8'
_cell_volume   305.94385420
_cell_formula_units_Z   1
loop_
 _symmetry_equiv_pos_site_id
 _symmetry_equiv_pos_as_xyz
  1  'x, y, z'
loop_
 _atom_site_type_symbol
 _atom_site_label
 _atom_site_symmetry_multiplicity
 _atom_site_fract_x
 _atom_site_fract_y
 _atom_site_fract_z
 _atom_site_occupancy
  Ca  Ca0  1  0.141848  0.750000  0.527583  1
  La  La1  1  0.859034  0.250000  0.471806  1
  La  La2  1  0.647650  0.250000  0.972702  1
  La  La3  1  0.353562  0.750000  0.030462  1
  Si  Si4  1  0.853126  0.750000  0.867696  1
  Si  Si5  1  0.148536  0.250000  0.125439  1
  Si  Si6  1  0.355488  0.250000  0.626073  1
  Si  Si7  1  0.643857  0.750000  0.377834  1
  Pd  Pd8  1  0.591697  0.552456  0.670268  1
  Pd  Pd9  1  0.407646  0.448137  0.327585  1
  Pd  Pd10  1  0.095040  0.448038  0.826797  1
  Pd  Pd11  1  0.407646  0.051863  0.327585  1
  Pd  Pd12  1  0.904067  0.552794  0.175553  1
  Pd  Pd13  1  0.591697  0.947544  0.670268  1
  Pd  Pd14  1  0.904067  0.947206  0.175553  1
  Pd  Pd15  1  0.095040  0.051962  0.826797  1
