# generated using pymatgen
data_YTiFe4P3
_symmetry_space_group_name_H-M   'P 1'
_cell_length_a   3.68546600
_cell_length_b   10.56347200
_cell_length_c   12.06942600
_cell_angle_alpha   90.00000000
_cell_angle_beta   90.00000000
_cell_angle_gamma   90.00000000
_symmetry_Int_Tables_number   1
_chemical_formula_structural   YTiFe4P3
_chemical_formula_sum   'Y4 Ti4 Fe16 P12'
_cell_volume   469.87864838
_cell_formula_units_Z   4
loop_
 _symmetry_equiv_pos_site_id
 _symmetry_equiv_pos_as_xyz
  1  'x, y, z'
loop_
 _atom_site_type_symbol
 _atom_site_label
 _atom_site_symmetry_multiplicity
 _atom_site_fract_x
 _atom_site_fract_y
 _atom_site_fract_z
 _atom_site_occupancy
  Y  Y0  1  0.250000  0.581276  0.705637  1
  Y  Y1  1  0.250000  0.918724  0.205637  1
  Y  Y2  1  0.750000  0.418724  0.294363  1
  Y  Y3  1  0.750000  0.081276  0.794363  1
  Ti  Ti4  1  0.250000  0.699008  0.987747  1
  Ti  Ti5  1  0.250000  0.800992  0.487747  1
  Ti  Ti6  1  0.750000  0.300992  0.012253  1
  Ti  Ti7  1  0.750000  0.199008  0.512253  1
  Fe  Fe8  1  0.250000  0.406353  0.494198  1
  Fe  Fe9  1  0.250000  0.093648  0.994198  1
  Fe  Fe10  1  0.750000  0.593647  0.505802  1
  Fe  Fe11  1  0.750000  0.906353  0.005802  1
  Fe  Fe12  1  0.250000  0.217233  0.178589  1
  Fe  Fe13  1  0.250000  0.282767  0.678589  1
  Fe  Fe14  1  0.750000  0.782767  0.821411  1
  Fe  Fe15  1  0.750000  0.717233  0.321411  1
  Fe  Fe16  1  0.250000  0.872222  0.705538  1
  Fe  Fe17  1  0.250000  0.627778  0.205538  1
  Fe  Fe18  1  0.750000  0.127778  0.294462  1
  Fe  Fe19  1  0.750000  0.372222  0.794462  1
  Fe  Fe20  1  0.250000  0.460882  0.931394  1
  Fe  Fe21  1  0.250000  0.039118  0.431394  1
  Fe  Fe22  1  0.750000  0.539118  0.068606  1
  Fe  Fe23  1  0.750000  0.960882  0.568606  1
  P  P24  1  0.250000  0.431005  0.114011  1
  P  P25  1  0.250000  0.068995  0.614011  1
  P  P26  1  0.750000  0.568995  0.885989  1
  P  P27  1  0.750000  0.931005  0.385989  1
  P  P28  1  0.250000  0.263144  0.870494  1
  P  P29  1  0.250000  0.236856  0.370494  1
  P  P30  1  0.750000  0.736856  0.129506  1
  P  P31  1  0.750000  0.763144  0.629506  1
  P  P32  1  0.250000  0.589608  0.394531  1
  P  P33  1  0.250000  0.910392  0.894531  1
  P  P34  1  0.750000  0.410392  0.605469  1
  P  P35  1  0.750000  0.089608  0.105469  1
