# generated using pymatgen
data_LaAl4Os
_symmetry_space_group_name_H-M   'P 1'
_cell_length_a   7.77057000
_cell_length_b   8.88453100
_cell_length_c   9.83402300
_cell_angle_alpha   90.00000000
_cell_angle_beta   90.00000000
_cell_angle_gamma   90.00000000
_symmetry_Int_Tables_number   1
_chemical_formula_structural   LaAl4Os
_chemical_formula_sum   'La6 Al24 Os6'
_cell_volume   678.92000197
_cell_formula_units_Z   6
loop_
 _symmetry_equiv_pos_site_id
 _symmetry_equiv_pos_as_xyz
  1  'x, y, z'
loop_
 _atom_site_type_symbol
 _atom_site_label
 _atom_site_symmetry_multiplicity
 _atom_site_fract_x
 _atom_site_fract_y
 _atom_site_fract_z
 _atom_site_occupancy
  La  La0  1  0.318922  0.500000  0.750000  1
  La  La1  1  0.681078  0.500000  0.250000  1
  La  La2  1  0.840438  0.250534  0.750000  1
  La  La3  1  0.159562  0.749466  0.250000  1
  La  La4  1  0.840438  0.749466  0.750000  1
  La  La5  1  0.159562  0.250534  0.250000  1
  Al  Al6  1  0.181779  0.231711  0.570162  1
  Al  Al7  1  0.818221  0.768289  0.429838  1
  Al  Al8  1  0.181779  0.768289  0.929838  1
  Al  Al9  1  0.818221  0.231711  0.429838  1
  Al  Al10  1  0.818221  0.231711  0.070162  1
  Al  Al11  1  0.181779  0.768289  0.570162  1
  Al  Al12  1  0.818221  0.768289  0.070162  1
  Al  Al13  1  0.181779  0.231711  0.929838  1
  Al  Al14  1  0.129404  0.000000  0.750000  1
  Al  Al15  1  0.870596  0.000000  0.250000  1
  Al  Al16  1  0.339773  0.000000  0.051958  1
  Al  Al17  1  0.660227  0.000000  0.948042  1
  Al  Al18  1  0.339773  0.000000  0.448042  1
  Al  Al19  1  0.660227  0.000000  0.551958  1
  Al  Al20  1  0.450637  0.156347  0.750000  1
  Al  Al21  1  0.549363  0.843653  0.250000  1
  Al  Al22  1  0.450637  0.843653  0.750000  1
  Al  Al23  1  0.549363  0.156347  0.250000  1
  Al  Al24  1  0.653202  0.500000  0.578390  1
  Al  Al25  1  0.346798  0.500000  0.421610  1
  Al  Al26  1  0.653202  0.500000  0.921610  1
  Al  Al27  1  0.346798  0.500000  0.078390  1
  Al  Al28  1  0.000000  0.500000  0.500000  1
  Al  Al29  1  0.000000  0.500000  0.000000  1
  Os  Os30  1  0.500000  0.255653  0.500000  1
  Os  Os31  1  0.500000  0.744347  0.500000  1
  Os  Os32  1  0.500000  0.744347  0.000000  1
  Os  Os33  1  0.500000  0.255653  0.000000  1
  Os  Os34  1  0.000000  0.000000  0.500000  1
  Os  Os35  1  0.000000  0.000000  0.000000  1
