# generated using pymatgen
data_YbTm4Sc3(P3Ir4)4
_symmetry_space_group_name_H-M   'P 1'
_cell_length_a   12.83844300
_cell_length_b   12.83844294
_cell_length_c   3.95585100
_cell_angle_alpha   90.00000000
_cell_angle_beta   90.00000000
_cell_angle_gamma   119.99999758
_symmetry_Int_Tables_number   1
_chemical_formula_structural   YbTm4Sc3(P3Ir4)4
_chemical_formula_sum   'Yb1 Tm4 Sc3 P12 Ir16'
_cell_volume   564.67073451
_cell_formula_units_Z   1
loop_
 _symmetry_equiv_pos_site_id
 _symmetry_equiv_pos_as_xyz
  1  'x, y, z'
loop_
 _atom_site_type_symbol
 _atom_site_label
 _atom_site_symmetry_multiplicity
 _atom_site_fract_x
 _atom_site_fract_y
 _atom_site_fract_z
 _atom_site_occupancy
  Yb  Yb0  1  0.666667  0.333333  0.500000  1
  Tm  Tm1  1  0.333333  0.666667  0.500000  1
  Tm  Tm2  1  0.000284  0.812027  0.000000  1
  Tm  Tm3  1  0.187973  0.188257  0.000000  1
  Tm  Tm4  1  0.811743  0.999716  0.000000  1
  Sc  Sc5  1  0.000302  0.444537  0.500000  1
  Sc  Sc6  1  0.555463  0.555765  0.500000  1
  Sc  Sc7  1  0.444235  0.999698  0.500000  1
  P  P8  1  0.998853  0.644736  0.500000  1
  P  P9  1  0.355264  0.354118  0.500000  1
  P  P10  1  0.645882  0.001147  0.500000  1
  P  P11  1  0.516788  0.687166  0.000000  1
  P  P12  1  0.312834  0.829623  0.000000  1
  P  P13  1  0.170377  0.483212  0.000000  1
  P  P14  1  0.484798  0.171134  0.000000  1
  P  P15  1  0.686335  0.515202  0.000000  1
  P  P16  1  0.828866  0.313665  0.000000  1
  P  P17  1  0.000411  0.176741  0.500000  1
  P  P18  1  0.823259  0.823669  0.500000  1
  P  P19  1  0.176331  0.999589  0.500000  1
  Ir  Ir20  1  0.507732  0.865755  0.000000  1
  Ir  Ir21  1  0.134245  0.641978  0.000000  1
  Ir  Ir22  1  0.358022  0.492268  0.000000  1
  Ir  Ir23  1  0.486463  0.357727  0.000000  1
  Ir  Ir24  1  0.871266  0.513537  0.000000  1
  Ir  Ir25  1  0.642273  0.128734  0.000000  1
  Ir  Ir26  1  0.000067  0.277192  0.000000  1
  Ir  Ir27  1  0.722808  0.722875  0.000000  1
  Ir  Ir28  1  0.277125  0.999933  0.000000  1
  Ir  Ir29  1  0.629216  0.809017  0.500000  1
  Ir  Ir30  1  0.190983  0.820199  0.500000  1
  Ir  Ir31  1  0.179801  0.370784  0.500000  1
  Ir  Ir32  1  0.369966  0.178173  0.500000  1
  Ir  Ir33  1  0.808207  0.630034  0.500000  1
  Ir  Ir34  1  0.821827  0.191793  0.500000  1
  Ir  Ir35  1  0.000000  0.000000  0.500000  1
