# generated using pymatgen
data_Gd2Dy2In2(TeO6)3
_symmetry_space_group_name_H-M   'P 1'
_cell_length_a   9.10175185
_cell_length_b   9.09436713
_cell_length_c   5.21554223
_cell_angle_alpha   90.47195413
_cell_angle_beta   90.08101594
_cell_angle_gamma   120.07151271
_symmetry_Int_Tables_number   1
_chemical_formula_structural   Gd2Dy2In2(TeO6)3
_chemical_formula_sum   'Gd2 Dy2 In2 Te3 O18'
_cell_volume   373.58594177
_cell_formula_units_Z   1
loop_
 _symmetry_equiv_pos_site_id
 _symmetry_equiv_pos_as_xyz
  1  'x, y, z'
loop_
 _atom_site_type_symbol
 _atom_site_label
 _atom_site_symmetry_multiplicity
 _atom_site_fract_x
 _atom_site_fract_y
 _atom_site_fract_z
 _atom_site_occupancy
  Gd  Gd0  1  0.615829  0.000731  0.999982  1
  Gd  Gd1  1  0.999769  0.616214  0.002641  1
  Dy  Dy2  1  0.380984  0.381471  0.996439  1
  Dy  Dy3  1  0.272431  0.999569  0.499788  1
  In  In4  1  0.000655  0.288910  0.499753  1
  In  In5  1  0.711946  0.711307  0.499427  1
  Te  Te6  1  0.997149  0.000808  0.000605  1
  Te  Te7  1  0.335189  0.664726  0.498312  1
  Te  Te8  1  0.667486  0.334354  0.501097  1
  O  O9  1  0.080508  0.876170  0.805748  1
  O  O10  1  0.116181  0.194139  0.765668  1
  O  O11  1  0.790009  0.905142  0.796624  1
  O  O12  1  0.206531  0.126290  0.193724  1
  O  O13  1  0.924730  0.809233  0.238553  1
  O  O14  1  0.885232  0.095358  0.204871  1
  O  O15  1  0.461317  0.591363  0.713412  1
  O  O16  1  0.404648  0.865712  0.710460  1
  O  O17  1  0.134742  0.537560  0.712302  1
  O  O18  1  0.867041  0.405122  0.288246  1
  O  O19  1  0.537043  0.132342  0.291768  1
  O  O20  1  0.593733  0.460039  0.282306  1
  O  O21  1  0.230521  0.762533  0.282814  1
  O  O22  1  0.235514  0.458732  0.283995  1
  O  O23  1  0.540280  0.771101  0.286661  1
  O  O24  1  0.466367  0.238485  0.718904  1
  O  O25  1  0.775579  0.542037  0.710309  1
  O  O26  1  0.768582  0.230555  0.715592  1
