# generated using pymatgen
data_Li4Nd3Tm(Si2Ge)2
_symmetry_space_group_name_H-M   'P 1'
_cell_length_a   9.44307539
_cell_length_b   9.44307583
_cell_length_c   6.80520600
_cell_angle_alpha   90.00000000
_cell_angle_beta   90.00000000
_cell_angle_gamma   153.21478065
_symmetry_Int_Tables_number   1
_chemical_formula_structural   Li4Nd3Tm(Si2Ge)2
_chemical_formula_sum   'Li4 Nd3 Tm1 Si4 Ge2'
_cell_volume   273.46701456
_cell_formula_units_Z   1
loop_
 _symmetry_equiv_pos_site_id
 _symmetry_equiv_pos_as_xyz
  1  'x, y, z'
loop_
 _atom_site_type_symbol
 _atom_site_label
 _atom_site_symmetry_multiplicity
 _atom_site_fract_x
 _atom_site_fract_y
 _atom_site_fract_z
 _atom_site_occupancy
  Li  Li0  1  0.189424  0.810576  0.060721  1
  Li  Li1  1  0.189424  0.810576  0.439279  1
  Li  Li2  1  0.811982  0.188018  0.942981  1
  Li  Li3  1  0.811982  0.188018  0.557019  1
  Nd  Nd4  1  0.655925  0.344075  0.750000  1
  Nd  Nd5  1  0.551942  0.448058  0.250000  1
  Nd  Nd6  1  0.445902  0.554098  0.750000  1
  Tm  Tm7  1  0.345824  0.654176  0.250000  1
  Si  Si8  1  0.057267  0.942733  0.925841  1
  Si  Si9  1  0.939860  0.060140  0.075507  1
  Si  Si10  1  0.939860  0.060140  0.424493  1
  Si  Si11  1  0.057267  0.942733  0.574159  1
  Ge  Ge12  1  0.723058  0.276942  0.250000  1
  Ge  Ge13  1  0.280285  0.719715  0.750000  1
