# generated using pymatgen
data_Tb4Sc4Cr(CoB8)3
_symmetry_space_group_name_H-M   'P 1'
_cell_length_a   3.46060300
_cell_length_b   8.95811693
_cell_length_c   11.33851371
_cell_angle_alpha   89.85774272
_cell_angle_beta   90.00000000
_cell_angle_gamma   90.00000000
_symmetry_Int_Tables_number   1
_chemical_formula_structural   Tb4Sc4Cr(CoB8)3
_chemical_formula_sum   'Tb4 Sc4 Cr1 Co3 B24'
_cell_volume   351.49835554
_cell_formula_units_Z   1
loop_
 _symmetry_equiv_pos_site_id
 _symmetry_equiv_pos_as_xyz
  1  'x, y, z'
loop_
 _atom_site_type_symbol
 _atom_site_label
 _atom_site_symmetry_multiplicity
 _atom_site_fract_x
 _atom_site_fract_y
 _atom_site_fract_z
 _atom_site_occupancy
  Tb  Tb0  1  0.000000  0.822494  0.084912  1
  Tb  Tb1  1  0.000000  0.178867  0.913754  1
  Tb  Tb2  1  0.000000  0.321703  0.415580  1
  Tb  Tb3  1  0.000000  0.677114  0.585569  1
  Sc  Sc4  1  0.000000  0.444333  0.129084  1
  Sc  Sc5  1  0.000000  0.554739  0.871970  1
  Sc  Sc6  1  0.000000  0.943798  0.370876  1
  Sc  Sc7  1  0.000000  0.055596  0.627389  1
  Cr  Cr8  1  0.000000  0.358119  0.682773  1
  Co  Co9  1  0.000000  0.141996  0.182631  1
  Co  Co10  1  0.000000  0.858414  0.817582  1
  Co  Co11  1  0.000000  0.641825  0.317499  1
  B  B12  1  0.500000  0.056578  0.068605  1
  B  B13  1  0.500000  0.944944  0.931860  1
  B  B14  1  0.500000  0.555880  0.430840  1
  B  B15  1  0.500000  0.445258  0.567757  1
  B  B16  1  0.500000  0.252627  0.083330  1
  B  B17  1  0.500000  0.748921  0.916962  1
  B  B18  1  0.500000  0.751798  0.416493  1
  B  B19  1  0.500000  0.246837  0.582382  1
  B  B20  1  0.500000  0.292976  0.235489  1
  B  B21  1  0.500000  0.706981  0.765387  1
  B  B22  1  0.500000  0.793847  0.264751  1
  B  B23  1  0.500000  0.204507  0.735020  1
  B  B24  1  0.500000  0.129546  0.316976  1
  B  B25  1  0.500000  0.869352  0.683185  1
  B  B26  1  0.500000  0.630549  0.182956  1
  B  B27  1  0.500000  0.369939  0.817161  1
  B  B28  1  0.500000  0.485074  0.285690  1
  B  B29  1  0.500000  0.517547  0.714791  1
  B  B30  1  0.500000  0.984826  0.213904  1
  B  B31  1  0.500000  0.014572  0.786484  1
  B  B32  1  0.500000  0.097551  0.472381  1
  B  B33  1  0.500000  0.900109  0.525816  1
  B  B34  1  0.500000  0.599599  0.027163  1
  B  B35  1  0.500000  0.401180  0.974999  1
