# generated using pymatgen
data_Np3PaB16
_symmetry_space_group_name_H-M   'P 1'
_cell_length_a   7.06574484
_cell_length_b   7.06574580
_cell_length_c   3.99578500
_cell_angle_alpha   90.00000000
_cell_angle_beta   90.00000000
_cell_angle_gamma   90.31259391
_symmetry_Int_Tables_number   1
_chemical_formula_structural   Np3PaB16
_chemical_formula_sum   'Np3 Pa1 B16'
_cell_volume   199.48562607
_cell_formula_units_Z   1
loop_
 _symmetry_equiv_pos_site_id
 _symmetry_equiv_pos_as_xyz
  1  'x, y, z'
loop_
 _atom_site_type_symbol
 _atom_site_label
 _atom_site_symmetry_multiplicity
 _atom_site_fract_x
 _atom_site_fract_y
 _atom_site_fract_z
 _atom_site_occupancy
  Np  Np0  1  0.310793  0.188736  0.000000  1
  Np  Np1  1  0.688736  0.810793  0.000000  1
  Np  Np2  1  0.190414  0.690414  0.000000  1
  Pa  Pa3  1  0.810841  0.310841  0.000000  1
  B  B4  1  0.000937  0.998727  0.200236  1
  B  B5  1  0.498727  0.500937  0.799764  1
  B  B6  1  0.000937  0.998727  0.799764  1
  B  B7  1  0.498727  0.500937  0.200236  1
  B  B8  1  0.588300  0.088300  0.500000  1
  B  B9  1  0.086175  0.412589  0.500000  1
  B  B10  1  0.912589  0.586175  0.500000  1
  B  B11  1  0.413253  0.913253  0.500000  1
  B  B12  1  0.038573  0.177302  0.500000  1
  B  B13  1  0.178548  0.960175  0.500000  1
  B  B14  1  0.822842  0.038681  0.500000  1
  B  B15  1  0.962559  0.820889  0.500000  1
  B  B16  1  0.460175  0.678548  0.500000  1
  B  B17  1  0.538681  0.322842  0.500000  1
  B  B18  1  0.677302  0.538573  0.500000  1
  B  B19  1  0.320889  0.462559  0.500000  1
