# generated using pymatgen
data_Rb3ErI6
_symmetry_space_group_name_H-M   'P 1'
_cell_length_a   10.31829900
_cell_length_b   10.31829900
_cell_length_c   8.58612400
_cell_angle_alpha   90.00000000
_cell_angle_beta   90.00000000
_cell_angle_gamma   90.00000000
_symmetry_Int_Tables_number   1
_chemical_formula_structural   Rb3ErI6
_chemical_formula_sum   'Rb6 Er2 I12'
_cell_volume   914.14139040
_cell_formula_units_Z   2
loop_
 _symmetry_equiv_pos_site_id
 _symmetry_equiv_pos_as_xyz
  1  'x, y, z'
loop_
 _atom_site_type_symbol
 _atom_site_label
 _atom_site_symmetry_multiplicity
 _atom_site_fract_x
 _atom_site_fract_y
 _atom_site_fract_z
 _atom_site_occupancy
  Rb  Rb0  1  0.000000  0.000000  0.500000  1
  Rb  Rb1  1  0.000000  0.000000  0.000000  1
  Rb  Rb2  1  0.233280  0.587728  0.500000  1
  Rb  Rb3  1  0.766720  0.412272  0.500000  1
  Rb  Rb4  1  0.412272  0.233280  0.000000  1
  Rb  Rb5  1  0.587728  0.766720  0.000000  1
  Er  Er6  1  0.500000  0.000000  0.500000  1
  Er  Er7  1  0.000000  0.500000  0.000000  1
  I  I8  1  0.698700  0.060124  0.748142  1
  I  I9  1  0.301300  0.939876  0.748142  1
  I  I10  1  0.939876  0.698700  0.248142  1
  I  I11  1  0.060124  0.301300  0.248142  1
  I  I12  1  0.301300  0.939876  0.251858  1
  I  I13  1  0.698700  0.060124  0.251858  1
  I  I14  1  0.060124  0.301300  0.751858  1
  I  I15  1  0.939876  0.698700  0.751858  1
  I  I16  1  0.570078  0.717620  0.500000  1
  I  I17  1  0.429922  0.282380  0.500000  1
  I  I18  1  0.282380  0.570078  0.000000  1
  I  I19  1  0.717620  0.429922  0.000000  1
