# generated using pymatgen
data_Nd2Sm3Y3(Si3Rh)4
_symmetry_space_group_name_H-M   'P 1'
_cell_length_a   8.22848000
_cell_length_b   8.22848111
_cell_length_c   8.13639600
_cell_angle_alpha   90.00000000
_cell_angle_beta   90.00000000
_cell_angle_gamma   119.99999552
_symmetry_Int_Tables_number   1
_chemical_formula_structural   Nd2Sm3Y3(Si3Rh)4
_chemical_formula_sum   'Nd2 Sm3 Y3 Si12 Rh4'
_cell_volume   477.09187826
_cell_formula_units_Z   1
loop_
 _symmetry_equiv_pos_site_id
 _symmetry_equiv_pos_as_xyz
  1  'x, y, z'
loop_
 _atom_site_type_symbol
 _atom_site_label
 _atom_site_symmetry_multiplicity
 _atom_site_fract_x
 _atom_site_fract_y
 _atom_site_fract_z
 _atom_site_occupancy
  Nd  Nd0  1  0.000000  0.000000  0.250000  1
  Nd  Nd1  1  0.000000  0.000000  0.750000  1
  Sm  Sm2  1  0.506572  0.493428  0.250000  1
  Sm  Sm3  1  0.506572  0.013143  0.250000  1
  Sm  Sm4  1  0.986857  0.493428  0.250000  1
  Y  Y5  1  0.492080  0.507920  0.750000  1
  Y  Y6  1  0.492080  0.984160  0.750000  1
  Y  Y7  1  0.015840  0.507920  0.750000  1
  Si  Si8  1  0.167367  0.832633  0.505009  1
  Si  Si9  1  0.167367  0.334733  0.505009  1
  Si  Si10  1  0.665267  0.832633  0.505009  1
  Si  Si11  1  0.831979  0.168021  0.501476  1
  Si  Si12  1  0.831979  0.663959  0.501476  1
  Si  Si13  1  0.336041  0.168021  0.501476  1
  Si  Si14  1  0.831979  0.168021  0.998524  1
  Si  Si15  1  0.831979  0.663959  0.998524  1
  Si  Si16  1  0.336041  0.168021  0.998524  1
  Si  Si17  1  0.167367  0.832633  0.994991  1
  Si  Si18  1  0.167367  0.334733  0.994991  1
  Si  Si19  1  0.665267  0.832633  0.994991  1
  Rh  Rh20  1  0.333333  0.666667  0.477171  1
  Rh  Rh21  1  0.666667  0.333333  0.539274  1
  Rh  Rh22  1  0.666667  0.333333  0.960726  1
  Rh  Rh23  1  0.333333  0.666667  0.022829  1
