# generated using pymatgen
data_Y4BeSi5
_symmetry_space_group_name_H-M   'P 1'
_cell_length_a   3.85344200
_cell_length_b   4.19769158
_cell_length_c   12.28636541
_cell_angle_alpha   99.83592048
_cell_angle_beta   90.00000000
_cell_angle_gamma   90.00000000
_symmetry_Int_Tables_number   1
_chemical_formula_structural   Y4BeSi5
_chemical_formula_sum   'Y4 Be1 Si5'
_cell_volume   195.81759001
_cell_formula_units_Z   1
loop_
 _symmetry_equiv_pos_site_id
 _symmetry_equiv_pos_as_xyz
  1  'x, y, z'
loop_
 _atom_site_type_symbol
 _atom_site_label
 _atom_site_symmetry_multiplicity
 _atom_site_fract_x
 _atom_site_fract_y
 _atom_site_fract_z
 _atom_site_occupancy
  Y  Y0  1  0.750000  0.430689  0.861376  1
  Y  Y1  1  0.250000  0.569983  0.139966  1
  Y  Y2  1  0.750000  0.702246  0.404493  1
  Y  Y3  1  0.250000  0.297559  0.595116  1
  Be  Be4  1  0.750000  0.022588  0.045176  1
  Si  Si5  1  0.250000  0.981211  0.962421  1
  Si  Si6  1  0.750000  0.113123  0.226246  1
  Si  Si7  1  0.250000  0.884170  0.768339  1
  Si  Si8  1  0.750000  0.824651  0.649301  1
  Si  Si9  1  0.250000  0.173782  0.347564  1
