# generated using pymatgen
data_Tb3Dy3(Lu2Pb3)2
_symmetry_space_group_name_H-M   'P 1'
_cell_length_a   6.53895100
_cell_length_b   9.02669909
_cell_length_c   9.02552501
_cell_angle_alpha   120.00346864
_cell_angle_beta   90.00204971
_cell_angle_gamma   89.99557050
_symmetry_Int_Tables_number   1
_chemical_formula_structural   Tb3Dy3(Lu2Pb3)2
_chemical_formula_sum   'Tb3 Dy3 Lu4 Pb6'
_cell_volume   461.34410130
_cell_formula_units_Z   1
loop_
 _symmetry_equiv_pos_site_id
 _symmetry_equiv_pos_as_xyz
  1  'x, y, z'
loop_
 _atom_site_type_symbol
 _atom_site_label
 _atom_site_symmetry_multiplicity
 _atom_site_fract_x
 _atom_site_fract_y
 _atom_site_fract_z
 _atom_site_occupancy
  Tb  Tb0  1  0.750031  0.238034  0.000003  1
  Tb  Tb1  1  0.750007  0.762015  0.761987  1
  Tb  Tb2  1  0.749995  0.000028  0.238023  1
  Dy  Dy3  1  0.249973  0.762040  0.000001  1
  Dy  Dy4  1  0.250008  0.237919  0.237955  1
  Dy  Dy5  1  0.250008  0.999961  0.762037  1
  Lu  Lu6  1  0.500071  0.333335  0.666690  1
  Lu  Lu7  1  0.500076  0.666642  0.333309  1
  Lu  Lu8  1  0.999929  0.666697  0.333344  1
  Lu  Lu9  1  0.999936  0.333357  0.666649  1
  Pb  Pb10  1  0.749990  0.603681  0.000004  1
  Pb  Pb11  1  0.750009  0.396366  0.396413  1
  Pb  Pb12  1  0.750009  0.999954  0.603587  1
  Pb  Pb13  1  0.249981  0.396121  0.000000  1
  Pb  Pb14  1  0.249988  0.603832  0.603811  1
  Pb  Pb15  1  0.249990  0.000021  0.396189  1
