# generated using pymatgen
data_Nd12Ni3RhBr12
_symmetry_space_group_name_H-M   'P 1'
_cell_length_a   10.35138654
_cell_length_b   10.35138647
_cell_length_c   10.35138714
_cell_angle_alpha   109.39929482
_cell_angle_beta   109.39929337
_cell_angle_gamma   109.39928712
_symmetry_Int_Tables_number   1
_chemical_formula_structural   Nd12Ni3RhBr12
_chemical_formula_sum   'Nd12 Ni3 Rh1 Br12'
_cell_volume   856.10081504
_cell_formula_units_Z   1
loop_
 _symmetry_equiv_pos_site_id
 _symmetry_equiv_pos_as_xyz
  1  'x, y, z'
loop_
 _atom_site_type_symbol
 _atom_site_label
 _atom_site_symmetry_multiplicity
 _atom_site_fract_x
 _atom_site_fract_y
 _atom_site_fract_z
 _atom_site_occupancy
  Nd  Nd0  1  0.470326  0.485802  0.232989  1
  Nd  Nd1  1  0.750000  0.232377  0.267623  1
  Nd  Nd2  1  0.750000  0.016546  0.483454  1
  Nd  Nd3  1  0.232989  0.470326  0.485802  1
  Nd  Nd4  1  0.267623  0.750000  0.232377  1
  Nd  Nd5  1  0.029674  0.267011  0.014198  1
  Nd  Nd6  1  0.014198  0.029674  0.267011  1
  Nd  Nd7  1  0.483454  0.750000  0.016546  1
  Nd  Nd8  1  0.485802  0.232989  0.470326  1
  Nd  Nd9  1  0.016546  0.483454  0.750000  1
  Nd  Nd10  1  0.267011  0.014198  0.029674  1
  Nd  Nd11  1  0.232377  0.267623  0.750000  1
  Ni  Ni12  1  0.499589  0.000411  0.250000  1
  Ni  Ni13  1  0.000411  0.250000  0.499589  1
  Ni  Ni14  1  0.250000  0.499589  0.000411  1
  Rh  Rh15  1  0.250000  0.250000  0.250000  1
  Br  Br16  1  0.250000  0.756787  0.743213  1
  Br  Br17  1  0.512756  0.508054  0.757991  1
  Br  Br18  1  0.987244  0.742009  0.991946  1
  Br  Br19  1  0.743213  0.250000  0.756787  1
  Br  Br20  1  0.991946  0.987244  0.742009  1
  Br  Br21  1  0.250000  0.993112  0.506888  1
  Br  Br22  1  0.757991  0.512756  0.508054  1
  Br  Br23  1  0.506888  0.250000  0.993112  1
  Br  Br24  1  0.756787  0.743213  0.250000  1
  Br  Br25  1  0.742009  0.991946  0.987244  1
  Br  Br26  1  0.993112  0.506888  0.250000  1
  Br  Br27  1  0.508054  0.757991  0.512756  1
