# generated using pymatgen
data_BaLa3(US5)2
_symmetry_space_group_name_H-M   'P 1'
_cell_length_a   7.62363000
_cell_length_b   8.22761939
_cell_length_c   12.01706500
_cell_angle_alpha   90.00000000
_cell_angle_beta   90.00000000
_cell_angle_gamma   90.78864434
_symmetry_Int_Tables_number   1
_chemical_formula_structural   BaLa3(US5)2
_chemical_formula_sum   'Ba2 La6 U4 S20'
_cell_volume   753.69089998
_cell_formula_units_Z   2
loop_
 _symmetry_equiv_pos_site_id
 _symmetry_equiv_pos_as_xyz
  1  'x, y, z'
loop_
 _atom_site_type_symbol
 _atom_site_label
 _atom_site_symmetry_multiplicity
 _atom_site_fract_x
 _atom_site_fract_y
 _atom_site_fract_z
 _atom_site_occupancy
  Ba  Ba0  1  0.539484  0.504788  0.328328  1
  Ba  Ba1  1  0.960516  0.995212  0.828328  1
  La  La2  1  0.467845  0.000222  0.678574  1
  La  La3  1  0.032155  0.499778  0.178574  1
  La  La4  1  0.463742  0.498814  0.673932  1
  La  La5  1  0.036258  0.001186  0.173932  1
  La  La6  1  0.531364  0.000578  0.325403  1
  La  La7  1  0.968636  0.499422  0.825403  1
  U  U8  1  0.064071  0.753548  0.492710  1
  U  U9  1  0.435929  0.746452  0.992710  1
  U  U10  1  0.933281  0.249084  0.507402  1
  U  U11  1  0.566719  0.250916  0.007402  1
  S  S12  1  0.831427  0.955477  0.580455  1
  S  S13  1  0.668573  0.544523  0.080455  1
  S  S14  1  0.152579  0.466968  0.410091  1
  S  S15  1  0.347421  0.033032  0.910091  1
  S  S16  1  0.166047  0.041494  0.410475  1
  S  S17  1  0.333953  0.458506  0.910475  1
  S  S18  1  0.833480  0.540214  0.588588  1
  S  S19  1  0.666520  0.959786  0.088588  1
  S  S20  1  0.851611  0.759938  0.311112  1
  S  S21  1  0.648389  0.740062  0.811112  1
  S  S22  1  0.162986  0.260313  0.681532  1
  S  S23  1  0.337014  0.239687  0.181532  1
  S  S24  1  0.442646  0.764592  0.502876  1
  S  S25  1  0.057354  0.735408  0.002876  1
  S  S26  1  0.554601  0.238268  0.509823  1
  S  S27  1  0.945399  0.261732  0.009823  1
  S  S28  1  0.187134  0.738774  0.708480  1
  S  S29  1  0.312866  0.761226  0.208480  1
  S  S30  1  0.822124  0.238122  0.290217  1
  S  S31  1  0.677876  0.261878  0.790217  1
