# generated using pymatgen
data_Er16Lu4Ir7Ru5
_symmetry_space_group_name_H-M   'P 1'
_cell_length_a   10.72420574
_cell_length_b   10.72420515
_cell_length_c   6.36276200
_cell_angle_alpha   89.97875758
_cell_angle_beta   89.97875759
_cell_angle_gamma   90.05755395
_symmetry_Int_Tables_number   1
_chemical_formula_structural   Er16Lu4Ir7Ru5
_chemical_formula_sum   'Er16 Lu4 Ir7 Ru5'
_cell_volume   731.77176779
_cell_formula_units_Z   1
loop_
 _symmetry_equiv_pos_site_id
 _symmetry_equiv_pos_as_xyz
  1  'x, y, z'
loop_
 _atom_site_type_symbol
 _atom_site_label
 _atom_site_symmetry_multiplicity
 _atom_site_fract_x
 _atom_site_fract_y
 _atom_site_fract_z
 _atom_site_occupancy
  Er  Er0  1  0.292989  0.085670  0.377069  1
  Er  Er1  1  0.292129  0.913764  0.877082  1
  Er  Er2  1  0.707739  0.086255  0.876802  1
  Er  Er3  1  0.707918  0.914058  0.375189  1
  Er  Er4  1  0.585890  0.792908  0.877118  1
  Er  Er5  1  0.586859  0.207328  0.376937  1
  Er  Er6  1  0.413962  0.792651  0.376645  1
  Er  Er7  1  0.413654  0.207171  0.875619  1
  Er  Er8  1  0.207092  0.414110  0.622882  1
  Er  Er9  1  0.207349  0.586038  0.123355  1
  Er  Er10  1  0.792672  0.413141  0.123063  1
  Er  Er11  1  0.792829  0.586346  0.624381  1
  Er  Er12  1  0.914330  0.707011  0.122931  1
  Er  Er13  1  0.913745  0.292261  0.623198  1
  Er  Er14  1  0.086236  0.707871  0.622918  1
  Er  Er15  1  0.085942  0.292082  0.124811  1
  Lu  Lu16  1  0.999669  0.000979  0.499321  1
  Lu  Lu17  1  0.999021  0.000331  0.000679  1
  Lu  Lu18  1  0.500171  0.500160  0.000098  1
  Lu  Lu19  1  0.499840  0.499829  0.499902  1
  Ir  Ir20  1  0.848394  0.848117  0.749825  1
  Ir  Ir21  1  0.151883  0.151606  0.750175  1
  Ir  Ir22  1  0.151529  0.848471  0.250000  1
  Ir  Ir23  1  0.650520  0.349480  0.750000  1
  Ir  Ir24  1  0.651559  0.650957  0.249683  1
  Ir  Ir25  1  0.349043  0.348441  0.250317  1
  Ir  Ir26  1  0.348919  0.651081  0.750000  1
  Ru  Ru27  1  0.848097  0.151903  0.250000  1
  Ru  Ru28  1  0.500284  0.000237  0.122652  1
  Ru  Ru29  1  0.499974  0.999998  0.622837  1
  Ru  Ru30  1  0.000002  0.500026  0.877163  1
  Ru  Ru31  1  0.999763  0.499716  0.377348  1
