# generated using pymatgen
data_Tb7Nd(Si4W3)4
_symmetry_space_group_name_H-M   'P 1'
_cell_length_a   6.81287553
_cell_length_b   6.96597110
_cell_length_c   12.94765506
_cell_angle_alpha   89.87833509
_cell_angle_beta   90.00616826
_cell_angle_gamma   89.95964562
_symmetry_Int_Tables_number   1
_chemical_formula_structural   Tb7Nd(Si4W3)4
_chemical_formula_sum   'Tb7 Nd1 Si16 W12'
_cell_volume   614.47207954
_cell_formula_units_Z   1
loop_
 _symmetry_equiv_pos_site_id
 _symmetry_equiv_pos_as_xyz
  1  'x, y, z'
loop_
 _atom_site_type_symbol
 _atom_site_label
 _atom_site_symmetry_multiplicity
 _atom_site_fract_x
 _atom_site_fract_y
 _atom_site_fract_z
 _atom_site_occupancy
  Tb  Tb0  1  0.495558  0.667058  0.593599  1
  Tb  Tb1  1  0.995825  0.832627  0.906426  1
  Tb  Tb2  1  0.504699  0.332606  0.093755  1
  Tb  Tb3  1  0.004666  0.167342  0.405886  1
  Tb  Tb4  1  0.504660  0.333281  0.406069  1
  Tb  Tb5  1  0.004293  0.167694  0.093646  1
  Tb  Tb6  1  0.495573  0.667046  0.907083  1
  Nd  Nd7  1  0.996522  0.833651  0.592230  1
  Si  Si8  1  0.659241  0.957088  0.451694  1
  Si  Si9  1  0.161117  0.543300  0.047426  1
  Si  Si10  1  0.339098  0.043331  0.953012  1
  Si  Si11  1  0.837809  0.453456  0.546938  1
  Si  Si12  1  0.342196  0.045194  0.546704  1
  Si  Si13  1  0.839115  0.457068  0.952776  1
  Si  Si14  1  0.661003  0.956545  0.047406  1
  Si  Si15  1  0.161567  0.541739  0.451571  1
  Si  Si16  1  0.463010  0.369486  0.750484  1
  Si  Si17  1  0.963033  0.132619  0.750825  1
  Si  Si18  1  0.536544  0.630746  0.249598  1
  Si  Si19  1  0.036559  0.869281  0.250084  1
  Si  Si20  1  0.694403  0.868753  0.751038  1
  Si  Si21  1  0.197569  0.629405  0.750992  1
  Si  Si22  1  0.303726  0.131769  0.249885  1
  Si  Si23  1  0.803503  0.368464  0.249882  1
  W  W24  1  0.666058  0.164480  0.626796  1
  W  W25  1  0.167599  0.336389  0.874606  1
  W  W26  1  0.332175  0.836598  0.125808  1
  W  W27  1  0.831724  0.662424  0.373272  1
  W  W28  1  0.332951  0.836299  0.373435  1
  W  W29  1  0.832750  0.663438  0.125952  1
  W  W30  1  0.667370  0.163770  0.874717  1
  W  W31  1  0.167750  0.336535  0.625940  1
  W  W32  1  0.833964  0.497464  0.750364  1
  W  W33  1  0.334816  0.003045  0.750571  1
  W  W34  1  0.165735  0.501701  0.249765  1
  W  W35  1  0.665821  0.998305  0.249763  1
