# generated using pymatgen
data_Lu2Co9ReP6
_symmetry_space_group_name_H-M   'P 1'
_cell_length_a   3.65944100
_cell_length_b   10.25948500
_cell_length_c   11.70893600
_cell_angle_alpha   90.00000000
_cell_angle_beta   90.00000000
_cell_angle_gamma   90.00000000
_symmetry_Int_Tables_number   1
_chemical_formula_structural   Lu2Co9ReP6
_chemical_formula_sum   'Lu4 Co18 Re2 P12'
_cell_volume   439.60005957
_cell_formula_units_Z   2
loop_
 _symmetry_equiv_pos_site_id
 _symmetry_equiv_pos_as_xyz
  1  'x, y, z'
loop_
 _atom_site_type_symbol
 _atom_site_label
 _atom_site_symmetry_multiplicity
 _atom_site_fract_x
 _atom_site_fract_y
 _atom_site_fract_z
 _atom_site_occupancy
  Lu  Lu0  1  0.250000  0.582256  0.702977  1
  Lu  Lu1  1  0.250000  0.917744  0.202977  1
  Lu  Lu2  1  0.750000  0.415045  0.295137  1
  Lu  Lu3  1  0.750000  0.084955  0.795137  1
  Co  Co4  1  0.750000  0.283350  0.009416  1
  Co  Co5  1  0.750000  0.216650  0.509416  1
  Co  Co6  1  0.250000  0.406302  0.487390  1
  Co  Co7  1  0.250000  0.093698  0.987390  1
  Co  Co8  1  0.750000  0.592136  0.512112  1
  Co  Co9  1  0.750000  0.907864  0.012112  1
  Co  Co10  1  0.250000  0.220601  0.177311  1
  Co  Co11  1  0.250000  0.279399  0.677311  1
  Co  Co12  1  0.750000  0.777470  0.822487  1
  Co  Co13  1  0.750000  0.722530  0.322487  1
  Co  Co14  1  0.250000  0.887273  0.701947  1
  Co  Co15  1  0.250000  0.612727  0.201947  1
  Co  Co16  1  0.750000  0.115877  0.300318  1
  Co  Co17  1  0.750000  0.384123  0.800318  1
  Co  Co18  1  0.250000  0.464425  0.932306  1
  Co  Co19  1  0.250000  0.035575  0.432306  1
  Co  Co20  1  0.750000  0.533035  0.069066  1
  Co  Co21  1  0.750000  0.966965  0.569066  1
  Re  Re22  1  0.250000  0.711655  0.989226  1
  Re  Re23  1  0.250000  0.788345  0.489226  1
  P  P24  1  0.250000  0.416335  0.113570  1
  P  P25  1  0.250000  0.083665  0.613570  1
  P  P26  1  0.750000  0.578039  0.885323  1
  P  P27  1  0.750000  0.921961  0.385323  1
  P  P28  1  0.250000  0.267612  0.868565  1
  P  P29  1  0.250000  0.232388  0.368565  1
  P  P30  1  0.750000  0.731402  0.133642  1
  P  P31  1  0.750000  0.768598  0.633642  1
  P  P32  1  0.250000  0.593007  0.389937  1
  P  P33  1  0.250000  0.906993  0.889937  1
  P  P34  1  0.750000  0.399141  0.609271  1
  P  P35  1  0.750000  0.100859  0.109271  1
