# generated using pymatgen
data_Tb14Y2MgCo4Ag3
_symmetry_space_group_name_H-M   'P 1'
_cell_length_a   9.47655125
_cell_length_b   9.48890065
_cell_length_c   9.48886500
_cell_angle_alpha   60.00012078
_cell_angle_beta   59.95700368
_cell_angle_gamma   59.91446740
_symmetry_Int_Tables_number   1
_chemical_formula_structural   Tb14Y2MgCo4Ag3
_chemical_formula_sum   'Tb14 Y2 Mg1 Co4 Ag3'
_cell_volume   602.75833234
_cell_formula_units_Z   1
loop_
 _symmetry_equiv_pos_site_id
 _symmetry_equiv_pos_as_xyz
  1  'x, y, z'
loop_
 _atom_site_type_symbol
 _atom_site_label
 _atom_site_symmetry_multiplicity
 _atom_site_fract_x
 _atom_site_fract_y
 _atom_site_fract_z
 _atom_site_occupancy
  Tb  Tb0  1  0.346675  0.346020  0.346076  1
  Tb  Tb1  1  0.346675  0.346020  0.961229  1
  Tb  Tb2  1  0.346950  0.961198  0.345927  1
  Tb  Tb3  1  0.950858  0.349674  0.349734  1
  Tb  Tb4  1  0.809685  0.189143  0.189329  1
  Tb  Tb5  1  0.186047  0.813507  0.813590  1
  Tb  Tb6  1  0.186047  0.813507  0.186855  1
  Tb  Tb7  1  0.809685  0.189143  0.811843  1
  Tb  Tb8  1  0.186114  0.187025  0.813430  1
  Tb  Tb9  1  0.809606  0.811766  0.189315  1
  Tb  Tb10  1  0.936063  0.561798  0.561958  1
  Tb  Tb11  1  0.561657  0.937958  0.937789  1
  Tb  Tb12  1  0.561657  0.937958  0.562596  1
  Tb  Tb13  1  0.936063  0.561798  0.940181  1
  Y  Y14  1  0.563000  0.563810  0.936595  1
  Y  Y15  1  0.935337  0.937833  0.563415  1
  Mg  Mg16  1  0.288334  0.570460  0.570603  1
  Co  Co17  1  0.138844  0.142910  0.141898  1
  Co  Co18  1  0.138844  0.142910  0.576349  1
  Co  Co19  1  0.138110  0.576276  0.142807  1
  Co  Co20  1  0.575788  0.140993  0.141610  1
  Ag  Ag21  1  0.583083  0.582889  0.581351  1
  Ag  Ag22  1  0.583083  0.582889  0.252678  1
  Ag  Ag23  1  0.581796  0.252519  0.582843  1
