# generated using pymatgen
data_Dy5HoCo6(PRu)12
_symmetry_space_group_name_H-M   'P 1'
_cell_length_a   3.87387600
_cell_length_b   10.75404347
_cell_length_c   12.59812354
_cell_angle_alpha   90.03368785
_cell_angle_beta   90.00000000
_cell_angle_gamma   90.00000000
_symmetry_Int_Tables_number   1
_chemical_formula_structural   Dy5HoCo6(PRu)12
_chemical_formula_sum   'Dy5 Ho1 Co6 P12 Ru12'
_cell_volume   524.83560556
_cell_formula_units_Z   1
loop_
 _symmetry_equiv_pos_site_id
 _symmetry_equiv_pos_as_xyz
  1  'x, y, z'
loop_
 _atom_site_type_symbol
 _atom_site_label
 _atom_site_symmetry_multiplicity
 _atom_site_fract_x
 _atom_site_fract_y
 _atom_site_fract_z
 _atom_site_occupancy
  Dy  Dy0  1  0.000000  0.499973  0.526971  1
  Dy  Dy1  1  0.500000  0.000034  0.471802  1
  Dy  Dy2  1  0.500000  0.822345  0.203480  1
  Dy  Dy3  1  0.000000  0.680814  0.797284  1
  Dy  Dy4  1  0.000000  0.319194  0.797258  1
  Ho  Ho5  1  0.500000  0.177845  0.203406  1
  Co  Co6  1  0.000000  0.499861  0.985850  1
  Co  Co7  1  0.500000  0.000256  0.015805  1
  Co  Co8  1  0.000000  0.161224  0.012674  1
  Co  Co9  1  0.000000  0.838889  0.012566  1
  Co  Co10  1  0.500000  0.499975  0.700282  1
  Co  Co11  1  0.000000  0.000264  0.299193  1
  P  P12  1  0.500000  0.313247  0.617628  1
  P  P13  1  0.500000  0.686745  0.617742  1
  P  P14  1  0.000000  0.187245  0.382027  1
  P  P15  1  0.000000  0.812689  0.382236  1
  P  P16  1  0.500000  0.499911  0.879412  1
  P  P17  1  0.000000  0.000286  0.120366  1
  P  P18  1  0.500000  0.852567  0.896301  1
  P  P19  1  0.500000  0.147464  0.896148  1
  P  P20  1  0.000000  0.656014  0.100876  1
  P  P21  1  0.000000  0.343716  0.100943  1
  P  P22  1  0.500000  0.500018  0.339016  1
  P  P23  1  0.000000  0.999998  0.660628  1
  Ru  Ru24  1  0.500000  0.298934  0.428249  1
  Ru  Ru25  1  0.500000  0.701055  0.428464  1
  Ru  Ru26  1  0.000000  0.201427  0.571438  1
  Ru  Ru27  1  0.000000  0.798634  0.571501  1
  Ru  Ru28  1  0.500000  0.876398  0.715021  1
  Ru  Ru29  1  0.500000  0.123611  0.714946  1
  Ru  Ru30  1  0.000000  0.625198  0.282703  1
  Ru  Ru31  1  0.000000  0.374332  0.282429  1
  Ru  Ru32  1  0.500000  0.327677  0.990847  1
  Ru  Ru33  1  0.500000  0.672090  0.990657  1
  Ru  Ru34  1  0.500000  0.499999  0.152592  1
  Ru  Ru35  1  0.000000  0.000070  0.851264  1
