# generated using pymatgen
data_Tb4NdTh3(ZnRh)8
_symmetry_space_group_name_H-M   'P 1'
_cell_length_a   3.90488900
_cell_length_b   7.42657886
_cell_length_c   16.43386915
_cell_angle_alpha   90.34512417
_cell_angle_beta   90.00000000
_cell_angle_gamma   90.00000000
_symmetry_Int_Tables_number   1
_chemical_formula_structural   Tb4NdTh3(ZnRh)8
_chemical_formula_sum   'Tb4 Nd1 Th3 Zn8 Rh8'
_cell_volume   476.57300197
_cell_formula_units_Z   1
loop_
 _symmetry_equiv_pos_site_id
 _symmetry_equiv_pos_as_xyz
  1  'x, y, z'
loop_
 _atom_site_type_symbol
 _atom_site_label
 _atom_site_symmetry_multiplicity
 _atom_site_fract_x
 _atom_site_fract_y
 _atom_site_fract_z
 _atom_site_occupancy
  Tb  Tb0  1  0.750000  0.941406  0.284913  1
  Tb  Tb1  1  0.750000  0.832132  0.061179  1
  Tb  Tb2  1  0.250000  0.055866  0.714061  1
  Tb  Tb3  1  0.250000  0.553336  0.788208  1
  Nd  Nd4  1  0.750000  0.450208  0.212513  1
  Th  Th5  1  0.250000  0.170595  0.938903  1
  Th  Th6  1  0.250000  0.673112  0.564093  1
  Th  Th7  1  0.750000  0.324442  0.437494  1
  Zn  Zn8  1  0.750000  0.008864  0.563403  1
  Zn  Zn9  1  0.250000  0.622229  0.343974  1
  Zn  Zn10  1  0.750000  0.380731  0.659795  1
  Zn  Zn11  1  0.250000  0.507120  0.058126  1
  Zn  Zn12  1  0.750000  0.512603  0.939278  1
  Zn  Zn13  1  0.250000  0.988412  0.437076  1
  Zn  Zn14  1  0.250000  0.110503  0.153834  1
  Zn  Zn15  1  0.750000  0.879403  0.842262  1
  Rh  Rh16  1  0.750000  0.738568  0.441251  1
  Rh  Rh17  1  0.250000  0.240686  0.317895  1
  Rh  Rh18  1  0.750000  0.250178  0.818208  1
  Rh  Rh19  1  0.750000  0.752711  0.683141  1
  Rh  Rh20  1  0.250000  0.259390  0.561126  1
  Rh  Rh21  1  0.250000  0.749556  0.185669  1
  Rh  Rh22  1  0.750000  0.241988  0.059016  1
  Rh  Rh23  1  0.250000  0.755960  0.934580  1
