# generated using pymatgen
data_Yb2HoCo7C2
_symmetry_space_group_name_H-M   'P 1'
_cell_length_a   5.05184100
_cell_length_b   5.05184033
_cell_length_c   13.57074100
_cell_angle_alpha   90.00000000
_cell_angle_beta   90.00000000
_cell_angle_gamma   120.00002404
_symmetry_Int_Tables_number   1
_chemical_formula_structural   Yb2HoCo7C2
_chemical_formula_sum   'Yb4 Ho2 Co14 C4'
_cell_volume   299.93930251
_cell_formula_units_Z   2
loop_
 _symmetry_equiv_pos_site_id
 _symmetry_equiv_pos_as_xyz
  1  'x, y, z'
loop_
 _atom_site_type_symbol
 _atom_site_label
 _atom_site_symmetry_multiplicity
 _atom_site_fract_x
 _atom_site_fract_y
 _atom_site_fract_z
 _atom_site_occupancy
  Yb  Yb0  1  0.333333  0.666667  0.033623  1
  Yb  Yb1  1  0.666667  0.333333  0.757090  1
  Yb  Yb2  1  0.666667  0.333333  0.966377  1
  Yb  Yb3  1  0.333333  0.666667  0.242910  1
  Ho  Ho4  1  0.666667  0.333333  0.538881  1
  Ho  Ho5  1  0.333333  0.666667  0.461119  1
  Co  Co6  1  0.164476  0.328953  0.656466  1
  Co  Co7  1  0.328953  0.164476  0.343534  1
  Co  Co8  1  0.330844  0.165422  0.152679  1
  Co  Co9  1  0.165422  0.834578  0.847321  1
  Co  Co10  1  0.835524  0.671047  0.343534  1
  Co  Co11  1  0.834578  0.165422  0.152679  1
  Co  Co12  1  0.671047  0.835524  0.656466  1
  Co  Co13  1  0.669156  0.834578  0.847321  1
  Co  Co14  1  0.164476  0.835524  0.656466  1
  Co  Co15  1  0.834578  0.669156  0.152679  1
  Co  Co16  1  0.000000  0.000000  0.000000  1
  Co  Co17  1  0.165422  0.330844  0.847321  1
  Co  Co18  1  0.835524  0.164476  0.343534  1
  Co  Co19  1  0.000000  0.000000  0.500000  1
  C  C20  1  0.666667  0.333333  0.249129  1
  C  C21  1  0.000000  0.000000  0.751928  1
  C  C22  1  0.333333  0.666667  0.750871  1
  C  C23  1  0.000000  0.000000  0.248072  1
