# generated using pymatgen
data_Tb7HfAlPd24
_symmetry_space_group_name_H-M   'P 1'
_cell_length_a   8.33303044
_cell_length_b   8.33303030
_cell_length_c   8.33302952
_cell_angle_alpha   89.71801069
_cell_angle_beta   90.28199120
_cell_angle_gamma   90.28199656
_symmetry_Int_Tables_number   1
_chemical_formula_structural   Tb7HfAlPd24
_chemical_formula_sum   'Tb7 Hf1 Al1 Pd24'
_cell_volume   578.61957337
_cell_formula_units_Z   1
loop_
 _symmetry_equiv_pos_site_id
 _symmetry_equiv_pos_as_xyz
  1  'x, y, z'
loop_
 _atom_site_type_symbol
 _atom_site_label
 _atom_site_symmetry_multiplicity
 _atom_site_fract_x
 _atom_site_fract_y
 _atom_site_fract_z
 _atom_site_occupancy
  Tb  Tb0  1  0.250932  0.252438  0.252438  1
  Tb  Tb1  1  0.748285  0.748212  0.748212  1
  Tb  Tb2  1  0.747562  0.749068  0.252438  1
  Tb  Tb3  1  0.747562  0.252438  0.749068  1
  Tb  Tb4  1  0.251788  0.251715  0.748212  1
  Tb  Tb5  1  0.251788  0.748212  0.251715  1
  Tb  Tb6  1  0.252863  0.747137  0.747137  1
  Hf  Hf7  1  0.745007  0.254993  0.254993  1
  Al  Al8  1  0.003325  0.996675  0.996675  1
  Pd  Pd9  1  0.259207  0.498080  0.000632  1
  Pd  Pd10  1  0.740461  0.495922  0.007077  1
  Pd  Pd11  1  0.992923  0.259539  0.495922  1
  Pd  Pd12  1  0.504078  0.259539  0.007077  1
  Pd  Pd13  1  0.999368  0.740793  0.498080  1
  Pd  Pd14  1  0.501920  0.740793  0.000632  1
  Pd  Pd15  1  0.504078  0.007077  0.259539  1
  Pd  Pd16  1  0.259207  0.000632  0.498080  1
  Pd  Pd17  1  0.501920  0.000632  0.740793  1
  Pd  Pd18  1  0.740461  0.007077  0.495922  1
  Pd  Pd19  1  0.992923  0.495922  0.259539  1
  Pd  Pd20  1  0.999368  0.498080  0.740793  1
  Pd  Pd21  1  0.252311  0.498827  0.498827  1
  Pd  Pd22  1  0.746791  0.495564  0.495564  1
  Pd  Pd23  1  0.504436  0.253209  0.495564  1
  Pd  Pd24  1  0.501173  0.747689  0.498827  1
  Pd  Pd25  1  0.504436  0.495564  0.253209  1
  Pd  Pd26  1  0.501173  0.498827  0.747689  1
  Pd  Pd27  1  0.291234  0.999877  0.999877  1
  Pd  Pd28  1  0.714927  0.005874  0.005874  1
  Pd  Pd29  1  0.994126  0.285073  0.005874  1
  Pd  Pd30  1  0.000123  0.708766  0.999877  1
  Pd  Pd31  1  0.994126  0.005874  0.285073  1
  Pd  Pd32  1  0.000123  0.999877  0.708766  1
