# generated using pymatgen
data_Ca7Pr8Y5Si16
_symmetry_space_group_name_H-M   'P 1'
_cell_length_a   7.51112422
_cell_length_b   7.91689031
_cell_length_c   15.10755742
_cell_angle_alpha   89.96532057
_cell_angle_beta   90.26292662
_cell_angle_gamma   90.05658813
_symmetry_Int_Tables_number   1
_chemical_formula_structural   Ca7Pr8Y5Si16
_chemical_formula_sum   'Ca7 Pr8 Y5 Si16'
_cell_volume   898.35701375
_cell_formula_units_Z   1
loop_
 _symmetry_equiv_pos_site_id
 _symmetry_equiv_pos_as_xyz
  1  'x, y, z'
loop_
 _atom_site_type_symbol
 _atom_site_label
 _atom_site_symmetry_multiplicity
 _atom_site_fract_x
 _atom_site_fract_y
 _atom_site_fract_z
 _atom_site_occupancy
  Ca  Ca0  1  0.319350  0.180135  0.622739  1
  Ca  Ca1  1  0.680410  0.820698  0.377288  1
  Ca  Ca2  1  0.649511  0.990614  0.749977  1
  Ca  Ca3  1  0.180215  0.679072  0.378219  1
  Ca  Ca4  1  0.849111  0.493000  0.251515  1
  Ca  Ca5  1  0.349889  0.006352  0.250925  1
  Ca  Ca6  1  0.153222  0.508304  0.749748  1
  Pr  Pr7  1  0.027016  0.184072  0.400225  1
  Pr  Pr8  1  0.526282  0.314592  0.400581  1
  Pr  Pr9  1  0.473912  0.682715  0.901184  1
  Pr  Pr10  1  0.474301  0.683824  0.599592  1
  Pr  Pr11  1  0.974193  0.816496  0.600588  1
  Pr  Pr12  1  0.974604  0.817761  0.902520  1
  Pr  Pr13  1  0.526367  0.317793  0.096352  1
  Pr  Pr14  1  0.026358  0.183832  0.097227  1
  Y  Y15  1  0.822432  0.318194  0.877700  1
  Y  Y16  1  0.820910  0.319814  0.625250  1
  Y  Y17  1  0.320782  0.181334  0.877753  1
  Y  Y18  1  0.176521  0.683163  0.121917  1
  Y  Y19  1  0.677131  0.816455  0.121543  1
  Si  Si20  1  0.260966  0.882493  0.752992  1
  Si  Si21  1  0.467767  0.600131  0.243754  1
  Si  Si22  1  0.028347  0.104178  0.753174  1
  Si  Si23  1  0.533254  0.398159  0.752622  1
  Si  Si24  1  0.137968  0.471927  0.539425  1
  Si  Si25  1  0.968133  0.899954  0.244190  1
  Si  Si26  1  0.739048  0.118110  0.246110  1
  Si  Si27  1  0.852793  0.531919  0.035115  1
  Si  Si28  1  0.352875  0.968662  0.035668  1
  Si  Si29  1  0.148775  0.468518  0.964697  1
  Si  Si30  1  0.648550  0.033575  0.537817  1
  Si  Si31  1  0.358184  0.973335  0.463318  1
  Si  Si32  1  0.850542  0.524951  0.466042  1
  Si  Si33  1  0.764826  0.613541  0.751420  1
  Si  Si34  1  0.238372  0.381344  0.246668  1
  Si  Si35  1  0.647084  0.030982  0.964145  1
