# generated using pymatgen
data_AcLa10Dy(Si7Cl3)2
_symmetry_space_group_name_H-M   'P 1'
_cell_length_a   4.13221300
_cell_length_b   11.66509600
_cell_length_c   16.67518200
_cell_angle_alpha   90.00000000
_cell_angle_beta   90.00000000
_cell_angle_gamma   90.00000000
_symmetry_Int_Tables_number   1
_chemical_formula_structural   AcLa10Dy(Si7Cl3)2
_chemical_formula_sum   'Ac1 La10 Dy1 Si14 Cl6'
_cell_volume   803.78815069
_cell_formula_units_Z   1
loop_
 _symmetry_equiv_pos_site_id
 _symmetry_equiv_pos_as_xyz
  1  'x, y, z'
loop_
 _atom_site_type_symbol
 _atom_site_label
 _atom_site_symmetry_multiplicity
 _atom_site_fract_x
 _atom_site_fract_y
 _atom_site_fract_z
 _atom_site_occupancy
  Ac  Ac0  1  0.500000  0.331448  0.500000  1
  La  La1  1  0.000000  0.664784  0.000000  1
  La  La2  1  0.500000  0.354396  0.758874  1
  La  La3  1  0.000000  0.646756  0.748902  1
  La  La4  1  0.500000  0.354396  0.241126  1
  La  La5  1  0.000000  0.646756  0.251098  1
  La  La6  1  0.500000  0.057312  0.879713  1
  La  La7  1  0.000000  0.943178  0.622532  1
  La  La8  1  0.500000  0.057312  0.120287  1
  La  La9  1  0.000000  0.943178  0.377468  1
  La  La10  1  0.000000  0.646236  0.500000  1
  Dy  Dy11  1  0.500000  0.350866  0.000000  1
  Si  Si12  1  0.000000  0.145375  0.000000  1
  Si  Si13  1  0.500000  0.855524  0.500000  1
  Si  Si14  1  0.500000  0.561952  0.881425  1
  Si  Si15  1  0.000000  0.436656  0.626697  1
  Si  Si16  1  0.500000  0.561952  0.118575  1
  Si  Si17  1  0.000000  0.436656  0.373303  1
  Si  Si18  1  0.000000  0.250982  0.877681  1
  Si  Si19  1  0.500000  0.751305  0.626311  1
  Si  Si20  1  0.000000  0.250982  0.122319  1
  Si  Si21  1  0.500000  0.751305  0.373689  1
  Si  Si22  1  0.000000  0.455424  0.881803  1
  Si  Si23  1  0.500000  0.545201  0.626674  1
  Si  Si24  1  0.500000  0.545201  0.373326  1
  Si  Si25  1  0.000000  0.455424  0.118197  1
  Cl  Cl26  1  0.500000  0.106553  0.695166  1
  Cl  Cl27  1  0.000000  0.896020  0.806279  1
  Cl  Cl28  1  0.000000  0.132612  0.500000  1
  Cl  Cl29  1  0.500000  0.861681  0.000000  1
  Cl  Cl30  1  0.500000  0.106553  0.304834  1
  Cl  Cl31  1  0.000000  0.896020  0.193721  1
