# generated using pymatgen
data_Sc8V7Re5Si15Ge
_symmetry_space_group_name_H-M   'P 1'
_cell_length_a   6.48192838
_cell_length_b   6.65668455
_cell_length_c   12.53538600
_cell_angle_alpha   90.02584243
_cell_angle_beta   89.98774936
_cell_angle_gamma   90.11291306
_symmetry_Int_Tables_number   1
_chemical_formula_structural   Sc8V7Re5Si15Ge
_chemical_formula_sum   'Sc8 V7 Re5 Si15 Ge1'
_cell_volume   540.87762918
_cell_formula_units_Z   1
loop_
 _symmetry_equiv_pos_site_id
 _symmetry_equiv_pos_as_xyz
  1  'x, y, z'
loop_
 _atom_site_type_symbol
 _atom_site_label
 _atom_site_symmetry_multiplicity
 _atom_site_fract_x
 _atom_site_fract_y
 _atom_site_fract_z
 _atom_site_occupancy
  Sc  Sc0  1  0.005661  0.169478  0.091319  1
  Sc  Sc1  1  0.505125  0.329455  0.407165  1
  Sc  Sc2  1  0.493435  0.668540  0.908491  1
  Sc  Sc3  1  0.994868  0.832068  0.591710  1
  Sc  Sc4  1  0.994564  0.830323  0.907545  1
  Sc  Sc5  1  0.489851  0.672377  0.592049  1
  Sc  Sc6  1  0.505773  0.331856  0.091298  1
  Sc  Sc7  1  0.010439  0.166737  0.409119  1
  V  V8  1  0.328860  0.840037  0.376194  1
  V  V9  1  0.669059  0.161574  0.876855  1
  V  V10  1  0.170065  0.336012  0.624714  1
  V  V11  1  0.169722  0.336245  0.877045  1
  V  V12  1  0.667741  0.160283  0.626172  1
  V  V13  1  0.332171  0.835569  0.124655  1
  V  V14  1  0.834152  0.668579  0.371322  1
  Re  Re15  1  0.665651  0.004092  0.249420  1
  Re  Re16  1  0.170235  0.495459  0.250294  1
  Re  Re17  1  0.832460  0.500363  0.752412  1
  Re  Re18  1  0.334927  0.001284  0.750713  1
  Re  Re19  1  0.825878  0.660624  0.121205  1
  Si  Si20  1  0.804527  0.361068  0.252184  1
  Si  Si21  1  0.302349  0.137155  0.249554  1
  Si  Si22  1  0.698457  0.861820  0.750330  1
  Si  Si23  1  0.197239  0.636503  0.749889  1
  Si  Si24  1  0.035233  0.872165  0.248943  1
  Si  Si25  1  0.532798  0.629683  0.252412  1
  Si  Si26  1  0.465142  0.372162  0.750692  1
  Si  Si27  1  0.965921  0.129276  0.750459  1
  Si  Si28  1  0.835541  0.453289  0.955070  1
  Si  Si29  1  0.333123  0.045125  0.542470  1
  Si  Si30  1  0.664429  0.959294  0.043012  1
  Si  Si31  1  0.170969  0.544118  0.455556  1
  Si  Si32  1  0.166709  0.540529  0.043208  1
  Si  Si33  1  0.667235  0.956961  0.457159  1
  Si  Si34  1  0.331919  0.042374  0.957659  1
  Ge  Ge35  1  0.827767  0.457521  0.541706  1
