# generated using pymatgen
data_NaPr3P6N13
_symmetry_space_group_name_H-M   'P 1'
_cell_length_a   7.46177258
_cell_length_b   7.46177199
_cell_length_c   7.46177300
_cell_angle_alpha   109.13151245
_cell_angle_beta   109.13151086
_cell_angle_gamma   109.13152036
_symmetry_Int_Tables_number   1
_chemical_formula_structural   NaPr3P6N13
_chemical_formula_sum   'Na1 Pr3 P6 N13'
_cell_volume   323.77887667
_cell_formula_units_Z   1
loop_
 _symmetry_equiv_pos_site_id
 _symmetry_equiv_pos_as_xyz
  1  'x, y, z'
loop_
 _atom_site_type_symbol
 _atom_site_label
 _atom_site_symmetry_multiplicity
 _atom_site_fract_x
 _atom_site_fract_y
 _atom_site_fract_z
 _atom_site_occupancy
  Na  Na0  1  0.319231  0.319231  0.319231  1
  Pr  Pr1  1  0.690474  0.006786  0.006786  1
  Pr  Pr2  1  0.006786  0.006786  0.690474  1
  Pr  Pr3  1  0.006786  0.690474  0.006786  1
  P  P4  1  0.246633  0.749983  0.500291  1
  P  P5  1  0.749983  0.246633  0.500291  1
  P  P6  1  0.749983  0.500291  0.246633  1
  P  P7  1  0.246633  0.500291  0.749983  1
  P  P8  1  0.500291  0.749983  0.246633  1
  P  P9  1  0.500291  0.246633  0.749983  1
  N  N10  1  0.989831  0.989831  0.989831  1
  N  N11  1  0.729459  0.309295  0.309295  1
  N  N12  1  0.309295  0.729459  0.309295  1
  N  N13  1  0.285259  0.585427  0.585427  1
  N  N14  1  0.585427  0.585427  0.285259  1
  N  N15  1  0.387712  0.710668  0.996077  1
  N  N16  1  0.996077  0.710668  0.387712  1
  N  N17  1  0.585427  0.285259  0.585427  1
  N  N18  1  0.710668  0.996077  0.387712  1
  N  N19  1  0.387712  0.996077  0.710668  1
  N  N20  1  0.710668  0.387712  0.996077  1
  N  N21  1  0.309295  0.309295  0.729459  1
  N  N22  1  0.996077  0.387712  0.710668  1
