# generated using pymatgen
data_Be3Co4Si5(W6C)2
_symmetry_space_group_name_H-M   'P 1'
_cell_length_a   7.69937849
_cell_length_b   7.71125196
_cell_length_c   7.69246216
_cell_angle_alpha   60.05387592
_cell_angle_beta   59.97025671
_cell_angle_gamma   60.05091436
_symmetry_Int_Tables_number   1
_chemical_formula_structural   Be3Co4Si5(W6C)2
_chemical_formula_sum   'Be3 Co4 Si5 W12 C2'
_cell_volume   323.12945490
_cell_formula_units_Z   1
loop_
 _symmetry_equiv_pos_site_id
 _symmetry_equiv_pos_as_xyz
  1  'x, y, z'
loop_
 _atom_site_type_symbol
 _atom_site_label
 _atom_site_symmetry_multiplicity
 _atom_site_fract_x
 _atom_site_fract_y
 _atom_site_fract_z
 _atom_site_occupancy
  Be  Be0  1  0.243971  0.917260  0.916887  1
  Be  Be1  1  0.332885  0.331392  0.002836  1
  Be  Be2  1  0.921882  0.917260  0.916887  1
  Co  Co3  1  0.129140  0.126966  0.614754  1
  Co  Co4  1  0.127970  0.621995  0.122067  1
  Co  Co5  1  0.124022  0.124760  0.124331  1
  Co  Co6  1  0.626889  0.124760  0.124331  1
  Si  Si7  1  0.923100  0.240938  0.912861  1
  Si  Si8  1  0.336028  0.001422  0.326519  1
  Si  Si9  1  0.335090  0.336293  0.326459  1
  Si  Si10  1  0.002155  0.336293  0.326459  1
  Si  Si11  1  0.923903  0.912389  0.239806  1
  W  W12  1  0.298507  0.697370  0.705616  1
  W  W13  1  0.305076  0.298561  0.702577  1
  W  W14  1  0.551473  0.945002  0.560272  1
  W  W15  1  0.941453  0.558747  0.558348  1
  W  W16  1  0.551700  0.952690  0.943910  1
  W  W17  1  0.693390  0.305449  0.307770  1
  W  W18  1  0.949454  0.558118  0.942318  1
  W  W19  1  0.306725  0.694391  0.304038  1
  W  W20  1  0.550110  0.558118  0.942318  1
  W  W21  1  0.693785  0.298561  0.702577  1
  W  W22  1  0.694846  0.694391  0.304038  1
  W  W23  1  0.943253  0.945002  0.560272  1
  C  C24  1  0.746611  0.752611  0.754167  1
  C  C25  1  0.496580  0.499257  0.507584  1
