# generated using pymatgen
data_Ce2Co9Re3P7
_symmetry_space_group_name_H-M   'P 1'
_cell_length_a   9.05612500
_cell_length_b   9.05612498
_cell_length_c   3.73068900
_cell_angle_alpha   90.00000000
_cell_angle_beta   90.00000000
_cell_angle_gamma   120.00000372
_symmetry_Int_Tables_number   1
_chemical_formula_structural   Ce2Co9Re3P7
_chemical_formula_sum   'Ce2 Co9 Re3 P7'
_cell_volume   264.97474196
_cell_formula_units_Z   1
loop_
 _symmetry_equiv_pos_site_id
 _symmetry_equiv_pos_as_xyz
  1  'x, y, z'
loop_
 _atom_site_type_symbol
 _atom_site_label
 _atom_site_symmetry_multiplicity
 _atom_site_fract_x
 _atom_site_fract_y
 _atom_site_fract_z
 _atom_site_occupancy
  Ce  Ce0  1  0.000000  0.000000  0.000000  1
  Ce  Ce1  1  0.333333  0.666667  0.500000  1
  Co  Co2  1  0.098170  0.396417  0.000000  1
  Co  Co3  1  0.298248  0.901830  0.000000  1
  Co  Co4  1  0.603583  0.701752  0.000000  1
  Co  Co5  1  0.820040  0.609485  0.000000  1
  Co  Co6  1  0.789445  0.179960  0.000000  1
  Co  Co7  1  0.390515  0.210555  0.000000  1
  Co  Co8  1  0.047841  0.770842  0.500000  1
  Co  Co9  1  0.723002  0.952159  0.500000  1
  Co  Co10  1  0.229158  0.276998  0.500000  1
  Re  Re11  1  0.884428  0.433284  0.500000  1
  Re  Re12  1  0.548855  0.115572  0.500000  1
  Re  Re13  1  0.566716  0.451145  0.500000  1
  P  P14  1  0.074486  0.635039  0.000000  1
  P  P15  1  0.560553  0.925514  0.000000  1
  P  P16  1  0.364961  0.439447  0.000000  1
  P  P17  1  0.777953  0.738084  0.500000  1
  P  P18  1  0.960132  0.222047  0.500000  1
  P  P19  1  0.261916  0.039868  0.500000  1
  P  P20  1  0.666667  0.333333  0.000000  1
