# generated using pymatgen
data_AcLa3(Er3Si4)2
_symmetry_space_group_name_H-M   'P 1'
_cell_length_a   7.82294631
_cell_length_b   7.82139332
_cell_length_c   14.55491600
_cell_angle_alpha   90.00000000
_cell_angle_beta   90.00000000
_cell_angle_gamma   89.85438306
_symmetry_Int_Tables_number   1
_chemical_formula_structural   AcLa3(Er3Si4)2
_chemical_formula_sum   'Ac2 La6 Er12 Si16'
_cell_volume   890.55916320
_cell_formula_units_Z   2
loop_
 _symmetry_equiv_pos_site_id
 _symmetry_equiv_pos_as_xyz
  1  'x, y, z'
loop_
 _atom_site_type_symbol
 _atom_site_label
 _atom_site_symmetry_multiplicity
 _atom_site_fract_x
 _atom_site_fract_y
 _atom_site_fract_z
 _atom_site_occupancy
  Ac  Ac0  1  0.985777  0.642312  0.040844  1
  Ac  Ac1  1  0.014223  0.357688  0.540844  1
  La  La2  1  0.636976  0.989254  0.956339  1
  La  La3  1  0.138445  0.509658  0.793518  1
  La  La4  1  0.861555  0.490342  0.293518  1
  La  La5  1  0.510454  0.138424  0.207273  1
  La  La6  1  0.489546  0.861576  0.707273  1
  La  La7  1  0.363024  0.010746  0.456339  1
  Er  Er8  1  0.363836  0.491823  0.373973  1
  Er  Er9  1  0.862370  0.009557  0.375594  1
  Er  Er10  1  0.990781  0.137272  0.124934  1
  Er  Er11  1  0.009219  0.862728  0.624934  1
  Er  Er12  1  0.636164  0.508177  0.873973  1
  Er  Er13  1  0.491039  0.363664  0.625708  1
  Er  Er14  1  0.508961  0.636336  0.125708  1
  Er  Er15  1  0.137630  0.990443  0.875594  1
  Er  Er16  1  0.683648  0.685232  0.499964  1
  Er  Er17  1  0.814671  0.182804  0.750493  1
  Er  Er18  1  0.185329  0.817196  0.250493  1
  Er  Er19  1  0.316352  0.314768  0.999964  1
  Si  Si20  1  0.070036  0.718873  0.436758  1
  Si  Si21  1  0.929964  0.281127  0.936758  1
  Si  Si22  1  0.710617  0.064937  0.563080  1
  Si  Si23  1  0.215344  0.430019  0.188097  1
  Si  Si24  1  0.784657  0.569981  0.688097  1
  Si  Si25  1  0.433223  0.213326  0.813133  1
  Si  Si26  1  0.566777  0.786675  0.313133  1
  Si  Si27  1  0.289383  0.935063  0.063080  1
  Si  Si28  1  0.844271  0.799744  0.806187  1
  Si  Si29  1  0.155729  0.200256  0.306187  1
  Si  Si30  1  0.796489  0.846237  0.196236  1
  Si  Si31  1  0.303181  0.660192  0.555911  1
  Si  Si32  1  0.696819  0.339808  0.055911  1
  Si  Si33  1  0.651429  0.297943  0.441960  1
  Si  Si34  1  0.348571  0.702057  0.941960  1
  Si  Si35  1  0.203511  0.153763  0.696236  1
