# generated using pymatgen
data_Mn2Nb6Re3Si6Mo
_symmetry_space_group_name_H-M   'P 1'
_cell_length_a   7.57722181
_cell_length_b   7.58357881
_cell_length_c   7.57396177
_cell_angle_alpha   127.39662664
_cell_angle_beta   127.22549600
_cell_angle_gamma   77.73139412
_symmetry_Int_Tables_number   1
_chemical_formula_structural   Mn2Nb6Re3Si6Mo
_chemical_formula_sum   'Mn2 Nb6 Re3 Si6 Mo1'
_cell_volume   266.93206708
_cell_formula_units_Z   1
loop_
 _symmetry_equiv_pos_site_id
 _symmetry_equiv_pos_as_xyz
  1  'x, y, z'
loop_
 _atom_site_type_symbol
 _atom_site_label
 _atom_site_symmetry_multiplicity
 _atom_site_fract_x
 _atom_site_fract_y
 _atom_site_fract_z
 _atom_site_occupancy
  Mn  Mn0  1  0.499788  0.241368  0.740285  1
  Mn  Mn1  1  0.997529  0.238418  0.239230  1
  Nb  Nb2  1  0.547254  0.092885  0.045154  1
  Nb  Nb3  1  0.451475  0.499529  0.547482  1
  Nb  Nb4  1  0.952309  0.499479  0.048320  1
  Nb  Nb5  1  0.048032  0.092860  0.545915  1
  Nb  Nb6  1  0.752409  0.905365  0.655134  1
  Nb  Nb7  1  0.250532  0.905338  0.153238  1
  Re  Re8  1  0.873210  0.498606  0.625598  1
  Re  Re9  1  0.625578  0.749946  0.124781  1
  Re  Re10  1  0.374388  0.499861  0.125513  1
  Si  Si11  1  0.748852  0.476237  0.226529  1
  Si  Si12  1  0.249493  0.476105  0.727003  1
  Si  Si13  1  0.337375  0.839203  0.502017  1
  Si  Si14  1  0.664920  0.167468  0.502747  1
  Si  Si15  1  0.835694  0.837932  0.002433  1
  Si  Si16  1  0.164983  0.170258  0.005468  1
  Mo  Mo17  1  0.126177  0.751339  0.625354  1
