# generated using pymatgen
data_Nd8Nb12Si15P
_symmetry_space_group_name_H-M   'P 1'
_cell_length_a   7.17286562
_cell_length_b   7.16714535
_cell_length_c   13.28687084
_cell_angle_alpha   89.91963576
_cell_angle_beta   89.99548914
_cell_angle_gamma   89.97023659
_symmetry_Int_Tables_number   1
_chemical_formula_structural   Nd8Nb12Si15P
_chemical_formula_sum   'Nd8 Nb12 Si15 P1'
_cell_volume   683.06358456
_cell_formula_units_Z   1
loop_
 _symmetry_equiv_pos_site_id
 _symmetry_equiv_pos_as_xyz
  1  'x, y, z'
loop_
 _atom_site_type_symbol
 _atom_site_label
 _atom_site_symmetry_multiplicity
 _atom_site_fract_x
 _atom_site_fract_y
 _atom_site_fract_z
 _atom_site_occupancy
  Nd  Nd0  1  0.000235  0.336903  0.217968  1
  Nd  Nd1  1  0.004164  0.660772  0.717399  1
  Nd  Nd2  1  0.160106  0.497712  0.467391  1
  Nd  Nd3  1  0.501239  0.840765  0.033938  1
  Nd  Nd4  1  0.838515  0.503606  0.968194  1
  Nd  Nd5  1  0.496287  0.161520  0.531977  1
  Nd  Nd6  1  0.339422  0.996519  0.782762  1
  Nd  Nd7  1  0.656292  0.003370  0.281201  1
  Nb  Nb8  1  0.171487  0.168564  0.001454  1
  Nb  Nb9  1  0.829500  0.830050  0.499806  1
  Nb  Nb10  1  0.329446  0.670781  0.249077  1
  Nb  Nb11  1  0.670731  0.328914  0.750205  1
  Nb  Nb12  1  0.157566  0.993340  0.372193  1
  Nb  Nb13  1  0.842981  0.009131  0.875361  1
  Nb  Nb14  1  0.509508  0.657142  0.624794  1
  Nb  Nb15  1  0.343452  0.490886  0.874785  1
  Nb  Nb16  1  0.487334  0.339345  0.126237  1
  Nb  Nb17  1  0.658245  0.511276  0.374815  1
  Nb  Nb18  1  0.990218  0.156662  0.624697  1
  Nb  Nb19  1  0.011791  0.845752  0.125507  1
  Si  Si20  1  0.709688  0.955459  0.686720  1
  Si  Si21  1  0.455309  0.790222  0.436763  1
  Si  Si22  1  0.210045  0.544167  0.062668  1
  Si  Si23  1  0.544347  0.209799  0.936711  1
  Si  Si24  1  0.790004  0.455679  0.563477  1
  Si  Si25  1  0.044991  0.289446  0.814039  1
  Si  Si26  1  0.955463  0.710007  0.312883  1
  Si  Si27  1  0.374370  0.303654  0.317064  1
  Si  Si28  1  0.628528  0.701918  0.814500  1
  Si  Si29  1  0.201634  0.872891  0.563156  1
  Si  Si30  1  0.127886  0.796702  0.935668  1
  Si  Si31  1  0.797967  0.127703  0.063987  1
  Si  Si32  1  0.871746  0.201052  0.434947  1
  Si  Si33  1  0.298389  0.371653  0.685968  1
  Si  Si34  1  0.702997  0.625867  0.185312  1
  P  P35  1  0.288121  0.040771  0.186377  1
