# generated using pymatgen
data_Tb10In8NiIr3
_symmetry_space_group_name_H-M   'P 1'
_cell_length_a   3.64278200
_cell_length_b   8.08007066
_cell_length_c   18.23325995
_cell_angle_alpha   90.01902399
_cell_angle_beta   90.00000000
_cell_angle_gamma   90.00000000
_symmetry_Int_Tables_number   1
_chemical_formula_structural   Tb10In8NiIr3
_chemical_formula_sum   'Tb10 In8 Ni1 Ir3'
_cell_volume   536.67657617
_cell_formula_units_Z   1
loop_
 _symmetry_equiv_pos_site_id
 _symmetry_equiv_pos_as_xyz
  1  'x, y, z'
loop_
 _atom_site_type_symbol
 _atom_site_label
 _atom_site_symmetry_multiplicity
 _atom_site_fract_x
 _atom_site_fract_y
 _atom_site_fract_z
 _atom_site_occupancy
  Tb  Tb0  1  0.000000  0.499407  0.500265  1
  Tb  Tb1  1  0.000000  0.999862  0.000336  1
  Tb  Tb2  1  0.000000  0.739197  0.278919  1
  Tb  Tb3  1  0.000000  0.257885  0.720474  1
  Tb  Tb4  1  0.000000  0.757767  0.778331  1
  Tb  Tb5  1  0.000000  0.249537  0.222098  1
  Tb  Tb6  1  0.000000  0.614596  0.088509  1
  Tb  Tb7  1  0.000000  0.384155  0.911119  1
  Tb  Tb8  1  0.000000  0.884152  0.588130  1
  Tb  Tb9  1  0.000000  0.112878  0.409746  1
  In  In10  1  0.500000  0.707599  0.932370  1
  In  In11  1  0.500000  0.290849  0.069565  1
  In  In12  1  0.500000  0.792484  0.430566  1
  In  In13  1  0.500000  0.205833  0.565893  1
  In  In14  1  0.500000  0.573375  0.649170  1
  In  In15  1  0.500000  0.425239  0.351246  1
  In  In16  1  0.500000  0.927148  0.152721  1
  In  In17  1  0.500000  0.073363  0.850197  1
  Ni  Ni18  1  0.500000  0.018557  0.304476  1
  Ir  Ir19  1  0.500000  0.519953  0.196759  1
  Ir  Ir20  1  0.500000  0.482768  0.803988  1
  Ir  Ir21  1  0.500000  0.983395  0.695122  1
