# generated using pymatgen
data_Na4YUSe6
_symmetry_space_group_name_H-M   'P 1'
_cell_length_a   7.27374558
_cell_length_b   7.27374542
_cell_length_c   7.32819770
_cell_angle_alpha   80.37651445
_cell_angle_beta   80.37652559
_cell_angle_gamma   120.07368677
_symmetry_Int_Tables_number   1
_chemical_formula_structural   Na4YUSe6
_chemical_formula_sum   'Na4 Y1 U1 Se6'
_cell_volume   316.16852381
_cell_formula_units_Z   1
loop_
 _symmetry_equiv_pos_site_id
 _symmetry_equiv_pos_as_xyz
  1  'x, y, z'
loop_
 _atom_site_type_symbol
 _atom_site_label
 _atom_site_symmetry_multiplicity
 _atom_site_fract_x
 _atom_site_fract_y
 _atom_site_fract_z
 _atom_site_occupancy
  Na  Na0  1  0.000122  0.999878  0.000000  1
  Na  Na1  1  0.500094  0.499906  0.500000  1
  Na  Na2  1  0.839666  0.160334  0.500000  1
  Na  Na3  1  0.159852  0.840148  0.500000  1
  Y  Y4  1  0.667595  0.332405  0.000000  1
  U  U5  1  0.332746  0.667254  0.000000  1
  Se  Se6  1  0.272917  0.282892  0.230308  1
  Se  Se7  1  0.427032  0.066862  0.770344  1
  Se  Se8  1  0.087495  0.437765  0.772169  1
  Se  Se9  1  0.717108  0.727083  0.769692  1
  Se  Se10  1  0.562235  0.912505  0.227831  1
  Se  Se11  1  0.933138  0.572968  0.229656  1
