# generated using pymatgen
data_Ac4Zn9GaSn2
_symmetry_space_group_name_H-M   'P 1'
_cell_length_a   8.90942015
_cell_length_b   8.90942032
_cell_length_c   9.33863783
_cell_angle_alpha   90.05029797
_cell_angle_beta   89.94970348
_cell_angle_gamma   149.26397296
_symmetry_Int_Tables_number   1
_chemical_formula_structural   Ac4Zn9GaSn2
_chemical_formula_sum   'Ac4 Zn9 Ga1 Sn2'
_cell_volume   378.85592837
_cell_formula_units_Z   1
loop_
 _symmetry_equiv_pos_site_id
 _symmetry_equiv_pos_as_xyz
  1  'x, y, z'
loop_
 _atom_site_type_symbol
 _atom_site_label
 _atom_site_symmetry_multiplicity
 _atom_site_fract_x
 _atom_site_fract_y
 _atom_site_fract_z
 _atom_site_occupancy
  Ac  Ac0  1  0.206070  0.793930  0.249934  1
  Ac  Ac1  1  0.793420  0.206580  0.749872  1
  Ac  Ac2  1  0.999905  0.000095  0.500403  1
  Ac  Ac3  1  0.000856  0.999144  0.998424  1
  Zn  Zn4  1  0.185783  0.814217  0.611234  1
  Zn  Zn5  1  0.813875  0.186125  0.108211  1
  Zn  Zn6  1  0.186129  0.813871  0.890159  1
  Zn  Zn7  1  0.656408  0.343592  0.488011  1
  Zn  Zn8  1  0.343072  0.656928  0.513234  1
  Zn  Zn9  1  0.656765  0.343235  0.011769  1
  Zn  Zn10  1  0.343053  0.656947  0.988314  1
  Zn  Zn11  1  0.399148  0.600852  0.248636  1
  Zn  Zn12  1  0.601800  0.398200  0.750285  1
  Ga  Ga13  1  0.813420  0.186580  0.390864  1
  Sn  Sn14  1  0.557726  0.442274  0.250393  1
  Sn  Sn15  1  0.442573  0.557427  0.750255  1
