# generated using pymatgen
data_Tb3Dy9TlCo5
_symmetry_space_group_name_H-M   'P 1'
_cell_length_a   8.30010980
_cell_length_b   8.29762911
_cell_length_c   8.29763000
_cell_angle_alpha   106.99612283
_cell_angle_beta   110.77698658
_cell_angle_gamma   110.65561798
_symmetry_Int_Tables_number   1
_chemical_formula_structural   Tb3Dy9TlCo5
_chemical_formula_sum   'Tb3 Dy9 Tl1 Co5'
_cell_volume   439.37525020
_cell_formula_units_Z   1
loop_
 _symmetry_equiv_pos_site_id
 _symmetry_equiv_pos_as_xyz
  1  'x, y, z'
loop_
 _atom_site_type_symbol
 _atom_site_label
 _atom_site_symmetry_multiplicity
 _atom_site_fract_x
 _atom_site_fract_y
 _atom_site_fract_z
 _atom_site_occupancy
  Tb  Tb0  1  0.480857  0.293764  0.187093  1
  Tb  Tb1  1  0.106989  0.293879  0.813109  1
  Tb  Tb2  1  0.893101  0.706727  0.186375  1
  Dy  Dy3  1  0.519517  0.706494  0.813023  1
  Dy  Dy4  1  0.306531  0.620612  0.314537  1
  Dy  Dy5  1  0.306531  0.991996  0.685919  1
  Dy  Dy6  1  0.693573  0.379490  0.685913  1
  Dy  Dy7  1  0.693573  0.007659  0.314082  1
  Dy  Dy8  1  0.191777  0.206923  0.398289  1
  Dy  Dy9  1  0.808897  0.793302  0.602597  1
  Dy  Dy10  1  0.191777  0.793488  0.984854  1
  Dy  Dy11  1  0.808897  0.206300  0.015596  1
  Tl  Tl12  1  0.000079  0.500013  0.500065  1
  Co  Co13  1  0.499749  0.612652  0.111819  1
  Co  Co14  1  0.499749  0.387930  0.887096  1
  Co  Co15  1  0.378478  0.999972  0.378505  1
  Co  Co16  1  0.620233  0.999441  0.620793  1
  Co  Co17  1  0.999691  0.999356  0.000335  1
