# generated using pymatgen
data_YBeCo12
_symmetry_space_group_name_H-M   'P 1'
_cell_length_a   7.83778259
_cell_length_b   7.83778190
_cell_length_c   7.83778200
_cell_angle_alpha   59.99999957
_cell_angle_beta   60.00000248
_cell_angle_gamma   59.99999874
_symmetry_Int_Tables_number   1
_chemical_formula_structural   YBeCo12
_chemical_formula_sum   'Y2 Be2 Co24'
_cell_volume   340.45880560
_cell_formula_units_Z   2
loop_
 _symmetry_equiv_pos_site_id
 _symmetry_equiv_pos_as_xyz
  1  'x, y, z'
loop_
 _atom_site_type_symbol
 _atom_site_label
 _atom_site_symmetry_multiplicity
 _atom_site_fract_x
 _atom_site_fract_y
 _atom_site_fract_z
 _atom_site_occupancy
  Y  Y0  1  0.250000  0.250000  0.250000  1
  Y  Y1  1  0.750000  0.750000  0.750000  1
  Be  Be2  1  0.000000  0.000000  0.000000  1
  Be  Be3  1  0.500000  0.500000  0.500000  1
  Co  Co4  1  0.294459  0.059151  0.940850  1
  Co  Co5  1  0.059151  0.294459  0.705541  1
  Co  Co6  1  0.705541  0.940849  0.059152  1
  Co  Co7  1  0.940849  0.705541  0.294460  1
  Co  Co8  1  0.940850  0.294459  0.059151  1
  Co  Co9  1  0.059151  0.940850  0.294459  1
  Co  Co10  1  0.294460  0.940849  0.705541  1
  Co  Co11  1  0.294459  0.705541  0.059151  1
  Co  Co12  1  0.705541  0.059151  0.294459  1
  Co  Co13  1  0.940849  0.059152  0.705541  1
  Co  Co14  1  0.059152  0.705541  0.940849  1
  Co  Co15  1  0.705541  0.294460  0.940849  1
  Co  Co16  1  0.440848  0.205540  0.559152  1
  Co  Co17  1  0.205540  0.440848  0.794460  1
  Co  Co18  1  0.559152  0.794460  0.440848  1
  Co  Co19  1  0.794460  0.559152  0.205540  1
  Co  Co20  1  0.205540  0.559152  0.440848  1
  Co  Co21  1  0.559152  0.440848  0.205540  1
  Co  Co22  1  0.559152  0.205540  0.794460  1
  Co  Co23  1  0.794460  0.205540  0.440848  1
  Co  Co24  1  0.440848  0.794460  0.205540  1
  Co  Co25  1  0.440848  0.559152  0.794460  1
  Co  Co26  1  0.794460  0.440848  0.559152  1
  Co  Co27  1  0.205540  0.794460  0.559152  1
