# generated using pymatgen
data_Ba4ErIrO8
_symmetry_space_group_name_H-M   'P 1'
_cell_length_a   7.42641568
_cell_length_b   7.42641513
_cell_length_c   5.95275300
_cell_angle_alpha   90.00000000
_cell_angle_beta   90.00000000
_cell_angle_gamma   132.84681142
_symmetry_Int_Tables_number   1
_chemical_formula_structural   Ba4ErIrO8
_chemical_formula_sum   'Ba4 Er1 Ir1 O8'
_cell_volume   240.70421498
_cell_formula_units_Z   1
loop_
 _symmetry_equiv_pos_site_id
 _symmetry_equiv_pos_as_xyz
  1  'x, y, z'
loop_
 _atom_site_type_symbol
 _atom_site_label
 _atom_site_symmetry_multiplicity
 _atom_site_fract_x
 _atom_site_fract_y
 _atom_site_fract_z
 _atom_site_occupancy
  Ba  Ba0  1  0.354647  0.645353  0.000000  1
  Ba  Ba1  1  0.854199  0.145801  0.500000  1
  Ba  Ba2  1  0.145801  0.854199  0.500000  1
  Ba  Ba3  1  0.645353  0.354647  0.000000  1
  Er  Er4  1  0.000000  0.000000  0.000000  1
  Ir  Ir5  1  0.500000  0.500000  0.500000  1
  O  O6  1  0.259676  0.259676  0.733689  1
  O  O7  1  0.740324  0.740324  0.266311  1
  O  O8  1  0.740324  0.740324  0.733689  1
  O  O9  1  0.259676  0.259676  0.266311  1
  O  O10  1  0.164897  0.835103  0.000000  1
  O  O11  1  0.649297  0.350703  0.500000  1
  O  O12  1  0.350703  0.649297  0.500000  1
  O  O13  1  0.835103  0.164897  0.000000  1
