# generated using pymatgen
data_Rb2NaTmSb2
_symmetry_space_group_name_H-M   'P 1'
_cell_length_a   10.01253785
_cell_length_b   10.01261198
_cell_length_c   10.01253193
_cell_angle_alpha   135.89154577
_cell_angle_beta   63.85511589
_cell_angle_gamma   136.27026825
_symmetry_Int_Tables_number   1
_chemical_formula_structural   Rb2NaTmSb2
_chemical_formula_sum   'Rb4 Na2 Tm2 Sb4'
_cell_volume   476.52040925
_cell_formula_units_Z   2
loop_
 _symmetry_equiv_pos_site_id
 _symmetry_equiv_pos_as_xyz
  1  'x, y, z'
loop_
 _atom_site_type_symbol
 _atom_site_label
 _atom_site_symmetry_multiplicity
 _atom_site_fract_x
 _atom_site_fract_y
 _atom_site_fract_z
 _atom_site_occupancy
  Rb  Rb0  1  0.823143  0.274023  0.097177  1
  Rb  Rb1  1  0.676845  0.774034  0.450897  1
  Rb  Rb2  1  0.323149  0.225978  0.549117  1
  Rb  Rb3  1  0.176852  0.725961  0.902813  1
  Na  Na4  1  0.750007  0.250001  0.500004  1
  Na  Na5  1  0.249997  0.750000  0.499995  1
  Tm  Tm6  1  0.249999  0.250000  0.999991  1
  Tm  Tm7  1  0.750001  0.749998  0.000006  1
  Sb  Sb8  1  0.401544  0.724784  0.126319  1
  Sb  Sb9  1  0.098467  0.224785  0.323242  1
  Sb  Sb10  1  0.901537  0.775217  0.676758  1
  Sb  Sb11  1  0.598459  0.275216  0.873679  1
