# generated using pymatgen
data_Er2Al9RuPt2
_symmetry_space_group_name_H-M   'P 1'
_cell_length_a   7.58935100
_cell_length_b   7.58935041
_cell_length_c   9.41720900
_cell_angle_alpha   90.00000000
_cell_angle_beta   90.00000000
_cell_angle_gamma   119.64951124
_symmetry_Int_Tables_number   1
_chemical_formula_structural   Er2Al9RuPt2
_chemical_formula_sum   'Er4 Al18 Ru2 Pt4'
_cell_volume   471.39513794
_cell_formula_units_Z   2
loop_
 _symmetry_equiv_pos_site_id
 _symmetry_equiv_pos_as_xyz
  1  'x, y, z'
loop_
 _atom_site_type_symbol
 _atom_site_label
 _atom_site_symmetry_multiplicity
 _atom_site_fract_x
 _atom_site_fract_y
 _atom_site_fract_z
 _atom_site_occupancy
  Er  Er0  1  0.994596  0.670153  0.750000  1
  Er  Er1  1  0.005404  0.329847  0.250000  1
  Er  Er2  1  0.670153  0.994596  0.750000  1
  Er  Er3  1  0.329847  0.005404  0.250000  1
  Al  Al4  1  0.122822  0.122822  0.750000  1
  Al  Al5  1  0.877178  0.877178  0.250000  1
  Al  Al6  1  0.999901  0.329489  0.576636  1
  Al  Al7  1  0.000099  0.670511  0.423364  1
  Al  Al8  1  0.000099  0.670511  0.076636  1
  Al  Al9  1  0.329489  0.999901  0.923364  1
  Al  Al10  1  0.999901  0.329489  0.923364  1
  Al  Al11  1  0.670511  0.000099  0.076636  1
  Al  Al12  1  0.670511  0.000099  0.423364  1
  Al  Al13  1  0.329489  0.999901  0.576636  1
  Al  Al14  1  0.327260  0.327260  0.055625  1
  Al  Al15  1  0.672740  0.672740  0.944375  1
  Al  Al16  1  0.672740  0.672740  0.555625  1
  Al  Al17  1  0.327260  0.327260  0.444375  1
  Al  Al18  1  0.340964  0.545950  0.750000  1
  Al  Al19  1  0.659036  0.454050  0.250000  1
  Al  Al20  1  0.545950  0.340964  0.750000  1
  Al  Al21  1  0.454050  0.659036  0.250000  1
  Ru  Ru22  1  0.000000  0.000000  0.500000  1
  Ru  Ru23  1  0.000000  0.000000  0.000000  1
  Pt  Pt24  1  0.672296  0.327704  0.500000  1
  Pt  Pt25  1  0.327704  0.672296  0.500000  1
  Pt  Pt26  1  0.327704  0.672296  0.000000  1
  Pt  Pt27  1  0.672296  0.327704  0.000000  1
