# generated using pymatgen
data_Dy3P4Pd7
_symmetry_space_group_name_H-M   'P 1'
_cell_length_a   7.94842830
_cell_length_b   7.94842849
_cell_length_c   9.41961204
_cell_angle_alpha   55.82019427
_cell_angle_beta   55.82019340
_cell_angle_gamma   29.12569416
_symmetry_Int_Tables_number   1
_chemical_formula_structural   Dy3P4Pd7
_chemical_formula_sum   'Dy3 P4 Pd7'
_cell_volume   235.86700722
_cell_formula_units_Z   1
loop_
 _symmetry_equiv_pos_site_id
 _symmetry_equiv_pos_as_xyz
  1  'x, y, z'
loop_
 _atom_site_type_symbol
 _atom_site_label
 _atom_site_symmetry_multiplicity
 _atom_site_fract_x
 _atom_site_fract_y
 _atom_site_fract_z
 _atom_site_occupancy
  Dy  Dy0  1  0.500000  0.500000  0.500000  1
  Dy  Dy1  1  0.820105  0.820105  0.176255  1
  Dy  Dy2  1  0.179895  0.179895  0.823745  1
  P  P3  1  0.393761  0.393761  0.320274  1
  P  P4  1  0.606239  0.606239  0.679726  1
  P  P5  1  0.840770  0.840770  0.752797  1
  P  P6  1  0.159230  0.159230  0.247203  1
  Pd  Pd7  1  0.668372  0.668372  0.078675  1
  Pd  Pd8  1  0.009579  0.009579  0.216144  1
  Pd  Pd9  1  0.990421  0.990421  0.783856  1
  Pd  Pd10  1  0.500000  0.500000  0.000000  1
  Pd  Pd11  1  0.195123  0.195123  0.469945  1
  Pd  Pd12  1  0.804877  0.804877  0.530055  1
  Pd  Pd13  1  0.331628  0.331628  0.921325  1
