# generated using pymatgen
data_Pr3Y4ThSe12
_symmetry_space_group_name_H-M   'P 1'
_cell_length_a   11.37360648
_cell_length_b   4.14327500
_cell_length_c   11.03360875
_cell_angle_alpha   90.00000000
_cell_angle_beta   89.93028871
_cell_angle_gamma   90.00000000
_symmetry_Int_Tables_number   1
_chemical_formula_structural   Pr3Y4ThSe12
_chemical_formula_sum   'Pr3 Y4 Th1 Se12'
_cell_volume   519.94716664
_cell_formula_units_Z   1
loop_
 _symmetry_equiv_pos_site_id
 _symmetry_equiv_pos_as_xyz
  1  'x, y, z'
loop_
 _atom_site_type_symbol
 _atom_site_label
 _atom_site_symmetry_multiplicity
 _atom_site_fract_x
 _atom_site_fract_y
 _atom_site_fract_z
 _atom_site_occupancy
  Pr  Pr0  1  0.694995  0.750000  0.494665  1
  Pr  Pr1  1  0.197534  0.750000  0.997783  1
  Pr  Pr2  1  0.304699  0.250000  0.501086  1
  Y  Y3  1  0.485109  0.250000  0.189234  1
  Y  Y4  1  0.990041  0.250000  0.314149  1
  Y  Y5  1  0.510035  0.750000  0.809934  1
  Y  Y6  1  0.012085  0.750000  0.686388  1
  Th  Th7  1  0.805240  0.250000  0.005455  1
  Se  Se8  1  0.546462  0.250000  0.631298  1
  Se  Se9  1  0.039688  0.250000  0.870301  1
  Se  Se10  1  0.455866  0.750000  0.368066  1
  Se  Se11  1  0.954705  0.750000  0.129700  1
  Se  Se12  1  0.615035  0.750000  0.052792  1
  Se  Se13  1  0.114769  0.750000  0.446221  1
  Se  Se14  1  0.387877  0.250000  0.946625  1
  Se  Se15  1  0.883335  0.250000  0.554337  1
  Se  Se16  1  0.731661  0.250000  0.289459  1
  Se  Se17  1  0.227195  0.250000  0.201366  1
  Se  Se18  1  0.269038  0.750000  0.705478  1
  Se  Se19  1  0.774632  0.750000  0.805664  1
