# generated using pymatgen
data_Dy2Co10Si7Ru2
_symmetry_space_group_name_H-M   'P 1'
_cell_length_a   3.70494500
_cell_length_b   9.13268491
_cell_length_c   9.16927700
_cell_angle_alpha   120.27752918
_cell_angle_beta   90.00000000
_cell_angle_gamma   90.00000000
_symmetry_Int_Tables_number   1
_chemical_formula_structural   Dy2Co10Si7Ru2
_chemical_formula_sum   'Dy2 Co10 Si7 Ru2'
_cell_volume   267.93202353
_cell_formula_units_Z   1
loop_
 _symmetry_equiv_pos_site_id
 _symmetry_equiv_pos_as_xyz
  1  'x, y, z'
loop_
 _atom_site_type_symbol
 _atom_site_label
 _atom_site_symmetry_multiplicity
 _atom_site_fract_x
 _atom_site_fract_y
 _atom_site_fract_z
 _atom_site_occupancy
  Dy  Dy0  1  0.000000  0.667958  0.334591  1
  Dy  Dy1  1  0.500000  0.334167  0.667473  1
  Co  Co2  1  0.000000  0.566371  0.944956  1
  Co  Co3  1  0.000000  0.378114  0.431768  1
  Co  Co4  1  0.000000  0.054918  0.622762  1
  Co  Co5  1  0.500000  0.102690  0.879471  1
  Co  Co6  1  0.000000  0.872603  0.155729  1
  Co  Co7  1  0.000000  0.281723  0.124831  1
  Co  Co8  1  0.000000  0.848514  0.719127  1
  Co  Co9  1  0.500000  0.947445  0.384251  1
  Co  Co10  1  0.500000  0.430601  0.049158  1
  Co  Co11  1  0.500000  0.617450  0.565832  1
  Si  Si12  1  0.000000  0.001849  0.998775  1
  Si  Si13  1  0.500000  0.705322  0.111490  1
  Si  Si14  1  0.500000  0.402733  0.290557  1
  Si  Si15  1  0.500000  0.891218  0.600653  1
  Si  Si16  1  0.000000  0.596869  0.707237  1
  Si  Si17  1  0.000000  0.112695  0.406202  1
  Si  Si18  1  0.000000  0.288754  0.887167  1
  Ru  Ru19  1  0.500000  0.785099  0.901597  1
  Ru  Ru20  1  0.500000  0.112908  0.216375  1
