# generated using pymatgen
data_Y7Ho9Cd4Pd3Ru
_symmetry_space_group_name_H-M   'P 1'
_cell_length_a   9.68273950
_cell_length_b   9.68273986
_cell_length_c   9.68091953
_cell_angle_alpha   59.60036647
_cell_angle_beta   59.60037468
_cell_angle_gamma   59.66446975
_symmetry_Int_Tables_number   1
_chemical_formula_structural   Y7Ho9Cd4Pd3Ru
_chemical_formula_sum   'Y7 Ho9 Cd4 Pd3 Ru1'
_cell_volume   636.28000739
_cell_formula_units_Z   1
loop_
 _symmetry_equiv_pos_site_id
 _symmetry_equiv_pos_as_xyz
  1  'x, y, z'
loop_
 _atom_site_type_symbol
 _atom_site_label
 _atom_site_symmetry_multiplicity
 _atom_site_fract_x
 _atom_site_fract_y
 _atom_site_fract_z
 _atom_site_occupancy
  Y  Y0  1  0.810789  0.810789  0.188280  1
  Y  Y1  1  0.935287  0.565211  0.565793  1
  Y  Y2  1  0.560254  0.936539  0.936234  1
  Y  Y3  1  0.565211  0.935287  0.565793  1
  Y  Y4  1  0.936539  0.560254  0.936234  1
  Y  Y5  1  0.565364  0.565364  0.935283  1
  Y  Y6  1  0.936446  0.936446  0.560444  1
  Ho  Ho7  1  0.353338  0.353338  0.353390  1
  Ho  Ho8  1  0.350194  0.350194  0.944729  1
  Ho  Ho9  1  0.349951  0.944920  0.350252  1
  Ho  Ho10  1  0.944920  0.349951  0.350252  1
  Ho  Ho11  1  0.817125  0.188100  0.187933  1
  Ho  Ho12  1  0.188383  0.810898  0.810867  1
  Ho  Ho13  1  0.188100  0.817125  0.187933  1
  Ho  Ho14  1  0.810898  0.188383  0.810867  1
  Ho  Ho15  1  0.187947  0.187947  0.817184  1
  Cd  Cd16  1  0.580488  0.580488  0.580510  1
  Cd  Cd17  1  0.581413  0.581413  0.254151  1
  Cd  Cd18  1  0.581348  0.254211  0.581433  1
  Cd  Cd19  1  0.254211  0.581348  0.581433  1
  Pd  Pd20  1  0.144561  0.144561  0.568307  1
  Pd  Pd21  1  0.146131  0.567190  0.144367  1
  Pd  Pd22  1  0.567190  0.146131  0.144367  1
  Ru  Ru23  1  0.143908  0.143908  0.143962  1
