# generated using pymatgen
data_Cs2PrY(GeSe4)2
_symmetry_space_group_name_H-M   'P 1'
_cell_length_a   7.20163400
_cell_length_b   6.90464331
_cell_length_c   9.90606227
_cell_angle_alpha   72.28800643
_cell_angle_beta   89.99044513
_cell_angle_gamma   90.13717425
_symmetry_Int_Tables_number   1
_chemical_formula_structural   Cs2PrY(GeSe4)2
_chemical_formula_sum   'Cs2 Pr1 Y1 Ge2 Se8'
_cell_volume   469.22537902
_cell_formula_units_Z   1
loop_
 _symmetry_equiv_pos_site_id
 _symmetry_equiv_pos_as_xyz
  1  'x, y, z'
loop_
 _atom_site_type_symbol
 _atom_site_label
 _atom_site_symmetry_multiplicity
 _atom_site_fract_x
 _atom_site_fract_y
 _atom_site_fract_z
 _atom_site_occupancy
  Cs  Cs0  1  0.991177  0.740258  0.063476  1
  Cs  Cs1  1  0.491219  0.259022  0.936588  1
  Pr  Pr2  1  0.506927  0.226572  0.454573  1
  Y  Y3  1  0.010623  0.771423  0.546344  1
  Ge  Ge4  1  0.473869  0.778965  0.337354  1
  Ge  Ge5  1  0.973567  0.221043  0.662692  1
  Se  Se6  1  0.479299  0.579447  0.181522  1
  Se  Se7  1  0.231689  0.027866  0.292936  1
  Se  Se8  1  0.750408  0.980954  0.312808  1
  Se  Se9  1  0.901839  0.440312  0.432993  1
  Se  Se10  1  0.394289  0.571759  0.569775  1
  Se  Se11  1  0.241161  0.007886  0.690187  1
  Se  Se12  1  0.739502  0.962711  0.707506  1
  Se  Se13  1  0.980433  0.431781  0.811247  1
