# generated using pymatgen
data_La2Y3FeSb2
_symmetry_space_group_name_H-M   'P 1'
_cell_length_a   8.12944200
_cell_length_b   8.72369500
_cell_length_c   12.43273400
_cell_angle_alpha   90.00000000
_cell_angle_beta   90.00000000
_cell_angle_gamma   90.00000000
_symmetry_Int_Tables_number   1
_chemical_formula_structural   La2Y3FeSb2
_chemical_formula_sum   'La8 Y12 Fe4 Sb8'
_cell_volume   881.71423445
_cell_formula_units_Z   4
loop_
 _symmetry_equiv_pos_site_id
 _symmetry_equiv_pos_as_xyz
  1  'x, y, z'
loop_
 _atom_site_type_symbol
 _atom_site_label
 _atom_site_symmetry_multiplicity
 _atom_site_fract_x
 _atom_site_fract_y
 _atom_site_fract_z
 _atom_site_occupancy
  La  La0  1  0.823979  0.970402  0.061238  1
  La  La1  1  0.323979  0.029598  0.438762  1
  La  La2  1  0.176021  0.470402  0.938762  1
  La  La3  1  0.676021  0.529598  0.561238  1
  La  La4  1  0.176021  0.029598  0.938762  1
  La  La5  1  0.676021  0.970402  0.561238  1
  La  La6  1  0.823979  0.529598  0.061238  1
  La  La7  1  0.323979  0.470402  0.438762  1
  Y  Y8  1  0.165324  0.750000  0.208062  1
  Y  Y9  1  0.665324  0.250000  0.291938  1
  Y  Y10  1  0.834676  0.250000  0.791938  1
  Y  Y11  1  0.334676  0.750000  0.708062  1
  Y  Y12  1  0.457237  0.750000  0.999657  1
  Y  Y13  1  0.957237  0.250000  0.500343  1
  Y  Y14  1  0.542763  0.250000  0.000343  1
  Y  Y15  1  0.042763  0.750000  0.499657  1
  Y  Y16  1  0.624486  0.750000  0.294172  1
  Y  Y17  1  0.124486  0.250000  0.205828  1
  Y  Y18  1  0.375514  0.250000  0.705828  1
  Y  Y19  1  0.875514  0.750000  0.794172  1
  Fe  Fe20  1  0.409758  0.750000  0.478519  1
  Fe  Fe21  1  0.909758  0.250000  0.021481  1
  Fe  Fe22  1  0.590242  0.250000  0.521481  1
  Fe  Fe23  1  0.090242  0.750000  0.978519  1
  Sb  Sb24  1  0.927667  0.988488  0.327580  1
  Sb  Sb25  1  0.427667  0.011512  0.172420  1
  Sb  Sb26  1  0.072333  0.488488  0.672420  1
  Sb  Sb27  1  0.572333  0.511512  0.827580  1
  Sb  Sb28  1  0.072333  0.011512  0.672420  1
  Sb  Sb29  1  0.572333  0.988488  0.827580  1
  Sb  Sb30  1  0.927667  0.511512  0.327580  1
  Sb  Sb31  1  0.427667  0.488488  0.172420  1
