# generated using pymatgen
data_Ho2ErPa(Co5P3)4
_symmetry_space_group_name_H-M   'P 1'
_cell_length_a   3.65656700
_cell_length_b   10.28213204
_cell_length_c   11.69831207
_cell_angle_alpha   89.98875017
_cell_angle_beta   90.00000000
_cell_angle_gamma   90.00000000
_symmetry_Int_Tables_number   1
_chemical_formula_structural   Ho2ErPa(Co5P3)4
_chemical_formula_sum   'Ho2 Er1 Pa1 Co20 P12'
_cell_volume   439.82499492
_cell_formula_units_Z   1
loop_
 _symmetry_equiv_pos_site_id
 _symmetry_equiv_pos_as_xyz
  1  'x, y, z'
loop_
 _atom_site_type_symbol
 _atom_site_label
 _atom_site_symmetry_multiplicity
 _atom_site_fract_x
 _atom_site_fract_y
 _atom_site_fract_z
 _atom_site_occupancy
  Ho  Ho0  1  0.250000  0.916788  0.201908  1
  Ho  Ho1  1  0.750000  0.082908  0.797418  1
  Er  Er2  1  0.750000  0.416857  0.298660  1
  Pa  Pa3  1  0.250000  0.582668  0.703046  1
  Co  Co4  1  0.250000  0.716684  0.989836  1
  Co  Co5  1  0.250000  0.781891  0.491258  1
  Co  Co6  1  0.750000  0.282433  0.005860  1
  Co  Co7  1  0.750000  0.216282  0.505807  1
  Co  Co8  1  0.250000  0.407861  0.487992  1
  Co  Co9  1  0.250000  0.092491  0.988139  1
  Co  Co10  1  0.750000  0.592765  0.516936  1
  Co  Co11  1  0.750000  0.906090  0.011419  1
  Co  Co12  1  0.250000  0.221752  0.176447  1
  Co  Co13  1  0.250000  0.278249  0.677381  1
  Co  Co14  1  0.750000  0.776919  0.822038  1
  Co  Co15  1  0.750000  0.720903  0.324215  1
  Co  Co16  1  0.250000  0.883051  0.698445  1
  Co  Co17  1  0.250000  0.617115  0.199040  1
  Co  Co18  1  0.750000  0.116497  0.300198  1
  Co  Co19  1  0.750000  0.387393  0.800325  1
  Co  Co20  1  0.250000  0.467377  0.931998  1
  Co  Co21  1  0.250000  0.032125  0.431094  1
  Co  Co22  1  0.750000  0.530626  0.070668  1
  Co  Co23  1  0.750000  0.970784  0.567759  1
  P  P24  1  0.250000  0.418377  0.114351  1
  P  P25  1  0.250000  0.082019  0.612367  1
  P  P26  1  0.750000  0.583221  0.892433  1
  P  P27  1  0.750000  0.918714  0.387073  1
  P  P28  1  0.250000  0.269559  0.870879  1
  P  P29  1  0.250000  0.229202  0.368819  1
  P  P30  1  0.750000  0.729148  0.130059  1
  P  P31  1  0.750000  0.776025  0.628675  1
  P  P32  1  0.250000  0.601365  0.390134  1
  P  P33  1  0.250000  0.899490  0.891176  1
  P  P34  1  0.750000  0.393206  0.607878  1
  P  P35  1  0.750000  0.101168  0.108271  1
