# generated using pymatgen
data_Nd11Y(GaRh)8
_symmetry_space_group_name_H-M   'P 1'
_cell_length_a   5.69246107
_cell_length_b   8.20697418
_cell_length_c   13.65021312
_cell_angle_alpha   89.89831427
_cell_angle_beta   90.05481632
_cell_angle_gamma   90.02974811
_symmetry_Int_Tables_number   1
_chemical_formula_structural   Nd11Y(GaRh)8
_chemical_formula_sum   'Nd11 Y1 Ga8 Rh8'
_cell_volume   637.70765133
_cell_formula_units_Z   1
loop_
 _symmetry_equiv_pos_site_id
 _symmetry_equiv_pos_as_xyz
  1  'x, y, z'
loop_
 _atom_site_type_symbol
 _atom_site_label
 _atom_site_symmetry_multiplicity
 _atom_site_fract_x
 _atom_site_fract_y
 _atom_site_fract_z
 _atom_site_occupancy
  Nd  Nd0  1  0.634890  0.257748  0.249583  1
  Nd  Nd1  1  0.367575  0.741767  0.749811  1
  Nd  Nd2  1  0.366800  0.758796  0.248856  1
  Nd  Nd3  1  0.634379  0.241853  0.749159  1
  Nd  Nd4  1  0.146209  0.397754  0.098203  1
  Nd  Nd5  1  0.852625  0.602819  0.902996  1
  Nd  Nd6  1  0.853180  0.602381  0.597684  1
  Nd  Nd7  1  0.853552  0.898195  0.402145  1
  Nd  Nd8  1  0.146450  0.397020  0.401568  1
  Nd  Nd9  1  0.147080  0.102100  0.597849  1
  Nd  Nd10  1  0.145550  0.101042  0.903148  1
  Y  Y11  1  0.848712  0.899138  0.098478  1
  Ga  Ga12  1  0.132849  0.106363  0.248517  1
  Ga  Ga13  1  0.865541  0.890902  0.750286  1
  Ga  Ga14  1  0.865112  0.612295  0.248611  1
  Ga  Ga15  1  0.135720  0.390658  0.750079  1
  Ga  Ga16  1  0.632485  0.248458  0.001115  1
  Ga  Ga17  1  0.368208  0.751472  0.000509  1
  Ga  Ga18  1  0.366901  0.749665  0.499884  1
  Ga  Ga19  1  0.633796  0.250283  0.500212  1
  Rh  Rh20  1  0.357580  0.030301  0.091541  1
  Rh  Rh21  1  0.645483  0.966106  0.910017  1
  Rh  Rh22  1  0.640000  0.966744  0.592179  1
  Rh  Rh23  1  0.641496  0.533408  0.407593  1
  Rh  Rh24  1  0.359216  0.032666  0.408031  1
  Rh  Rh25  1  0.359433  0.467818  0.591747  1
  Rh  Rh26  1  0.357651  0.468039  0.908671  1
  Rh  Rh27  1  0.641529  0.534209  0.091529  1
