# generated using pymatgen
data_PuS23
_symmetry_space_group_name_H-M   'P 1'
_cell_length_a   5.59544714
_cell_length_b   9.59366147
_cell_length_c   16.29899500
_cell_angle_alpha   82.42591977
_cell_angle_beta   85.98404499
_cell_angle_gamma   91.36398319
_symmetry_Int_Tables_number   1
_chemical_formula_structural   PuS23
_chemical_formula_sum   'Pu1 S23'
_cell_volume   864.69732289
_cell_formula_units_Z   1
loop_
 _symmetry_equiv_pos_site_id
 _symmetry_equiv_pos_as_xyz
  1  'x, y, z'
loop_
 _atom_site_type_symbol
 _atom_site_label
 _atom_site_symmetry_multiplicity
 _atom_site_fract_x
 _atom_site_fract_y
 _atom_site_fract_z
 _atom_site_occupancy
  Pu  Pu0  1  0.606056  0.181155  0.419901  1
  S  S1  1  0.754404  0.922636  0.398802  1
  S  S2  1  0.022753  0.301222  0.097699  1
  S  S3  1  0.771702  0.233220  0.560572  1
  S  S4  1  0.482232  0.894360  0.489755  1
  S  S5  1  0.174851  0.281047  0.980982  1
  S  S6  1  0.819175  0.739527  0.025447  1
  S  S7  1  0.104258  0.187893  0.382903  1
  S  S8  1  0.571206  0.373814  0.286541  1
  S  S9  1  0.860294  0.110647  0.148604  1
  S  S10  1  0.272468  0.872268  0.116730  1
  S  S11  1  0.696771  0.650113  0.632015  1
  S  S12  1  0.298970  0.446390  0.565506  1
  S  S13  1  0.150405  0.902637  0.860260  1
  S  S14  1  0.733644  0.141691  0.884943  1
  S  S15  1  0.067140  0.691956  0.112122  1
  S  S16  1  0.613977  0.856732  0.609908  1
  S  S17  1  0.408673  0.235992  0.582660  1
  S  S18  1  0.972180  0.715779  0.909253  1
  S  S19  1  0.925961  0.324981  0.894110  1
  S  S20  1  0.283402  0.386554  0.368530  1
  S  S21  1  0.114241  0.984959  0.204347  1
  S  S22  1  0.382196  0.530772  0.669288  1
  S  S23  1  0.913042  0.033652  0.799124  1
