# generated using pymatgen
data_Ba2InPPt2
_symmetry_space_group_name_H-M   'P 1'
_cell_length_a   6.83850900
_cell_length_b   6.90710507
_cell_length_c   7.07840660
_cell_angle_alpha   92.94900281
_cell_angle_beta   90.00000000
_cell_angle_gamma   90.00000000
_symmetry_Int_Tables_number   1
_chemical_formula_structural   Ba2InPPt2
_chemical_formula_sum   'Ba4 In2 P2 Pt4'
_cell_volume   333.90081786
_cell_formula_units_Z   2
loop_
 _symmetry_equiv_pos_site_id
 _symmetry_equiv_pos_as_xyz
  1  'x, y, z'
loop_
 _atom_site_type_symbol
 _atom_site_label
 _atom_site_symmetry_multiplicity
 _atom_site_fract_x
 _atom_site_fract_y
 _atom_site_fract_z
 _atom_site_occupancy
  Ba  Ba0  1  0.607863  0.387662  0.865643  1
  Ba  Ba1  1  0.379613  0.883594  0.603506  1
  Ba  Ba2  1  0.107863  0.112338  0.134357  1
  Ba  Ba3  1  0.879613  0.616406  0.396494  1
  In  In4  1  0.590862  0.908786  0.090247  1
  In  In5  1  0.090862  0.591214  0.909753  1
  P  P6  1  0.913109  0.094403  0.577854  1
  P  P7  1  0.413109  0.405597  0.422146  1
  Pt  Pt8  1  0.162145  0.321678  0.624470  1
  Pt  Pt9  1  0.662145  0.178322  0.375530  1
  Pt  Pt10  1  0.846407  0.874333  0.802322  1
  Pt  Pt11  1  0.346407  0.625667  0.197678  1
