# generated using pymatgen
data_Li2CrP3WO12
_symmetry_space_group_name_H-M   'P 1'
_cell_length_a   8.66663300
_cell_length_b   8.86213900
_cell_length_c   12.29759100
_cell_angle_alpha   90.00000000
_cell_angle_beta   90.00000000
_cell_angle_gamma   90.00000000
_symmetry_Int_Tables_number   1
_chemical_formula_structural   Li2CrP3WO12
_chemical_formula_sum   'Li8 Cr4 P12 W4 O48'
_cell_volume   944.51532457
_cell_formula_units_Z   4
loop_
 _symmetry_equiv_pos_site_id
 _symmetry_equiv_pos_as_xyz
  1  'x, y, z'
loop_
 _atom_site_type_symbol
 _atom_site_label
 _atom_site_symmetry_multiplicity
 _atom_site_fract_x
 _atom_site_fract_y
 _atom_site_fract_z
 _atom_site_occupancy
  Li  Li0  1  0.469762  0.784326  0.683615  1
  Li  Li1  1  0.532904  0.274902  0.822052  1
  Li  Li2  1  0.530238  0.215674  0.183615  1
  Li  Li3  1  0.467096  0.725098  0.322052  1
  Li  Li4  1  0.032904  0.225098  0.322052  1
  Li  Li5  1  0.969762  0.715674  0.183615  1
  Li  Li6  1  0.967096  0.774902  0.822052  1
  Li  Li7  1  0.030238  0.284326  0.683615  1
  Cr  Cr8  1  0.496013  0.962794  0.886780  1
  Cr  Cr9  1  0.503987  0.037206  0.386780  1
  Cr  Cr10  1  0.996013  0.537206  0.386780  1
  Cr  Cr11  1  0.003987  0.462794  0.886780  1
  P  P12  1  0.709256  0.751795  0.495407  1
  P  P13  1  0.290744  0.248205  0.995407  1
  P  P14  1  0.790744  0.251795  0.495407  1
  P  P15  1  0.209256  0.748205  0.995407  1
  P  P16  1  0.648233  0.608580  0.853559  1
  P  P17  1  0.360335  0.102415  0.647084  1
  P  P18  1  0.351767  0.391420  0.353559  1
  P  P19  1  0.639665  0.897585  0.147084  1
  P  P20  1  0.860335  0.397585  0.147084  1
  P  P21  1  0.148233  0.891420  0.353559  1
  P  P22  1  0.139665  0.602415  0.647084  1
  P  P23  1  0.851767  0.108580  0.853559  1
  W  W24  1  0.502229  0.464827  0.616156  1
  W  W25  1  0.497771  0.535173  0.116156  1
  W  W26  1  0.002229  0.035173  0.116156  1
  W  W27  1  0.997771  0.964827  0.616156  1
  O  O28  1  0.595910  0.560326  0.967349  1
  O  O29  1  0.407787  0.063353  0.531724  1
  O  O30  1  0.404090  0.439674  0.467349  1
  O  O31  1  0.592213  0.936647  0.031724  1
  O  O32  1  0.907787  0.436647  0.031724  1
  O  O33  1  0.095910  0.939674  0.467349  1
  O  O34  1  0.092213  0.563353  0.531724  1
  O  O35  1  0.904090  0.060326  0.967349  1
  O  O36  1  0.602383  0.673425  0.580139  1
  O  O37  1  0.397535  0.161737  0.916509  1
  O  O38  1  0.397617  0.326575  0.080139  1
  O  O39  1  0.602465  0.838263  0.416509  1
  O  O40  1  0.897535  0.338263  0.416509  1
  O  O41  1  0.102383  0.826575  0.080139  1
  O  O42  1  0.102465  0.661737  0.916509  1
  O  O43  1  0.897617  0.173425  0.580139  1
  O  O44  1  0.586090  0.765680  0.822147  1
  O  O45  1  0.416777  0.261746  0.682689  1
  O  O46  1  0.413910  0.234320  0.322147  1
  O  O47  1  0.583223  0.738254  0.182689  1
  O  O48  1  0.916777  0.238254  0.182689  1
  O  O49  1  0.086090  0.734320  0.322147  1
  O  O50  1  0.083223  0.761746  0.682689  1
  O  O51  1  0.913910  0.265680  0.822147  1
  O  O52  1  0.304116  0.859373  0.929521  1
  O  O53  1  0.694499  0.363846  0.563796  1
  O  O54  1  0.695884  0.140627  0.429521  1
  O  O55  1  0.305501  0.636154  0.063796  1
  O  O56  1  0.194499  0.136154  0.063796  1
  O  O57  1  0.804116  0.640627  0.429521  1
  O  O58  1  0.805501  0.863846  0.563796  1
  O  O59  1  0.195884  0.359373  0.929521  1
  O  O60  1  0.421941  0.983041  0.727823  1
  O  O61  1  0.578328  0.485280  0.774750  1
  O  O62  1  0.578059  0.016959  0.227823  1
  O  O63  1  0.421672  0.514720  0.274750  1
  O  O64  1  0.078328  0.014720  0.274750  1
  O  O65  1  0.921941  0.516959  0.227823  1
  O  O66  1  0.921672  0.985280  0.774750  1
  O  O67  1  0.078059  0.483041  0.727823  1
  O  O68  1  0.321089  0.607683  0.655528  1
  O  O69  1  0.674892  0.105455  0.843369  1
  O  O70  1  0.678911  0.392317  0.155528  1
  O  O71  1  0.325108  0.894545  0.343369  1
  O  O72  1  0.174892  0.394545  0.343369  1
  O  O73  1  0.821089  0.892317  0.155528  1
  O  O74  1  0.825108  0.605455  0.843369  1
  O  O75  1  0.178911  0.107683  0.655528  1
