# generated using pymatgen
data_Pu2TcMoC4
_symmetry_space_group_name_H-M   'P 1'
_cell_length_a   3.29177300
_cell_length_b   5.66374400
_cell_length_c   10.85703500
_cell_angle_alpha   90.00000000
_cell_angle_beta   90.00000000
_cell_angle_gamma   90.00000000
_symmetry_Int_Tables_number   1
_chemical_formula_structural   Pu2TcMoC4
_chemical_formula_sum   'Pu4 Tc2 Mo2 C8'
_cell_volume   202.41595027
_cell_formula_units_Z   2
loop_
 _symmetry_equiv_pos_site_id
 _symmetry_equiv_pos_as_xyz
  1  'x, y, z'
loop_
 _atom_site_type_symbol
 _atom_site_label
 _atom_site_symmetry_multiplicity
 _atom_site_fract_x
 _atom_site_fract_y
 _atom_site_fract_z
 _atom_site_occupancy
  Pu  Pu0  1  0.250000  0.082653  0.857178  1
  Pu  Pu1  1  0.750000  0.915085  0.139115  1
  Pu  Pu2  1  0.250000  0.582653  0.642822  1
  Pu  Pu3  1  0.750000  0.415085  0.360885  1
  Tc  Tc4  1  0.750000  0.085492  0.604522  1
  Tc  Tc5  1  0.750000  0.585492  0.895478  1
  Mo  Mo6  1  0.250000  0.914237  0.396619  1
  Mo  Mo7  1  0.250000  0.414237  0.103381  1
  C  C8  1  0.250000  0.735273  0.985145  1
  C  C9  1  0.750000  0.264063  0.010013  1
  C  C10  1  0.250000  0.235273  0.514855  1
  C  C11  1  0.750000  0.764063  0.489987  1
  C  C12  1  0.250000  0.164535  0.245932  1
  C  C13  1  0.750000  0.338662  0.747458  1
  C  C14  1  0.250000  0.664535  0.254068  1
  C  C15  1  0.750000  0.838662  0.752542  1
