# generated using pymatgen
data_TbGe3AsRh6
_symmetry_space_group_name_H-M   'P 1'
_cell_length_a   7.21169900
_cell_length_b   7.26499007
_cell_length_c   3.84125800
_cell_angle_alpha   90.00000000
_cell_angle_beta   90.00000000
_cell_angle_gamma   119.75764006
_symmetry_Int_Tables_number   1
_chemical_formula_structural   TbGe3AsRh6
_chemical_formula_sum   'Tb1 Ge3 As1 Rh6'
_cell_volume   174.71579923
_cell_formula_units_Z   1
loop_
 _symmetry_equiv_pos_site_id
 _symmetry_equiv_pos_as_xyz
  1  'x, y, z'
loop_
 _atom_site_type_symbol
 _atom_site_label
 _atom_site_symmetry_multiplicity
 _atom_site_fract_x
 _atom_site_fract_y
 _atom_site_fract_z
 _atom_site_occupancy
  Tb  Tb0  1  0.001440  0.002880  0.000000  1
  Ge  Ge1  1  0.803285  0.193203  0.500000  1
  Ge  Ge2  1  0.389917  0.193203  0.500000  1
  Ge  Ge3  1  0.333918  0.667836  0.000000  1
  As  As4  1  0.806041  0.612081  0.500000  1
  Rh  Rh5  1  0.197647  0.800054  0.500000  1
  Rh  Rh6  1  0.199118  0.398236  0.500000  1
  Rh  Rh7  1  0.534311  0.068623  0.000000  1
  Rh  Rh8  1  0.931496  0.465249  0.000000  1
  Rh  Rh9  1  0.533754  0.465249  0.000000  1
  Rh  Rh10  1  0.602407  0.800054  0.500000  1
