# generated using pymatgen
data_KTm7Sc3(C2I9)2
_symmetry_space_group_name_H-M   'P 1'
_cell_length_a   11.40433090
_cell_length_b   11.34827691
_cell_length_c   11.35811459
_cell_angle_alpha   113.39710737
_cell_angle_beta   85.82170763
_cell_angle_gamma   120.74102144
_symmetry_Int_Tables_number   1
_chemical_formula_structural   KTm7Sc3(C2I9)2
_chemical_formula_sum   'K1 Tm7 Sc3 C4 I18'
_cell_volume   1143.64281067
_cell_formula_units_Z   1
loop_
 _symmetry_equiv_pos_site_id
 _symmetry_equiv_pos_as_xyz
  1  'x, y, z'
loop_
 _atom_site_type_symbol
 _atom_site_label
 _atom_site_symmetry_multiplicity
 _atom_site_fract_x
 _atom_site_fract_y
 _atom_site_fract_z
 _atom_site_occupancy
  K  K0  1  0.498404  0.993243  0.497934  1
  Tm  Tm1  1  0.960350  0.034562  0.323481  1
  Tm  Tm2  1  0.907241  0.615098  0.708310  1
  Tm  Tm3  1  0.102138  0.943475  0.998730  1
  Tm  Tm4  1  0.038332  0.969435  0.679237  1
  Tm  Tm5  1  0.315273  0.273963  0.283954  1
  Tm  Tm6  1  0.720349  0.643756  0.984050  1
  Tm  Tm7  1  0.897557  0.055066  0.999954  1
  Sc  Sc8  1  0.697793  0.735486  0.728748  1
  Sc  Sc9  1  0.270027  0.345082  0.019955  1
  Sc  Sc10  1  0.093646  0.372879  0.278316  1
  C  C11  1  0.150722  0.215981  0.115734  1
  C  C12  1  0.851172  0.782282  0.884002  1
  C  C13  1  0.929125  0.862288  0.807172  1
  C  C14  1  0.072219  0.137543  0.192921  1
  I  I15  1  0.455818  0.533429  0.831692  1
  I  I16  1  0.380224  0.041464  0.156203  1
  I  I17  1  0.780486  0.862338  0.509056  1
  I  I18  1  0.849014  0.311557  0.158744  1
  I  I19  1  0.540619  0.469056  0.163802  1
  I  I20  1  0.219023  0.144685  0.495568  1
  I  I21  1  0.317401  0.105806  0.831775  1
  I  I22  1  0.680808  0.899433  0.173502  1
  I  I23  1  0.968008  0.751105  0.168822  1
  I  I24  1  0.933022  0.298057  0.492919  1
  I  I25  1  0.038076  0.254275  0.838070  1
  I  I26  1  0.069919  0.713146  0.501661  1
  I  I27  1  0.259190  0.609390  0.180574  1
  I  I28  1  0.735659  0.373717  0.810974  1
  I  I29  1  0.646469  0.454077  0.510793  1
  I  I30  1  0.159034  0.690714  0.843732  1
  I  I31  1  0.624192  0.952884  0.842403  1
  I  I32  1  0.338689  0.554729  0.487213  1
