# generated using pymatgen
data_Li5Fe(SiRh2)6
_symmetry_space_group_name_H-M   'P 1'
_cell_length_a   4.12102700
_cell_length_b   5.82979000
_cell_length_c   12.37383300
_cell_angle_alpha   90.00001966
_cell_angle_beta   89.99947168
_cell_angle_gamma   90.00000000
_symmetry_Int_Tables_number   1
_chemical_formula_structural   Li5Fe(SiRh2)6
_chemical_formula_sum   'Li5 Fe1 Si6 Rh12'
_cell_volume   297.27789783
_cell_formula_units_Z   1
loop_
 _symmetry_equiv_pos_site_id
 _symmetry_equiv_pos_as_xyz
  1  'x, y, z'
loop_
 _atom_site_type_symbol
 _atom_site_label
 _atom_site_symmetry_multiplicity
 _atom_site_fract_x
 _atom_site_fract_y
 _atom_site_fract_z
 _atom_site_occupancy
  Li  Li0  1  0.499857  0.000000  0.167100  1
  Li  Li1  1  0.999857  0.500001  0.333638  1
  Li  Li2  1  0.500001  0.000000  0.500000  1
  Li  Li3  1  0.000143  0.500001  0.666362  1
  Li  Li4  1  0.500142  0.000000  0.832900  1
  Fe  Fe5  1  0.000000  0.500001  0.000000  1
  Si  Si6  1  0.000000  0.000000  0.000000  1
  Si  Si7  1  0.499870  0.500001  0.172556  1
  Si  Si8  1  0.999860  0.000000  0.336588  1
  Si  Si9  1  0.500001  0.500001  0.500000  1
  Si  Si10  1  0.000140  0.000000  0.663412  1
  Si  Si11  1  0.500130  0.500001  0.827445  1
  Rh  Rh12  1  0.499999  0.250710  0.000000  1
  Rh  Rh13  1  0.499999  0.749290  0.000000  1
  Rh  Rh14  1  0.999898  0.249691  0.167248  1
  Rh  Rh15  1  0.999899  0.750308  0.167248  1
  Rh  Rh16  1  0.499895  0.249474  0.334244  1
  Rh  Rh17  1  0.499895  0.750527  0.334244  1
  Rh  Rh18  1  0.000000  0.251359  0.500000  1
  Rh  Rh19  1  0.000000  0.748641  0.500000  1
  Rh  Rh20  1  0.500104  0.249473  0.665756  1
  Rh  Rh21  1  0.500104  0.750526  0.665756  1
  Rh  Rh22  1  0.000101  0.249692  0.832752  1
  Rh  Rh23  1  0.000102  0.750309  0.832752  1
