# generated using pymatgen
data_Gd8Sc12Ga9Sn7
_symmetry_space_group_name_H-M   'P 1'
_cell_length_a   7.33063929
_cell_length_b   7.75075615
_cell_length_c   14.73281200
_cell_angle_alpha   89.94503837
_cell_angle_beta   90.14128093
_cell_angle_gamma   90.02243797
_symmetry_Int_Tables_number   1
_chemical_formula_structural   Gd8Sc12Ga9Sn7
_chemical_formula_sum   'Gd8 Sc12 Ga9 Sn7'
_cell_volume   837.08588277
_cell_formula_units_Z   1
loop_
 _symmetry_equiv_pos_site_id
 _symmetry_equiv_pos_as_xyz
  1  'x, y, z'
loop_
 _atom_site_type_symbol
 _atom_site_label
 _atom_site_symmetry_multiplicity
 _atom_site_fract_x
 _atom_site_fract_y
 _atom_site_fract_z
 _atom_site_occupancy
  Gd  Gd0  1  0.996162  0.180558  0.101585  1
  Gd  Gd1  1  0.003328  0.819739  0.898630  1
  Gd  Gd2  1  0.502966  0.681663  0.899174  1
  Gd  Gd3  1  0.004650  0.816096  0.599369  1
  Gd  Gd4  1  0.496674  0.318693  0.101383  1
  Gd  Gd5  1  0.999716  0.183705  0.401841  1
  Gd  Gd6  1  0.494961  0.322624  0.401537  1
  Gd  Gd7  1  0.494256  0.673483  0.597055  1
  Sc  Sc8  1  0.175305  0.503735  0.746667  1
  Sc  Sc9  1  0.826210  0.496713  0.251147  1
  Sc  Sc10  1  0.325866  0.002468  0.250328  1
  Sc  Sc11  1  0.672549  0.996208  0.748842  1
  Sc  Sc12  1  0.327199  0.176665  0.627924  1
  Sc  Sc13  1  0.665787  0.832679  0.368572  1
  Sc  Sc14  1  0.169251  0.658987  0.370954  1
  Sc  Sc15  1  0.664890  0.835409  0.133963  1
  Sc  Sc16  1  0.843155  0.335753  0.631510  1
  Sc  Sc17  1  0.336391  0.164759  0.866701  1
  Sc  Sc18  1  0.835502  0.334959  0.866476  1
  Sc  Sc19  1  0.164108  0.664816  0.133499  1
  Ga  Ga20  1  0.034962  0.115303  0.749954  1
  Ga  Ga21  1  0.965995  0.882126  0.252346  1
  Ga  Ga22  1  0.464693  0.616639  0.250471  1
  Ga  Ga23  1  0.536427  0.382590  0.748001  1
  Ga  Ga24  1  0.294549  0.872513  0.748112  1
  Ga  Ga25  1  0.705944  0.130152  0.251995  1
  Ga  Ga26  1  0.206170  0.369191  0.250167  1
  Ga  Ga27  1  0.792429  0.630212  0.749226  1
  Ga  Ga28  1  0.170934  0.459324  0.540235  1
  Sn  Sn29  1  0.829045  0.541876  0.461774  1
  Sn  Sn30  1  0.321730  0.956793  0.459493  1
  Sn  Sn31  1  0.820475  0.544433  0.039898  1
  Sn  Sn32  1  0.678251  0.042652  0.540914  1
  Sn  Sn33  1  0.179144  0.455552  0.959820  1
  Sn  Sn34  1  0.680111  0.045006  0.960321  1
  Sn  Sn35  1  0.320213  0.955925  0.040116  1
