# generated using pymatgen
data_Ta6Be2GaSi
_symmetry_space_group_name_H-M   'P 1'
_cell_length_a   6.67454175
_cell_length_b   6.68593679
_cell_length_c   3.42374600
_cell_angle_alpha   90.00000000
_cell_angle_beta   90.00000000
_cell_angle_gamma   90.15061029
_symmetry_Int_Tables_number   1
_chemical_formula_structural   Ta6Be2GaSi
_chemical_formula_sum   'Ta6 Be2 Ga1 Si1'
_cell_volume   152.78606921
_cell_formula_units_Z   1
loop_
 _symmetry_equiv_pos_site_id
 _symmetry_equiv_pos_as_xyz
  1  'x, y, z'
loop_
 _atom_site_type_symbol
 _atom_site_label
 _atom_site_symmetry_multiplicity
 _atom_site_fract_x
 _atom_site_fract_y
 _atom_site_fract_z
 _atom_site_occupancy
  Ta  Ta0  1  0.820277  0.691677  0.500000  1
  Ta  Ta1  1  0.321781  0.816214  0.500000  1
  Ta  Ta2  1  0.186848  0.330167  0.500000  1
  Ta  Ta3  1  0.674676  0.162775  0.500000  1
  Ta  Ta4  1  0.495465  0.505957  0.000000  1
  Ta  Ta5  1  0.998280  0.993239  0.000000  1
  Be  Be6  1  0.120619  0.623746  0.000000  1
  Be  Be7  1  0.617999  0.877673  0.000000  1
  Ga  Ga8  1  0.881961  0.384917  0.000000  1
  Si  Si9  1  0.382094  0.113635  0.000000  1
