# generated using pymatgen
data_Nd5Ho13(ThPb8)2
_symmetry_space_group_name_H-M   'P 1'
_cell_length_a   8.28442549
_cell_length_b   8.36823658
_cell_length_c   15.73325759
_cell_angle_alpha   90.03435843
_cell_angle_beta   90.33453408
_cell_angle_gamma   89.88681433
_symmetry_Int_Tables_number   1
_chemical_formula_structural   Nd5Ho13(ThPb8)2
_chemical_formula_sum   'Nd5 Ho13 Th2 Pb16'
_cell_volume   1090.70341755
_cell_formula_units_Z   1
loop_
 _symmetry_equiv_pos_site_id
 _symmetry_equiv_pos_as_xyz
  1  'x, y, z'
loop_
 _atom_site_type_symbol
 _atom_site_label
 _atom_site_symmetry_multiplicity
 _atom_site_fract_x
 _atom_site_fract_y
 _atom_site_fract_z
 _atom_site_occupancy
  Nd  Nd0  1  0.030191  0.176804  0.401478  1
  Nd  Nd1  1  0.529993  0.324095  0.401546  1
  Nd  Nd2  1  0.029194  0.177305  0.098693  1
  Nd  Nd3  1  0.471857  0.677083  0.901679  1
  Nd  Nd4  1  0.970050  0.821870  0.599059  1
  Ho  Ho5  1  0.629141  0.158431  0.622029  1
  Ho  Ho6  1  0.131268  0.341249  0.877540  1
  Ho  Ho7  1  0.369405  0.841046  0.122310  1
  Ho  Ho8  1  0.872028  0.659156  0.378435  1
  Ho  Ho9  1  0.372469  0.840185  0.378596  1
  Ho  Ho10  1  0.869679  0.659654  0.122033  1
  Ho  Ho11  1  0.630049  0.158619  0.876850  1
  Ho  Ho12  1  0.128540  0.340769  0.621869  1
  Ho  Ho13  1  0.466470  0.674895  0.600478  1
  Ho  Ho14  1  0.796114  0.497513  0.749140  1
  Ho  Ho15  1  0.296665  0.003939  0.748449  1
  Ho  Ho16  1  0.203758  0.504178  0.251270  1
  Ho  Ho17  1  0.703295  0.996744  0.250239  1
  Th  Th18  1  0.972468  0.821722  0.900481  1
  Th  Th19  1  0.527090  0.322256  0.098222  1
  Pb  Pb20  1  0.710583  0.962752  0.456529  1
  Pb  Pb21  1  0.209303  0.539321  0.043062  1
  Pb  Pb22  1  0.290334  0.038357  0.956513  1
  Pb  Pb23  1  0.784995  0.466009  0.544448  1
  Pb  Pb24  1  0.290570  0.034684  0.544021  1
  Pb  Pb25  1  0.790742  0.461823  0.956485  1
  Pb  Pb26  1  0.710016  0.963265  0.042933  1
  Pb  Pb27  1  0.213603  0.539971  0.458640  1
  Pb  Pb28  1  0.434154  0.371201  0.749486  1
  Pb  Pb29  1  0.934281  0.129643  0.751113  1
  Pb  Pb30  1  0.565926  0.629524  0.248932  1
  Pb  Pb31  1  0.066234  0.869885  0.250231  1
  Pb  Pb32  1  0.656035  0.847738  0.748304  1
  Pb  Pb33  1  0.162459  0.648878  0.749109  1
  Pb  Pb34  1  0.339842  0.149066  0.250343  1
  Pb  Pb35  1  0.841196  0.350370  0.249452  1
