# generated using pymatgen
data_Ho5Co16Ge3(P3Ru)3
_symmetry_space_group_name_H-M   'P 1'
_cell_length_a   12.13332600
_cell_length_b   12.13332689
_cell_length_c   3.71550700
_cell_angle_alpha   90.00000000
_cell_angle_beta   90.00000000
_cell_angle_gamma   120.00000302
_symmetry_Int_Tables_number   1
_chemical_formula_structural   Ho5Co16Ge3(P3Ru)3
_chemical_formula_sum   'Ho5 Co16 Ge3 P9 Ru3'
_cell_volume   473.70554355
_cell_formula_units_Z   1
loop_
 _symmetry_equiv_pos_site_id
 _symmetry_equiv_pos_as_xyz
  1  'x, y, z'
loop_
 _atom_site_type_symbol
 _atom_site_label
 _atom_site_symmetry_multiplicity
 _atom_site_fract_x
 _atom_site_fract_y
 _atom_site_fract_z
 _atom_site_occupancy
  Ho  Ho0  1  0.666667  0.333333  0.000000  1
  Ho  Ho1  1  0.333333  0.666667  0.000000  1
  Ho  Ho2  1  0.816972  0.816685  0.500000  1
  Ho  Ho3  1  0.183315  0.000287  0.500000  1
  Ho  Ho4  1  0.999713  0.183028  0.500000  1
  Co  Co5  1  0.886774  0.355210  0.500000  1
  Co  Co6  1  0.644790  0.531564  0.500000  1
  Co  Co7  1  0.468436  0.113226  0.500000  1
  Co  Co8  1  0.354858  0.869581  0.500000  1
  Co  Co9  1  0.514722  0.645142  0.500000  1
  Co  Co10  1  0.130419  0.485278  0.500000  1
  Co  Co11  1  0.811886  0.176884  0.000000  1
  Co  Co12  1  0.823116  0.635000  0.000000  1
  Co  Co13  1  0.365000  0.188114  0.000000  1
  Co  Co14  1  0.181038  0.804905  0.000000  1
  Co  Co15  1  0.623865  0.818962  0.000000  1
  Co  Co16  1  0.195095  0.376135  0.000000  1
  Co  Co17  1  0.273314  0.282046  0.500000  1
  Co  Co18  1  0.717954  0.991268  0.500000  1
  Co  Co19  1  0.008732  0.726686  0.500000  1
  Co  Co20  1  0.000000  0.000000  0.000000  1
  Ge  Ge21  1  0.683150  0.162268  0.500000  1
  Ge  Ge22  1  0.837732  0.520882  0.500000  1
  Ge  Ge23  1  0.479118  0.316850  0.500000  1
  P  P24  1  0.165588  0.686337  0.500000  1
  P  P25  1  0.520749  0.834412  0.500000  1
  P  P26  1  0.313663  0.479251  0.500000  1
  P  P27  1  0.177545  0.179563  0.000000  1
  P  P28  1  0.820437  0.997982  0.000000  1
  P  P29  1  0.002018  0.822455  0.000000  1
  P  P30  1  0.636263  0.638205  0.000000  1
  P  P31  1  0.361795  0.998058  0.000000  1
  P  P32  1  0.001942  0.363737  0.000000  1
  Ru  Ru33  1  0.443368  0.451600  0.000000  1
  Ru  Ru34  1  0.548400  0.991768  0.000000  1
  Ru  Ru35  1  0.008232  0.556632  0.000000  1
