# generated using pymatgen
data_Er8Hf11Si16Ir
_symmetry_space_group_name_H-M   'P 1'
_cell_length_a   7.23397115
_cell_length_b   7.23397031
_cell_length_c   13.17104872
_cell_angle_alpha   89.76715421
_cell_angle_beta   90.23284354
_cell_angle_gamma   89.97093731
_symmetry_Int_Tables_number   1
_chemical_formula_structural   Er8Hf11Si16Ir
_chemical_formula_sum   'Er8 Hf11 Si16 Ir1'
_cell_volume   689.23388151
_cell_formula_units_Z   1
loop_
 _symmetry_equiv_pos_site_id
 _symmetry_equiv_pos_as_xyz
  1  'x, y, z'
loop_
 _atom_site_type_symbol
 _atom_site_label
 _atom_site_symmetry_multiplicity
 _atom_site_fract_x
 _atom_site_fract_y
 _atom_site_fract_z
 _atom_site_occupancy
  Er  Er0  1  0.997657  0.345855  0.211036  1
  Er  Er1  1  0.005981  0.652709  0.717481  1
  Er  Er2  1  0.154895  0.494200  0.464953  1
  Er  Er3  1  0.502124  0.848857  0.032838  1
  Er  Er4  1  0.848857  0.502124  0.967162  1
  Er  Er5  1  0.494200  0.154895  0.535047  1
  Er  Er6  1  0.345855  0.997657  0.788964  1
  Er  Er7  1  0.652709  0.005981  0.282519  1
  Hf  Hf8  1  0.824487  0.824487  0.500000  1
  Hf  Hf9  1  0.322649  0.676590  0.247737  1
  Hf  Hf10  1  0.676590  0.322649  0.752263  1
  Hf  Hf11  1  0.145266  0.998524  0.371569  1
  Hf  Hf12  1  0.854390  0.002667  0.878620  1
  Hf  Hf13  1  0.501848  0.646427  0.626061  1
  Hf  Hf14  1  0.354732  0.497331  0.877312  1
  Hf  Hf15  1  0.497331  0.354732  0.122688  1
  Hf  Hf16  1  0.646427  0.501848  0.373939  1
  Hf  Hf17  1  0.998524  0.145266  0.628431  1
  Hf  Hf18  1  0.002667  0.854390  0.121380  1
  Si  Si19  1  0.357202  0.295941  0.315242  1
  Si  Si20  1  0.641762  0.704783  0.819196  1
  Si  Si21  1  0.206181  0.859875  0.567705  1
  Si  Si22  1  0.137895  0.789552  0.930317  1
  Si  Si23  1  0.789552  0.137895  0.069683  1
  Si  Si24  1  0.859875  0.206181  0.432295  1
  Si  Si25  1  0.295941  0.357202  0.684758  1
  Si  Si26  1  0.704783  0.641762  0.180804  1
  Si  Si27  1  0.292634  0.057087  0.179795  1
  Si  Si28  1  0.702907  0.950021  0.685948  1
  Si  Si29  1  0.449432  0.797347  0.434565  1
  Si  Si30  1  0.207038  0.553619  0.063318  1
  Si  Si31  1  0.553619  0.207038  0.936682  1
  Si  Si32  1  0.797347  0.449432  0.565435  1
  Si  Si33  1  0.057087  0.292634  0.820205  1
  Si  Si34  1  0.950021  0.702907  0.314052  1
  Ir  Ir35  1  0.169535  0.169535  0.000000  1
