# generated using pymatgen
data_Ho2Tm4ScCo17P12
_symmetry_space_group_name_H-M   'P 1'
_cell_length_a   3.69036900
_cell_length_b   10.54534300
_cell_length_c   12.21819700
_cell_angle_alpha   90.00000000
_cell_angle_beta   90.00000000
_cell_angle_gamma   90.00000000
_symmetry_Int_Tables_number   1
_chemical_formula_structural   Ho2Tm4ScCo17P12
_chemical_formula_sum   'Ho2 Tm4 Sc1 Co17 P12'
_cell_volume   475.48588242
_cell_formula_units_Z   1
loop_
 _symmetry_equiv_pos_site_id
 _symmetry_equiv_pos_as_xyz
  1  'x, y, z'
loop_
 _atom_site_type_symbol
 _atom_site_label
 _atom_site_symmetry_multiplicity
 _atom_site_fract_x
 _atom_site_fract_y
 _atom_site_fract_z
 _atom_site_occupancy
  Ho  Ho0  1  0.000000  0.500000  0.528319  1
  Ho  Ho1  1  0.500000  0.000000  0.477149  1
  Tm  Tm2  1  0.500000  0.822109  0.207419  1
  Tm  Tm3  1  0.500000  0.177891  0.207419  1
  Tm  Tm4  1  0.000000  0.682198  0.795803  1
  Tm  Tm5  1  0.000000  0.317802  0.795803  1
  Sc  Sc6  1  0.500000  0.500000  0.153010  1
  Co  Co7  1  0.000000  0.500000  0.984525  1
  Co  Co8  1  0.500000  0.000000  0.013222  1
  Co  Co9  1  0.500000  0.294637  0.434315  1
  Co  Co10  1  0.500000  0.705363  0.434315  1
  Co  Co11  1  0.000000  0.201868  0.570846  1
  Co  Co12  1  0.000000  0.798132  0.570846  1
  Co  Co13  1  0.500000  0.879843  0.707874  1
  Co  Co14  1  0.500000  0.120157  0.707874  1
  Co  Co15  1  0.000000  0.623331  0.295801  1
  Co  Co16  1  0.000000  0.376669  0.295801  1
  Co  Co17  1  0.500000  0.326473  0.989586  1
  Co  Co18  1  0.500000  0.673527  0.989586  1
  Co  Co19  1  0.000000  0.162307  0.001355  1
  Co  Co20  1  0.000000  0.837693  0.001355  1
  Co  Co21  1  0.000000  0.000000  0.836380  1
  Co  Co22  1  0.500000  0.500000  0.704384  1
  Co  Co23  1  0.000000  0.000000  0.295093  1
  P  P24  1  0.500000  0.309832  0.618831  1
  P  P25  1  0.500000  0.690168  0.618831  1
  P  P26  1  0.000000  0.188192  0.385390  1
  P  P27  1  0.000000  0.811808  0.385390  1
  P  P28  1  0.500000  0.500000  0.882832  1
  P  P29  1  0.000000  0.000000  0.116438  1
  P  P30  1  0.500000  0.851231  0.888090  1
  P  P31  1  0.500000  0.148769  0.888090  1
  P  P32  1  0.000000  0.664246  0.102671  1
  P  P33  1  0.000000  0.335754  0.102671  1
  P  P34  1  0.500000  0.500000  0.358720  1
  P  P35  1  0.000000  0.000000  0.653959  1
