# generated using pymatgen
data_TmLu3(Ga5Rh3)2
_symmetry_space_group_name_H-M   'P 1'
_cell_length_a   8.57223972
_cell_length_b   8.57319845
_cell_length_c   5.62299921
_cell_angle_alpha   70.83564241
_cell_angle_beta   70.83500361
_cell_angle_gamma   97.89978220
_symmetry_Int_Tables_number   1
_chemical_formula_structural   TmLu3(Ga5Rh3)2
_chemical_formula_sum   'Tm1 Lu3 Ga10 Rh6'
_cell_volume   354.50941386
_cell_formula_units_Z   1
loop_
 _symmetry_equiv_pos_site_id
 _symmetry_equiv_pos_as_xyz
  1  'x, y, z'
loop_
 _atom_site_type_symbol
 _atom_site_label
 _atom_site_symmetry_multiplicity
 _atom_site_fract_x
 _atom_site_fract_y
 _atom_site_fract_z
 _atom_site_occupancy
  Tm  Tm0  1  0.578345  0.870804  0.276235  1
  Lu  Lu1  1  0.870841  0.578022  0.776393  1
  Lu  Lu2  1  0.421939  0.129207  0.723603  1
  Lu  Lu3  1  0.129167  0.421990  0.223586  1
  Ga  Ga4  1  0.101243  0.265690  0.816144  1
  Ga  Ga5  1  0.734365  0.898821  0.683786  1
  Ga  Ga6  1  0.898961  0.734200  0.183836  1
  Ga  Ga7  1  0.265836  0.101296  0.316030  1
  Ga  Ga8  1  0.198918  0.801052  0.749979  1
  Ga  Ga9  1  0.801126  0.199152  0.250007  1
  Ga  Ga10  1  0.500097  0.499675  0.750186  1
  Ga  Ga11  1  0.499705  0.500062  0.250041  1
  Ga  Ga12  1  0.800789  0.199490  0.749715  1
  Ga  Ga13  1  0.199237  0.800709  0.250060  1
  Rh  Rh14  1  0.263030  0.568972  0.584511  1
  Rh  Rh15  1  0.430492  0.736353  0.916105  1
  Rh  Rh16  1  0.736517  0.430823  0.415821  1
  Rh  Rh17  1  0.569352  0.263639  0.084001  1
  Rh  Rh18  1  0.999863  0.000172  0.749975  1
  Rh  Rh19  1  0.000176  0.999868  0.249985  1
