# generated using pymatgen
data_Y8Ho2InBi5
_symmetry_space_group_name_H-M   'P 1'
_cell_length_a   9.13953281
_cell_length_b   9.15326224
_cell_length_c   6.47293504
_cell_angle_alpha   90.01327518
_cell_angle_beta   89.99335081
_cell_angle_gamma   120.04970319
_symmetry_Int_Tables_number   1
_chemical_formula_structural   Y8Ho2InBi5
_chemical_formula_sum   'Y8 Ho2 In1 Bi5'
_cell_volume   468.72059793
_cell_formula_units_Z   1
loop_
 _symmetry_equiv_pos_site_id
 _symmetry_equiv_pos_as_xyz
  1  'x, y, z'
loop_
 _atom_site_type_symbol
 _atom_site_label
 _atom_site_symmetry_multiplicity
 _atom_site_fract_x
 _atom_site_fract_y
 _atom_site_fract_z
 _atom_site_occupancy
  Y  Y0  1  0.671502  0.334395  0.000205  1
  Y  Y1  1  0.328498  0.662893  0.000205  1
  Y  Y2  1  0.757999  0.756403  0.749855  1
  Y  Y3  1  0.242001  0.998404  0.749855  1
  Y  Y4  1  0.000000  0.241504  0.749848  1
  Y  Y5  1  0.236749  0.244342  0.250154  1
  Y  Y6  1  0.763251  0.007593  0.250154  1
  Y  Y7  1  0.000000  0.755001  0.250162  1
  Ho  Ho8  1  0.328019  0.662367  0.499512  1
  Ho  Ho9  1  0.671981  0.334347  0.499512  1
  In  In10  1  0.000000  0.393926  0.251606  1
  Bi  Bi11  1  0.391213  0.389047  0.749091  1
  Bi  Bi12  1  0.608787  0.997834  0.749091  1
  Bi  Bi13  1  0.000000  0.608856  0.748920  1
  Bi  Bi14  1  0.610516  0.611801  0.250915  1
  Bi  Bi15  1  0.389484  0.001285  0.250915  1
