# generated using pymatgen
data_Ho5Ta3Fe3Co13P12
_symmetry_space_group_name_H-M   'P 1'
_cell_length_a   12.15467000
_cell_length_b   12.15466964
_cell_length_c   3.69001000
_cell_angle_alpha   90.00000000
_cell_angle_beta   90.00000000
_cell_angle_gamma   120.00000643
_symmetry_Int_Tables_number   1
_chemical_formula_structural   Ho5Ta3Fe3Co13P12
_chemical_formula_sum   'Ho5 Ta3 Fe3 Co13 P12'
_cell_volume   472.11139001
_cell_formula_units_Z   1
loop_
 _symmetry_equiv_pos_site_id
 _symmetry_equiv_pos_as_xyz
  1  'x, y, z'
loop_
 _atom_site_type_symbol
 _atom_site_label
 _atom_site_symmetry_multiplicity
 _atom_site_fract_x
 _atom_site_fract_y
 _atom_site_fract_z
 _atom_site_occupancy
  Ho  Ho0  1  0.666667  0.333333  0.000000  1
  Ho  Ho1  1  0.333333  0.666667  0.000000  1
  Ho  Ho2  1  0.816671  0.817189  0.500000  1
  Ho  Ho3  1  0.182811  0.999481  0.500000  1
  Ho  Ho4  1  0.000519  0.183329  0.500000  1
  Ta  Ta5  1  0.441113  0.441289  0.000000  1
  Ta  Ta6  1  0.558711  0.999824  0.000000  1
  Ta  Ta7  1  0.000176  0.558887  0.000000  1
  Fe  Fe8  1  0.800936  0.176677  0.000000  1
  Fe  Fe9  1  0.823323  0.624258  0.000000  1
  Fe  Fe10  1  0.375742  0.199064  0.000000  1
  Co  Co11  1  0.875943  0.357994  0.500000  1
  Co  Co12  1  0.642006  0.517949  0.500000  1
  Co  Co13  1  0.482051  0.124057  0.500000  1
  Co  Co14  1  0.356106  0.873428  0.500000  1
  Co  Co15  1  0.517322  0.643894  0.500000  1
  Co  Co16  1  0.126572  0.482678  0.500000  1
  Co  Co17  1  0.178640  0.803195  0.000000  1
  Co  Co18  1  0.624554  0.821360  0.000000  1
  Co  Co19  1  0.196805  0.375446  0.000000  1
  Co  Co20  1  0.278783  0.281006  0.500000  1
  Co  Co21  1  0.718994  0.997777  0.500000  1
  Co  Co22  1  0.002223  0.721217  0.500000  1
  Co  Co23  1  0.000000  0.000000  0.000000  1
  P  P24  1  0.691510  0.169632  0.500000  1
  P  P25  1  0.830368  0.521877  0.500000  1
  P  P26  1  0.478123  0.308490  0.500000  1
  P  P27  1  0.169508  0.689568  0.500000  1
  P  P28  1  0.520059  0.830492  0.500000  1
  P  P29  1  0.310432  0.479941  0.500000  1
  P  P30  1  0.180071  0.178555  0.000000  1
  P  P31  1  0.821445  0.001517  0.000000  1
  P  P32  1  0.998483  0.819929  0.000000  1
  P  P33  1  0.647162  0.644513  0.000000  1
  P  P34  1  0.355487  0.002649  0.000000  1
  P  P35  1  0.997351  0.352838  0.000000  1
