# generated using pymatgen
data_LaGaNi3Pt
_symmetry_space_group_name_H-M   'P 1'
_cell_length_a   5.33880888
_cell_length_b   5.22799607
_cell_length_c   4.10340900
_cell_angle_alpha   90.00000000
_cell_angle_beta   90.00000000
_cell_angle_gamma   124.62981534
_symmetry_Int_Tables_number   1
_chemical_formula_structural   LaGaNi3Pt
_chemical_formula_sum   'La1 Ga1 Ni3 Pt1'
_cell_volume   94.24107519
_cell_formula_units_Z   1
loop_
 _symmetry_equiv_pos_site_id
 _symmetry_equiv_pos_as_xyz
  1  'x, y, z'
loop_
 _atom_site_type_symbol
 _atom_site_label
 _atom_site_symmetry_multiplicity
 _atom_site_fract_x
 _atom_site_fract_y
 _atom_site_fract_z
 _atom_site_occupancy
  La  La0  1  0.500000  0.500000  0.000000  1
  Ga  Ga1  1  0.000000  0.500000  0.500000  1
  Ni  Ni2  1  0.189272  0.822520  0.000000  1
  Ni  Ni3  1  0.810728  0.177480  0.000000  1
  Ni  Ni4  1  0.500000  0.000000  0.500000  1
  Pt  Pt5  1  0.000000  0.000000  0.500000  1
