# generated using pymatgen
data_TbNd6HoAu4
_symmetry_space_group_name_H-M   'P 1'
_cell_length_a   5.03949800
_cell_length_b   7.33562228
_cell_length_c   9.22769432
_cell_angle_alpha   89.88436394
_cell_angle_beta   90.00000000
_cell_angle_gamma   90.00000000
_symmetry_Int_Tables_number   1
_chemical_formula_structural   TbNd6HoAu4
_chemical_formula_sum   'Tb1 Nd6 Ho1 Au4'
_cell_volume   341.12735999
_cell_formula_units_Z   1
loop_
 _symmetry_equiv_pos_site_id
 _symmetry_equiv_pos_as_xyz
  1  'x, y, z'
loop_
 _atom_site_type_symbol
 _atom_site_label
 _atom_site_symmetry_multiplicity
 _atom_site_fract_x
 _atom_site_fract_y
 _atom_site_fract_z
 _atom_site_occupancy
  Tb  Tb0  1  0.750000  0.149519  0.078506  1
  Nd  Nd1  1  0.250000  0.489785  0.175479  1
  Nd  Nd2  1  0.750000  0.511247  0.824484  1
  Nd  Nd3  1  0.250000  0.990766  0.323427  1
  Nd  Nd4  1  0.750000  0.008927  0.676341  1
  Nd  Nd5  1  0.750000  0.650904  0.412717  1
  Nd  Nd6  1  0.250000  0.349109  0.587532  1
  Ho  Ho7  1  0.250000  0.850576  0.921282  1
  Au  Au8  1  0.250000  0.244610  0.909164  1
  Au  Au9  1  0.750000  0.754465  0.090069  1
  Au  Au10  1  0.250000  0.758098  0.608082  1
  Au  Au11  1  0.750000  0.241993  0.392918  1
