# generated using pymatgen
data_Zr3CoSn3Rh2
_symmetry_space_group_name_H-M   'P 1'
_cell_length_a   7.36683700
_cell_length_b   7.36683763
_cell_length_c   7.21408300
_cell_angle_alpha   90.00000000
_cell_angle_beta   90.00000000
_cell_angle_gamma   119.99999270
_symmetry_Int_Tables_number   1
_chemical_formula_structural   Zr3CoSn3Rh2
_chemical_formula_sum   'Zr6 Co2 Sn6 Rh4'
_cell_volume   339.05796936
_cell_formula_units_Z   2
loop_
 _symmetry_equiv_pos_site_id
 _symmetry_equiv_pos_as_xyz
  1  'x, y, z'
loop_
 _atom_site_type_symbol
 _atom_site_label
 _atom_site_symmetry_multiplicity
 _atom_site_fract_x
 _atom_site_fract_y
 _atom_site_fract_z
 _atom_site_occupancy
  Zr  Zr0  1  0.597472  0.982778  0.750000  1
  Zr  Zr1  1  0.385306  0.402528  0.750000  1
  Zr  Zr2  1  0.017222  0.614694  0.750000  1
  Zr  Zr3  1  0.614694  0.017222  0.250000  1
  Zr  Zr4  1  0.402528  0.385306  0.250000  1
  Zr  Zr5  1  0.982778  0.597472  0.250000  1
  Co  Co6  1  0.000000  0.000000  0.750000  1
  Co  Co7  1  0.000000  0.000000  0.250000  1
  Sn  Sn8  1  0.262182  0.000000  0.000000  1
  Sn  Sn9  1  0.737818  0.737818  0.500000  1
  Sn  Sn10  1  0.000000  0.262182  0.500000  1
  Sn  Sn11  1  0.000000  0.262182  0.000000  1
  Sn  Sn12  1  0.737818  0.737818  0.000000  1
  Sn  Sn13  1  0.262182  0.000000  0.500000  1
  Rh  Rh14  1  0.666667  0.333333  0.965716  1
  Rh  Rh15  1  0.666667  0.333333  0.534284  1
  Rh  Rh16  1  0.333333  0.666667  0.034284  1
  Rh  Rh17  1  0.333333  0.666667  0.465716  1
