# generated using pymatgen
data_La3Y2Sn10Ir3Rh
_symmetry_space_group_name_H-M   'P 1'
_cell_length_a   14.21671900
_cell_length_b   14.23388097
_cell_length_c   4.63426000
_cell_angle_alpha   90.00000000
_cell_angle_beta   90.00000000
_cell_angle_gamma   90.09593279
_symmetry_Int_Tables_number   1
_chemical_formula_structural   La3Y2Sn10Ir3Rh
_chemical_formula_sum   'La6 Y4 Sn20 Ir6 Rh2'
_cell_volume   937.78330352
_cell_formula_units_Z   2
loop_
 _symmetry_equiv_pos_site_id
 _symmetry_equiv_pos_as_xyz
  1  'x, y, z'
loop_
 _atom_site_type_symbol
 _atom_site_label
 _atom_site_symmetry_multiplicity
 _atom_site_fract_x
 _atom_site_fract_y
 _atom_site_fract_z
 _atom_site_occupancy
  La  La0  1  0.500000  0.500000  0.000000  1
  La  La1  1  0.000000  0.000000  0.000000  1
  La  La2  1  0.888677  0.386913  0.500000  1
  La  La3  1  0.111323  0.613087  0.500000  1
  La  La4  1  0.386684  0.113518  0.500000  1
  La  La5  1  0.613316  0.886482  0.500000  1
  Y  Y6  1  0.675554  0.176907  0.500000  1
  Y  Y7  1  0.324446  0.823093  0.500000  1
  Y  Y8  1  0.172739  0.322400  0.500000  1
  Y  Y9  1  0.827261  0.677600  0.500000  1
  Sn  Sn10  1  0.570076  0.069730  0.000000  1
  Sn  Sn11  1  0.429924  0.930270  0.000000  1
  Sn  Sn12  1  0.071354  0.431506  0.000000  1
  Sn  Sn13  1  0.928646  0.568494  0.000000  1
  Sn  Sn14  1  0.654846  0.697599  0.000000  1
  Sn  Sn15  1  0.345154  0.302401  0.000000  1
  Sn  Sn16  1  0.154396  0.801088  0.000000  1
  Sn  Sn17  1  0.845604  0.198912  0.000000  1
  Sn  Sn18  1  0.301419  0.653907  0.000000  1
  Sn  Sn19  1  0.698581  0.346093  0.000000  1
  Sn  Sn20  1  0.199266  0.155072  0.000000  1
  Sn  Sn21  1  0.800734  0.844928  0.000000  1
  Sn  Sn22  1  0.664643  0.508576  0.500000  1
  Sn  Sn23  1  0.335357  0.491424  0.500000  1
  Sn  Sn24  1  0.162391  0.990333  0.500000  1
  Sn  Sn25  1  0.837609  0.009667  0.500000  1
  Sn  Sn26  1  0.490676  0.661975  0.500000  1
  Sn  Sn27  1  0.509324  0.338025  0.500000  1
  Sn  Sn28  1  0.006824  0.162607  0.500000  1
  Sn  Sn29  1  0.993176  0.837393  0.500000  1
  Ir  Ir30  1  0.247640  0.970631  0.000000  1
  Ir  Ir31  1  0.752360  0.029369  0.000000  1
  Ir  Ir32  1  0.470215  0.747991  0.000000  1
  Ir  Ir33  1  0.529785  0.252009  0.000000  1
  Ir  Ir34  1  0.031071  0.247659  0.000000  1
  Ir  Ir35  1  0.968929  0.752341  0.000000  1
  Rh  Rh36  1  0.745580  0.529733  0.000000  1
  Rh  Rh37  1  0.254420  0.470267  0.000000  1
