# generated using pymatgen
data_Hf2Zr2Mn4SiP3
_symmetry_space_group_name_H-M   'P 1'
_cell_length_a   3.62879800
_cell_length_b   6.45366504
_cell_length_c   7.53423110
_cell_angle_alpha   89.98438980
_cell_angle_beta   90.00000000
_cell_angle_gamma   90.00000000
_symmetry_Int_Tables_number   1
_chemical_formula_structural   Hf2Zr2Mn4SiP3
_chemical_formula_sum   'Hf2 Zr2 Mn4 Si1 P3'
_cell_volume   176.44450410
_cell_formula_units_Z   1
loop_
 _symmetry_equiv_pos_site_id
 _symmetry_equiv_pos_as_xyz
  1  'x, y, z'
loop_
 _atom_site_type_symbol
 _atom_site_label
 _atom_site_symmetry_multiplicity
 _atom_site_fract_x
 _atom_site_fract_y
 _atom_site_fract_z
 _atom_site_occupancy
  Hf  Hf0  1  0.750000  0.465000  0.823904  1
  Hf  Hf1  1  0.750000  0.970521  0.673152  1
  Zr  Zr2  1  0.250000  0.529655  0.177232  1
  Zr  Zr3  1  0.250000  0.030136  0.324437  1
  Mn  Mn4  1  0.250000  0.634810  0.559293  1
  Mn  Mn5  1  0.750000  0.363883  0.441207  1
  Mn  Mn6  1  0.750000  0.866823  0.061577  1
  Mn  Mn7  1  0.250000  0.140010  0.937703  1
  Si  Si8  1  0.250000  0.768517  0.873315  1
  P  P9  1  0.750000  0.231130  0.125410  1
  P  P10  1  0.750000  0.731456  0.374944  1
  P  P11  1  0.250000  0.268061  0.627824  1
