# generated using pymatgen
data_Nd8DyErPb6
_symmetry_space_group_name_H-M   'P 1'
_cell_length_a   9.32562700
_cell_length_b   9.32562685
_cell_length_c   6.85019100
_cell_angle_alpha   90.00000000
_cell_angle_beta   90.00000000
_cell_angle_gamma   119.99999700
_symmetry_Int_Tables_number   1
_chemical_formula_structural   Nd8DyErPb6
_chemical_formula_sum   'Nd8 Dy1 Er1 Pb6'
_cell_volume   515.92835888
_cell_formula_units_Z   1
loop_
 _symmetry_equiv_pos_site_id
 _symmetry_equiv_pos_as_xyz
  1  'x, y, z'
loop_
 _atom_site_type_symbol
 _atom_site_label
 _atom_site_symmetry_multiplicity
 _atom_site_fract_x
 _atom_site_fract_y
 _atom_site_fract_z
 _atom_site_occupancy
  Nd  Nd0  1  0.666667  0.333333  0.000000  1
  Nd  Nd1  1  0.333333  0.666667  0.000000  1
  Nd  Nd2  1  0.759760  0.759667  0.748442  1
  Nd  Nd3  1  0.240333  0.000093  0.748442  1
  Nd  Nd4  1  0.999907  0.240240  0.748442  1
  Nd  Nd5  1  0.240333  0.240240  0.251558  1
  Nd  Nd6  1  0.759760  0.000093  0.251558  1
  Nd  Nd7  1  0.999907  0.759667  0.251558  1
  Dy  Dy8  1  0.333333  0.666667  0.500000  1
  Er  Er9  1  0.666667  0.333333  0.500000  1
  Pb  Pb10  1  0.396212  0.395864  0.743710  1
  Pb  Pb11  1  0.604136  0.000348  0.743710  1
  Pb  Pb12  1  0.999652  0.603788  0.743710  1
  Pb  Pb13  1  0.604136  0.603788  0.256290  1
  Pb  Pb14  1  0.396212  0.000348  0.256290  1
  Pb  Pb15  1  0.999652  0.395864  0.256290  1
