# generated using pymatgen
data_Y12Th4Mg3Co4Hg
_symmetry_space_group_name_H-M   'P 1'
_cell_length_a   9.59721180
_cell_length_b   9.59721116
_cell_length_c   9.59721214
_cell_angle_alpha   60.04554624
_cell_angle_beta   60.04555190
_cell_angle_gamma   60.04554920
_symmetry_Int_Tables_number   1
_chemical_formula_structural   Y12Th4Mg3Co4Hg
_chemical_formula_sum   'Y12 Th4 Mg3 Co4 Hg1'
_cell_volume   625.70318777
_cell_formula_units_Z   1
loop_
 _symmetry_equiv_pos_site_id
 _symmetry_equiv_pos_as_xyz
  1  'x, y, z'
loop_
 _atom_site_type_symbol
 _atom_site_label
 _atom_site_symmetry_multiplicity
 _atom_site_fract_x
 _atom_site_fract_y
 _atom_site_fract_z
 _atom_site_occupancy
  Y  Y0  1  0.812149  0.187595  0.187595  1
  Y  Y1  1  0.186577  0.813203  0.813203  1
  Y  Y2  1  0.187595  0.812149  0.187595  1
  Y  Y3  1  0.813203  0.186577  0.813203  1
  Y  Y4  1  0.187595  0.187595  0.812149  1
  Y  Y5  1  0.813203  0.813203  0.186577  1
  Y  Y6  1  0.935647  0.563552  0.563552  1
  Y  Y7  1  0.562906  0.936367  0.936367  1
  Y  Y8  1  0.563552  0.935647  0.563552  1
  Y  Y9  1  0.936367  0.562906  0.936367  1
  Y  Y10  1  0.563552  0.563552  0.935647  1
  Y  Y11  1  0.936367  0.936367  0.562906  1
  Th  Th12  1  0.344062  0.344062  0.344062  1
  Th  Th13  1  0.345220  0.345220  0.964391  1
  Th  Th14  1  0.345220  0.964391  0.345220  1
  Th  Th15  1  0.964391  0.345220  0.345220  1
  Mg  Mg16  1  0.579513  0.579513  0.263758  1
  Mg  Mg17  1  0.579513  0.263758  0.579513  1
  Mg  Mg18  1  0.263758  0.579513  0.579513  1
  Co  Co19  1  0.145094  0.145094  0.145094  1
  Co  Co20  1  0.144965  0.144965  0.562151  1
  Co  Co21  1  0.144965  0.562151  0.144965  1
  Co  Co22  1  0.562151  0.144965  0.144965  1
  Hg  Hg23  1  0.582431  0.582431  0.582431  1
