# generated using pymatgen
data_Dy2In(GaPt)3
_symmetry_space_group_name_H-M   'P 1'
_cell_length_a   6.77645470
_cell_length_b   6.77645413
_cell_length_c   4.20182500
_cell_angle_alpha   90.00000000
_cell_angle_beta   90.00000000
_cell_angle_gamma   116.11575679
_symmetry_Int_Tables_number   1
_chemical_formula_structural   Dy2In(GaPt)3
_chemical_formula_sum   'Dy2 In1 Ga3 Pt3'
_cell_volume   173.25035984
_cell_formula_units_Z   1
loop_
 _symmetry_equiv_pos_site_id
 _symmetry_equiv_pos_as_xyz
  1  'x, y, z'
loop_
 _atom_site_type_symbol
 _atom_site_label
 _atom_site_symmetry_multiplicity
 _atom_site_fract_x
 _atom_site_fract_y
 _atom_site_fract_z
 _atom_site_occupancy
  Dy  Dy0  1  0.579369  0.994032  0.500000  1
  Dy  Dy1  1  0.994032  0.579369  0.500000  1
  In  In2  1  0.408290  0.408290  0.500000  1
  Ga  Ga3  1  0.772738  0.772738  0.000000  1
  Ga  Ga4  1  0.247680  0.985176  0.000000  1
  Ga  Ga5  1  0.985176  0.247680  0.000000  1
  Pt  Pt6  1  0.648047  0.345047  0.000000  1
  Pt  Pt7  1  0.345047  0.648047  0.000000  1
  Pt  Pt8  1  0.019620  0.019620  0.500000  1
