# generated using pymatgen
data_Li2P7Ru11Pt
_symmetry_space_group_name_H-M   'P 1'
_cell_length_a   9.25874428
_cell_length_b   9.41158897
_cell_length_c   3.92024700
_cell_angle_alpha   90.00000000
_cell_angle_beta   90.00000000
_cell_angle_gamma   119.02285541
_symmetry_Int_Tables_number   1
_chemical_formula_structural   Li2P7Ru11Pt
_chemical_formula_sum   'Li2 P7 Ru11 Pt1'
_cell_volume   298.71130337
_cell_formula_units_Z   1
loop_
 _symmetry_equiv_pos_site_id
 _symmetry_equiv_pos_as_xyz
  1  'x, y, z'
loop_
 _atom_site_type_symbol
 _atom_site_label
 _atom_site_symmetry_multiplicity
 _atom_site_fract_x
 _atom_site_fract_y
 _atom_site_fract_z
 _atom_site_occupancy
  Li  Li0  1  0.666678  0.334409  0.500000  1
  Li  Li1  1  0.328862  0.658805  0.000000  1
  P  P2  1  0.597467  0.704232  0.500000  1
  P  P3  1  0.995811  0.000491  0.000000  1
  P  P4  1  0.271521  0.874016  0.500000  1
  P  P5  1  0.117810  0.400527  0.500000  1
  P  P6  1  0.887872  0.581943  0.000000  1
  P  P7  1  0.430481  0.309922  0.000000  1
  P  P8  1  0.704853  0.130260  0.000000  1
  Ru  Ru9  1  0.392830  0.434690  0.500000  1
  Ru  Ru10  1  0.912507  0.124471  0.500000  1
  Ru  Ru11  1  0.210980  0.085275  0.500000  1
  Ru  Ru12  1  0.880188  0.802511  0.500000  1
  Ru  Ru13  1  0.721922  0.892750  0.000000  1
  Ru  Ru14  1  0.113787  0.841823  0.000000  1
  Ru  Ru15  1  0.162493  0.268376  0.000000  1
  Ru  Ru16  1  0.434767  0.069554  0.000000  1
  Ru  Ru17  1  0.941627  0.367453  0.000000  1
  Ru  Ru18  1  0.641727  0.579006  0.000000  1
  Ru  Ru19  1  0.043941  0.606350  0.500000  1
  Pt  Pt20  1  0.541877  0.933140  0.500000  1
