# generated using pymatgen
data_Sc12Al6Zn5Re
_symmetry_space_group_name_H-M   'P 1'
_cell_length_a   4.77780200
_cell_length_b   6.65869400
_cell_length_c   14.35352300
_cell_angle_alpha   90.00000000
_cell_angle_beta   89.99900135
_cell_angle_gamma   90.00000000
_symmetry_Int_Tables_number   1
_chemical_formula_structural   Sc12Al6Zn5Re
_chemical_formula_sum   'Sc12 Al6 Zn5 Re1'
_cell_volume   456.64185409
_cell_formula_units_Z   1
loop_
 _symmetry_equiv_pos_site_id
 _symmetry_equiv_pos_as_xyz
  1  'x, y, z'
loop_
 _atom_site_type_symbol
 _atom_site_label
 _atom_site_symmetry_multiplicity
 _atom_site_fract_x
 _atom_site_fract_y
 _atom_site_fract_z
 _atom_site_occupancy
  Sc  Sc0  1  0.499999  0.254990  0.999982  1
  Sc  Sc1  1  0.499999  0.745009  0.999982  1
  Sc  Sc2  1  0.999838  0.254216  0.162785  1
  Sc  Sc3  1  0.999838  0.745782  0.162785  1
  Sc  Sc4  1  0.499893  0.251175  0.332335  1
  Sc  Sc5  1  0.499893  0.748827  0.332335  1
  Sc  Sc6  1  0.999995  0.248483  0.500044  1
  Sc  Sc7  1  0.999995  0.751517  0.500044  1
  Sc  Sc8  1  0.500172  0.251169  0.667692  1
  Sc  Sc9  1  0.500172  0.748833  0.667692  1
  Sc  Sc10  1  0.000206  0.254283  0.837243  1
  Sc  Sc11  1  0.000206  0.745715  0.837243  1
  Al  Al12  1  0.000030  0.000000  0.999988  1
  Al  Al13  1  0.499814  0.500002  0.162534  1
  Al  Al14  1  0.999918  0.000000  0.331165  1
  Al  Al15  1  0.500033  0.500002  0.500019  1
  Al  Al16  1  0.000185  0.000000  0.668869  1
  Al  Al17  1  0.500287  0.500002  0.837436  1
  Zn  Zn18  1  0.499615  0.000000  0.168448  1
  Zn  Zn19  1  0.000092  0.500002  0.334087  1
  Zn  Zn20  1  0.499901  0.000000  0.499993  1
  Zn  Zn21  1  0.000043  0.500002  0.665849  1
  Zn  Zn22  1  0.499961  0.000000  0.831470  1
  Re  Re23  1  0.999919  0.500002  0.999980  1
