# generated using pymatgen
data_La2Ga7Cu18Si
_symmetry_space_group_name_H-M   'P 1'
_cell_length_a   8.38550176
_cell_length_b   8.27484974
_cell_length_c   8.32662932
_cell_angle_alpha   120.32884351
_cell_angle_beta   120.76064454
_cell_angle_gamma   89.12189307
_symmetry_Int_Tables_number   1
_chemical_formula_structural   La2Ga7Cu18Si
_chemical_formula_sum   'La2 Ga7 Cu18 Si1'
_cell_volume   404.90015177
_cell_formula_units_Z   1
loop_
 _symmetry_equiv_pos_site_id
 _symmetry_equiv_pos_as_xyz
  1  'x, y, z'
loop_
 _atom_site_type_symbol
 _atom_site_label
 _atom_site_symmetry_multiplicity
 _atom_site_fract_x
 _atom_site_fract_y
 _atom_site_fract_z
 _atom_site_occupancy
  La  La0  1  0.750635  0.750340  0.003009  1
  La  La1  1  0.247440  0.247404  0.996916  1
  Ga  Ga2  1  0.059873  0.558718  0.860884  1
  Ga  Ga3  1  0.698868  0.197613  0.139211  1
  Ga  Ga4  1  0.554684  0.693510  0.500037  1
  Ga  Ga5  1  0.204529  0.061538  0.500092  1
  Ga  Ga6  1  0.941533  0.443460  0.140984  1
  Ga  Ga7  1  0.300832  0.802626  0.859011  1
  Ga  Ga8  1  0.443818  0.304078  0.500042  1
  Cu  Cu9  1  0.061654  0.202792  0.264173  1
  Cu  Cu10  1  0.935946  0.798485  0.731179  1
  Cu  Cu11  1  0.565412  0.299723  0.860618  1
  Cu  Cu12  1  0.440162  0.704108  0.143999  1
  Cu  Cu13  1  0.796019  0.060197  0.856060  1
  Cu  Cu14  1  0.204939  0.939488  0.139468  1
  Cu  Cu15  1  0.704797  0.567049  0.268909  1
  Cu  Cu16  1  0.297828  0.438810  0.736027  1
  Cu  Cu17  1  0.435003  0.938607  0.732077  1
  Cu  Cu18  1  0.202786  0.706401  0.267562  1
  Cu  Cu19  1  0.939202  0.192662  0.499855  1
  Cu  Cu20  1  0.706430  0.436437  0.500012  1
  Cu  Cu21  1  0.567024  0.059488  0.267932  1
  Cu  Cu22  1  0.799241  0.291745  0.732151  1
  Cu  Cu23  1  0.053689  0.804913  0.499917  1
  Cu  Cu24  1  0.291326  0.563192  0.499591  1
  Cu  Cu25  1  0.999054  0.497906  0.500331  1
  Cu  Cu26  1  0.502950  0.999058  0.499981  1
  Si  Si27  1  0.794328  0.939654  0.499972  1
