# generated using pymatgen
data_TmLu9In8(NiRu)2
_symmetry_space_group_name_H-M   'P 1'
_cell_length_a   3.53501700
_cell_length_b   7.90406332
_cell_length_c   17.92339601
_cell_angle_alpha   89.88198398
_cell_angle_beta   90.00000000
_cell_angle_gamma   90.00000000
_symmetry_Int_Tables_number   1
_chemical_formula_structural   TmLu9In8(NiRu)2
_chemical_formula_sum   'Tm1 Lu9 In8 Ni2 Ru2'
_cell_volume   500.79651356
_cell_formula_units_Z   1
loop_
 _symmetry_equiv_pos_site_id
 _symmetry_equiv_pos_as_xyz
  1  'x, y, z'
loop_
 _atom_site_type_symbol
 _atom_site_label
 _atom_site_symmetry_multiplicity
 _atom_site_fract_x
 _atom_site_fract_y
 _atom_site_fract_z
 _atom_site_occupancy
  Tm  Tm0  1  0.000000  0.500000  0.000000  1
  Lu  Lu1  1  0.000000  0.883152  0.087739  1
  Lu  Lu2  1  0.000000  0.755810  0.279234  1
  Lu  Lu3  1  0.000000  0.746207  0.779326  1
  Lu  Lu4  1  0.000000  0.384012  0.411627  1
  Lu  Lu5  1  0.000000  0.116848  0.912261  1
  Lu  Lu6  1  0.000000  0.244190  0.720766  1
  Lu  Lu7  1  0.000000  0.253793  0.220674  1
  Lu  Lu8  1  0.000000  0.615988  0.588373  1
  Lu  Lu9  1  0.000000  0.000000  0.500000  1
  In  In10  1  0.500000  0.206866  0.067655  1
  In  In11  1  0.500000  0.425382  0.848445  1
  In  In12  1  0.500000  0.574618  0.151555  1
  In  In13  1  0.500000  0.074187  0.349264  1
  In  In14  1  0.500000  0.925813  0.650736  1
  In  In15  1  0.500000  0.793134  0.932345  1
  In  In16  1  0.500000  0.706049  0.432698  1
  In  In17  1  0.500000  0.293951  0.567302  1
  Ni  Ni18  1  0.500000  0.524212  0.695874  1
  Ni  Ni19  1  0.500000  0.475788  0.304126  1
  Ru  Ru20  1  0.500000  0.975539  0.196561  1
  Ru  Ru21  1  0.500000  0.024461  0.803439  1
