# generated using pymatgen
data_Cs3TmBi2
_symmetry_space_group_name_H-M   'P 1'
_cell_length_a   10.67780235
_cell_length_b   10.67781629
_cell_length_c   10.67761726
_cell_angle_alpha   126.89078203
_cell_angle_beta   70.68104121
_cell_angle_gamma   136.93143546
_symmetry_Int_Tables_number   1
_chemical_formula_structural   Cs3TmBi2
_chemical_formula_sum   'Cs6 Tm2 Bi4'
_cell_volume   651.83189760
_cell_formula_units_Z   2
loop_
 _symmetry_equiv_pos_site_id
 _symmetry_equiv_pos_as_xyz
  1  'x, y, z'
loop_
 _atom_site_type_symbol
 _atom_site_label
 _atom_site_symmetry_multiplicity
 _atom_site_fract_x
 _atom_site_fract_y
 _atom_site_fract_z
 _atom_site_occupancy
  Cs  Cs0  1  0.250010  0.250007  0.000000  1
  Cs  Cs1  1  0.750009  0.750015  0.000003  1
  Cs  Cs2  1  0.315742  0.808150  0.123846  1
  Cs  Cs3  1  0.184295  0.308159  0.492426  1
  Cs  Cs4  1  0.815722  0.691886  0.507618  1
  Cs  Cs5  1  0.684283  0.191867  0.876154  1
  Tm  Tm6  1  0.749966  0.249956  0.499978  1
  Tm  Tm7  1  0.249982  0.749973  0.499990  1
  Bi  Bi8  1  0.906971  0.312292  0.219259  1
  Bi  Bi9  1  0.593029  0.812283  0.405311  1
  Bi  Bi10  1  0.406972  0.187711  0.594686  1
  Bi  Bi11  1  0.093018  0.687703  0.780730  1
