# generated using pymatgen
data_Nd3Lu(ScPt)4
_symmetry_space_group_name_H-M   'P 1'
_cell_length_a   4.67429700
_cell_length_b   7.06574698
_cell_length_c   8.52816139
_cell_angle_alpha   90.56290559
_cell_angle_beta   90.00000000
_cell_angle_gamma   90.00000000
_symmetry_Int_Tables_number   1
_chemical_formula_structural   Nd3Lu(ScPt)4
_chemical_formula_sum   'Nd3 Lu1 Sc4 Pt4'
_cell_volume   281.64940358
_cell_formula_units_Z   1
loop_
 _symmetry_equiv_pos_site_id
 _symmetry_equiv_pos_as_xyz
  1  'x, y, z'
loop_
 _atom_site_type_symbol
 _atom_site_label
 _atom_site_symmetry_multiplicity
 _atom_site_fract_x
 _atom_site_fract_y
 _atom_site_fract_z
 _atom_site_occupancy
  Nd  Nd0  1  0.250000  0.985625  0.319727  1
  Nd  Nd1  1  0.750000  0.017273  0.681083  1
  Nd  Nd2  1  0.250000  0.485933  0.177097  1
  Lu  Lu3  1  0.750000  0.515408  0.825665  1
  Sc  Sc4  1  0.750000  0.637156  0.434998  1
  Sc  Sc5  1  0.250000  0.363768  0.582331  1
  Sc  Sc6  1  0.750000  0.140186  0.067877  1
  Sc  Sc7  1  0.250000  0.852424  0.922739  1
  Pt  Pt8  1  0.250000  0.242834  0.899653  1
  Pt  Pt9  1  0.750000  0.759526  0.086464  1
  Pt  Pt10  1  0.250000  0.737938  0.596313  1
  Pt  Pt11  1  0.750000  0.261930  0.406052  1
