# generated using pymatgen
data_Sb12PdRu2Au
_symmetry_space_group_name_H-M   'P 1'
_cell_length_a   8.25827205
_cell_length_b   8.24431139
_cell_length_c   9.52729951
_cell_angle_alpha   54.42529022
_cell_angle_beta   54.48763741
_cell_angle_gamma   70.21603856
_symmetry_Int_Tables_number   1
_chemical_formula_structural   Sb12PdRu2Au
_chemical_formula_sum   'Sb12 Pd1 Ru2 Au1'
_cell_volume   429.45134644
_cell_formula_units_Z   1
loop_
 _symmetry_equiv_pos_site_id
 _symmetry_equiv_pos_as_xyz
  1  'x, y, z'
loop_
 _atom_site_type_symbol
 _atom_site_label
 _atom_site_symmetry_multiplicity
 _atom_site_fract_x
 _atom_site_fract_y
 _atom_site_fract_z
 _atom_site_occupancy
  Sb  Sb0  1  0.155926  0.156182  0.177299  1
  Sb  Sb1  1  0.844074  0.843818  0.822701  1
  Sb  Sb2  1  0.843129  0.854045  0.502682  1
  Sb  Sb3  1  0.156871  0.145955  0.497318  1
  Sb  Sb4  1  0.806981  0.502213  0.335352  1
  Sb  Sb5  1  0.193019  0.497787  0.664648  1
  Sb  Sb6  1  0.504317  0.815578  0.334812  1
  Sb  Sb7  1  0.495683  0.184422  0.665188  1
  Sb  Sb8  1  0.644350  0.335328  0.858196  1
  Sb  Sb9  1  0.355650  0.664672  0.141804  1
  Sb  Sb10  1  0.665921  0.344243  0.149774  1
  Sb  Sb11  1  0.334079  0.655757  0.850226  1
  Pd  Pd12  1  0.500000  0.000000  0.500000  1
  Ru  Ru13  1  0.000000  0.500000  0.000000  1
  Ru  Ru14  1  0.500000  0.000000  0.000000  1
  Au  Au15  1  0.000000  0.500000  0.500000  1
