# generated using pymatgen
data_Li2CdSiTe4
_symmetry_space_group_name_H-M   'P 1'
_cell_length_a   7.34222600
_cell_length_b   7.73107100
_cell_length_c   8.83796700
_cell_angle_alpha   90.00000000
_cell_angle_beta   90.00000000
_cell_angle_gamma   90.00000000
_symmetry_Int_Tables_number   1
_chemical_formula_structural   Li2CdSiTe4
_chemical_formula_sum   'Li4 Cd2 Si2 Te8'
_cell_volume   501.67191153
_cell_formula_units_Z   2
loop_
 _symmetry_equiv_pos_site_id
 _symmetry_equiv_pos_as_xyz
  1  'x, y, z'
loop_
 _atom_site_type_symbol
 _atom_site_label
 _atom_site_symmetry_multiplicity
 _atom_site_fract_x
 _atom_site_fract_y
 _atom_site_fract_z
 _atom_site_occupancy
  Li  Li0  1  0.512495  0.822360  0.251524  1
  Li  Li1  1  0.012495  0.177640  0.248476  1
  Li  Li2  1  0.012495  0.177640  0.751524  1
  Li  Li3  1  0.512495  0.822360  0.748476  1
  Cd  Cd4  1  0.503043  0.350566  0.000000  1
  Cd  Cd5  1  0.003043  0.649434  0.500000  1
  Si  Si6  1  0.003701  0.669512  0.000000  1
  Si  Si7  1  0.503701  0.330488  0.500000  1
  Te  Te8  1  0.895644  0.359210  0.000000  1
  Te  Te9  1  0.395644  0.640790  0.500000  1
  Te  Te10  1  0.887688  0.835403  0.229977  1
  Te  Te11  1  0.387688  0.164597  0.270023  1
  Te  Te12  1  0.387688  0.164597  0.729977  1
  Te  Te13  1  0.887688  0.835403  0.770023  1
  Te  Te14  1  0.349746  0.688387  0.000000  1
  Te  Te15  1  0.849746  0.311613  0.500000  1
