# generated using pymatgen
data_Hf2TcBr12
_symmetry_space_group_name_H-M   'P 1'
_cell_length_a   9.68541879
_cell_length_b   9.68541959
_cell_length_c   7.47721262
_cell_angle_alpha   70.81777870
_cell_angle_beta   70.81778180
_cell_angle_gamma   82.75749684
_symmetry_Int_Tables_number   1
_chemical_formula_structural   Hf2TcBr12
_chemical_formula_sum   'Hf2 Tc1 Br12'
_cell_volume   625.56308328
_cell_formula_units_Z   1
loop_
 _symmetry_equiv_pos_site_id
 _symmetry_equiv_pos_as_xyz
  1  'x, y, z'
loop_
 _atom_site_type_symbol
 _atom_site_label
 _atom_site_symmetry_multiplicity
 _atom_site_fract_x
 _atom_site_fract_y
 _atom_site_fract_z
 _atom_site_occupancy
  Hf  Hf0  1  0.269135  0.269135  0.735648  1
  Hf  Hf1  1  0.730865  0.730865  0.264352  1
  Tc  Tc2  1  0.000000  0.000000  0.000000  1
  Br  Br3  1  0.973833  0.247418  0.755516  1
  Br  Br4  1  0.247418  0.973833  0.755516  1
  Br  Br5  1  0.026167  0.752582  0.244484  1
  Br  Br6  1  0.752582  0.026167  0.244484  1
  Br  Br7  1  0.211787  0.511006  0.792314  1
  Br  Br8  1  0.511006  0.211787  0.792314  1
  Br  Br9  1  0.788213  0.488994  0.207686  1
  Br  Br10  1  0.488994  0.788213  0.207686  1
  Br  Br11  1  0.128304  0.128304  0.145039  1
  Br  Br12  1  0.871696  0.871696  0.854961  1
  Br  Br13  1  0.659353  0.659353  0.632236  1
  Br  Br14  1  0.340647  0.340647  0.367764  1
