# generated using pymatgen
data_Th4Sc6HgSb7
_symmetry_space_group_name_H-M   'P 1'
_cell_length_a   7.89747100
_cell_length_b   7.80824679
_cell_length_c   14.83423400
_cell_angle_alpha   90.00000000
_cell_angle_beta   90.00000000
_cell_angle_gamma   90.72016335
_symmetry_Int_Tables_number   1
_chemical_formula_structural   Th4Sc6HgSb7
_chemical_formula_sum   'Th8 Sc12 Hg2 Sb14'
_cell_volume   914.68675289
_cell_formula_units_Z   2
loop_
 _symmetry_equiv_pos_site_id
 _symmetry_equiv_pos_as_xyz
  1  'x, y, z'
loop_
 _atom_site_type_symbol
 _atom_site_label
 _atom_site_symmetry_multiplicity
 _atom_site_fract_x
 _atom_site_fract_y
 _atom_site_fract_z
 _atom_site_occupancy
  Th  Th0  1  0.983483  0.176541  0.095287  1
  Th  Th1  1  0.016517  0.823459  0.904713  1
  Th  Th2  1  0.516590  0.674718  0.908108  1
  Th  Th3  1  0.016517  0.823459  0.595287  1
  Th  Th4  1  0.483410  0.325282  0.091892  1
  Th  Th5  1  0.983483  0.176541  0.404713  1
  Th  Th6  1  0.483410  0.325282  0.408108  1
  Th  Th7  1  0.516590  0.674718  0.591892  1
  Sc  Sc8  1  0.177654  0.497961  0.750000  1
  Sc  Sc9  1  0.822346  0.502039  0.250000  1
  Sc  Sc10  1  0.324501  0.000857  0.250000  1
  Sc  Sc11  1  0.675499  0.999143  0.750000  1
  Sc  Sc12  1  0.343995  0.149032  0.624977  1
  Sc  Sc13  1  0.656005  0.850968  0.375023  1
  Sc  Sc14  1  0.156924  0.647334  0.375732  1
  Sc  Sc15  1  0.656005  0.850968  0.124977  1
  Sc  Sc16  1  0.843076  0.352666  0.624268  1
  Sc  Sc17  1  0.343995  0.149032  0.875023  1
  Sc  Sc18  1  0.843076  0.352666  0.875732  1
  Sc  Sc19  1  0.156924  0.647334  0.124268  1
  Hg  Hg20  1  0.183920  0.350215  0.250000  1
  Hg  Hg21  1  0.816080  0.649785  0.750000  1
  Sb  Sb22  1  0.190762  0.448425  0.547578  1
  Sb  Sb23  1  0.809238  0.551575  0.452422  1
  Sb  Sb24  1  0.307797  0.950739  0.453552  1
  Sb  Sb25  1  0.809238  0.551575  0.047578  1
  Sb  Sb26  1  0.692203  0.049261  0.546448  1
  Sb  Sb27  1  0.190762  0.448425  0.952422  1
  Sb  Sb28  1  0.692203  0.049261  0.953552  1
  Sb  Sb29  1  0.307797  0.950739  0.046448  1
  Sb  Sb30  1  0.034853  0.138325  0.750000  1
  Sb  Sb31  1  0.965147  0.861675  0.250000  1
  Sb  Sb32  1  0.458485  0.631040  0.250000  1
  Sb  Sb33  1  0.541515  0.368960  0.750000  1
  Sb  Sb34  1  0.322147  0.847110  0.750000  1
  Sb  Sb35  1  0.677853  0.152890  0.250000  1
