# generated using pymatgen
data_HoTm4Al2Ru3
_symmetry_space_group_name_H-M   'P 1'
_cell_length_a   8.25896700
_cell_length_b   8.25872492
_cell_length_c   8.25586698
_cell_angle_alpha   109.39415908
_cell_angle_beta   109.68862476
_cell_angle_gamma   109.38670795
_symmetry_Int_Tables_number   1
_chemical_formula_structural   HoTm4Al2Ru3
_chemical_formula_sum   'Ho2 Tm8 Al4 Ru6'
_cell_volume   433.18856822
_cell_formula_units_Z   2
loop_
 _symmetry_equiv_pos_site_id
 _symmetry_equiv_pos_as_xyz
  1  'x, y, z'
loop_
 _atom_site_type_symbol
 _atom_site_label
 _atom_site_symmetry_multiplicity
 _atom_site_fract_x
 _atom_site_fract_y
 _atom_site_fract_z
 _atom_site_occupancy
  Ho  Ho0  1  0.931044  0.250082  0.181267  1
  Ho  Ho1  1  0.180163  0.929251  0.250356  1
  Tm  Tm2  1  0.786591  0.786299  0.785855  1
  Tm  Tm3  1  0.321272  0.571156  0.750839  1
  Tm  Tm4  1  0.750560  0.321331  0.571382  1
  Tm  Tm5  1  0.569437  0.749643  0.319162  1
  Tm  Tm6  1  0.712777  0.500104  0.999518  1
  Tm  Tm7  1  0.000480  0.713975  0.501511  1
  Tm  Tm8  1  0.500291  0.999883  0.713377  1
  Tm  Tm9  1  0.250289  0.179724  0.928524  1
  Al  Al10  1  0.411274  0.410586  0.410193  1
  Al  Al11  1  0.089932  0.497950  0.998975  1
  Al  Al12  1  0.998704  0.089694  0.500020  1
  Al  Al13  1  0.499945  0.001571  0.090643  1
  Ru  Ru14  1  0.874517  0.124025  0.748450  1
  Ru  Ru15  1  0.747940  0.875016  0.123966  1
  Ru  Ru16  1  0.126209  0.749536  0.876713  1
  Ru  Ru17  1  0.250143  0.624057  0.374769  1
  Ru  Ru18  1  0.373676  0.250092  0.623943  1
  Ru  Ru19  1  0.624753  0.376027  0.250537  1
