# generated using pymatgen
data_Pr3SmGe4(BO5)4
_symmetry_space_group_name_H-M   'P 1'
_cell_length_a   10.16160469
_cell_length_b   7.69875896
_cell_length_c   5.02375028
_cell_angle_alpha   89.95259689
_cell_angle_beta   91.95051271
_cell_angle_gamma   90.05316579
_symmetry_Int_Tables_number   1
_chemical_formula_structural   Pr3SmGe4(BO5)4
_chemical_formula_sum   'Pr3 Sm1 Ge4 B4 O20'
_cell_volume   392.78874331
_cell_formula_units_Z   1
loop_
 _symmetry_equiv_pos_site_id
 _symmetry_equiv_pos_as_xyz
  1  'x, y, z'
loop_
 _atom_site_type_symbol
 _atom_site_label
 _atom_site_symmetry_multiplicity
 _atom_site_fract_x
 _atom_site_fract_y
 _atom_site_fract_z
 _atom_site_occupancy
  Pr  Pr0  1  0.178900  0.391914  0.005980  1
  Pr  Pr1  1  0.681060  0.107253  0.008152  1
  Pr  Pr2  1  0.320156  0.891372  0.994196  1
  Sm  Sm3  1  0.821108  0.606889  0.992912  1
  Ge  Ge4  1  0.074194  0.734640  0.471468  1
  Ge  Ge5  1  0.577234  0.763752  0.470554  1
  Ge  Ge6  1  0.424614  0.235237  0.528636  1
  Ge  Ge7  1  0.923233  0.266131  0.529106  1
  B  B8  1  0.670719  0.406516  0.454494  1
  B  B9  1  0.168722  0.096601  0.457969  1
  B  B10  1  0.330529  0.596409  0.542390  1
  B  B11  1  0.830768  0.900136  0.544784  1
  O  O12  1  0.024524  0.591575  0.220578  1
  O  O13  1  0.528520  0.911213  0.224752  1
  O  O14  1  0.811406  0.890315  0.266958  1
  O  O15  1  0.309953  0.604231  0.264935  1
  O  O16  1  0.295654  0.159456  0.300051  1
  O  O17  1  0.796694  0.342311  0.295997  1
  O  O18  1  0.148810  0.921969  0.332747  1
  O  O19  1  0.651526  0.579442  0.323504  1
  O  O20  1  0.565385  0.286900  0.341940  1
  O  O21  1  0.063919  0.215165  0.342039  1
  O  O22  1  0.436294  0.713423  0.658144  1
  O  O23  1  0.935669  0.784301  0.666160  1
  O  O24  1  0.349655  0.421588  0.667625  1
  O  O25  1  0.848447  0.077618  0.664812  1
  O  O26  1  0.203865  0.659243  0.699089  1
  O  O27  1  0.705243  0.835983  0.704055  1
  O  O28  1  0.188823  0.104394  0.735189  1
  O  O29  1  0.691810  0.402316  0.732115  1
  O  O30  1  0.472857  0.090789  0.778714  1
  O  O31  1  0.969711  0.410917  0.779963  1
