# generated using pymatgen
data_Ho3Er(Lu3Ru2)2
_symmetry_space_group_name_H-M   'P 1'
_cell_length_a   6.23345171
_cell_length_b   7.23561526
_cell_length_c   8.33345987
_cell_angle_alpha   97.09918745
_cell_angle_beta   111.95434712
_cell_angle_gamma   89.94703608
_symmetry_Int_Tables_number   1
_chemical_formula_structural   Ho3Er(Lu3Ru2)2
_chemical_formula_sum   'Ho3 Er1 Lu6 Ru4'
_cell_volume   345.51461254
_cell_formula_units_Z   1
loop_
 _symmetry_equiv_pos_site_id
 _symmetry_equiv_pos_as_xyz
  1  'x, y, z'
loop_
 _atom_site_type_symbol
 _atom_site_label
 _atom_site_symmetry_multiplicity
 _atom_site_fract_x
 _atom_site_fract_y
 _atom_site_fract_z
 _atom_site_occupancy
  Ho  Ho0  1  0.521473  0.083118  0.810860  1
  Ho  Ho1  1  0.477441  0.916879  0.188510  1
  Ho  Ho2  1  0.710809  0.417061  0.188152  1
  Er  Er3  1  0.290300  0.583423  0.811976  1
  Lu  Lu4  1  0.298852  0.314975  0.433854  1
  Lu  Lu5  1  0.701863  0.685592  0.566759  1
  Lu  Lu6  1  0.865362  0.185608  0.566238  1
  Lu  Lu7  1  0.135146  0.813859  0.433988  1
  Lu  Lu8  1  0.080188  0.250544  0.999706  1
  Lu  Lu9  1  0.919741  0.749524  0.999597  1
  Ru  Ru10  1  0.319327  0.576693  0.221293  1
  Ru  Ru11  1  0.678177  0.423389  0.778389  1
  Ru  Ru12  1  0.098318  0.922660  0.777982  1
  Ru  Ru13  1  0.903005  0.076676  0.222696  1
