# generated using pymatgen
data_SmTm5(P2Rh3)6
_symmetry_space_group_name_H-M   'P 1'
_cell_length_a   3.91120100
_cell_length_b   11.18293900
_cell_length_c   12.73386600
_cell_angle_alpha   90.00000000
_cell_angle_beta   90.00000000
_cell_angle_gamma   90.00000000
_symmetry_Int_Tables_number   1
_chemical_formula_structural   SmTm5(P2Rh3)6
_chemical_formula_sum   'Sm1 Tm5 P12 Rh18'
_cell_volume   556.96302750
_cell_formula_units_Z   1
loop_
 _symmetry_equiv_pos_site_id
 _symmetry_equiv_pos_as_xyz
  1  'x, y, z'
loop_
 _atom_site_type_symbol
 _atom_site_label
 _atom_site_symmetry_multiplicity
 _atom_site_fract_x
 _atom_site_fract_y
 _atom_site_fract_z
 _atom_site_occupancy
  Sm  Sm0  1  0.000000  0.500000  0.521320  1
  Tm  Tm1  1  0.500000  0.000000  0.478584  1
  Tm  Tm2  1  0.500000  0.814512  0.205053  1
  Tm  Tm3  1  0.500000  0.185488  0.205053  1
  Tm  Tm4  1  0.000000  0.685801  0.795068  1
  Tm  Tm5  1  0.000000  0.314199  0.795068  1
  P  P6  1  0.500000  0.500000  0.877904  1
  P  P7  1  0.000000  0.000000  0.123421  1
  P  P8  1  0.500000  0.500000  0.349806  1
  P  P9  1  0.000000  0.000000  0.646832  1
  P  P10  1  0.500000  0.314787  0.620361  1
  P  P11  1  0.500000  0.685213  0.620361  1
  P  P12  1  0.000000  0.183987  0.381270  1
  P  P13  1  0.000000  0.816013  0.381270  1
  P  P14  1  0.500000  0.846893  0.892454  1
  P  P15  1  0.500000  0.153107  0.892454  1
  P  P16  1  0.000000  0.654391  0.107139  1
  P  P17  1  0.000000  0.345609  0.107139  1
  Rh  Rh18  1  0.500000  0.500000  0.168183  1
  Rh  Rh19  1  0.000000  0.000000  0.829647  1
  Rh  Rh20  1  0.500000  0.500000  0.702730  1
  Rh  Rh21  1  0.000000  0.000000  0.300164  1
  Rh  Rh22  1  0.000000  0.500000  0.978376  1
  Rh  Rh23  1  0.500000  0.000000  0.023569  1
  Rh  Rh24  1  0.500000  0.333603  0.992840  1
  Rh  Rh25  1  0.500000  0.666397  0.992840  1
  Rh  Rh26  1  0.000000  0.165413  0.006326  1
  Rh  Rh27  1  0.000000  0.834587  0.006326  1
  Rh  Rh28  1  0.500000  0.291232  0.430643  1
  Rh  Rh29  1  0.500000  0.708768  0.430643  1
  Rh  Rh30  1  0.000000  0.202331  0.569163  1
  Rh  Rh31  1  0.000000  0.797669  0.569163  1
  Rh  Rh32  1  0.500000  0.872442  0.711396  1
  Rh  Rh33  1  0.500000  0.127558  0.711396  1
  Rh  Rh34  1  0.000000  0.628561  0.288019  1
  Rh  Rh35  1  0.000000  0.371439  0.288019  1
