# generated using pymatgen
data_Rb5CaEu2Cl12
_symmetry_space_group_name_H-M   'P 1'
_cell_length_a   4.32044300
_cell_length_b   13.64963059
_cell_length_c   13.64963000
_cell_angle_alpha   120.12853168
_cell_angle_beta   90.00000000
_cell_angle_gamma   90.00000000
_symmetry_Int_Tables_number   1
_chemical_formula_structural   Rb5CaEu2Cl12
_chemical_formula_sum   'Rb5 Ca1 Eu2 Cl12'
_cell_volume   696.20437002
_cell_formula_units_Z   1
loop_
 _symmetry_equiv_pos_site_id
 _symmetry_equiv_pos_as_xyz
  1  'x, y, z'
loop_
 _atom_site_type_symbol
 _atom_site_label
 _atom_site_symmetry_multiplicity
 _atom_site_fract_x
 _atom_site_fract_y
 _atom_site_fract_z
 _atom_site_occupancy
  Rb  Rb0  1  0.000000  0.667180  0.340314  1
  Rb  Rb1  1  0.000000  0.340314  0.667180  1
  Rb  Rb2  1  0.000000  0.292821  0.292821  1
  Rb  Rb3  1  0.000000  0.991274  0.712471  1
  Rb  Rb4  1  0.000000  0.712471  0.991274  1
  Ca  Ca5  1  0.500000  0.666563  0.666563  1
  Eu  Eu6  1  0.500000  0.998657  0.332865  1
  Eu  Eu7  1  0.500000  0.332865  0.998657  1
  Cl  Cl8  1  0.000000  0.801082  0.801082  1
  Cl  Cl9  1  0.000000  0.000507  0.198168  1
  Cl  Cl10  1  0.000000  0.198168  0.000507  1
  Cl  Cl11  1  0.000000  0.535608  0.535608  1
  Cl  Cl12  1  0.000000  0.002399  0.466792  1
  Cl  Cl13  1  0.000000  0.466792  0.002399  1
  Cl  Cl14  1  0.500000  0.766125  0.207926  1
  Cl  Cl15  1  0.500000  0.441140  0.231713  1
  Cl  Cl16  1  0.500000  0.556185  0.790211  1
  Cl  Cl17  1  0.500000  0.790211  0.556185  1
  Cl  Cl18  1  0.500000  0.207926  0.766125  1
  Cl  Cl19  1  0.500000  0.231713  0.441140  1
