# generated using pymatgen
data_LaNd5Th2(CdIr)2
_symmetry_space_group_name_H-M   'P 1'
_cell_length_a   9.99686161
_cell_length_b   10.02595816
_cell_length_c   10.02595910
_cell_angle_alpha   59.80808497
_cell_angle_beta   60.09595608
_cell_angle_gamma   60.09595661
_symmetry_Int_Tables_number   1
_chemical_formula_structural   LaNd5Th2(CdIr)2
_chemical_formula_sum   'La2 Nd10 Th4 Cd4 Ir4'
_cell_volume   710.54763182
_cell_formula_units_Z   2
loop_
 _symmetry_equiv_pos_site_id
 _symmetry_equiv_pos_as_xyz
  1  'x, y, z'
loop_
 _atom_site_type_symbol
 _atom_site_label
 _atom_site_symmetry_multiplicity
 _atom_site_fract_x
 _atom_site_fract_y
 _atom_site_fract_z
 _atom_site_occupancy
  La  La0  1  0.810101  0.189899  0.189899  1
  La  La1  1  0.189899  0.810101  0.810101  1
  Nd  Nd2  1  0.192756  0.807244  0.192756  1
  Nd  Nd3  1  0.807244  0.192756  0.807244  1
  Nd  Nd4  1  0.192756  0.192756  0.807244  1
  Nd  Nd5  1  0.807244  0.807244  0.192756  1
  Nd  Nd6  1  0.936973  0.563027  0.563027  1
  Nd  Nd7  1  0.563027  0.936973  0.936973  1
  Nd  Nd8  1  0.562299  0.937701  0.562299  1
  Nd  Nd9  1  0.937701  0.562299  0.937701  1
  Nd  Nd10  1  0.562299  0.562299  0.937701  1
  Nd  Nd11  1  0.937701  0.937701  0.562299  1
  Th  Th12  1  0.344989  0.347257  0.347257  1
  Th  Th13  1  0.347257  0.344989  0.960497  1
  Th  Th14  1  0.347257  0.960497  0.344989  1
  Th  Th15  1  0.960497  0.347257  0.347257  1
  Cd  Cd16  1  0.581384  0.579837  0.579837  1
  Cd  Cd17  1  0.579837  0.581384  0.258940  1
  Cd  Cd18  1  0.579837  0.258940  0.581384  1
  Cd  Cd19  1  0.258940  0.579837  0.579837  1
  Ir  Ir20  1  0.143843  0.146264  0.146264  1
  Ir  Ir21  1  0.146264  0.143843  0.563626  1
  Ir  Ir22  1  0.146264  0.563626  0.143843  1
  Ir  Ir23  1  0.563626  0.146264  0.146264  1
