# generated using pymatgen
data_Yb3Lu(Ga8Pt3)3
_symmetry_space_group_name_H-M   'P 1'
_cell_length_a   7.46947257
_cell_length_b   7.58522290
_cell_length_c   13.42611116
_cell_angle_alpha   84.58272912
_cell_angle_beta   79.31302089
_cell_angle_gamma   60.57543257
_symmetry_Int_Tables_number   1
_chemical_formula_structural   Yb3Lu(Ga8Pt3)3
_chemical_formula_sum   'Yb3 Lu1 Ga24 Pt9'
_cell_volume   651.06763916
_cell_formula_units_Z   1
loop_
 _symmetry_equiv_pos_site_id
 _symmetry_equiv_pos_as_xyz
  1  'x, y, z'
loop_
 _atom_site_type_symbol
 _atom_site_label
 _atom_site_symmetry_multiplicity
 _atom_site_fract_x
 _atom_site_fract_y
 _atom_site_fract_z
 _atom_site_occupancy
  Yb  Yb0  1  0.398027  0.168820  0.808182  1
  Yb  Yb1  1  0.601328  0.830825  0.191998  1
  Yb  Yb2  1  0.734583  0.498281  0.809163  1
  Lu  Lu3  1  0.264672  0.503396  0.191628  1
  Ga  Ga4  1  0.687522  0.833226  0.939567  1
  Ga  Ga5  1  0.314207  0.166071  0.060484  1
  Ga  Ga6  1  0.145301  0.832522  0.559134  1
  Ga  Ga7  1  0.855393  0.167170  0.440310  1
  Ga  Ga8  1  0.478010  0.165547  0.555985  1
  Ga  Ga9  1  0.522783  0.833940  0.443372  1
  Ga  Ga10  1  0.222218  0.164520  0.321322  1
  Ga  Ga11  1  0.778297  0.835251  0.677997  1
  Ga  Ga12  1  0.436781  0.504556  0.676251  1
  Ga  Ga13  1  0.563580  0.495936  0.323421  1
  Ga  Ga14  1  0.107464  0.161776  0.675287  1
  Ga  Ga15  1  0.892367  0.838359  0.323091  1
  Ga  Ga16  1  0.360039  0.496329  0.939968  1
  Ga  Ga17  1  0.639707  0.502897  0.059774  1
  Ga  Ga18  1  0.021115  0.168868  0.945570  1
  Ga  Ga19  1  0.977815  0.829911  0.056512  1
  Ga  Ga20  1  0.187864  0.499391  0.444066  1
  Ga  Ga21  1  0.811969  0.500880  0.555694  1
  Ga  Ga22  1  0.729434  0.168453  0.181726  1
  Ga  Ga23  1  0.268547  0.835094  0.818838  1
  Ga  Ga24  1  0.062555  0.629127  0.817733  1
  Ga  Ga25  1  0.939482  0.369580  0.182739  1
  Ga  Ga26  1  0.856826  0.040639  0.816590  1
  Ga  Ga27  1  0.141281  0.959564  0.183700  1
  Pt  Pt28  1  0.115657  0.494510  0.639897  1
  Pt  Pt29  1  0.885362  0.505575  0.359433  1
  Pt  Pt30  1  0.661488  0.168364  0.999250  1
  Pt  Pt31  1  0.338313  0.830683  0.002488  1
  Pt  Pt32  1  0.540601  0.167577  0.359958  1
  Pt  Pt33  1  0.459116  0.832818  0.639101  1
  Pt  Pt34  1  0.777876  0.173829  0.636690  1
  Pt  Pt35  1  0.222435  0.825987  0.362198  1
  Pt  Pt36  1  0.999985  0.499730  0.000885  1
