# generated using pymatgen
data_Eu2MnZnF10
_symmetry_space_group_name_H-M   'P 1'
_cell_length_a   5.74005102
_cell_length_b   5.71005324
_cell_length_c   7.85616900
_cell_angle_alpha   70.32693979
_cell_angle_beta   69.60445508
_cell_angle_gamma   72.25979622
_symmetry_Int_Tables_number   1
_chemical_formula_structural   Eu2MnZnF10
_chemical_formula_sum   'Eu2 Mn1 Zn1 F10'
_cell_volume   222.08258871
_cell_formula_units_Z   1
loop_
 _symmetry_equiv_pos_site_id
 _symmetry_equiv_pos_as_xyz
  1  'x, y, z'
loop_
 _atom_site_type_symbol
 _atom_site_label
 _atom_site_symmetry_multiplicity
 _atom_site_fract_x
 _atom_site_fract_y
 _atom_site_fract_z
 _atom_site_occupancy
  Eu  Eu0  1  0.551687  0.451868  0.745610  1
  Eu  Eu1  1  0.448313  0.548132  0.254390  1
  Mn  Mn2  1  0.000000  0.000000  0.000000  1
  Zn  Zn3  1  0.000000  0.000000  0.500000  1
  F  F4  1  0.094414  0.906297  0.246618  1
  F  F5  1  0.905586  0.093703  0.753382  1
  F  F6  1  0.213837  0.257680  0.377893  1
  F  F7  1  0.750686  0.792110  0.117667  1
  F  F8  1  0.705922  0.316789  0.031040  1
  F  F9  1  0.685277  0.296638  0.467165  1
  F  F10  1  0.294078  0.683211  0.968960  1
  F  F11  1  0.314723  0.703362  0.532835  1
  F  F12  1  0.249314  0.207890  0.882333  1
  F  F13  1  0.786163  0.742320  0.622107  1
