# generated using pymatgen
data_HoTmAs4O9
_symmetry_space_group_name_H-M   'P 1'
_cell_length_a   6.69337931
_cell_length_b   7.49936274
_cell_length_c   9.79145441
_cell_angle_alpha   94.70601679
_cell_angle_beta   104.08688686
_cell_angle_gamma   104.79474502
_symmetry_Int_Tables_number   1
_chemical_formula_structural   HoTmAs4O9
_chemical_formula_sum   'Ho2 Tm2 As8 O18'
_cell_volume   455.42651436
_cell_formula_units_Z   2
loop_
 _symmetry_equiv_pos_site_id
 _symmetry_equiv_pos_as_xyz
  1  'x, y, z'
loop_
 _atom_site_type_symbol
 _atom_site_label
 _atom_site_symmetry_multiplicity
 _atom_site_fract_x
 _atom_site_fract_y
 _atom_site_fract_z
 _atom_site_occupancy
  Ho  Ho0  1  0.242467  0.939377  0.614867  1
  Ho  Ho1  1  0.757533  0.060623  0.385133  1
  Tm  Tm2  1  0.721220  0.528567  0.410257  1
  Tm  Tm3  1  0.278780  0.471433  0.589743  1
  As  As4  1  0.683341  0.773275  0.079752  1
  As  As5  1  0.316659  0.226725  0.920248  1
  As  As6  1  0.169595  0.751469  0.912252  1
  As  As7  1  0.830405  0.248531  0.087748  1
  As  As8  1  0.742744  0.914241  0.709647  1
  As  As9  1  0.257256  0.085759  0.290353  1
  As  As10  1  0.809805  0.351986  0.701393  1
  As  As11  1  0.190195  0.648014  0.298607  1
  O  O12  1  0.722930  0.746943  0.260779  1
  O  O13  1  0.277070  0.253057  0.739221  1
  O  O14  1  0.315693  0.978601  0.868370  1
  O  O15  1  0.684307  0.021399  0.131630  1
  O  O16  1  0.608584  0.326583  0.985275  1
  O  O17  1  0.391416  0.673417  0.014725  1
  O  O18  1  0.125841  0.643725  0.737285  1
  O  O19  1  0.874159  0.356275  0.262715  1
  O  O20  1  0.847416  0.875298  0.559221  1
  O  O21  1  0.152584  0.124702  0.440779  1
  O  O22  1  0.480135  0.765865  0.665668  1
  O  O23  1  0.519865  0.234135  0.334332  1
  O  O24  1  0.373533  0.532120  0.381318  1
  O  O25  1  0.626467  0.467880  0.618682  1
  O  O26  1  0.088090  0.668580  0.454300  1
  O  O27  1  0.911910  0.331420  0.545700  1
  O  O28  1  0.379188  0.899662  0.359018  1
  O  O29  1  0.620812  0.100338  0.640982  1
