# generated using pymatgen
data_Mg2Ti(AsPd)3
_symmetry_space_group_name_H-M   'P 1'
_cell_length_a   6.89814175
_cell_length_b   6.89814238
_cell_length_c   3.69145600
_cell_angle_alpha   90.00000000
_cell_angle_beta   90.00000000
_cell_angle_gamma   120.08163147
_symmetry_Int_Tables_number   1
_chemical_formula_structural   Mg2Ti(AsPd)3
_chemical_formula_sum   'Mg2 Ti1 As3 Pd3'
_cell_volume   151.99691363
_cell_formula_units_Z   1
loop_
 _symmetry_equiv_pos_site_id
 _symmetry_equiv_pos_as_xyz
  1  'x, y, z'
loop_
 _atom_site_type_symbol
 _atom_site_label
 _atom_site_symmetry_multiplicity
 _atom_site_fract_x
 _atom_site_fract_y
 _atom_site_fract_z
 _atom_site_occupancy
  Mg  Mg0  1  0.594439  0.992198  0.000000  1
  Mg  Mg1  1  0.992198  0.594439  0.000000  1
  Ti  Ti2  1  0.402582  0.402582  0.000000  1
  As  As3  1  0.341937  0.640175  0.500000  1
  As  As4  1  0.640175  0.341937  0.500000  1
  As  As5  1  0.027960  0.027960  0.000000  1
  Pd  Pd6  1  0.263766  0.966778  0.500000  1
  Pd  Pd7  1  0.966778  0.263766  0.500000  1
  Pd  Pd8  1  0.770164  0.770164  0.500000  1
