# generated using pymatgen
data_Rb(HfS2)8
_symmetry_space_group_name_H-M   'P 1'
_cell_length_a   7.21295700
_cell_length_b   7.21295662
_cell_length_c   15.72055800
_cell_angle_alpha   90.00000000
_cell_angle_beta   90.00000000
_cell_angle_gamma   119.99997882
_symmetry_Int_Tables_number   1
_chemical_formula_structural   Rb(HfS2)8
_chemical_formula_sum   'Rb1 Hf8 S16'
_cell_volume   708.31321559
_cell_formula_units_Z   1
loop_
 _symmetry_equiv_pos_site_id
 _symmetry_equiv_pos_as_xyz
  1  'x, y, z'
loop_
 _atom_site_type_symbol
 _atom_site_label
 _atom_site_symmetry_multiplicity
 _atom_site_fract_x
 _atom_site_fract_y
 _atom_site_fract_z
 _atom_site_occupancy
  Rb  Rb0  1  0.000000  0.000000  0.000000  1
  Hf  Hf1  1  0.500707  0.499293  0.735557  1
  Hf  Hf2  1  0.499293  0.500707  0.264443  1
  Hf  Hf3  1  0.500707  0.001414  0.735557  1
  Hf  Hf4  1  0.499293  0.998586  0.264443  1
  Hf  Hf5  1  0.998586  0.499293  0.735557  1
  Hf  Hf6  1  0.001414  0.500707  0.264443  1
  Hf  Hf7  1  0.000000  0.000000  0.733831  1
  Hf  Hf8  1  0.000000  0.000000  0.266169  1
  S  S9  1  0.833365  0.666733  0.169966  1
  S  S10  1  0.833085  0.666170  0.642381  1
  S  S11  1  0.833365  0.166635  0.169966  1
  S  S12  1  0.833085  0.166915  0.642381  1
  S  S13  1  0.333333  0.666667  0.169623  1
  S  S14  1  0.333333  0.666667  0.643830  1
  S  S15  1  0.333267  0.166635  0.169966  1
  S  S16  1  0.333830  0.166915  0.642381  1
  S  S17  1  0.666733  0.833365  0.830034  1
  S  S18  1  0.666170  0.833085  0.357619  1
  S  S19  1  0.666667  0.333333  0.830377  1
  S  S20  1  0.666667  0.333333  0.356170  1
  S  S21  1  0.166635  0.833365  0.830034  1
  S  S22  1  0.166915  0.833085  0.357619  1
  S  S23  1  0.166635  0.333267  0.830034  1
  S  S24  1  0.166915  0.333830  0.357619  1
