# generated using pymatgen
data_Ba2BiSb3Au4
_symmetry_space_group_name_H-M   'P 1'
_cell_length_a   4.88782300
_cell_length_b   4.98949819
_cell_length_c   11.55186601
_cell_angle_alpha   88.72846222
_cell_angle_beta   90.00000000
_cell_angle_gamma   90.00000000
_symmetry_Int_Tables_number   1
_chemical_formula_structural   Ba2BiSb3Au4
_chemical_formula_sum   'Ba2 Bi1 Sb3 Au4'
_cell_volume   281.65503990
_cell_formula_units_Z   1
loop_
 _symmetry_equiv_pos_site_id
 _symmetry_equiv_pos_as_xyz
  1  'x, y, z'
loop_
 _atom_site_type_symbol
 _atom_site_label
 _atom_site_symmetry_multiplicity
 _atom_site_fract_x
 _atom_site_fract_y
 _atom_site_fract_z
 _atom_site_occupancy
  Ba  Ba0  1  0.250000  0.736194  0.761911  1
  Ba  Ba1  1  0.750000  0.263530  0.238655  1
  Bi  Bi2  1  0.750000  0.752967  0.500319  1
  Sb  Sb3  1  0.250000  0.249721  0.500679  1
  Sb  Sb4  1  0.250000  0.804256  0.120419  1
  Sb  Sb5  1  0.750000  0.196884  0.879260  1
  Au  Au6  1  0.750000  0.690863  0.001060  1
  Au  Au7  1  0.750000  0.248090  0.642523  1
  Au  Au8  1  0.250000  0.749149  0.356335  1
  Au  Au9  1  0.250000  0.308347  0.998840  1
