# generated using pymatgen
data_CaCeNiRh3
_symmetry_space_group_name_H-M   'P 1'
_cell_length_a   5.40624955
_cell_length_b   5.40625001
_cell_length_c   5.19353429
_cell_angle_alpha   58.63561989
_cell_angle_beta   58.63561650
_cell_angle_gamma   60.00000023
_symmetry_Int_Tables_number   1
_chemical_formula_structural   CaCeNiRh3
_chemical_formula_sum   'Ca1 Ce1 Ni1 Rh3'
_cell_volume   105.06766302
_cell_formula_units_Z   1
loop_
 _symmetry_equiv_pos_site_id
 _symmetry_equiv_pos_as_xyz
  1  'x, y, z'
loop_
 _atom_site_type_symbol
 _atom_site_label
 _atom_site_symmetry_multiplicity
 _atom_site_fract_x
 _atom_site_fract_y
 _atom_site_fract_z
 _atom_site_occupancy
  Ca  Ca0  1  0.750794  0.750794  0.747618  1
  Ce  Ce1  1  0.495037  0.495037  0.514887  1
  Ni  Ni2  1  0.125608  0.125608  0.623176  1
  Rh  Rh3  1  0.125628  0.627304  0.121439  1
  Rh  Rh4  1  0.125628  0.125628  0.121439  1
  Rh  Rh5  1  0.627304  0.125628  0.121439  1
