# generated using pymatgen
data_Tb2DyHo5(SiBr6)2
_symmetry_space_group_name_H-M   'P 1'
_cell_length_a   4.05108600
_cell_length_b   13.21241540
_cell_length_c   13.99541720
_cell_angle_alpha   90.11025693
_cell_angle_beta   90.00000000
_cell_angle_gamma   90.00000000
_symmetry_Int_Tables_number   1
_chemical_formula_structural   Tb2DyHo5(SiBr6)2
_chemical_formula_sum   'Tb2 Dy1 Ho5 Si2 Br12'
_cell_volume   749.09815492
_cell_formula_units_Z   1
loop_
 _symmetry_equiv_pos_site_id
 _symmetry_equiv_pos_as_xyz
  1  'x, y, z'
loop_
 _atom_site_type_symbol
 _atom_site_label
 _atom_site_symmetry_multiplicity
 _atom_site_fract_x
 _atom_site_fract_y
 _atom_site_fract_z
 _atom_site_occupancy
  Tb  Tb0  1  0.000000  0.618706  0.921168  1
  Tb  Tb1  1  0.000000  0.381297  0.078834  1
  Dy  Dy2  1  0.000000  0.117727  0.578208  1
  Ho  Ho3  1  0.500000  0.117743  0.341520  1
  Ho  Ho4  1  0.500000  0.882230  0.658468  1
  Ho  Ho5  1  0.500000  0.617978  0.158646  1
  Ho  Ho6  1  0.500000  0.382014  0.841337  1
  Ho  Ho7  1  0.000000  0.882418  0.421896  1
  Si  Si8  1  0.500000  0.999668  0.499773  1
  Si  Si9  1  0.500000  0.500001  0.000001  1
  Br  Br10  1  0.500000  0.242246  0.164196  1
  Br  Br11  1  0.500000  0.757748  0.835800  1
  Br  Br12  1  0.500000  0.744812  0.337346  1
  Br  Br13  1  0.500000  0.255494  0.662852  1
  Br  Br14  1  0.000000  0.254924  0.411071  1
  Br  Br15  1  0.000000  0.745161  0.588721  1
  Br  Br16  1  0.000000  0.755485  0.090216  1
  Br  Br17  1  0.000000  0.244518  0.909791  1
  Br  Br18  1  0.000000  0.001898  0.243518  1
  Br  Br19  1  0.000000  0.997924  0.756632  1
  Br  Br20  1  0.000000  0.503425  0.257658  1
  Br  Br21  1  0.000000  0.496584  0.742348  1
