# generated using pymatgen
data_Nb13Co8Re3N4
_symmetry_space_group_name_H-M   'P 1'
_cell_length_a   8.18527008
_cell_length_b   8.13263021
_cell_length_c   8.18629507
_cell_angle_alpha   59.78499908
_cell_angle_beta   60.00530046
_cell_angle_gamma   59.78612683
_symmetry_Int_Tables_number   1
_chemical_formula_structural   Nb13Co8Re3N4
_chemical_formula_sum   'Nb13 Co8 Re3 N4'
_cell_volume   384.09481450
_cell_formula_units_Z   1
loop_
 _symmetry_equiv_pos_site_id
 _symmetry_equiv_pos_as_xyz
  1  'x, y, z'
loop_
 _atom_site_type_symbol
 _atom_site_label
 _atom_site_symmetry_multiplicity
 _atom_site_fract_x
 _atom_site_fract_y
 _atom_site_fract_z
 _atom_site_occupancy
  Nb  Nb0  1  0.625000  0.125000  0.625000  1
  Nb  Nb1  1  0.807560  0.807239  0.192652  1
  Nb  Nb2  1  0.185791  0.191892  0.811165  1
  Nb  Nb3  1  0.811148  0.191904  0.811165  1
  Nb  Nb4  1  0.192555  0.807235  0.192647  1
  Nb  Nb5  1  0.192622  0.807210  0.807553  1
  Nb  Nb6  1  0.811176  0.191835  0.185816  1
  Nb  Nb7  1  0.442440  0.442761  0.057348  1
  Nb  Nb8  1  0.064209  0.058108  0.438835  1
  Nb  Nb9  1  0.438852  0.058096  0.438835  1
  Nb  Nb10  1  0.057445  0.442765  0.057353  1
  Nb  Nb11  1  0.057378  0.442790  0.442447  1
  Nb  Nb12  1  0.438824  0.058165  0.064184  1
  Co  Co13  1  0.734534  0.426668  0.419410  1
  Co  Co14  1  0.424111  0.727628  0.424148  1
  Co  Co15  1  0.419393  0.426623  0.734594  1
  Co  Co16  1  0.419392  0.426662  0.419410  1
  Co  Co17  1  0.515466  0.823332  0.830590  1
  Co  Co18  1  0.825889  0.522372  0.825852  1
  Co  Co19  1  0.830607  0.823377  0.515406  1
  Co  Co20  1  0.830608  0.823338  0.830590  1
  Re  Re21  1  0.125000  0.625000  0.625000  1
  Re  Re22  1  0.625000  0.625000  0.125000  1
  Re  Re23  1  0.625000  0.625000  0.625000  1
  N  N24  1  0.625000  0.125000  0.125000  1
  N  N25  1  0.125000  0.625000  0.125000  1
  N  N26  1  0.125000  0.125000  0.625000  1
  N  N27  1  0.125000  0.125000  0.125000  1
