# generated using pymatgen
data_Zr2GaCo2
_symmetry_space_group_name_H-M   'P 1'
_cell_length_a   4.02897490
_cell_length_b   5.25057664
_cell_length_c   5.04610721
_cell_angle_alpha   121.34970592
_cell_angle_beta   113.52919054
_cell_angle_gamma   89.99999086
_symmetry_Int_Tables_number   1
_chemical_formula_structural   Zr2GaCo2
_chemical_formula_sum   'Zr2 Ga1 Co2'
_cell_volume   80.58953085
_cell_formula_units_Z   1
loop_
 _symmetry_equiv_pos_site_id
 _symmetry_equiv_pos_as_xyz
  1  'x, y, z'
loop_
 _atom_site_type_symbol
 _atom_site_label
 _atom_site_symmetry_multiplicity
 _atom_site_fract_x
 _atom_site_fract_y
 _atom_site_fract_z
 _atom_site_occupancy
  Zr  Zr0  1  0.795732  0.295732  0.591464  1
  Zr  Zr1  1  0.204268  0.704268  0.408536  1
  Ga  Ga2  1  0.000000  0.000000  0.000000  1
  Co  Co3  1  0.500000  0.272431  0.000000  1
  Co  Co4  1  0.500000  0.727569  0.000000  1
