# generated using pymatgen
data_TbZnInRh2
_symmetry_space_group_name_H-M   'P 1'
_cell_length_a   5.38727797
_cell_length_b   5.38727770
_cell_length_c   5.38727783
_cell_angle_alpha   136.57326291
_cell_angle_beta   114.56817129
_cell_angle_gamma   81.83469128
_symmetry_Int_Tables_number   1
_chemical_formula_structural   TbZnInRh2
_chemical_formula_sum   'Tb1 Zn1 In1 Rh2'
_cell_volume   94.49863956
_cell_formula_units_Z   1
loop_
 _symmetry_equiv_pos_site_id
 _symmetry_equiv_pos_as_xyz
  1  'x, y, z'
loop_
 _atom_site_type_symbol
 _atom_site_label
 _atom_site_symmetry_multiplicity
 _atom_site_fract_x
 _atom_site_fract_y
 _atom_site_fract_z
 _atom_site_occupancy
  Tb  Tb0  1  0.302376  0.802377  0.500001  1
  Zn  Zn1  1  0.981769  0.981769  0.000000  1
  In  In2  1  0.704047  0.204047  0.500000  1
  Rh  Rh3  1  0.741416  0.505903  0.235512  1
  Rh  Rh4  1  0.270390  0.505905  0.764488  1
