# generated using pymatgen
data_Dy2CdSi2
_symmetry_space_group_name_H-M   'P 1'
_cell_length_a   7.16775100
_cell_length_b   7.16775100
_cell_length_c   4.19940900
_cell_angle_alpha   90.00000000
_cell_angle_beta   90.00000000
_cell_angle_gamma   90.00000000
_symmetry_Int_Tables_number   1
_chemical_formula_structural   Dy2CdSi2
_chemical_formula_sum   'Dy4 Cd2 Si4'
_cell_volume   215.75158487
_cell_formula_units_Z   2
loop_
 _symmetry_equiv_pos_site_id
 _symmetry_equiv_pos_as_xyz
  1  'x, y, z'
loop_
 _atom_site_type_symbol
 _atom_site_label
 _atom_site_symmetry_multiplicity
 _atom_site_fract_x
 _atom_site_fract_y
 _atom_site_fract_z
 _atom_site_occupancy
  Dy  Dy0  1  0.678060  0.178060  0.500000  1
  Dy  Dy1  1  0.321940  0.821940  0.500000  1
  Dy  Dy2  1  0.178060  0.321940  0.500000  1
  Dy  Dy3  1  0.821940  0.678060  0.500000  1
  Cd  Cd4  1  0.500000  0.500000  0.000000  1
  Cd  Cd5  1  0.000000  0.000000  0.000000  1
  Si  Si6  1  0.116862  0.616862  0.000000  1
  Si  Si7  1  0.883138  0.383138  0.000000  1
  Si  Si8  1  0.616862  0.883138  0.000000  1
  Si  Si9  1  0.383138  0.116862  0.000000  1
