# generated using pymatgen
data_Sr6Ca2FeRuO12
_symmetry_space_group_name_H-M   'P 1'
_cell_length_a   6.87059479
_cell_length_b   6.87059474
_cell_length_c   6.87059514
_cell_angle_alpha   91.48528146
_cell_angle_beta   91.48527693
_cell_angle_gamma   91.48528187
_symmetry_Int_Tables_number   1
_chemical_formula_structural   Sr6Ca2FeRuO12
_chemical_formula_sum   'Sr6 Ca2 Fe1 Ru1 O12'
_cell_volume   323.99427245
_cell_formula_units_Z   1
loop_
 _symmetry_equiv_pos_site_id
 _symmetry_equiv_pos_as_xyz
  1  'x, y, z'
loop_
 _atom_site_type_symbol
 _atom_site_label
 _atom_site_symmetry_multiplicity
 _atom_site_fract_x
 _atom_site_fract_y
 _atom_site_fract_z
 _atom_site_occupancy
  Sr  Sr0  1  0.758705  0.382624  0.109284  1
  Sr  Sr1  1  0.109284  0.758705  0.382624  1
  Sr  Sr2  1  0.382624  0.109284  0.758705  1
  Sr  Sr3  1  0.241295  0.617376  0.890716  1
  Sr  Sr4  1  0.890716  0.241295  0.617376  1
  Sr  Sr5  1  0.617376  0.890716  0.241295  1
  Ca  Ca6  1  0.245198  0.245198  0.245198  1
  Ca  Ca7  1  0.754802  0.754802  0.754802  1
  Fe  Fe8  1  0.000000  0.000000  0.000000  1
  Ru  Ru9  1  0.500000  0.500000  0.500000  1
  O  O10  1  0.452846  0.778126  0.576837  1
  O  O11  1  0.576837  0.452846  0.778126  1
  O  O12  1  0.778126  0.576837  0.452846  1
  O  O13  1  0.051933  0.913901  0.712513  1
  O  O14  1  0.712513  0.051933  0.913901  1
  O  O15  1  0.913901  0.712513  0.051933  1
  O  O16  1  0.547154  0.221874  0.423163  1
  O  O17  1  0.423163  0.547154  0.221874  1
  O  O18  1  0.221874  0.423163  0.547154  1
  O  O19  1  0.948067  0.086099  0.287487  1
  O  O20  1  0.086099  0.287487  0.948067  1
  O  O21  1  0.287487  0.948067  0.086099  1
