# generated using pymatgen
data_Pr19TmSi15Au
_symmetry_space_group_name_H-M   'P 1'
_cell_length_a   7.92726857
_cell_length_b   7.92674219
_cell_length_c   15.31842734
_cell_angle_alpha   90.00512137
_cell_angle_beta   89.62785648
_cell_angle_gamma   89.97220143
_symmetry_Int_Tables_number   1
_chemical_formula_structural   Pr19TmSi15Au
_chemical_formula_sum   'Pr19 Tm1 Si15 Au1'
_cell_volume   962.54994346
_cell_formula_units_Z   1
loop_
 _symmetry_equiv_pos_site_id
 _symmetry_equiv_pos_as_xyz
  1  'x, y, z'
loop_
 _atom_site_type_symbol
 _atom_site_label
 _atom_site_symmetry_multiplicity
 _atom_site_fract_x
 _atom_site_fract_y
 _atom_site_fract_z
 _atom_site_occupancy
  Pr  Pr0  1  0.192081  0.808311  0.249376  1
  Pr  Pr1  1  0.805247  0.186107  0.751203  1
  Pr  Pr2  1  0.693518  0.688920  0.498285  1
  Pr  Pr3  1  0.374477  0.011331  0.447457  1
  Pr  Pr4  1  0.491032  0.870637  0.700124  1
  Pr  Pr5  1  0.509461  0.123734  0.196393  1
  Pr  Pr6  1  0.878091  0.488822  0.300460  1
  Pr  Pr7  1  0.121636  0.515738  0.803343  1
  Pr  Pr8  1  0.626452  0.987882  0.950462  1
  Pr  Pr9  1  0.002644  0.379771  0.549043  1
  Pr  Pr10  1  0.989319  0.625533  0.052255  1
  Pr  Pr11  1  0.132711  0.983588  0.878657  1
  Pr  Pr12  1  0.517985  0.630413  0.125558  1
  Pr  Pr13  1  0.479833  0.372602  0.627685  1
  Pr  Pr14  1  0.628910  0.518849  0.875780  1
  Pr  Pr15  1  0.372840  0.482133  0.371720  1
  Pr  Pr16  1  0.872307  0.020412  0.375503  1
  Pr  Pr17  1  0.982218  0.127179  0.123576  1
  Pr  Pr18  1  0.015769  0.867539  0.622272  1
  Tm  Tm19  1  0.309636  0.309496  0.999471  1
  Si  Si20  1  0.330731  0.691246  0.953111  1
  Si  Si21  1  0.662403  0.303045  0.451665  1
  Si  Si22  1  0.694378  0.332511  0.048021  1
  Si  Si23  1  0.306003  0.669198  0.546757  1
  Si  Si24  1  0.805655  0.832039  0.202518  1
  Si  Si25  1  0.168364  0.196554  0.296940  1
  Si  Si26  1  0.834480  0.803755  0.798608  1
  Si  Si27  1  0.288395  0.926437  0.059242  1
  Si  Si28  1  0.579234  0.787540  0.309442  1
  Si  Si29  1  0.428657  0.211971  0.819470  1
  Si  Si30  1  0.785833  0.578297  0.691203  1
  Si  Si31  1  0.214458  0.419444  0.186214  1
  Si  Si32  1  0.706908  0.077304  0.559165  1
  Si  Si33  1  0.927297  0.290233  0.941883  1
  Si  Si34  1  0.079481  0.713258  0.439648  1
  Au  Au35  1  0.191555  0.168175  0.697492  1
