# generated using pymatgen
data_Ca4Nd4Zn3Si12Pd
_symmetry_space_group_name_H-M   'P 1'
_cell_length_a   8.15435000
_cell_length_b   8.22975860
_cell_length_c   8.60048904
_cell_angle_alpha   90.00998009
_cell_angle_beta   90.00000000
_cell_angle_gamma   119.69735318
_symmetry_Int_Tables_number   1
_chemical_formula_structural   Ca4Nd4Zn3Si12Pd
_chemical_formula_sum   'Ca4 Nd4 Zn3 Si12 Pd1'
_cell_volume   501.35645135
_cell_formula_units_Z   1
loop_
 _symmetry_equiv_pos_site_id
 _symmetry_equiv_pos_as_xyz
  1  'x, y, z'
loop_
 _atom_site_type_symbol
 _atom_site_label
 _atom_site_symmetry_multiplicity
 _atom_site_fract_x
 _atom_site_fract_y
 _atom_site_fract_z
 _atom_site_occupancy
  Ca  Ca0  1  0.500072  0.499835  0.747892  1
  Ca  Ca1  1  0.501069  0.498842  0.252071  1
  Ca  Ca2  1  0.999763  0.499835  0.747892  1
  Ca  Ca3  1  0.997773  0.498842  0.252071  1
  Nd  Nd4  1  0.499366  0.998731  0.748952  1
  Nd  Nd5  1  0.500105  0.000212  0.251089  1
  Nd  Nd6  1  0.000095  0.000189  0.748832  1
  Nd  Nd7  1  0.000116  0.000232  0.251478  1
  Zn  Zn8  1  0.667633  0.335266  0.996304  1
  Zn  Zn9  1  0.332261  0.664523  0.002979  1
  Zn  Zn10  1  0.332632  0.665264  0.497791  1
  Si  Si11  1  0.832087  0.164362  0.000771  1
  Si  Si12  1  0.167133  0.836022  0.999438  1
  Si  Si13  1  0.332275  0.164362  0.000771  1
  Si  Si14  1  0.164462  0.838676  0.499953  1
  Si  Si15  1  0.668891  0.836022  0.999438  1
  Si  Si16  1  0.831655  0.167242  0.500278  1
  Si  Si17  1  0.834463  0.668927  0.000812  1
  Si  Si18  1  0.674213  0.838676  0.499953  1
  Si  Si19  1  0.165007  0.330013  0.999397  1
  Si  Si20  1  0.335587  0.167242  0.500278  1
  Si  Si21  1  0.162861  0.325724  0.499926  1
  Si  Si22  1  0.832212  0.664424  0.500354  1
  Pd  Pd23  1  0.668269  0.336537  0.501278  1
