# generated using pymatgen
data_YbTm2LuAl24Pt8Au
_symmetry_space_group_name_H-M   'P 1'
_cell_length_a   7.53018987
_cell_length_b   7.55124248
_cell_length_c   13.16736578
_cell_angle_alpha   84.59183454
_cell_angle_beta   79.10428225
_cell_angle_gamma   59.95523839
_symmetry_Int_Tables_number   1
_chemical_formula_structural   YbTm2LuAl24Pt8Au
_chemical_formula_sum   'Yb1 Tm2 Lu1 Al24 Pt8 Au1'
_cell_volume   636.43967049
_cell_formula_units_Z   1
loop_
 _symmetry_equiv_pos_site_id
 _symmetry_equiv_pos_as_xyz
  1  'x, y, z'
loop_
 _atom_site_type_symbol
 _atom_site_label
 _atom_site_symmetry_multiplicity
 _atom_site_fract_x
 _atom_site_fract_y
 _atom_site_fract_z
 _atom_site_occupancy
  Yb  Yb0  1  0.392061  0.169479  0.809037  1
  Tm  Tm1  1  0.605643  0.832075  0.192400  1
  Tm  Tm2  1  0.734160  0.498905  0.808800  1
  Lu  Lu3  1  0.266320  0.500633  0.192375  1
  Al  Al4  1  0.682763  0.834357  0.946125  1
  Al  Al5  1  0.315609  0.166309  0.056017  1
  Al  Al6  1  0.146958  0.838847  0.559344  1
  Al  Al7  1  0.854094  0.167563  0.436267  1
  Al  Al8  1  0.487833  0.159240  0.557480  1
  Al  Al9  1  0.521003  0.833388  0.439485  1
  Al  Al10  1  0.218540  0.165046  0.326980  1
  Al  Al11  1  0.776747  0.839892  0.673103  1
  Al  Al12  1  0.441370  0.505445  0.673184  1
  Al  Al13  1  0.563281  0.493836  0.326844  1
  Al  Al14  1  0.109649  0.154172  0.672355  1
  Al  Al15  1  0.891059  0.839960  0.327970  1
  Al  Al16  1  0.353104  0.498791  0.946127  1
  Al  Al17  1  0.645487  0.501327  0.057259  1
  Al  Al18  1  0.015003  0.167640  0.954286  1
  Al  Al19  1  0.983849  0.831628  0.049265  1
  Al  Al20  1  0.188311  0.498964  0.436896  1
  Al  Al21  1  0.806384  0.500776  0.556642  1
  Al  Al22  1  0.733546  0.164462  0.183452  1
  Al  Al23  1  0.268457  0.832221  0.817013  1
  Al  Al24  1  0.056577  0.635847  0.818793  1
  Al  Al25  1  0.939366  0.369309  0.184560  1
  Al  Al26  1  0.855628  0.044657  0.816644  1
  Al  Al27  1  0.145736  0.956804  0.183801  1
  Pt  Pt28  1  0.880466  0.509030  0.360099  1
  Pt  Pt29  1  0.657436  0.171319  0.000772  1
  Pt  Pt30  1  0.342325  0.828033  0.000979  1
  Pt  Pt31  1  0.537139  0.167127  0.360436  1
  Pt  Pt32  1  0.462649  0.832320  0.637719  1
  Pt  Pt33  1  0.780387  0.175064  0.635837  1
  Pt  Pt34  1  0.222060  0.824064  0.361930  1
  Pt  Pt35  1  0.998977  0.500586  0.001568  1
  Au  Au36  1  0.120022  0.490888  0.638156  1
