# generated using pymatgen
data_TbLu2Mg3Ge2Au
_symmetry_space_group_name_H-M   'P 1'
_cell_length_a   7.23055008
_cell_length_b   7.23055104
_cell_length_c   4.29519200
_cell_angle_alpha   90.00000000
_cell_angle_beta   90.00000000
_cell_angle_gamma   120.16035665
_symmetry_Int_Tables_number   1
_chemical_formula_structural   TbLu2Mg3Ge2Au
_chemical_formula_sum   'Tb1 Lu2 Mg3 Ge2 Au1'
_cell_volume   194.15649307
_cell_formula_units_Z   1
loop_
 _symmetry_equiv_pos_site_id
 _symmetry_equiv_pos_as_xyz
  1  'x, y, z'
loop_
 _atom_site_type_symbol
 _atom_site_label
 _atom_site_symmetry_multiplicity
 _atom_site_fract_x
 _atom_site_fract_y
 _atom_site_fract_z
 _atom_site_occupancy
  Tb  Tb0  1  0.417003  0.417003  0.000000  1
  Lu  Lu1  1  0.584702  0.000908  0.000000  1
  Lu  Lu2  1  0.000908  0.584702  0.000000  1
  Mg  Mg3  1  0.245184  0.999143  0.500000  1
  Mg  Mg4  1  0.999143  0.245184  0.500000  1
  Mg  Mg5  1  0.755561  0.755561  0.500000  1
  Ge  Ge6  1  0.331635  0.668707  0.500000  1
  Ge  Ge7  1  0.668707  0.331635  0.500000  1
  Au  Au8  1  0.997157  0.997157  0.000000  1
