# generated using pymatgen
data_Hf4Ta6TcMo
_symmetry_space_group_name_H-M   'P 1'
_cell_length_a   5.60570200
_cell_length_b   5.60570034
_cell_length_c   8.53132100
_cell_angle_alpha   90.00000000
_cell_angle_beta   90.00000000
_cell_angle_gamma   119.99999799
_symmetry_Int_Tables_number   1
_chemical_formula_structural   Hf4Ta6TcMo
_chemical_formula_sum   'Hf4 Ta6 Tc1 Mo1'
_cell_volume   232.17037818
_cell_formula_units_Z   1
loop_
 _symmetry_equiv_pos_site_id
 _symmetry_equiv_pos_as_xyz
  1  'x, y, z'
loop_
 _atom_site_type_symbol
 _atom_site_label
 _atom_site_symmetry_multiplicity
 _atom_site_fract_x
 _atom_site_fract_y
 _atom_site_fract_z
 _atom_site_occupancy
  Hf  Hf0  1  0.333333  0.666667  0.437922  1
  Hf  Hf1  1  0.666667  0.333333  0.562078  1
  Hf  Hf2  1  0.666667  0.333333  0.937584  1
  Hf  Hf3  1  0.333333  0.666667  0.062416  1
  Ta  Ta4  1  0.830200  0.169800  0.252299  1
  Ta  Ta5  1  0.830200  0.660399  0.252299  1
  Ta  Ta6  1  0.339601  0.169800  0.252299  1
  Ta  Ta7  1  0.169800  0.830200  0.747701  1
  Ta  Ta8  1  0.169800  0.339601  0.747701  1
  Ta  Ta9  1  0.660399  0.830200  0.747701  1
  Tc  Tc10  1  0.000000  0.000000  0.500000  1
  Mo  Mo11  1  0.000000  0.000000  0.000000  1
