# generated using pymatgen
data_BaBPdPt3
_symmetry_space_group_name_H-M   'P 1'
_cell_length_a   6.23052800
_cell_length_b   5.70095100
_cell_length_c   12.08666800
_cell_angle_alpha   90.00000000
_cell_angle_beta   90.00000000
_cell_angle_gamma   90.00000000
_symmetry_Int_Tables_number   1
_chemical_formula_structural   BaBPdPt3
_chemical_formula_sum   'Ba4 B4 Pd4 Pt12'
_cell_volume   429.31765970
_cell_formula_units_Z   4
loop_
 _symmetry_equiv_pos_site_id
 _symmetry_equiv_pos_as_xyz
  1  'x, y, z'
loop_
 _atom_site_type_symbol
 _atom_site_label
 _atom_site_symmetry_multiplicity
 _atom_site_fract_x
 _atom_site_fract_y
 _atom_site_fract_z
 _atom_site_occupancy
  Ba  Ba0  1  0.181348  0.250000  0.334350  1
  Ba  Ba1  1  0.681348  0.250000  0.165650  1
  Ba  Ba2  1  0.818652  0.750000  0.665650  1
  Ba  Ba3  1  0.318652  0.750000  0.834350  1
  B  B4  1  0.095274  0.250000  0.950203  1
  B  B5  1  0.595274  0.250000  0.549797  1
  B  B6  1  0.904726  0.750000  0.049797  1
  B  B7  1  0.404726  0.750000  0.450203  1
  Pd  Pd8  1  0.436424  0.250000  0.941452  1
  Pd  Pd9  1  0.936424  0.250000  0.558548  1
  Pd  Pd10  1  0.563576  0.750000  0.058548  1
  Pd  Pd11  1  0.063576  0.750000  0.441452  1
  Pt  Pt12  1  0.108488  0.250000  0.766071  1
  Pt  Pt13  1  0.608488  0.250000  0.733929  1
  Pt  Pt14  1  0.891512  0.750000  0.233929  1
  Pt  Pt15  1  0.391512  0.750000  0.266071  1
  Pt  Pt16  1  0.332294  0.006260  0.583603  1
  Pt  Pt17  1  0.832294  0.493740  0.916397  1
  Pt  Pt18  1  0.667706  0.506260  0.416397  1
  Pt  Pt19  1  0.167706  0.993740  0.083603  1
  Pt  Pt20  1  0.667706  0.993740  0.416397  1
  Pt  Pt21  1  0.167706  0.506260  0.083603  1
  Pt  Pt22  1  0.332294  0.493740  0.583603  1
  Pt  Pt23  1  0.832294  0.006260  0.916397  1
