# generated using pymatgen
data_Ti3Nb3Si2B
_symmetry_space_group_name_H-M   'P 1'
_cell_length_a   6.74341500
_cell_length_b   6.74341415
_cell_length_c   3.44287300
_cell_angle_alpha   90.00000000
_cell_angle_beta   90.00000000
_cell_angle_gamma   119.99999929
_symmetry_Int_Tables_number   1
_chemical_formula_structural   Ti3Nb3Si2B
_chemical_formula_sum   'Ti3 Nb3 Si2 B1'
_cell_volume   135.58491022
_cell_formula_units_Z   1
loop_
 _symmetry_equiv_pos_site_id
 _symmetry_equiv_pos_as_xyz
  1  'x, y, z'
loop_
 _atom_site_type_symbol
 _atom_site_label
 _atom_site_symmetry_multiplicity
 _atom_site_fract_x
 _atom_site_fract_y
 _atom_site_fract_z
 _atom_site_occupancy
  Ti  Ti0  1  0.237845  0.000000  0.500000  1
  Ti  Ti1  1  0.762155  0.762155  0.500000  1
  Ti  Ti2  1  0.000000  0.237845  0.500000  1
  Nb  Nb3  1  0.598541  0.000000  0.000000  1
  Nb  Nb4  1  0.401459  0.401459  0.000000  1
  Nb  Nb5  1  0.000000  0.598541  0.000000  1
  Si  Si6  1  0.333333  0.666667  0.500000  1
  Si  Si7  1  0.666667  0.333333  0.500000  1
  B  B8  1  0.000000  0.000000  0.000000  1
