# generated using pymatgen
data_Zr12Si2AsSe
_symmetry_space_group_name_H-M   'P 1'
_cell_length_a   11.03584900
_cell_length_b   11.04368618
_cell_length_c   5.47805100
_cell_angle_alpha   90.00000000
_cell_angle_beta   90.00000000
_cell_angle_gamma   89.99127470
_symmetry_Int_Tables_number   1
_chemical_formula_structural   Zr12Si2AsSe
_chemical_formula_sum   'Zr24 Si4 As2 Se2'
_cell_volume   667.64541803
_cell_formula_units_Z   2
loop_
 _symmetry_equiv_pos_site_id
 _symmetry_equiv_pos_as_xyz
  1  'x, y, z'
loop_
 _atom_site_type_symbol
 _atom_site_label
 _atom_site_symmetry_multiplicity
 _atom_site_fract_x
 _atom_site_fract_y
 _atom_site_fract_z
 _atom_site_occupancy
  Zr  Zr0  1  0.917235  0.607333  0.536516  1
  Zr  Zr1  1  0.082765  0.392667  0.536516  1
  Zr  Zr2  1  0.892034  0.417304  0.034379  1
  Zr  Zr3  1  0.107966  0.582696  0.034379  1
  Zr  Zr4  1  0.581975  0.893513  0.961845  1
  Zr  Zr5  1  0.418025  0.106487  0.961845  1
  Zr  Zr6  1  0.605307  0.083095  0.467985  1
  Zr  Zr7  1  0.394693  0.916905  0.467985  1
  Zr  Zr8  1  0.862874  0.973750  0.718391  1
  Zr  Zr9  1  0.137126  0.026250  0.718391  1
  Zr  Zr10  1  0.526754  0.362113  0.219325  1
  Zr  Zr11  1  0.473246  0.637887  0.219325  1
  Zr  Zr12  1  0.640696  0.526722  0.781780  1
  Zr  Zr13  1  0.359304  0.473278  0.781780  1
  Zr  Zr14  1  0.973596  0.140399  0.281590  1
  Zr  Zr15  1  0.026404  0.859601  0.281590  1
  Zr  Zr16  1  0.819438  0.713625  0.007873  1
  Zr  Zr17  1  0.180562  0.286375  0.007873  1
  Zr  Zr18  1  0.785573  0.319486  0.509512  1
  Zr  Zr19  1  0.214427  0.680514  0.509512  1
  Zr  Zr20  1  0.681742  0.782648  0.490189  1
  Zr  Zr21  1  0.318258  0.217352  0.490189  1
  Zr  Zr22  1  0.715983  0.181209  0.988473  1
  Zr  Zr23  1  0.284017  0.818791  0.988473  1
  Si  Si24  1  0.705723  0.541097  0.287876  1
  Si  Si25  1  0.294277  0.458903  0.287876  1
  Si  Si26  1  0.959002  0.205660  0.787519  1
  Si  Si27  1  0.040998  0.794340  0.787519  1
  As  As28  1  0.540601  0.294702  0.713132  1
  As  As29  1  0.459399  0.705298  0.713132  1
  Se  Se30  1  0.792611  0.959462  0.213614  1
  Se  Se31  1  0.207389  0.040538  0.213614  1
