# generated using pymatgen
data_Dy7TmSc12Ga7Si9
_symmetry_space_group_name_H-M   'P 1'
_cell_length_a   7.16787350
_cell_length_b   7.41050807
_cell_length_c   14.26583026
_cell_angle_alpha   89.97276138
_cell_angle_beta   89.93156838
_cell_angle_gamma   90.07616286
_symmetry_Int_Tables_number   1
_chemical_formula_structural   Dy7TmSc12Ga7Si9
_chemical_formula_sum   'Dy7 Tm1 Sc12 Ga7 Si9'
_cell_volume   757.76514746
_cell_formula_units_Z   1
loop_
 _symmetry_equiv_pos_site_id
 _symmetry_equiv_pos_as_xyz
  1  'x, y, z'
loop_
 _atom_site_type_symbol
 _atom_site_label
 _atom_site_symmetry_multiplicity
 _atom_site_fract_x
 _atom_site_fract_y
 _atom_site_fract_z
 _atom_site_occupancy
  Dy  Dy0  1  0.012402  0.173802  0.098739  1
  Dy  Dy1  1  0.989952  0.823216  0.901383  1
  Dy  Dy2  1  0.488472  0.676743  0.901903  1
  Dy  Dy3  1  0.989550  0.823322  0.599772  1
  Dy  Dy4  1  0.510202  0.322700  0.099061  1
  Dy  Dy5  1  0.010251  0.175940  0.400133  1
  Dy  Dy6  1  0.510420  0.323339  0.400129  1
  Tm  Tm7  1  0.489886  0.676939  0.600015  1
  Sc  Sc8  1  0.164591  0.502014  0.749730  1
  Sc  Sc9  1  0.836521  0.499517  0.249744  1
  Sc  Sc10  1  0.335561  0.001309  0.248971  1
  Sc  Sc11  1  0.663543  0.998727  0.749548  1
  Sc  Sc12  1  0.330848  0.173408  0.626057  1
  Sc  Sc13  1  0.668620  0.826789  0.373693  1
  Sc  Sc14  1  0.169022  0.673578  0.373562  1
  Sc  Sc15  1  0.667612  0.825272  0.126429  1
  Sc  Sc16  1  0.830189  0.326954  0.626232  1
  Sc  Sc17  1  0.330127  0.174064  0.874741  1
  Sc  Sc18  1  0.829452  0.326983  0.874098  1
  Sc  Sc19  1  0.171729  0.675669  0.125248  1
  Ga  Ga20  1  0.161985  0.463857  0.539641  1
  Ga  Ga21  1  0.838502  0.536753  0.460418  1
  Ga  Ga22  1  0.338826  0.962122  0.460713  1
  Ga  Ga23  1  0.839216  0.538116  0.040256  1
  Ga  Ga24  1  0.660946  0.036142  0.539494  1
  Ga  Ga25  1  0.160204  0.462179  0.960817  1
  Ga  Ga26  1  0.660028  0.037771  0.961141  1
  Si  Si27  1  0.032268  0.113396  0.750895  1
  Si  Si28  1  0.967215  0.885239  0.249464  1
  Si  Si29  1  0.466881  0.613249  0.249463  1
  Si  Si30  1  0.532377  0.386996  0.749984  1
  Si  Si31  1  0.285396  0.873665  0.750312  1
  Si  Si32  1  0.715493  0.126210  0.249071  1
  Si  Si33  1  0.214466  0.373450  0.249426  1
  Si  Si34  1  0.783948  0.626707  0.750198  1
  Si  Si35  1  0.343296  0.963863  0.039522  1
