# generated using pymatgen
data_Pr3Nd6EuRu4
_symmetry_space_group_name_H-M   'P 1'
_cell_length_a   8.93172317
_cell_length_b   8.94780639
_cell_length_c   7.40439500
_cell_angle_alpha   83.79721957
_cell_angle_beta   84.28111403
_cell_angle_gamma   43.84494162
_symmetry_Int_Tables_number   1
_chemical_formula_structural   Pr3Nd6EuRu4
_chemical_formula_sum   'Pr3 Nd6 Eu1 Ru4'
_cell_volume   407.31105064
_cell_formula_units_Z   1
loop_
 _symmetry_equiv_pos_site_id
 _symmetry_equiv_pos_as_xyz
  1  'x, y, z'
loop_
 _atom_site_type_symbol
 _atom_site_label
 _atom_site_symmetry_multiplicity
 _atom_site_fract_x
 _atom_site_fract_y
 _atom_site_fract_z
 _atom_site_occupancy
  Pr  Pr0  1  0.016645  0.795943  0.915230  1
  Pr  Pr1  1  0.201436  0.984333  0.584971  1
  Pr  Pr2  1  0.982678  0.202861  0.084965  1
  Nd  Nd3  1  0.360362  0.208901  0.814754  1
  Nd  Nd4  1  0.791459  0.638593  0.686752  1
  Nd  Nd5  1  0.636737  0.794181  0.186385  1
  Nd  Nd6  1  0.207755  0.362150  0.314977  1
  Nd  Nd7  1  0.573280  0.425586  0.749243  1
  Nd  Nd8  1  0.429125  0.570631  0.250233  1
  Eu  Eu9  1  0.798573  0.013507  0.417227  1
  Ru  Ru10  1  0.181123  0.595093  0.578063  1
  Ru  Ru11  1  0.398721  0.822746  0.924996  1
  Ru  Ru12  1  0.825148  0.405282  0.423561  1
  Ru  Ru13  1  0.596959  0.180194  0.068642  1
