# generated using pymatgen
data_Tb3YbB16Os3Ru
_symmetry_space_group_name_H-M   'P 1'
_cell_length_a   3.55863200
_cell_length_b   5.97051177
_cell_length_c   11.54359084
_cell_angle_alpha   89.97772845
_cell_angle_beta   90.00000000
_cell_angle_gamma   90.00000000
_symmetry_Int_Tables_number   1
_chemical_formula_structural   Tb3YbB16Os3Ru
_chemical_formula_sum   'Tb3 Yb1 B16 Os3 Ru1'
_cell_volume   245.26497334
_cell_formula_units_Z   1
loop_
 _symmetry_equiv_pos_site_id
 _symmetry_equiv_pos_as_xyz
  1  'x, y, z'
loop_
 _atom_site_type_symbol
 _atom_site_label
 _atom_site_symmetry_multiplicity
 _atom_site_fract_x
 _atom_site_fract_y
 _atom_site_fract_z
 _atom_site_occupancy
  Tb  Tb0  1  0.500000  0.627804  0.149956  1
  Tb  Tb1  1  0.500000  0.371820  0.849167  1
  Tb  Tb2  1  0.500000  0.128187  0.350357  1
  Yb  Yb3  1  0.500000  0.870030  0.650053  1
  B  B4  1  0.000000  0.975463  0.191184  1
  B  B5  1  0.000000  0.024546  0.808247  1
  B  B6  1  0.000000  0.474883  0.309035  1
  B  B7  1  0.000000  0.525970  0.690882  1
  B  B8  1  0.000000  0.788233  0.314953  1
  B  B9  1  0.000000  0.210957  0.685029  1
  B  B10  1  0.000000  0.288305  0.185524  1
  B  B11  1  0.000000  0.712913  0.814256  1
  B  B12  1  0.000000  0.863353  0.470549  1
  B  B13  1  0.000000  0.136122  0.530360  1
  B  B14  1  0.000000  0.363327  0.030281  1
  B  B15  1  0.000000  0.636695  0.969548  1
  B  B16  1  0.000000  0.887689  0.046561  1
  B  B17  1  0.000000  0.111555  0.952987  1
  B  B18  1  0.000000  0.388375  0.454101  1
  B  B19  1  0.000000  0.614119  0.547367  1
  Os  Os20  1  0.500000  0.640080  0.407685  1
  Os  Os21  1  0.500000  0.359916  0.591479  1
  Os  Os22  1  0.500000  0.140008  0.092339  1
  Ru  Ru23  1  0.500000  0.859650  0.908098  1
