# generated using pymatgen
data_Ca20Ga8HgPb3
_symmetry_space_group_name_H-M   'P 1'
_cell_length_a   8.12303300
_cell_length_b   8.12303300
_cell_length_c   14.84742500
_cell_angle_alpha   90.00000000
_cell_angle_beta   90.00000000
_cell_angle_gamma   90.00000000
_symmetry_Int_Tables_number   1
_chemical_formula_structural   Ca20Ga8HgPb3
_chemical_formula_sum   'Ca20 Ga8 Hg1 Pb3'
_cell_volume   979.68751908
_cell_formula_units_Z   1
loop_
 _symmetry_equiv_pos_site_id
 _symmetry_equiv_pos_as_xyz
  1  'x, y, z'
loop_
 _atom_site_type_symbol
 _atom_site_label
 _atom_site_symmetry_multiplicity
 _atom_site_fract_x
 _atom_site_fract_y
 _atom_site_fract_z
 _atom_site_occupancy
  Ca  Ca0  1  0.677544  0.174168  0.108383  1
  Ca  Ca1  1  0.177034  0.676345  0.611589  1
  Ca  Ca2  1  0.322456  0.825832  0.108383  1
  Ca  Ca3  1  0.822966  0.323655  0.611589  1
  Ca  Ca4  1  0.825832  0.677544  0.108383  1
  Ca  Ca5  1  0.323655  0.177034  0.611589  1
  Ca  Ca6  1  0.174168  0.322456  0.108383  1
  Ca  Ca7  1  0.676345  0.822966  0.611589  1
  Ca  Ca8  1  0.825832  0.322456  0.891617  1
  Ca  Ca9  1  0.323655  0.822966  0.388411  1
  Ca  Ca10  1  0.174168  0.677544  0.891617  1
  Ca  Ca11  1  0.676345  0.177034  0.388411  1
  Ca  Ca12  1  0.677544  0.825832  0.891617  1
  Ca  Ca13  1  0.177034  0.323655  0.388411  1
  Ca  Ca14  1  0.322456  0.174168  0.891617  1
  Ca  Ca15  1  0.822966  0.676345  0.388411  1
  Ca  Ca16  1  0.500000  0.500000  0.755226  1
  Ca  Ca17  1  0.000000  0.000000  0.251391  1
  Ca  Ca18  1  0.000000  0.000000  0.748609  1
  Ca  Ca19  1  0.500000  0.500000  0.244774  1
  Ga  Ga20  1  0.611265  0.111321  0.751740  1
  Ga  Ga21  1  0.111321  0.611265  0.248260  1
  Ga  Ga22  1  0.888679  0.388735  0.248260  1
  Ga  Ga23  1  0.388735  0.888679  0.751740  1
  Ga  Ga24  1  0.888679  0.611265  0.751740  1
  Ga  Ga25  1  0.388735  0.111321  0.248260  1
  Ga  Ga26  1  0.111321  0.388735  0.751740  1
  Ga  Ga27  1  0.611265  0.888679  0.248260  1
  Hg  Hg28  1  0.000000  0.000000  0.000000  1
  Pb  Pb29  1  0.500000  0.500000  0.500000  1
  Pb  Pb30  1  0.500000  0.500000  0.000000  1
  Pb  Pb31  1  0.000000  0.000000  0.500000  1
