# generated using pymatgen
data_Yb5Pu2Hf(Si4Mo3)4
_symmetry_space_group_name_H-M   'P 1'
_cell_length_a   6.74047809
_cell_length_b   6.90533294
_cell_length_c   12.95452433
_cell_angle_alpha   89.83877949
_cell_angle_beta   90.05513616
_cell_angle_gamma   89.98630897
_symmetry_Int_Tables_number   1
_chemical_formula_structural   Yb5Pu2Hf(Si4Mo3)4
_chemical_formula_sum   'Yb5 Pu2 Hf1 Si16 Mo12'
_cell_volume   602.96882965
_cell_formula_units_Z   1
loop_
 _symmetry_equiv_pos_site_id
 _symmetry_equiv_pos_as_xyz
  1  'x, y, z'
loop_
 _atom_site_type_symbol
 _atom_site_label
 _atom_site_symmetry_multiplicity
 _atom_site_fract_x
 _atom_site_fract_y
 _atom_site_fract_z
 _atom_site_occupancy
  Yb  Yb0  1  0.503512  0.663764  0.909513  1
  Yb  Yb1  1  0.003506  0.835711  0.589738  1
  Yb  Yb2  1  0.497759  0.333215  0.090020  1
  Yb  Yb3  1  0.999203  0.166884  0.410806  1
  Yb  Yb4  1  0.498315  0.332102  0.410206  1
  Pu  Pu5  1  0.996303  0.163682  0.091831  1
  Pu  Pu6  1  0.004051  0.839216  0.907759  1
  Hf  Hf7  1  0.502828  0.673306  0.599044  1
  Si  Si8  1  0.035016  0.133575  0.747591  1
  Si  Si9  1  0.963552  0.871786  0.251356  1
  Si  Si10  1  0.465634  0.623512  0.248861  1
  Si  Si11  1  0.534031  0.372496  0.748242  1
  Si  Si12  1  0.303105  0.866484  0.748597  1
  Si  Si13  1  0.695956  0.129754  0.251860  1
  Si  Si14  1  0.200487  0.366707  0.250623  1
  Si  Si15  1  0.800812  0.634506  0.749637  1
  Si  Si16  1  0.166760  0.463327  0.546587  1
  Si  Si17  1  0.837700  0.542233  0.456795  1
  Si  Si18  1  0.342157  0.952777  0.457894  1
  Si  Si19  1  0.840964  0.544527  0.043691  1
  Si  Si20  1  0.657650  0.038204  0.546163  1
  Si  Si21  1  0.158122  0.456614  0.953609  1
  Si  Si22  1  0.658069  0.042765  0.953007  1
  Si  Si23  1  0.341407  0.956912  0.044586  1
  Mo  Mo24  1  0.165834  0.501059  0.748708  1
  Mo  Mo25  1  0.837967  0.504512  0.249265  1
  Mo  Mo26  1  0.337816  0.990346  0.250311  1
  Mo  Mo27  1  0.663806  0.000498  0.747770  1
  Mo  Mo28  1  0.332313  0.165628  0.624493  1
  Mo  Mo29  1  0.662836  0.827013  0.375430  1
  Mo  Mo30  1  0.166175  0.668337  0.373024  1
  Mo  Mo31  1  0.666202  0.833338  0.127792  1
  Mo  Mo32  1  0.829786  0.338457  0.625315  1
  Mo  Mo33  1  0.332648  0.164689  0.870601  1
  Mo  Mo34  1  0.831881  0.334847  0.872870  1
  Mo  Mo35  1  0.165839  0.667219  0.126408  1
