# generated using pymatgen
data_YPa(Al3Rh)3
_symmetry_space_group_name_H-M   'P 1'
_cell_length_a   7.59607804
_cell_length_b   7.59634317
_cell_length_c   9.39541900
_cell_angle_alpha   90.00000000
_cell_angle_beta   90.00000000
_cell_angle_gamma   119.61959831
_symmetry_Int_Tables_number   1
_chemical_formula_structural   YPa(Al3Rh)3
_chemical_formula_sum   'Y2 Pa2 Al18 Rh6'
_cell_volume   471.29494049
_cell_formula_units_Z   2
loop_
 _symmetry_equiv_pos_site_id
 _symmetry_equiv_pos_as_xyz
  1  'x, y, z'
loop_
 _atom_site_type_symbol
 _atom_site_label
 _atom_site_symmetry_multiplicity
 _atom_site_fract_x
 _atom_site_fract_y
 _atom_site_fract_z
 _atom_site_occupancy
  Y  Y0  1  0.669751  0.993765  0.250000  1
  Y  Y1  1  0.330249  0.006235  0.750000  1
  Pa  Pa2  1  0.996708  0.670788  0.250000  1
  Pa  Pa3  1  0.003292  0.329212  0.750000  1
  Al  Al4  1  0.129245  0.126649  0.250000  1
  Al  Al5  1  0.870755  0.873351  0.750000  1
  Al  Al6  1  0.000351  0.332394  0.076767  1
  Al  Al7  1  0.999649  0.667606  0.923233  1
  Al  Al8  1  0.999649  0.667606  0.576767  1
  Al  Al9  1  0.337247  0.002440  0.425204  1
  Al  Al10  1  0.000351  0.332394  0.423233  1
  Al  Al11  1  0.662753  0.997560  0.574796  1
  Al  Al12  1  0.662753  0.997560  0.925204  1
  Al  Al13  1  0.337247  0.002440  0.074796  1
  Al  Al14  1  0.334884  0.333347  0.552566  1
  Al  Al15  1  0.665116  0.666653  0.447434  1
  Al  Al16  1  0.665116  0.666653  0.052566  1
  Al  Al17  1  0.334884  0.333347  0.947434  1
  Al  Al18  1  0.339663  0.548525  0.250000  1
  Al  Al19  1  0.660337  0.451475  0.750000  1
  Al  Al20  1  0.548889  0.341151  0.250000  1
  Al  Al21  1  0.451111  0.658849  0.750000  1
  Rh  Rh22  1  0.674968  0.329363  0.999714  1
  Rh  Rh23  1  0.325032  0.670637  0.000286  1
  Rh  Rh24  1  0.325032  0.670637  0.499714  1
  Rh  Rh25  1  0.674968  0.329363  0.500286  1
  Rh  Rh26  1  0.000000  0.000000  0.000000  1
  Rh  Rh27  1  0.000000  0.000000  0.500000  1
