# generated using pymatgen
data_Ce12Co8Si7Hg
_symmetry_space_group_name_H-M   'P 1'
_cell_length_a   5.49235700
_cell_length_b   7.97064449
_cell_length_c   12.42952581
_cell_angle_alpha   89.83412583
_cell_angle_beta   90.00000000
_cell_angle_gamma   90.00000000
_symmetry_Int_Tables_number   1
_chemical_formula_structural   Ce12Co8Si7Hg
_chemical_formula_sum   'Ce12 Co8 Si7 Hg1'
_cell_volume   544.13284013
_cell_formula_units_Z   1
loop_
 _symmetry_equiv_pos_site_id
 _symmetry_equiv_pos_as_xyz
  1  'x, y, z'
loop_
 _atom_site_type_symbol
 _atom_site_label
 _atom_site_symmetry_multiplicity
 _atom_site_fract_x
 _atom_site_fract_y
 _atom_site_fract_z
 _atom_site_occupancy
  Ce  Ce0  1  0.346942  0.743409  0.750225  1
  Ce  Ce1  1  0.346942  0.756591  0.249775  1
  Ce  Ce2  1  0.650959  0.246906  0.756441  1
  Ce  Ce3  1  0.650959  0.253094  0.243559  1
  Ce  Ce4  1  0.178425  0.410601  0.401879  1
  Ce  Ce5  1  0.178425  0.089399  0.598121  1
  Ce  Ce6  1  0.839800  0.901094  0.090338  1
  Ce  Ce7  1  0.839800  0.598906  0.909662  1
  Ce  Ce8  1  0.844647  0.609773  0.596849  1
  Ce  Ce9  1  0.844647  0.890227  0.403151  1
  Ce  Ce10  1  0.160303  0.099800  0.908021  1
  Ce  Ce11  1  0.160303  0.400200  0.091979  1
  Co  Co12  1  0.358531  0.021882  0.409285  1
  Co  Co13  1  0.358531  0.478118  0.590715  1
  Co  Co14  1  0.617510  0.540354  0.085968  1
  Co  Co15  1  0.617510  0.959646  0.914032  1
  Co  Co16  1  0.381733  0.041071  0.088064  1
  Co  Co17  1  0.381733  0.458929  0.911936  1
  Co  Co18  1  0.613348  0.555073  0.406979  1
  Co  Co19  1  0.613348  0.944927  0.593021  1
  Si  Si20  1  0.353426  0.750000  0.000000  1
  Si  Si21  1  0.347603  0.750000  0.500000  1
  Si  Si22  1  0.644775  0.250000  0.000000  1
  Si  Si23  1  0.840557  0.898183  0.754205  1
  Si  Si24  1  0.840557  0.601817  0.245795  1
  Si  Si25  1  0.155148  0.394485  0.751920  1
  Si  Si26  1  0.155148  0.105515  0.248080  1
  Hg  Hg27  1  0.678391  0.250000  0.500000  1
