# generated using pymatgen
data_HoScMnB6
_symmetry_space_group_name_H-M   'P 1'
_cell_length_a   3.43170500
_cell_length_b   8.93142600
_cell_length_c   11.29541900
_cell_angle_alpha   90.00000000
_cell_angle_beta   90.00000000
_cell_angle_gamma   90.00000000
_symmetry_Int_Tables_number   1
_chemical_formula_structural   HoScMnB6
_chemical_formula_sum   'Ho4 Sc4 Mn4 B24'
_cell_volume   346.20480991
_cell_formula_units_Z   4
loop_
 _symmetry_equiv_pos_site_id
 _symmetry_equiv_pos_as_xyz
  1  'x, y, z'
loop_
 _atom_site_type_symbol
 _atom_site_label
 _atom_site_symmetry_multiplicity
 _atom_site_fract_x
 _atom_site_fract_y
 _atom_site_fract_z
 _atom_site_occupancy
  Ho  Ho0  1  0.000000  0.822423  0.085187  1
  Ho  Ho1  1  0.000000  0.177577  0.914813  1
  Ho  Ho2  1  0.000000  0.322423  0.414813  1
  Ho  Ho3  1  0.000000  0.677577  0.585187  1
  Sc  Sc4  1  0.000000  0.443752  0.130542  1
  Sc  Sc5  1  0.000000  0.556248  0.869458  1
  Sc  Sc6  1  0.000000  0.943752  0.369458  1
  Sc  Sc7  1  0.000000  0.056248  0.630542  1
  Mn  Mn8  1  0.000000  0.141308  0.181951  1
  Mn  Mn9  1  0.000000  0.858692  0.818049  1
  Mn  Mn10  1  0.000000  0.641308  0.318049  1
  Mn  Mn11  1  0.000000  0.358692  0.681951  1
  B  B12  1  0.500000  0.055435  0.068454  1
  B  B13  1  0.500000  0.944565  0.931546  1
  B  B14  1  0.500000  0.555435  0.431546  1
  B  B15  1  0.500000  0.444565  0.568454  1
  B  B16  1  0.500000  0.251975  0.082923  1
  B  B17  1  0.500000  0.748025  0.917077  1
  B  B18  1  0.500000  0.751975  0.417077  1
  B  B19  1  0.500000  0.248025  0.582923  1
  B  B20  1  0.500000  0.293559  0.235076  1
  B  B21  1  0.500000  0.706441  0.764924  1
  B  B22  1  0.500000  0.793559  0.264924  1
  B  B23  1  0.500000  0.206441  0.735076  1
  B  B24  1  0.500000  0.129727  0.316018  1
  B  B25  1  0.500000  0.870273  0.683982  1
  B  B26  1  0.500000  0.629727  0.183982  1
  B  B27  1  0.500000  0.370273  0.816018  1
  B  B28  1  0.500000  0.483754  0.286501  1
  B  B29  1  0.500000  0.516246  0.713499  1
  B  B30  1  0.500000  0.983754  0.213499  1
  B  B31  1  0.500000  0.016246  0.786501  1
  B  B32  1  0.500000  0.097481  0.473718  1
  B  B33  1  0.500000  0.902519  0.526282  1
  B  B34  1  0.500000  0.597481  0.026282  1
  B  B35  1  0.500000  0.402519  0.973718  1
