# generated using pymatgen
data_TbY3Pd2(PtO7)2
_symmetry_space_group_name_H-M   'P 1'
_cell_length_a   7.27331130
_cell_length_b   7.26745051
_cell_length_c   7.27331118
_cell_angle_alpha   60.06375131
_cell_angle_beta   60.05605649
_cell_angle_gamma   60.06375744
_symmetry_Int_Tables_number   1
_chemical_formula_structural   TbY3Pd2(PtO7)2
_chemical_formula_sum   'Tb1 Y3 Pd2 Pt2 O14'
_cell_volume   272.22829837
_cell_formula_units_Z   1
loop_
 _symmetry_equiv_pos_site_id
 _symmetry_equiv_pos_as_xyz
  1  'x, y, z'
loop_
 _atom_site_type_symbol
 _atom_site_label
 _atom_site_symmetry_multiplicity
 _atom_site_fract_x
 _atom_site_fract_y
 _atom_site_fract_z
 _atom_site_occupancy
  Tb  Tb0  1  0.125000  0.625000  0.125000  1
  Y  Y1  1  0.125000  0.125000  0.625000  1
  Y  Y2  1  0.625000  0.125000  0.125000  1
  Y  Y3  1  0.125000  0.125000  0.125000  1
  Pd  Pd4  1  0.125000  0.625000  0.625000  1
  Pd  Pd5  1  0.625000  0.625000  0.125000  1
  Pt  Pt6  1  0.625000  0.625000  0.625000  1
  Pt  Pt7  1  0.625000  0.125000  0.625000  1
  O  O8  1  0.286023  0.715504  0.714858  1
  O  O9  1  0.535003  0.966330  0.963995  1
  O  O10  1  0.714858  0.715504  0.286023  1
  O  O11  1  0.286005  0.283670  0.714997  1
  O  O12  1  0.999465  0.001269  0.999465  1
  O  O13  1  0.285160  0.714983  0.285160  1
  O  O14  1  0.715756  0.284308  0.715756  1
  O  O15  1  0.964840  0.535017  0.964840  1
  O  O16  1  0.535142  0.534496  0.963977  1
  O  O17  1  0.963995  0.966330  0.535003  1
  O  O18  1  0.250535  0.248731  0.250535  1
  O  O19  1  0.534244  0.965692  0.534244  1
  O  O20  1  0.714997  0.283670  0.286005  1
  O  O21  1  0.963977  0.534496  0.535142  1
