# generated using pymatgen
data_CsRb2Ag3As2
_symmetry_space_group_name_H-M   'P 1'
_cell_length_a   8.22410641
_cell_length_b   8.22410674
_cell_length_c   8.22410762
_cell_angle_alpha   45.58917072
_cell_angle_beta   45.58917030
_cell_angle_gamma   45.58917141
_symmetry_Int_Tables_number   1
_chemical_formula_structural   CsRb2Ag3As2
_chemical_formula_sum   'Cs1 Rb2 Ag3 As2'
_cell_volume   258.67140707
_cell_formula_units_Z   1
loop_
 _symmetry_equiv_pos_site_id
 _symmetry_equiv_pos_as_xyz
  1  'x, y, z'
loop_
 _atom_site_type_symbol
 _atom_site_label
 _atom_site_symmetry_multiplicity
 _atom_site_fract_x
 _atom_site_fract_y
 _atom_site_fract_z
 _atom_site_occupancy
  Cs  Cs0  1  0.500000  0.500000  0.500000  1
  Rb  Rb1  1  0.090543  0.090543  0.090543  1
  Rb  Rb2  1  0.909457  0.909457  0.909457  1
  Ag  Ag3  1  0.000000  0.500000  0.500000  1
  Ag  Ag4  1  0.500000  0.500000  0.000000  1
  Ag  Ag5  1  0.500000  0.000000  0.500000  1
  As  As6  1  0.748576  0.748576  0.748576  1
  As  As7  1  0.251424  0.251424  0.251424  1
