# generated using pymatgen
data_YbTe7
_symmetry_space_group_name_H-M   'P 1'
_cell_length_a   14.44254875
_cell_length_b   14.44254963
_cell_length_c   4.04687700
_cell_angle_alpha   90.00000000
_cell_angle_beta   90.00000000
_cell_angle_gamma   161.40912963
_symmetry_Int_Tables_number   1
_chemical_formula_structural   YbTe7
_chemical_formula_sum   'Yb1 Te7'
_cell_volume   269.11463481
_cell_formula_units_Z   1
loop_
 _symmetry_equiv_pos_site_id
 _symmetry_equiv_pos_as_xyz
  1  'x, y, z'
loop_
 _atom_site_type_symbol
 _atom_site_label
 _atom_site_symmetry_multiplicity
 _atom_site_fract_x
 _atom_site_fract_y
 _atom_site_fract_z
 _atom_site_occupancy
  Yb  Yb0  1  0.173744  0.826256  0.500000  1
  Te  Te1  1  0.795859  0.204141  0.000000  1
  Te  Te2  1  0.437295  0.562705  0.000000  1
  Te  Te3  1  0.582721  0.417279  0.500000  1
  Te  Te4  1  0.697920  0.302080  0.000000  1
  Te  Te5  1  0.297158  0.702842  0.500000  1
  Te  Te6  1  0.081749  0.918251  0.000000  1
  Te  Te7  1  0.933553  0.066447  0.500000  1
