# generated using pymatgen
data_AcAs3(PbO4)3
_symmetry_space_group_name_H-M   'P 1'
_cell_length_a   9.46286741
_cell_length_b   9.46286769
_cell_length_c   9.43919500
_cell_angle_alpha   70.50068178
_cell_angle_beta   70.50068118
_cell_angle_gamma   109.49638279
_symmetry_Int_Tables_number   1
_chemical_formula_structural   AcAs3(PbO4)3
_chemical_formula_sum   'Ac2 As6 Pb6 O24'
_cell_volume   650.01258031
_cell_formula_units_Z   2
loop_
 _symmetry_equiv_pos_site_id
 _symmetry_equiv_pos_as_xyz
  1  'x, y, z'
loop_
 _atom_site_type_symbol
 _atom_site_label
 _atom_site_symmetry_multiplicity
 _atom_site_fract_x
 _atom_site_fract_y
 _atom_site_fract_z
 _atom_site_occupancy
  Ac  Ac0  1  0.502579  0.136440  0.997874  1
  Ac  Ac1  1  0.136440  0.502579  0.497874  1
  As  As2  1  0.878997  0.625835  0.747674  1
  As  As3  1  0.625835  0.878997  0.247674  1
  As  As4  1  0.748061  0.125274  0.626538  1
  As  As5  1  0.247921  0.373426  0.875779  1
  As  As6  1  0.373426  0.247921  0.375779  1
  As  As7  1  0.125274  0.748061  0.126538  1
  Pb  Pb8  1  0.654559  0.503679  0.500026  1
  Pb  Pb9  1  0.840871  0.344194  0.158942  1
  Pb  Pb10  1  0.002054  0.004049  0.340102  1
  Pb  Pb11  1  0.503679  0.654559  0.000026  1
  Pb  Pb12  1  0.344194  0.840871  0.658942  1
  Pb  Pb13  1  0.004049  0.002054  0.840102  1
  O  O14  1  0.138305  0.794629  0.929830  1
  O  O15  1  0.230950  0.067652  0.579381  1
  O  O16  1  0.279510  0.704110  0.159501  1
  O  O17  1  0.330446  0.415862  0.344641  1
  O  O18  1  0.794629  0.138305  0.429830  1
  O  O19  1  0.067652  0.230950  0.079381  1
  O  O20  1  0.704110  0.279510  0.659501  1
  O  O21  1  0.415862  0.330446  0.844641  1
  O  O22  1  0.655974  0.868943  0.061655  1
  O  O23  1  0.842008  0.768949  0.805720  1
  O  O24  1  0.418145  0.734435  0.419534  1
  O  O25  1  0.082208  0.646375  0.689792  1
  O  O26  1  0.350809  0.184981  0.229554  1
  O  O27  1  0.168672  0.933206  0.142369  1
  O  O28  1  0.578571  0.320505  0.349279  1
  O  O29  1  0.933652  0.563168  0.291810  1
  O  O30  1  0.184981  0.350809  0.729554  1
  O  O31  1  0.933206  0.168672  0.642369  1
  O  O32  1  0.320505  0.578571  0.849279  1
  O  O33  1  0.563168  0.933652  0.791810  1
  O  O34  1  0.868943  0.655974  0.561655  1
  O  O35  1  0.768949  0.842008  0.305720  1
  O  O36  1  0.734435  0.418145  0.919534  1
  O  O37  1  0.646375  0.082208  0.189792  1
