# generated using pymatgen
data_LuZr(NbC2)2
_symmetry_space_group_name_H-M   'P 1'
_cell_length_a   11.00026093
_cell_length_b   11.00026097
_cell_length_c   11.00026061
_cell_angle_alpha   17.05591621
_cell_angle_beta   17.05591296
_cell_angle_gamma   17.05591773
_symmetry_Int_Tables_number   1
_chemical_formula_structural   LuZr(NbC2)2
_chemical_formula_sum   'Lu1 Zr1 Nb2 C4'
_cell_volume   99.90169216
_cell_formula_units_Z   1
loop_
 _symmetry_equiv_pos_site_id
 _symmetry_equiv_pos_as_xyz
  1  'x, y, z'
loop_
 _atom_site_type_symbol
 _atom_site_label
 _atom_site_symmetry_multiplicity
 _atom_site_fract_x
 _atom_site_fract_y
 _atom_site_fract_z
 _atom_site_occupancy
  Lu  Lu0  1  0.500000  0.500000  0.500000  1
  Zr  Zr1  1  0.000000  0.000000  0.000000  1
  Nb  Nb2  1  0.250644  0.250644  0.250644  1
  Nb  Nb3  1  0.749356  0.749356  0.749356  1
  C  C4  1  0.375927  0.375927  0.375927  1
  C  C5  1  0.120416  0.120416  0.120416  1
  C  C6  1  0.624073  0.624073  0.624073  1
  C  C7  1  0.879584  0.879584  0.879584  1
