# generated using pymatgen
data_LiTb12Lu4In3Rh4
_symmetry_space_group_name_H-M   'P 1'
_cell_length_a   9.63372941
_cell_length_b   9.63223011
_cell_length_c   9.62721307
_cell_angle_alpha   60.04724051
_cell_angle_beta   59.89373485
_cell_angle_gamma   59.84783313
_symmetry_Int_Tables_number   1
_chemical_formula_structural   LiTb12Lu4In3Rh4
_chemical_formula_sum   'Li1 Tb12 Lu4 In3 Rh4'
_cell_volume   630.68130206
_cell_formula_units_Z   1
loop_
 _symmetry_equiv_pos_site_id
 _symmetry_equiv_pos_as_xyz
  1  'x, y, z'
loop_
 _atom_site_type_symbol
 _atom_site_label
 _atom_site_symmetry_multiplicity
 _atom_site_fract_x
 _atom_site_fract_y
 _atom_site_fract_z
 _atom_site_occupancy
  Li  Li0  1  0.428222  0.427128  0.429060  1
  Tb  Tb1  1  0.059734  0.061942  0.439819  1
  Tb  Tb2  1  0.438248  0.435400  0.062878  1
  Tb  Tb3  1  0.651296  0.649255  0.649750  1
  Tb  Tb4  1  0.813967  0.186393  0.185697  1
  Tb  Tb5  1  0.188492  0.811993  0.809502  1
  Tb  Tb6  1  0.047173  0.649339  0.651406  1
  Tb  Tb7  1  0.440147  0.061529  0.059593  1
  Tb  Tb8  1  0.438037  0.062252  0.438034  1
  Tb  Tb9  1  0.061594  0.437660  0.062266  1
  Tb  Tb10  1  0.651178  0.650777  0.047967  1
  Tb  Tb11  1  0.186105  0.814756  0.185907  1
  Tb  Tb12  1  0.062894  0.435538  0.437974  1
  Lu  Lu13  1  0.808528  0.810249  0.189622  1
  Lu  Lu14  1  0.809511  0.190023  0.809194  1
  Lu  Lu15  1  0.186782  0.187388  0.813352  1
  Lu  Lu16  1  0.650338  0.046122  0.652161  1
  In  In17  1  0.418344  0.416052  0.745154  1
  In  In18  1  0.418182  0.745114  0.417084  1
  In  In19  1  0.745122  0.416959  0.418167  1
  Rh  Rh20  1  0.859666  0.422829  0.856666  1
  Rh  Rh21  1  0.854659  0.860497  0.857496  1
  Rh  Rh22  1  0.855216  0.858910  0.426120  1
  Rh  Rh23  1  0.426568  0.861897  0.855129  1
