# generated using pymatgen
data_Ba2Sr4(HfH9)3
_symmetry_space_group_name_H-M   'P 1'
_cell_length_a   9.39138300
_cell_length_b   9.47240287
_cell_length_c   5.50917000
_cell_angle_alpha   90.00000000
_cell_angle_beta   90.00000000
_cell_angle_gamma   120.28580807
_symmetry_Int_Tables_number   1
_chemical_formula_structural   Ba2Sr4(HfH9)3
_chemical_formula_sum   'Ba2 Sr4 Hf3 H27'
_cell_volume   423.20280330
_cell_formula_units_Z   1
loop_
 _symmetry_equiv_pos_site_id
 _symmetry_equiv_pos_as_xyz
  1  'x, y, z'
loop_
 _atom_site_type_symbol
 _atom_site_label
 _atom_site_symmetry_multiplicity
 _atom_site_fract_x
 _atom_site_fract_y
 _atom_site_fract_z
 _atom_site_occupancy
  Ba  Ba0  1  0.409708  0.400863  0.000000  1
  Ba  Ba1  1  0.590292  0.991154  0.000000  1
  Sr  Sr2  1  0.000000  0.245465  0.500000  1
  Sr  Sr3  1  0.735555  0.745232  0.500000  1
  Sr  Sr4  1  0.264445  0.009677  0.500000  1
  Sr  Sr5  1  0.000000  0.599043  0.000000  1
  Hf  Hf6  1  0.683365  0.336766  0.500000  1
  Hf  Hf7  1  0.316635  0.653401  0.500000  1
  Hf  Hf8  1  0.000000  0.991781  0.000000  1
  H  H9  1  0.836239  0.337003  0.744177  1
  H  H10  1  0.733703  0.517134  0.730693  1
  H  H11  1  0.516363  0.190151  0.739204  1
  H  H12  1  0.163761  0.500764  0.255823  1
  H  H13  1  0.516363  0.190151  0.260796  1
  H  H14  1  0.836239  0.337003  0.255823  1
  H  H15  1  0.733703  0.517134  0.269307  1
  H  H16  1  0.266297  0.783432  0.730693  1
  H  H17  1  0.483637  0.673790  0.739204  1
  H  H18  1  0.219129  0.005163  0.000000  1
  H  H19  1  0.780871  0.786034  0.000000  1
  H  H20  1  0.000000  0.201014  0.000000  1
  H  H21  1  0.845014  0.994938  0.241525  1
  H  H22  1  0.154986  0.149924  0.758475  1
  H  H23  1  0.000000  0.838624  0.754750  1
  H  H24  1  0.000000  0.838624  0.245250  1
  H  H25  1  0.154986  0.149924  0.241525  1
  H  H26  1  0.845014  0.994938  0.758475  1
  H  H27  1  0.047998  0.645989  0.500000  1
  H  H28  1  0.506440  0.874573  0.500000  1
  H  H29  1  0.314569  0.445385  0.500000  1
  H  H30  1  0.493560  0.368132  0.500000  1
  H  H31  1  0.952002  0.597991  0.500000  1
  H  H32  1  0.685431  0.130815  0.500000  1
  H  H33  1  0.163761  0.500764  0.744177  1
  H  H34  1  0.266297  0.783432  0.269307  1
  H  H35  1  0.483637  0.673790  0.260796  1
