# generated using pymatgen
data_Y2Er2Ni13Ir
_symmetry_space_group_name_H-M   'P 1'
_cell_length_a   4.93189242
_cell_length_b   4.93189146
_cell_length_c   12.54076486
_cell_angle_alpha   78.65978611
_cell_angle_beta   78.65979052
_cell_angle_gamma   60.00000321
_symmetry_Int_Tables_number   1
_chemical_formula_structural   Y2Er2Ni13Ir
_chemical_formula_sum   'Y2 Er2 Ni13 Ir1'
_cell_volume   257.26944828
_cell_formula_units_Z   1
loop_
 _symmetry_equiv_pos_site_id
 _symmetry_equiv_pos_as_xyz
  1  'x, y, z'
loop_
 _atom_site_type_symbol
 _atom_site_label
 _atom_site_symmetry_multiplicity
 _atom_site_fract_x
 _atom_site_fract_y
 _atom_site_fract_z
 _atom_site_occupancy
  Y  Y0  1  0.949636  0.949636  0.151094  1
  Y  Y1  1  0.050364  0.050364  0.848906  1
  Er  Er2  1  0.853484  0.853484  0.439550  1
  Er  Er3  1  0.146516  0.146516  0.560450  1
  Ni  Ni4  1  0.720816  0.720816  0.837555  1
  Ni  Ni5  1  0.279184  0.279184  0.162445  1
  Ni  Ni6  1  0.612601  0.612601  0.162195  1
  Ni  Ni7  1  0.387399  0.387399  0.837805  1
  Ni  Ni8  1  0.000000  0.500000  0.000000  1
  Ni  Ni9  1  0.500000  0.000000  0.000000  1
  Ni  Ni10  1  0.500000  0.500000  0.000000  1
  Ni  Ni11  1  0.390552  0.390552  0.324353  1
  Ni  Ni12  1  0.894542  0.390552  0.324353  1
  Ni  Ni13  1  0.390552  0.894542  0.324353  1
  Ni  Ni14  1  0.609448  0.609448  0.675647  1
  Ni  Ni15  1  0.105458  0.609448  0.675647  1
  Ni  Ni16  1  0.609448  0.105458  0.675647  1
  Ir  Ir17  1  0.500000  0.500000  0.500000  1
