# generated using pymatgen
data_K2Rb3BaTaP4
_symmetry_space_group_name_H-M   'P 1'
_cell_length_a   10.53329857
_cell_length_b   10.53329938
_cell_length_c   7.98845082
_cell_angle_alpha   89.07016719
_cell_angle_beta   89.07016433
_cell_angle_gamma   120.35981672
_symmetry_Int_Tables_number   1
_chemical_formula_structural   K2Rb3BaTaP4
_chemical_formula_sum   'K4 Rb6 Ba2 Ta2 P8'
_cell_volume   764.37162383
_cell_formula_units_Z   2
loop_
 _symmetry_equiv_pos_site_id
 _symmetry_equiv_pos_as_xyz
  1  'x, y, z'
loop_
 _atom_site_type_symbol
 _atom_site_label
 _atom_site_symmetry_multiplicity
 _atom_site_fract_x
 _atom_site_fract_y
 _atom_site_fract_z
 _atom_site_occupancy
  K  K0  1  0.465408  0.527372  0.501096  1
  K  K1  1  0.061284  0.528725  0.501152  1
  K  K2  1  0.527372  0.465408  0.001096  1
  K  K3  1  0.528725  0.061284  0.001152  1
  Rb  Rb4  1  0.865234  0.141479  0.679377  1
  Rb  Rb5  1  0.292920  0.153575  0.712869  1
  Rb  Rb6  1  0.854556  0.716128  0.661447  1
  Rb  Rb7  1  0.141479  0.865234  0.179377  1
  Rb  Rb8  1  0.716128  0.854556  0.161447  1
  Rb  Rb9  1  0.153575  0.292920  0.212869  1
  Ba  Ba10  1  0.462925  0.931745  0.492808  1
  Ba  Ba11  1  0.931745  0.462925  0.992808  1
  Ta  Ta12  1  0.668594  0.332485  0.392648  1
  Ta  Ta13  1  0.332485  0.668594  0.892648  1
  P  P14  1  0.681860  0.336059  0.695496  1
  P  P15  1  0.336059  0.681860  0.195496  1
  P  P16  1  0.789527  0.203389  0.288029  1
  P  P17  1  0.413337  0.199001  0.314715  1
  P  P18  1  0.794363  0.580034  0.274653  1
  P  P19  1  0.203389  0.789527  0.788029  1
  P  P20  1  0.580034  0.794363  0.774653  1
  P  P21  1  0.199001  0.413337  0.814715  1
