# generated using pymatgen
data_Dy3AlS6
_symmetry_space_group_name_H-M   'P 1'
_cell_length_a   8.53516209
_cell_length_b   8.53516203
_cell_length_c   6.45193500
_cell_angle_alpha   90.00000000
_cell_angle_beta   90.00000000
_cell_angle_gamma   102.26416084
_symmetry_Int_Tables_number   1
_chemical_formula_structural   Dy3AlS6
_chemical_formula_sum   'Dy6 Al2 S12'
_cell_volume   459.29052913
_cell_formula_units_Z   2
loop_
 _symmetry_equiv_pos_site_id
 _symmetry_equiv_pos_as_xyz
  1  'x, y, z'
loop_
 _atom_site_type_symbol
 _atom_site_label
 _atom_site_symmetry_multiplicity
 _atom_site_fract_x
 _atom_site_fract_y
 _atom_site_fract_z
 _atom_site_occupancy
  Dy  Dy0  1  0.402029  0.597971  0.663119  1
  Dy  Dy1  1  0.597971  0.402029  0.163119  1
  Dy  Dy2  1  0.284322  0.084750  0.753784  1
  Dy  Dy3  1  0.715678  0.915250  0.253784  1
  Dy  Dy4  1  0.915249  0.715678  0.753784  1
  Dy  Dy5  1  0.084750  0.284322  0.253784  1
  Al  Al6  1  0.200972  0.799028  0.292445  1
  Al  Al7  1  0.799028  0.200972  0.792445  1
  S  S8  1  0.957992  0.042008  0.932971  1
  S  S9  1  0.042008  0.957992  0.432971  1
  S  S10  1  0.217214  0.782786  0.943710  1
  S  S11  1  0.782786  0.217214  0.443710  1
  S  S12  1  0.632341  0.692905  0.957234  1
  S  S13  1  0.367659  0.307095  0.457234  1
  S  S14  1  0.307095  0.367659  0.957234  1
  S  S15  1  0.692905  0.632341  0.457234  1
  S  S16  1  0.102746  0.568950  0.466560  1
  S  S17  1  0.897254  0.431050  0.966560  1
  S  S18  1  0.431050  0.897254  0.466560  1
  S  S19  1  0.568950  0.102746  0.966560  1
