# generated using pymatgen
data_CeNd(BOs)4
_symmetry_space_group_name_H-M   'P 1'
_cell_length_a   6.77237495
_cell_length_b   6.02541273
_cell_length_c   5.62121466
_cell_angle_alpha   71.01384467
_cell_angle_beta   57.27787531
_cell_angle_gamma   51.70826706
_symmetry_Int_Tables_number   1
_chemical_formula_structural   CeNd(BOs)4
_chemical_formula_sum   'Ce1 Nd1 B4 Os4'
_cell_volume   151.44646785
_cell_formula_units_Z   1
loop_
 _symmetry_equiv_pos_site_id
 _symmetry_equiv_pos_as_xyz
  1  'x, y, z'
loop_
 _atom_site_type_symbol
 _atom_site_label
 _atom_site_symmetry_multiplicity
 _atom_site_fract_x
 _atom_site_fract_y
 _atom_site_fract_z
 _atom_site_occupancy
  Ce  Ce0  1  0.250000  0.250000  0.250000  1
  Nd  Nd1  1  0.000000  0.000000  0.000000  1
  B  B2  1  0.313622  0.686378  0.313622  1
  B  B3  1  0.686378  0.313622  0.686378  1
  B  B4  1  0.565717  0.934283  0.565717  1
  B  B5  1  0.934283  0.565717  0.934283  1
  Os  Os6  1  0.637733  0.637733  0.362267  1
  Os  Os7  1  0.362267  0.362267  0.637733  1
  Os  Os8  1  0.612875  0.612875  0.887125  1
  Os  Os9  1  0.887125  0.887125  0.612875  1
