# generated using pymatgen
data_Y3Ho3MgCo17P12
_symmetry_space_group_name_H-M   'P 1'
_cell_length_a   3.71187900
_cell_length_b   10.56795727
_cell_length_c   12.22856731
_cell_angle_alpha   90.02571396
_cell_angle_beta   90.00000000
_cell_angle_gamma   90.00000000
_symmetry_Int_Tables_number   1
_chemical_formula_structural   Y3Ho3MgCo17P12
_chemical_formula_sum   'Y3 Ho3 Mg1 Co17 P12'
_cell_volume   479.68970038
_cell_formula_units_Z   1
loop_
 _symmetry_equiv_pos_site_id
 _symmetry_equiv_pos_as_xyz
  1  'x, y, z'
loop_
 _atom_site_type_symbol
 _atom_site_label
 _atom_site_symmetry_multiplicity
 _atom_site_fract_x
 _atom_site_fract_y
 _atom_site_fract_z
 _atom_site_occupancy
  Y  Y0  1  0.000000  0.500023  0.525219  1
  Y  Y1  1  0.500000  0.999855  0.478552  1
  Y  Y2  1  0.500000  0.178587  0.207019  1
  Ho  Ho3  1  0.500000  0.821520  0.207173  1
  Ho  Ho4  1  0.000000  0.682336  0.794629  1
  Ho  Ho5  1  0.000000  0.317683  0.794856  1
  Mg  Mg6  1  0.500000  0.500683  0.153513  1
  Co  Co7  1  0.000000  0.999853  0.838642  1
  Co  Co8  1  0.500000  0.500078  0.705109  1
  Co  Co9  1  0.000000  0.999277  0.295555  1
  Co  Co10  1  0.000000  0.500437  0.985969  1
  Co  Co11  1  0.500000  0.999581  0.011638  1
  Co  Co12  1  0.500000  0.329251  0.992633  1
  Co  Co13  1  0.500000  0.670854  0.992942  1
  Co  Co14  1  0.000000  0.163390  0.001430  1
  Co  Co15  1  0.000000  0.836640  0.001436  1
  Co  Co16  1  0.500000  0.295551  0.433398  1
  Co  Co17  1  0.500000  0.704326  0.432922  1
  Co  Co18  1  0.000000  0.202322  0.570948  1
  Co  Co19  1  0.000000  0.797560  0.570630  1
  Co  Co20  1  0.500000  0.879804  0.708787  1
  Co  Co21  1  0.500000  0.120107  0.709043  1
  Co  Co22  1  0.000000  0.623129  0.292941  1
  Co  Co23  1  0.000000  0.377446  0.293587  1
  P  P24  1  0.500000  0.500256  0.883530  1
  P  P25  1  0.000000  0.999417  0.115633  1
  P  P26  1  0.500000  0.499970  0.353346  1
  P  P27  1  0.000000  0.999966  0.655575  1
  P  P28  1  0.500000  0.309547  0.618004  1
  P  P29  1  0.500000  0.690525  0.617683  1
  P  P30  1  0.000000  0.189363  0.385980  1
  P  P31  1  0.000000  0.810351  0.385401  1
  P  P32  1  0.500000  0.849139  0.889821  1
  P  P33  1  0.500000  0.150801  0.889943  1
  P  P34  1  0.000000  0.663069  0.103548  1
  P  P35  1  0.000000  0.337303  0.102967  1
