# generated using pymatgen
data_Y2Zr2IrPt
_symmetry_space_group_name_H-M   'P 1'
_cell_length_a   4.69678400
_cell_length_b   7.13359100
_cell_length_c   8.21390400
_cell_angle_alpha   90.00000000
_cell_angle_beta   90.00000000
_cell_angle_gamma   90.00000000
_symmetry_Int_Tables_number   1
_chemical_formula_structural   Y2Zr2IrPt
_chemical_formula_sum   'Y4 Zr4 Ir2 Pt2'
_cell_volume   275.20632842
_cell_formula_units_Z   2
loop_
 _symmetry_equiv_pos_site_id
 _symmetry_equiv_pos_as_xyz
  1  'x, y, z'
loop_
 _atom_site_type_symbol
 _atom_site_label
 _atom_site_symmetry_multiplicity
 _atom_site_fract_x
 _atom_site_fract_y
 _atom_site_fract_z
 _atom_site_occupancy
  Y  Y0  1  0.250000  0.016912  0.679092  1
  Y  Y1  1  0.250000  0.516912  0.820908  1
  Y  Y2  1  0.750000  0.985373  0.324089  1
  Y  Y3  1  0.750000  0.485373  0.175911  1
  Zr  Zr4  1  0.250000  0.141498  0.083097  1
  Zr  Zr5  1  0.250000  0.641498  0.416903  1
  Zr  Zr6  1  0.750000  0.853568  0.923626  1
  Zr  Zr7  1  0.750000  0.353568  0.576374  1
  Ir  Ir8  1  0.250000  0.272147  0.412297  1
  Ir  Ir9  1  0.250000  0.772147  0.087703  1
  Pt  Pt10  1  0.750000  0.730501  0.592317  1
  Pt  Pt11  1  0.750000  0.230501  0.907683  1
