# generated using pymatgen
data_Ca2CoCuF10
_symmetry_space_group_name_H-M   'P 1'
_cell_length_a   5.55067731
_cell_length_b   5.51887654
_cell_length_c   7.77398200
_cell_angle_alpha   96.40452066
_cell_angle_beta   110.67355449
_cell_angle_gamma   109.29357410
_symmetry_Int_Tables_number   1
_chemical_formula_structural   Ca2CoCuF10
_chemical_formula_sum   'Ca2 Co1 Cu1 F10'
_cell_volume   203.15318889
_cell_formula_units_Z   1
loop_
 _symmetry_equiv_pos_site_id
 _symmetry_equiv_pos_as_xyz
  1  'x, y, z'
loop_
 _atom_site_type_symbol
 _atom_site_label
 _atom_site_symmetry_multiplicity
 _atom_site_fract_x
 _atom_site_fract_y
 _atom_site_fract_z
 _atom_site_occupancy
  Ca  Ca0  1  0.295521  0.543965  0.748491  1
  Ca  Ca1  1  0.703084  0.457494  0.250702  1
  Co  Co2  1  0.999244  0.000747  0.999520  1
  Cu  Cu3  1  0.499238  0.000940  0.499755  1
  F  F4  1  0.324362  0.074053  0.252295  1
  F  F5  1  0.674374  0.926987  0.746637  1
  F  F6  1  0.586056  0.748153  0.379498  1
  F  F7  1  0.874343  0.211520  0.112672  1
  F  F8  1  0.732606  0.691659  0.025327  1
  F  F9  1  0.162905  0.717871  0.473838  1
  F  F10  1  0.265642  0.310235  0.973963  1
  F  F11  1  0.835614  0.283353  0.525347  1
  F  F12  1  0.124020  0.790099  0.886310  1
  F  F13  1  0.412024  0.252720  0.619818  1
