# generated using pymatgen
data_Y6Ho4(GaBi)3
_symmetry_space_group_name_H-M   'P 1'
_cell_length_a   8.84202700
_cell_length_b   8.87147886
_cell_length_c   6.53676900
_cell_angle_alpha   90.00000000
_cell_angle_beta   90.00000000
_cell_angle_gamma   119.89024504
_symmetry_Int_Tables_number   1
_chemical_formula_structural   Y6Ho4(GaBi)3
_chemical_formula_sum   'Y6 Ho4 Ga3 Bi3'
_cell_volume   444.55027244
_cell_formula_units_Z   1
loop_
 _symmetry_equiv_pos_site_id
 _symmetry_equiv_pos_as_xyz
  1  'x, y, z'
loop_
 _atom_site_type_symbol
 _atom_site_label
 _atom_site_symmetry_multiplicity
 _atom_site_fract_x
 _atom_site_fract_y
 _atom_site_fract_z
 _atom_site_occupancy
  Y  Y0  1  0.233723  0.000000  0.250000  1
  Y  Y1  1  0.243426  0.227358  0.750000  1
  Y  Y2  1  0.016068  0.772642  0.750000  1
  Y  Y3  1  0.017095  0.250762  0.250000  1
  Y  Y4  1  0.766333  0.749238  0.250000  1
  Y  Y5  1  0.754079  0.000000  0.750000  1
  Ho  Ho6  1  0.324200  0.667784  0.004892  1
  Ho  Ho7  1  0.656416  0.332216  0.495108  1
  Ho  Ho8  1  0.656416  0.332216  0.004892  1
  Ho  Ho9  1  0.324200  0.667784  0.495108  1
  Ga  Ga10  1  0.998510  0.601800  0.250000  1
  Ga  Ga11  1  0.396710  0.398200  0.250000  1
  Ga  Ga12  1  0.400158  0.000000  0.750000  1
  Bi  Bi13  1  0.611661  0.000000  0.250000  1
  Bi  Bi14  1  0.604672  0.608339  0.750000  1
  Bi  Bi15  1  0.996333  0.391661  0.750000  1
