# generated using pymatgen
data_Hf6Zr4ZnSn6As
_symmetry_space_group_name_H-M   'P 1'
_cell_length_a   8.65962484
_cell_length_b   8.66589714
_cell_length_c   5.87607423
_cell_angle_alpha   89.96764687
_cell_angle_beta   90.01619082
_cell_angle_gamma   120.02395604
_symmetry_Int_Tables_number   1
_chemical_formula_structural   Hf6Zr4ZnSn6As
_chemical_formula_sum   'Hf6 Zr4 Zn1 Sn6 As1'
_cell_volume   381.79088506
_cell_formula_units_Z   1
loop_
 _symmetry_equiv_pos_site_id
 _symmetry_equiv_pos_as_xyz
  1  'x, y, z'
loop_
 _atom_site_type_symbol
 _atom_site_label
 _atom_site_symmetry_multiplicity
 _atom_site_fract_x
 _atom_site_fract_y
 _atom_site_fract_z
 _atom_site_occupancy
  Hf  Hf0  1  0.666526  0.333417  0.999804  1
  Hf  Hf1  1  0.333474  0.666893  0.999804  1
  Hf  Hf2  1  0.333636  0.667084  0.500357  1
  Hf  Hf3  1  0.666364  0.333448  0.500357  1
  Hf  Hf4  1  0.734081  0.734291  0.747361  1
  Hf  Hf5  1  0.265919  0.000210  0.747361  1
  Zr  Zr6  1  0.000000  0.265887  0.747705  1
  Zr  Zr7  1  0.265190  0.264814  0.252260  1
  Zr  Zr8  1  0.734810  0.999624  0.252260  1
  Zr  Zr9  1  0.000000  0.735091  0.251937  1
  Zn  Zn10  1  0.000000  0.999372  0.998427  1
  Sn  Sn11  1  0.390980  0.390615  0.753089  1
  Sn  Sn12  1  0.609020  0.999635  0.753089  1
  Sn  Sn13  1  0.000000  0.610406  0.753111  1
  Sn  Sn14  1  0.609518  0.609530  0.246920  1
  Sn  Sn15  1  0.390482  0.000012  0.246920  1
  Sn  Sn16  1  0.000000  0.390536  0.246960  1
  As  As17  1  0.000000  0.999134  0.502279  1
