# generated using pymatgen
data_La9Pr8Sm3Sn16
_symmetry_space_group_name_H-M   'P 1'
_cell_length_a   8.32004100
_cell_length_b   8.47448808
_cell_length_c   16.03296900
_cell_angle_alpha   90.00752496
_cell_angle_beta   89.99803047
_cell_angle_gamma   90.00169726
_symmetry_Int_Tables_number   1
_chemical_formula_structural   La9Pr8Sm3Sn16
_chemical_formula_sum   'La9 Pr8 Sm3 Sn16'
_cell_volume   1130.45398296
_cell_formula_units_Z   1
loop_
 _symmetry_equiv_pos_site_id
 _symmetry_equiv_pos_as_xyz
  1  'x, y, z'
loop_
 _atom_site_type_symbol
 _atom_site_label
 _atom_site_symmetry_multiplicity
 _atom_site_fract_x
 _atom_site_fract_y
 _atom_site_fract_z
 _atom_site_occupancy
  La  La0  1  0.867680  0.664560  0.879750  1
  La  La1  1  0.518405  0.318807  0.901077  1
  La  La2  1  0.018150  0.180638  0.598876  1
  La  La3  1  0.481570  0.680825  0.400699  1
  La  La4  1  0.981658  0.819120  0.099194  1
  La  La5  1  0.481560  0.680743  0.099339  1
  La  La6  1  0.981659  0.819155  0.400861  1
  La  La7  1  0.518508  0.318874  0.598844  1
  La  La8  1  0.018216  0.180528  0.901087  1
  Pr  Pr9  1  0.367641  0.835736  0.879642  1
  Pr  Pr10  1  0.867332  0.664529  0.620395  1
  Pr  Pr11  1  0.632554  0.164187  0.379347  1
  Pr  Pr12  1  0.132485  0.335757  0.121000  1
  Pr  Pr13  1  0.632447  0.164187  0.120749  1
  Pr  Pr14  1  0.132568  0.335614  0.378953  1
  Pr  Pr15  1  0.367742  0.835643  0.620342  1
  Pr  Pr16  1  0.197439  0.501661  0.750027  1
  Sm  Sm17  1  0.697904  0.998290  0.749946  1
  Sm  Sm18  1  0.801836  0.498439  0.250038  1
  Sm  Sm19  1  0.301704  0.001542  0.250010  1
  Sn  Sn20  1  0.293387  0.035151  0.043195  1
  Sn  Sn21  1  0.793552  0.464958  0.456845  1
  Sn  Sn22  1  0.706499  0.964999  0.543123  1
  Sn  Sn23  1  0.207920  0.535408  0.958454  1
  Sn  Sn24  1  0.705542  0.966161  0.957077  1
  Sn  Sn25  1  0.206539  0.535872  0.541691  1
  Sn  Sn26  1  0.293466  0.035115  0.456789  1
  Sn  Sn27  1  0.793301  0.464385  0.043814  1
  Sn  Sn28  1  0.567675  0.616965  0.749544  1
  Sn  Sn29  1  0.066241  0.885766  0.749699  1
  Sn  Sn30  1  0.434073  0.383397  0.249976  1
  Sn  Sn31  1  0.933821  0.116559  0.250004  1
  Sn  Sn32  1  0.323794  0.140839  0.749943  1
  Sn  Sn33  1  0.821014  0.355207  0.749627  1
  Sn  Sn34  1  0.677214  0.857078  0.250021  1
  Sn  Sn35  1  0.176905  0.643305  0.250019  1
