# generated using pymatgen
data_Tb5Ho(FeCo3)2
_symmetry_space_group_name_H-M   'P 1'
_cell_length_a   5.51927391
_cell_length_b   5.51927469
_cell_length_c   12.79281800
_cell_angle_alpha   90.00000000
_cell_angle_beta   90.00000000
_cell_angle_gamma   138.14302790
_symmetry_Int_Tables_number   1
_chemical_formula_structural   Tb5Ho(FeCo3)2
_chemical_formula_sum   'Tb5 Ho1 Fe2 Co6'
_cell_volume   260.03630996
_cell_formula_units_Z   1
loop_
 _symmetry_equiv_pos_site_id
 _symmetry_equiv_pos_as_xyz
  1  'x, y, z'
loop_
 _atom_site_type_symbol
 _atom_site_label
 _atom_site_symmetry_multiplicity
 _atom_site_fract_x
 _atom_site_fract_y
 _atom_site_fract_z
 _atom_site_occupancy
  Tb  Tb0  1  0.788964  0.211036  0.395076  1
  Tb  Tb1  1  0.211175  0.788825  0.604558  1
  Tb  Tb2  1  0.788964  0.211036  0.104924  1
  Tb  Tb3  1  0.211175  0.788825  0.895442  1
  Tb  Tb4  1  0.497334  0.502666  0.750000  1
  Ho  Ho5  1  0.503350  0.496650  0.250000  1
  Fe  Fe6  1  0.499985  0.500015  0.499687  1
  Fe  Fe7  1  0.499985  0.500015  0.000313  1
  Co  Co8  1  0.072966  0.927034  0.410136  1
  Co  Co9  1  0.926837  0.073163  0.589177  1
  Co  Co10  1  0.072966  0.927034  0.089864  1
  Co  Co11  1  0.926837  0.073163  0.910823  1
  Co  Co12  1  0.196151  0.803849  0.250000  1
  Co  Co13  1  0.803313  0.196687  0.750000  1
