# generated using pymatgen
data_Pr4ZrP12Ru19
_symmetry_space_group_name_H-M   'P 1'
_cell_length_a   12.60679700
_cell_length_b   12.60679635
_cell_length_c   4.00653500
_cell_angle_alpha   90.00000000
_cell_angle_beta   90.00000000
_cell_angle_gamma   119.99999908
_symmetry_Int_Tables_number   1
_chemical_formula_structural   Pr4ZrP12Ru19
_chemical_formula_sum   'Pr4 Zr1 P12 Ru19'
_cell_volume   551.45372372
_cell_formula_units_Z   1
loop_
 _symmetry_equiv_pos_site_id
 _symmetry_equiv_pos_as_xyz
  1  'x, y, z'
loop_
 _atom_site_type_symbol
 _atom_site_label
 _atom_site_symmetry_multiplicity
 _atom_site_fract_x
 _atom_site_fract_y
 _atom_site_fract_z
 _atom_site_occupancy
  Pr  Pr0  1  0.814863  0.999942  0.500000  1
  Pr  Pr1  1  0.000058  0.814921  0.500000  1
  Pr  Pr2  1  0.185079  0.185137  0.500000  1
  Pr  Pr3  1  0.666667  0.333333  0.000000  1
  Zr  Zr4  1  0.333333  0.666667  0.000000  1
  P  P5  1  0.187300  0.997777  0.000000  1
  P  P6  1  0.002223  0.189523  0.000000  1
  P  P7  1  0.810477  0.812700  0.000000  1
  P  P8  1  0.519421  0.696327  0.500000  1
  P  P9  1  0.303673  0.823093  0.500000  1
  P  P10  1  0.176907  0.480579  0.500000  1
  P  P11  1  0.475782  0.170557  0.500000  1
  P  P12  1  0.694775  0.524218  0.500000  1
  P  P13  1  0.829443  0.305225  0.500000  1
  P  P14  1  0.626105  0.000728  0.000000  1
  P  P15  1  0.999272  0.625378  0.000000  1
  P  P16  1  0.374622  0.373895  0.000000  1
  Ru  Ru17  1  0.444999  0.998401  0.000000  1
  Ru  Ru18  1  0.001599  0.446598  0.000000  1
  Ru  Ru19  1  0.553402  0.555001  0.000000  1
  Ru  Ru20  1  0.285569  0.997245  0.500000  1
  Ru  Ru21  1  0.002755  0.288325  0.500000  1
  Ru  Ru22  1  0.711675  0.714431  0.500000  1
  Ru  Ru23  1  0.615645  0.803634  0.000000  1
  Ru  Ru24  1  0.196366  0.812011  0.000000  1
  Ru  Ru25  1  0.187989  0.384355  0.000000  1
  Ru  Ru26  1  0.378167  0.182720  0.000000  1
  Ru  Ru27  1  0.804554  0.621833  0.000000  1
  Ru  Ru28  1  0.817280  0.195446  0.000000  1
  Ru  Ru29  1  0.500982  0.869866  0.500000  1
  Ru  Ru30  1  0.130134  0.631116  0.500000  1
  Ru  Ru31  1  0.368884  0.499018  0.500000  1
  Ru  Ru32  1  0.489382  0.367479  0.500000  1
  Ru  Ru33  1  0.878097  0.510618  0.500000  1
  Ru  Ru34  1  0.632521  0.121903  0.500000  1
  Ru  Ru35  1  0.000000  0.000000  0.000000  1
