# generated using pymatgen
data_NdCo5As3
_symmetry_space_group_name_H-M   'P 1'
_cell_length_a   3.84230800
_cell_length_b   12.26270400
_cell_length_c   10.76360700
_cell_angle_alpha   90.00000000
_cell_angle_beta   90.00000000
_cell_angle_gamma   90.00000000
_symmetry_Int_Tables_number   1
_chemical_formula_structural   NdCo5As3
_chemical_formula_sum   'Nd4 Co20 As12'
_cell_volume   507.14979325
_cell_formula_units_Z   4
loop_
 _symmetry_equiv_pos_site_id
 _symmetry_equiv_pos_as_xyz
  1  'x, y, z'
loop_
 _atom_site_type_symbol
 _atom_site_label
 _atom_site_symmetry_multiplicity
 _atom_site_fract_x
 _atom_site_fract_y
 _atom_site_fract_z
 _atom_site_occupancy
  Nd  Nd0  1  0.750000  0.701438  0.082503  1
  Nd  Nd1  1  0.250000  0.298562  0.917497  1
  Nd  Nd2  1  0.250000  0.798562  0.582503  1
  Nd  Nd3  1  0.750000  0.201438  0.417497  1
  Co  Co4  1  0.750000  0.695813  0.383142  1
  Co  Co5  1  0.250000  0.304187  0.616858  1
  Co  Co6  1  0.250000  0.804187  0.883142  1
  Co  Co7  1  0.750000  0.195813  0.116858  1
  Co  Co8  1  0.750000  0.990861  0.209980  1
  Co  Co9  1  0.250000  0.009139  0.790020  1
  Co  Co10  1  0.250000  0.509139  0.709980  1
  Co  Co11  1  0.750000  0.490861  0.290020  1
  Co  Co12  1  0.750000  0.676724  0.783712  1
  Co  Co13  1  0.250000  0.323276  0.216288  1
  Co  Co14  1  0.250000  0.823276  0.283712  1
  Co  Co15  1  0.750000  0.176724  0.716288  1
  Co  Co16  1  0.750000  0.932943  0.970442  1
  Co  Co17  1  0.250000  0.067057  0.029558  1
  Co  Co18  1  0.250000  0.567057  0.470442  1
  Co  Co19  1  0.750000  0.432943  0.529558  1
  Co  Co20  1  0.750000  0.989663  0.593670  1
  Co  Co21  1  0.250000  0.010337  0.406330  1
  Co  Co22  1  0.250000  0.510337  0.093670  1
  Co  Co23  1  0.750000  0.489662  0.906330  1
  As  As24  1  0.750000  0.611952  0.584277  1
  As  As25  1  0.250000  0.388048  0.415723  1
  As  As26  1  0.250000  0.888048  0.084277  1
  As  As27  1  0.750000  0.111952  0.915723  1
  As  As28  1  0.750000  0.892102  0.396155  1
  As  As29  1  0.250000  0.107898  0.603845  1
  As  As30  1  0.250000  0.607898  0.896155  1
  As  As31  1  0.750000  0.392102  0.103845  1
  As  As32  1  0.750000  0.870468  0.772737  1
  As  As33  1  0.250000  0.129532  0.227263  1
  As  As34  1  0.250000  0.629532  0.272737  1
  As  As35  1  0.750000  0.370468  0.727263  1
