# generated using pymatgen
data_Yb3(SiAs2)2
_symmetry_space_group_name_H-M   'P 1'
_cell_length_a   17.64501200
_cell_length_b   7.17146978
_cell_length_c   7.28084360
_cell_angle_alpha   68.54614119
_cell_angle_beta   90.00000000
_cell_angle_gamma   90.00000000
_symmetry_Int_Tables_number   1
_chemical_formula_structural   Yb3(SiAs2)2
_chemical_formula_sum   'Yb12 Si8 As16'
_cell_volume   857.48659611
_cell_formula_units_Z   4
loop_
 _symmetry_equiv_pos_site_id
 _symmetry_equiv_pos_as_xyz
  1  'x, y, z'
loop_
 _atom_site_type_symbol
 _atom_site_label
 _atom_site_symmetry_multiplicity
 _atom_site_fract_x
 _atom_site_fract_y
 _atom_site_fract_z
 _atom_site_occupancy
  Yb  Yb0  1  0.316130  0.487053  0.222816  1
  Yb  Yb1  1  0.816130  0.012947  0.777184  1
  Yb  Yb2  1  0.683870  0.512947  0.777184  1
  Yb  Yb3  1  0.183870  0.987053  0.222816  1
  Yb  Yb4  1  0.060913  0.488558  0.253311  1
  Yb  Yb5  1  0.560913  0.011442  0.746689  1
  Yb  Yb6  1  0.939087  0.511442  0.746689  1
  Yb  Yb7  1  0.439087  0.988558  0.253311  1
  Yb  Yb8  1  0.559347  0.499946  0.260121  1
  Yb  Yb9  1  0.059347  0.000054  0.739879  1
  Yb  Yb10  1  0.440653  0.500054  0.739879  1
  Yb  Yb11  1  0.940653  0.999946  0.260121  1
  Si  Si12  1  0.871335  0.470250  0.210412  1
  Si  Si13  1  0.371335  0.029750  0.789588  1
  Si  Si14  1  0.128665  0.529750  0.789588  1
  Si  Si15  1  0.628665  0.970250  0.210412  1
  Si  Si16  1  0.740025  0.081499  0.313422  1
  Si  Si17  1  0.240025  0.418501  0.686578  1
  Si  Si18  1  0.259975  0.918501  0.686578  1
  Si  Si19  1  0.759975  0.581499  0.313422  1
  As  As20  1  0.560178  0.250920  0.006389  1
  As  As21  1  0.060178  0.249080  0.993611  1
  As  As22  1  0.439822  0.749080  0.993611  1
  As  As23  1  0.939822  0.750920  0.006389  1
  As  As24  1  0.813628  0.277728  0.032573  1
  As  As25  1  0.313628  0.222272  0.967427  1
  As  As26  1  0.186372  0.722272  0.967427  1
  As  As27  1  0.686372  0.777728  0.032573  1
  As  As28  1  0.933396  0.258146  0.498767  1
  As  As29  1  0.433396  0.241854  0.501233  1
  As  As30  1  0.066604  0.741854  0.501233  1
  As  As31  1  0.566604  0.758146  0.498767  1
  As  As32  1  0.695630  0.273732  0.503502  1
  As  As33  1  0.195630  0.226268  0.496498  1
  As  As34  1  0.304370  0.726268  0.496498  1
  As  As35  1  0.804370  0.773732  0.503502  1
