# generated using pymatgen
data_SmYGa6(NiHg)2
_symmetry_space_group_name_H-M   'P 1'
_cell_length_a   4.21792304
_cell_length_b   6.60957900
_cell_length_c   8.16807041
_cell_angle_alpha   90.00000000
_cell_angle_beta   104.96302891
_cell_angle_gamma   90.00000000
_symmetry_Int_Tables_number   1
_chemical_formula_structural   SmYGa6(NiHg)2
_chemical_formula_sum   'Sm1 Y1 Ga6 Ni2 Hg2'
_cell_volume   219.99392719
_cell_formula_units_Z   1
loop_
 _symmetry_equiv_pos_site_id
 _symmetry_equiv_pos_as_xyz
  1  'x, y, z'
loop_
 _atom_site_type_symbol
 _atom_site_label
 _atom_site_symmetry_multiplicity
 _atom_site_fract_x
 _atom_site_fract_y
 _atom_site_fract_z
 _atom_site_occupancy
  Sm  Sm0  1  0.124686  0.250000  0.249373  1
  Y  Y1  1  0.875226  0.750000  0.750450  1
  Ga  Ga2  1  0.073278  0.750000  0.146558  1
  Ga  Ga3  1  0.926487  0.250000  0.852973  1
  Ga  Ga4  1  0.689641  0.551725  0.379284  1
  Ga  Ga5  1  0.311404  0.449623  0.622808  1
  Ga  Ga6  1  0.689641  0.948275  0.379284  1
  Ga  Ga7  1  0.311404  0.050377  0.622808  1
  Ni  Ni8  1  0.222248  0.750000  0.444496  1
  Ni  Ni9  1  0.778075  0.250000  0.556151  1
  Hg  Hg10  1  0.498954  0.501413  0.997908  1
  Hg  Hg11  1  0.498954  0.998587  0.997908  1
