# generated using pymatgen
data_CsBi3SeS4
_symmetry_space_group_name_H-M   'P 1'
_cell_length_a   4.14883700
_cell_length_b   12.27945100
_cell_length_c   21.61231200
_cell_angle_alpha   90.00000000
_cell_angle_beta   90.00000000
_cell_angle_gamma   90.00000000
_symmetry_Int_Tables_number   1
_chemical_formula_structural   CsBi3SeS4
_chemical_formula_sum   'Cs4 Bi12 Se4 S16'
_cell_volume   1101.04875827
_cell_formula_units_Z   4
loop_
 _symmetry_equiv_pos_site_id
 _symmetry_equiv_pos_as_xyz
  1  'x, y, z'
loop_
 _atom_site_type_symbol
 _atom_site_label
 _atom_site_symmetry_multiplicity
 _atom_site_fract_x
 _atom_site_fract_y
 _atom_site_fract_z
 _atom_site_occupancy
  Cs  Cs0  1  0.750000  0.002517  0.886826  1
  Cs  Cs1  1  0.250000  0.997483  0.113174  1
  Cs  Cs2  1  0.750000  0.502517  0.613174  1
  Cs  Cs3  1  0.250000  0.497483  0.386826  1
  Bi  Bi4  1  0.250000  0.870311  0.647299  1
  Bi  Bi5  1  0.750000  0.129689  0.352701  1
  Bi  Bi6  1  0.250000  0.370311  0.852701  1
  Bi  Bi7  1  0.750000  0.629689  0.147299  1
  Bi  Bi8  1  0.250000  0.660001  0.971633  1
  Bi  Bi9  1  0.750000  0.339999  0.028367  1
  Bi  Bi10  1  0.250000  0.160001  0.528367  1
  Bi  Bi11  1  0.750000  0.839999  0.471633  1
  Bi  Bi12  1  0.750000  0.646939  0.807780  1
  Bi  Bi13  1  0.250000  0.353061  0.192220  1
  Bi  Bi14  1  0.750000  0.146939  0.692220  1
  Bi  Bi15  1  0.250000  0.853061  0.307780  1
  Se  Se16  1  0.250000  0.714959  0.528396  1
  Se  Se17  1  0.750000  0.285041  0.471604  1
  Se  Se18  1  0.250000  0.214959  0.971604  1
  Se  Se19  1  0.750000  0.785041  0.028396  1
  S  S20  1  0.250000  0.016324  0.740350  1
  S  S21  1  0.750000  0.983676  0.259650  1
  S  S22  1  0.250000  0.516324  0.759650  1
  S  S23  1  0.750000  0.483676  0.240350  1
  S  S24  1  0.250000  0.990457  0.415831  1
  S  S25  1  0.750000  0.009543  0.584169  1
  S  S26  1  0.250000  0.490457  0.084169  1
  S  S27  1  0.750000  0.509543  0.915831  1
  S  S28  1  0.250000  0.749850  0.192324  1
  S  S29  1  0.750000  0.250150  0.807676  1
  S  S30  1  0.250000  0.249850  0.307676  1
  S  S31  1  0.750000  0.750150  0.692324  1
  S  S32  1  0.750000  0.727350  0.367826  1
  S  S33  1  0.250000  0.272650  0.632174  1
  S  S34  1  0.750000  0.227350  0.132174  1
  S  S35  1  0.250000  0.772650  0.867826  1
