# generated using pymatgen
data_LiLa16Cd3Tc4
_symmetry_space_group_name_H-M   'P 1'
_cell_length_a   10.10221689
_cell_length_b   10.10221555
_cell_length_c   10.10091866
_cell_angle_alpha   59.99574581
_cell_angle_beta   59.99575231
_cell_angle_gamma   59.99999628
_symmetry_Int_Tables_number   1
_chemical_formula_structural   LiLa16Cd3Tc4
_chemical_formula_sum   'Li1 La16 Cd3 Tc4'
_cell_volume   728.87201450
_cell_formula_units_Z   1
loop_
 _symmetry_equiv_pos_site_id
 _symmetry_equiv_pos_as_xyz
  1  'x, y, z'
loop_
 _atom_site_type_symbol
 _atom_site_label
 _atom_site_symmetry_multiplicity
 _atom_site_fract_x
 _atom_site_fract_y
 _atom_site_fract_z
 _atom_site_occupancy
  Li  Li0  1  0.679555  0.679555  0.961334  1
  La  La1  1  0.905156  0.905156  0.903184  1
  La  La2  1  0.436144  0.436144  0.063548  1
  La  La3  1  0.061188  0.061188  0.438850  1
  La  La4  1  0.436144  0.064165  0.063548  1
  La  La5  1  0.304615  0.693529  0.308327  1
  La  La6  1  0.693529  0.693529  0.308327  1
  La  La7  1  0.693529  0.304615  0.308327  1
  La  La8  1  0.286505  0.905156  0.903184  1
  La  La9  1  0.905156  0.286505  0.903184  1
  La  La10  1  0.307629  0.692931  0.691812  1
  La  La11  1  0.904128  0.904128  0.287615  1
  La  La12  1  0.064165  0.436144  0.063548  1
  La  La13  1  0.307629  0.307629  0.691812  1
  La  La14  1  0.061188  0.438774  0.438850  1
  La  La15  1  0.438774  0.061188  0.438850  1
  La  La16  1  0.692931  0.307629  0.691812  1
  Cd  Cd17  1  0.986381  0.670124  0.673370  1
  Cd  Cd18  1  0.670124  0.986381  0.673370  1
  Cd  Cd19  1  0.670124  0.670124  0.673370  1
  Tc  Tc20  1  0.113577  0.113577  0.659266  1
  Tc  Tc21  1  0.114371  0.114371  0.118171  1
  Tc  Tc22  1  0.114371  0.653084  0.118171  1
  Tc  Tc23  1  0.653084  0.114371  0.118171  1
