# generated using pymatgen
data_Gd4Ho3(ErSb2)3
_symmetry_space_group_name_H-M   'P 1'
_cell_length_a   8.98911200
_cell_length_b   8.97994347
_cell_length_c   6.24091100
_cell_angle_alpha   90.00000000
_cell_angle_beta   90.00000000
_cell_angle_gamma   120.00338366
_symmetry_Int_Tables_number   1
_chemical_formula_structural   Gd4Ho3(ErSb2)3
_chemical_formula_sum   'Gd4 Ho3 Er3 Sb6'
_cell_volume   436.26885169
_cell_formula_units_Z   1
loop_
 _symmetry_equiv_pos_site_id
 _symmetry_equiv_pos_as_xyz
  1  'x, y, z'
loop_
 _atom_site_type_symbol
 _atom_site_label
 _atom_site_symmetry_multiplicity
 _atom_site_fract_x
 _atom_site_fract_y
 _atom_site_fract_z
 _atom_site_occupancy
  Gd  Gd0  1  0.333220  0.666419  0.499848  1
  Gd  Gd1  1  0.666939  0.333635  0.000422  1
  Gd  Gd2  1  0.666939  0.333635  0.499578  1
  Gd  Gd3  1  0.333220  0.666419  0.000152  1
  Ho  Ho4  1  0.000222  0.755683  0.750000  1
  Ho  Ho5  1  0.999968  0.244423  0.250000  1
  Ho  Ho6  1  0.754823  0.755119  0.250000  1
  Er  Er7  1  0.754624  0.999828  0.750000  1
  Er  Er8  1  0.244786  0.244669  0.750000  1
  Er  Er9  1  0.245294  0.000103  0.250000  1
  Sb  Sb10  1  0.387004  0.000482  0.750000  1
  Sb  Sb11  1  0.386573  0.386206  0.250000  1
  Sb  Sb12  1  0.000491  0.613914  0.250000  1
  Sb  Sb13  1  0.999950  0.385974  0.750000  1
  Sb  Sb14  1  0.613090  0.613463  0.750000  1
  Sb  Sb15  1  0.612856  0.000029  0.250000  1
