# generated using pymatgen
data_Th5B6
_symmetry_space_group_name_H-M   'P 1'
_cell_length_a   3.70218000
_cell_length_b   17.22673146
_cell_length_c   17.22673295
_cell_angle_alpha   169.40905908
_cell_angle_beta   90.00000000
_cell_angle_gamma   90.00000000
_symmetry_Int_Tables_number   1
_chemical_formula_structural   Th5B6
_chemical_formula_sum   'Th5 B6'
_cell_volume   201.92925317
_cell_formula_units_Z   1
loop_
 _symmetry_equiv_pos_site_id
 _symmetry_equiv_pos_as_xyz
  1  'x, y, z'
loop_
 _atom_site_type_symbol
 _atom_site_label
 _atom_site_symmetry_multiplicity
 _atom_site_fract_x
 _atom_site_fract_y
 _atom_site_fract_z
 _atom_site_occupancy
  Th  Th0  1  0.000000  0.000000  0.000000  1
  Th  Th1  1  0.499999  0.798903  0.201094  1
  Th  Th2  1  0.000000  0.604670  0.395327  1
  Th  Th3  1  0.000000  0.395327  0.604670  1
  Th  Th4  1  0.499999  0.201094  0.798903  1
  B  B5  1  0.499999  0.937138  0.062858  1
  B  B6  1  0.000000  0.740587  0.259410  1
  B  B7  1  0.499999  0.547045  0.452951  1
  B  B8  1  0.499999  0.452951  0.547045  1
  B  B9  1  0.000000  0.259410  0.740587  1
  B  B10  1  0.499999  0.062858  0.937138  1
