# generated using pymatgen
data_Tm5Th3(MgRu)2
_symmetry_space_group_name_H-M   'P 1'
_cell_length_a   9.69834142
_cell_length_b   9.76085783
_cell_length_c   9.76082616
_cell_angle_alpha   59.32958014
_cell_angle_beta   60.00395560
_cell_angle_gamma   60.00415177
_symmetry_Int_Tables_number   1
_chemical_formula_structural   Tm5Th3(MgRu)2
_chemical_formula_sum   'Tm10 Th6 Mg4 Ru4'
_cell_volume   650.03168151
_cell_formula_units_Z   2
loop_
 _symmetry_equiv_pos_site_id
 _symmetry_equiv_pos_as_xyz
  1  'x, y, z'
loop_
 _atom_site_type_symbol
 _atom_site_label
 _atom_site_symmetry_multiplicity
 _atom_site_fract_x
 _atom_site_fract_y
 _atom_site_fract_z
 _atom_site_occupancy
  Tm  Tm0  1  0.439613  0.059854  0.439444  1
  Tm  Tm1  1  0.061107  0.437517  0.061362  1
  Tm  Tm2  1  0.439620  0.439439  0.059837  1
  Tm  Tm3  1  0.061098  0.061378  0.437511  1
  Tm  Tm4  1  0.181689  0.819627  0.819628  1
  Tm  Tm5  1  0.816557  0.182920  0.182902  1
  Tm  Tm6  1  0.814246  0.186831  0.815211  1
  Tm  Tm7  1  0.185869  0.814427  0.185918  1
  Tm  Tm8  1  0.814266  0.815250  0.186799  1
  Tm  Tm9  1  0.185850  0.185916  0.814443  1
  Th  Th10  1  0.590399  0.599024  0.599025  1
  Th  Th11  1  0.601663  0.592709  0.206803  1
  Th  Th12  1  0.601674  0.206776  0.592717  1
  Th  Th13  1  0.208787  0.599583  0.599567  1
  Th  Th14  1  0.064817  0.435178  0.435171  1
  Th  Th15  1  0.430811  0.068235  0.068246  1
  Mg  Mg16  1  0.832737  0.829432  0.829442  1
  Mg  Mg17  1  0.828433  0.830990  0.508671  1
  Mg  Mg18  1  0.828448  0.508652  0.830993  1
  Mg  Mg19  1  0.508096  0.828312  0.828303  1
  Ru  Ru20  1  0.381424  0.396546  0.396560  1
  Ru  Ru21  1  0.397618  0.379355  0.824780  1
  Ru  Ru22  1  0.397629  0.824769  0.379367  1
  Ru  Ru23  1  0.827552  0.397283  0.397303  1
