# generated using pymatgen
data_Y9LuIn3Tc
_symmetry_space_group_name_H-M   'P 1'
_cell_length_a   9.72433800
_cell_length_b   9.72433909
_cell_length_c   9.75098500
_cell_angle_alpha   90.00000000
_cell_angle_beta   90.00000000
_cell_angle_gamma   119.99999630
_symmetry_Int_Tables_number   1
_chemical_formula_structural   Y9LuIn3Tc
_chemical_formula_sum   'Y18 Lu2 In6 Tc2'
_cell_volume   798.54478221
_cell_formula_units_Z   2
loop_
 _symmetry_equiv_pos_site_id
 _symmetry_equiv_pos_as_xyz
  1  'x, y, z'
loop_
 _atom_site_type_symbol
 _atom_site_label
 _atom_site_symmetry_multiplicity
 _atom_site_fract_x
 _atom_site_fract_y
 _atom_site_fract_z
 _atom_site_occupancy
  Y  Y0  1  0.537913  0.462087  0.250000  1
  Y  Y1  1  0.537913  0.075827  0.250000  1
  Y  Y2  1  0.924173  0.462087  0.250000  1
  Y  Y3  1  0.462087  0.537913  0.750000  1
  Y  Y4  1  0.462087  0.924173  0.750000  1
  Y  Y5  1  0.075827  0.537913  0.750000  1
  Y  Y6  1  0.208433  0.791567  0.438335  1
  Y  Y7  1  0.208433  0.416867  0.438335  1
  Y  Y8  1  0.583133  0.791567  0.438335  1
  Y  Y9  1  0.791567  0.208433  0.561665  1
  Y  Y10  1  0.791567  0.583133  0.561665  1
  Y  Y11  1  0.416867  0.208433  0.561665  1
  Y  Y12  1  0.791567  0.208433  0.938335  1
  Y  Y13  1  0.791567  0.583133  0.938335  1
  Y  Y14  1  0.416867  0.208433  0.938335  1
  Y  Y15  1  0.208433  0.791567  0.061665  1
  Y  Y16  1  0.208433  0.416867  0.061665  1
  Y  Y17  1  0.583133  0.791567  0.061665  1
  Lu  Lu18  1  0.000000  0.000000  0.500000  1
  Lu  Lu19  1  0.000000  0.000000  0.000000  1
  In  In20  1  0.885428  0.114572  0.250000  1
  In  In21  1  0.885428  0.770857  0.250000  1
  In  In22  1  0.229143  0.114572  0.250000  1
  In  In23  1  0.114572  0.885428  0.750000  1
  In  In24  1  0.114572  0.229143  0.750000  1
  In  In25  1  0.770857  0.885428  0.750000  1
  Tc  Tc26  1  0.333333  0.666667  0.250000  1
  Tc  Tc27  1  0.666667  0.333333  0.750000  1
