# generated using pymatgen
data_Ba2Zn21Cu5
_symmetry_space_group_name_H-M   'P 1'
_cell_length_a   8.63083550
_cell_length_b   8.65112175
_cell_length_c   8.65422929
_cell_angle_alpha   59.65556421
_cell_angle_beta   60.06474425
_cell_angle_gamma   60.10046516
_symmetry_Int_Tables_number   1
_chemical_formula_structural   Ba2Zn21Cu5
_chemical_formula_sum   'Ba2 Zn21 Cu5'
_cell_volume   456.28231619
_cell_formula_units_Z   1
loop_
 _symmetry_equiv_pos_site_id
 _symmetry_equiv_pos_as_xyz
  1  'x, y, z'
loop_
 _atom_site_type_symbol
 _atom_site_label
 _atom_site_symmetry_multiplicity
 _atom_site_fract_x
 _atom_site_fract_y
 _atom_site_fract_z
 _atom_site_occupancy
  Ba  Ba0  1  0.249791  0.250599  0.250595  1
  Ba  Ba1  1  0.750993  0.749400  0.749397  1
  Zn  Zn2  1  0.937337  0.708344  0.291659  1
  Zn  Zn3  1  0.437643  0.206000  0.563240  1
  Zn  Zn4  1  0.206897  0.436759  0.793996  1
  Zn  Zn5  1  0.796016  0.203709  0.442125  1
  Zn  Zn6  1  0.441875  0.557848  0.796287  1
  Zn  Zn7  1  0.198368  0.557291  0.442705  1
  Zn  Zn8  1  0.804371  0.437730  0.562272  1
  Zn  Zn9  1  0.297007  0.942685  0.702576  1
  Zn  Zn10  1  0.708041  0.290712  0.940054  1
  Zn  Zn11  1  0.938775  0.059971  0.709271  1
  Zn  Zn12  1  0.942295  0.297424  0.057312  1
  Zn  Zn13  1  0.699532  0.060645  0.297373  1
  Zn  Zn14  1  0.062390  0.944763  0.290640  1
  Zn  Zn15  1  0.057511  0.702625  0.939356  1
  Zn  Zn16  1  0.297750  0.709350  0.055241  1
  Zn  Zn17  1  0.557603  0.441434  0.203773  1
  Zn  Zn18  1  0.556650  0.796852  0.438350  1
  Zn  Zn19  1  0.442449  0.810270  0.189732  1
  Zn  Zn20  1  0.556783  0.189240  0.810760  1
  Zn  Zn21  1  0.791817  0.561674  0.203165  1
  Zn  Zn22  1  0.202835  0.796232  0.558573  1
  Cu  Cu23  1  0.000283  0.999862  0.000128  1
  Cu  Cu24  1  0.501514  0.499748  0.500242  1
  Cu  Cu25  1  0.711593  0.934513  0.065497  1
  Cu  Cu26  1  0.287060  0.065758  0.934217  1
  Cu  Cu27  1  0.064818  0.288562  0.711464  1
