# generated using pymatgen
data_Sc12Ni2HgI16
_symmetry_space_group_name_H-M   'P 1'
_cell_length_a   9.30100969
_cell_length_b   12.02913557
_cell_length_c   12.64337700
_cell_angle_alpha   117.18126912
_cell_angle_beta   101.33595392
_cell_angle_gamma   100.80801291
_symmetry_Int_Tables_number   1
_chemical_formula_structural   Sc12Ni2HgI16
_chemical_formula_sum   'Sc12 Ni2 Hg1 I16'
_cell_volume   1169.79265975
_cell_formula_units_Z   1
loop_
 _symmetry_equiv_pos_site_id
 _symmetry_equiv_pos_as_xyz
  1  'x, y, z'
loop_
 _atom_site_type_symbol
 _atom_site_label
 _atom_site_symmetry_multiplicity
 _atom_site_fract_x
 _atom_site_fract_y
 _atom_site_fract_z
 _atom_site_occupancy
  Sc  Sc0  1  0.099754  0.270787  0.358814  1
  Sc  Sc1  1  0.900246  0.729213  0.641186  1
  Sc  Sc2  1  0.769695  0.535177  0.329843  1
  Sc  Sc3  1  0.230305  0.464823  0.670157  1
  Sc  Sc4  1  0.286213  0.729263  0.640426  1
  Sc  Sc5  1  0.713787  0.270737  0.359574  1
  Sc  Sc6  1  0.155764  0.534973  0.329441  1
  Sc  Sc7  1  0.844236  0.465027  0.670559  1
  Sc  Sc8  1  0.410816  0.366699  0.286285  1
  Sc  Sc9  1  0.589184  0.633301  0.713715  1
  Sc  Sc10  1  0.461214  0.319000  0.520255  1
  Sc  Sc11  1  0.538786  0.681000  0.479745  1
  Ni  Ni12  1  0.352028  0.500296  0.499810  1
  Ni  Ni13  1  0.647973  0.499704  0.500190  1
  Hg  Hg14  1  0.000000  0.500000  0.500000  1
  I  I15  1  0.397875  0.737843  0.880681  1
  I  I16  1  0.602125  0.262157  0.119319  1
  I  I17  1  0.184328  0.953945  0.777699  1
  I  I18  1  0.815672  0.046055  0.222301  1
  I  I19  1  0.337792  0.099777  0.253916  1
  I  I20  1  0.662208  0.900223  0.746084  1
  I  I21  1  0.562027  0.438862  0.797441  1
  I  I22  1  0.437973  0.561138  0.202559  1
  I  I23  1  0.308969  0.822997  0.462818  1
  I  I24  1  0.691031  0.177003  0.537182  1
  I  I25  1  0.170837  0.176528  0.535530  1
  I  I26  1  0.829163  0.823472  0.464470  1
  I  I27  1  0.926527  0.571546  0.164620  1
  I  I28  1  0.073473  0.428454  0.835380  1
  I  I29  1  0.919802  0.737136  0.881206  1
  I  I30  1  0.080198  0.262864  0.118794  1
