# generated using pymatgen
data_Cs4TaCrBr12
_symmetry_space_group_name_H-M   'P 1'
_cell_length_a   7.87209000
_cell_length_b   7.87209000
_cell_length_c   11.17959800
_cell_angle_alpha   90.00000000
_cell_angle_beta   90.00000000
_cell_angle_gamma   90.00000000
_symmetry_Int_Tables_number   1
_chemical_formula_structural   Cs4TaCrBr12
_chemical_formula_sum   'Cs4 Ta1 Cr1 Br12'
_cell_volume   692.79746296
_cell_formula_units_Z   1
loop_
 _symmetry_equiv_pos_site_id
 _symmetry_equiv_pos_as_xyz
  1  'x, y, z'
loop_
 _atom_site_type_symbol
 _atom_site_label
 _atom_site_symmetry_multiplicity
 _atom_site_fract_x
 _atom_site_fract_y
 _atom_site_fract_z
 _atom_site_occupancy
  Cs  Cs0  1  0.500000  0.000000  0.780767  1
  Cs  Cs1  1  0.000000  0.500000  0.219233  1
  Cs  Cs2  1  0.500000  0.000000  0.219233  1
  Cs  Cs3  1  0.000000  0.500000  0.780767  1
  Ta  Ta4  1  0.500000  0.500000  0.500000  1
  Cr  Cr5  1  0.000000  0.000000  0.000000  1
  Br  Br6  1  0.000000  0.000000  0.772108  1
  Br  Br7  1  0.500000  0.500000  0.271864  1
  Br  Br8  1  0.728257  0.728257  0.500000  1
  Br  Br9  1  0.228320  0.228320  0.000000  1
  Br  Br10  1  0.728257  0.271743  0.500000  1
  Br  Br11  1  0.228320  0.771680  0.000000  1
  Br  Br12  1  0.000000  0.000000  0.227892  1
  Br  Br13  1  0.500000  0.500000  0.728136  1
  Br  Br14  1  0.271743  0.271743  0.500000  1
  Br  Br15  1  0.771680  0.771680  0.000000  1
  Br  Br16  1  0.271743  0.728257  0.500000  1
  Br  Br17  1  0.771680  0.228320  0.000000  1
