# generated using pymatgen
data_Tm8Re11Si16Tc
_symmetry_space_group_name_H-M   'P 1'
_cell_length_a   6.74807820
_cell_length_b   6.74807820
_cell_length_c   12.68298118
_cell_angle_alpha   89.98632400
_cell_angle_beta   90.01367600
_cell_angle_gamma   90.02440303
_symmetry_Int_Tables_number   1
_chemical_formula_structural   Tm8Re11Si16Tc
_chemical_formula_sum   'Tm8 Re11 Si16 Tc1'
_cell_volume   577.53924072
_cell_formula_units_Z   1
loop_
 _symmetry_equiv_pos_site_id
 _symmetry_equiv_pos_as_xyz
  1  'x, y, z'
loop_
 _atom_site_type_symbol
 _atom_site_label
 _atom_site_symmetry_multiplicity
 _atom_site_fract_x
 _atom_site_fract_y
 _atom_site_fract_z
 _atom_site_occupancy
  Tm  Tm0  1  0.007318  0.661647  0.030839  1
  Tm  Tm1  1  0.992728  0.338339  0.530859  1
  Tm  Tm2  1  0.338339  0.992728  0.469141  1
  Tm  Tm3  1  0.161551  0.492588  0.780789  1
  Tm  Tm4  1  0.838520  0.507187  0.280771  1
  Tm  Tm5  1  0.492588  0.161551  0.219211  1
  Tm  Tm6  1  0.507187  0.838520  0.719229  1
  Tm  Tm7  1  0.661647  0.007318  0.969161  1
  Re  Re8  1  0.165131  0.835137  0.249790  1
  Re  Re9  1  0.335071  0.335071  0.000000  1
  Re  Re10  1  0.020120  0.813104  0.630791  1
  Re  Re11  1  0.979693  0.187233  0.130952  1
  Re  Re12  1  0.813104  0.020120  0.369209  1
  Re  Re13  1  0.313071  0.479872  0.381015  1
  Re  Re14  1  0.687060  0.520036  0.880925  1
  Re  Re15  1  0.479872  0.313071  0.618985  1
  Re  Re16  1  0.520036  0.687060  0.119075  1
  Re  Re17  1  0.187233  0.979693  0.869048  1
  Re  Re18  1  0.835137  0.165131  0.750210  1
  Si  Si19  1  0.020538  0.725052  0.437998  1
  Si  Si20  1  0.615203  0.304781  0.434035  1
  Si  Si21  1  0.384736  0.695449  0.933844  1
  Si  Si22  1  0.195441  0.115309  0.683780  1
  Si  Si23  1  0.304781  0.615203  0.565965  1
  Si  Si24  1  0.695449  0.384736  0.066156  1
  Si  Si25  1  0.804556  0.884736  0.183862  1
  Si  Si26  1  0.115309  0.195441  0.316220  1
  Si  Si27  1  0.979148  0.274709  0.937841  1
  Si  Si28  1  0.725052  0.020538  0.562002  1
  Si  Si29  1  0.225156  0.479077  0.187884  1
  Si  Si30  1  0.774695  0.520837  0.687882  1
  Si  Si31  1  0.479077  0.225156  0.812116  1
  Si  Si32  1  0.520837  0.774695  0.312118  1
  Si  Si33  1  0.274709  0.979148  0.062159  1
  Si  Si34  1  0.884736  0.804556  0.816138  1
  Tc  Tc35  1  0.665170  0.665170  0.500000  1
