# generated using pymatgen
data_Nb3Pd2Pt7
_symmetry_space_group_name_H-M   'P 1'
_cell_length_a   5.61633500
_cell_length_b   13.83923100
_cell_length_c   4.93824300
_cell_angle_alpha   90.00000000
_cell_angle_beta   90.00000000
_cell_angle_gamma   90.00000000
_symmetry_Int_Tables_number   1
_chemical_formula_structural   Nb3Pd2Pt7
_chemical_formula_sum   'Nb6 Pd4 Pt14'
_cell_volume   383.82867759
_cell_formula_units_Z   2
loop_
 _symmetry_equiv_pos_site_id
 _symmetry_equiv_pos_as_xyz
  1  'x, y, z'
loop_
 _atom_site_type_symbol
 _atom_site_label
 _atom_site_symmetry_multiplicity
 _atom_site_fract_x
 _atom_site_fract_y
 _atom_site_fract_z
 _atom_site_occupancy
  Nb  Nb0  1  0.499999  0.500000  0.008303  1
  Nb  Nb1  1  0.000000  0.335962  0.331570  1
  Nb  Nb2  1  0.000000  0.664038  0.331570  1
  Nb  Nb3  1  0.499999  0.164038  0.668430  1
  Nb  Nb4  1  0.499999  0.835962  0.668430  1
  Nb  Nb5  1  0.000000  0.000000  0.991697  1
  Pd  Pd6  1  0.499999  0.334294  0.338747  1
  Pd  Pd7  1  0.499999  0.665705  0.338747  1
  Pd  Pd8  1  0.000000  0.165705  0.661253  1
  Pd  Pd9  1  0.000000  0.834295  0.661253  1
  Pt  Pt10  1  0.000000  0.500000  0.023816  1
  Pt  Pt11  1  0.248558  0.167497  0.164044  1
  Pt  Pt12  1  0.751441  0.167497  0.164044  1
  Pt  Pt13  1  0.248558  0.832504  0.164044  1
  Pt  Pt14  1  0.751441  0.832504  0.164044  1
  Pt  Pt15  1  0.247139  0.000000  0.490516  1
  Pt  Pt16  1  0.752860  0.000000  0.490516  1
  Pt  Pt17  1  0.252860  0.500000  0.509484  1
  Pt  Pt18  1  0.747140  0.500000  0.509484  1
  Pt  Pt19  1  0.251441  0.332503  0.835956  1
  Pt  Pt20  1  0.748559  0.332503  0.835956  1
  Pt  Pt21  1  0.251441  0.667497  0.835956  1
  Pt  Pt22  1  0.748559  0.667497  0.835956  1
  Pt  Pt23  1  0.499999  0.000000  0.976184  1
