# generated using pymatgen
data_BaCa5Pb18
_symmetry_space_group_name_H-M   'P 1'
_cell_length_a   7.03191200
_cell_length_b   7.03191249
_cell_length_c   17.42091200
_cell_angle_alpha   90.00000000
_cell_angle_beta   90.00000000
_cell_angle_gamma   119.99999767
_symmetry_Int_Tables_number   1
_chemical_formula_structural   BaCa5Pb18
_chemical_formula_sum   'Ba1 Ca5 Pb18'
_cell_volume   746.01646675
_cell_formula_units_Z   1
loop_
 _symmetry_equiv_pos_site_id
 _symmetry_equiv_pos_as_xyz
  1  'x, y, z'
loop_
 _atom_site_type_symbol
 _atom_site_label
 _atom_site_symmetry_multiplicity
 _atom_site_fract_x
 _atom_site_fract_y
 _atom_site_fract_z
 _atom_site_occupancy
  Ba  Ba0  1  0.000000  0.000000  0.416786  1
  Ca  Ca1  1  0.666667  0.333333  0.581619  1
  Ca  Ca2  1  0.666667  0.333333  0.917481  1
  Ca  Ca3  1  0.000000  0.000000  0.082512  1
  Ca  Ca4  1  0.333333  0.666667  0.250748  1
  Ca  Ca5  1  0.333333  0.666667  0.752200  1
  Pb  Pb6  1  0.001554  0.500776  0.418189  1
  Pb  Pb7  1  0.499224  0.500776  0.418189  1
  Pb  Pb8  1  0.499224  0.998446  0.418189  1
  Pb  Pb9  1  0.655609  0.827804  0.585623  1
  Pb  Pb10  1  0.172196  0.827804  0.585623  1
  Pb  Pb11  1  0.172196  0.344391  0.585623  1
  Pb  Pb12  1  0.665793  0.832896  0.917931  1
  Pb  Pb13  1  0.167104  0.832896  0.917931  1
  Pb  Pb14  1  0.167104  0.334207  0.917931  1
  Pb  Pb15  1  0.003926  0.501964  0.081279  1
  Pb  Pb16  1  0.498036  0.501964  0.081279  1
  Pb  Pb17  1  0.498036  0.996074  0.081279  1
  Pb  Pb18  1  0.351752  0.175877  0.246608  1
  Pb  Pb19  1  0.824123  0.175877  0.246608  1
  Pb  Pb20  1  0.824123  0.648248  0.246608  1
  Pb  Pb21  1  0.322358  0.161178  0.749740  1
  Pb  Pb22  1  0.838822  0.161178  0.749740  1
  Pb  Pb23  1  0.838822  0.677642  0.749740  1
