# generated using pymatgen
data_Er12CuTc3
_symmetry_space_group_name_H-M   'P 1'
_cell_length_a   6.24784800
_cell_length_b   7.37786486
_cell_length_c   9.08800700
_cell_angle_alpha   90.00000000
_cell_angle_beta   90.00000000
_cell_angle_gamma   89.80019069
_symmetry_Int_Tables_number   1
_chemical_formula_structural   Er12CuTc3
_chemical_formula_sum   'Er12 Cu1 Tc3'
_cell_volume   418.91620787
_cell_formula_units_Z   1
loop_
 _symmetry_equiv_pos_site_id
 _symmetry_equiv_pos_as_xyz
  1  'x, y, z'
loop_
 _atom_site_type_symbol
 _atom_site_label
 _atom_site_symmetry_multiplicity
 _atom_site_fract_x
 _atom_site_fract_y
 _atom_site_fract_z
 _atom_site_occupancy
  Er  Er0  1  0.330535  0.676402  0.067984  1
  Er  Er1  1  0.163853  0.178083  0.436228  1
  Er  Er2  1  0.665093  0.315826  0.558226  1
  Er  Er3  1  0.841429  0.829696  0.941519  1
  Er  Er4  1  0.665093  0.315826  0.941774  1
  Er  Er5  1  0.841429  0.829696  0.558481  1
  Er  Er6  1  0.330535  0.676402  0.432016  1
  Er  Er7  1  0.163853  0.178083  0.063772  1
  Er  Er8  1  0.871837  0.542222  0.250000  1
  Er  Er9  1  0.622753  0.037311  0.250000  1
  Er  Er10  1  0.127260  0.456170  0.750000  1
  Er  Er11  1  0.370339  0.966503  0.750000  1
  Cu  Cu12  1  0.548965  0.612642  0.750000  1
  Tc  Tc13  1  0.036486  0.884597  0.250000  1
  Tc  Tc14  1  0.463959  0.384908  0.250000  1
  Tc  Tc15  1  0.956580  0.115634  0.750000  1
