# generated using pymatgen
data_Tb5YSi10
_symmetry_space_group_name_H-M   'P 1'
_cell_length_a   6.69162007
_cell_length_b   6.69161963
_cell_length_c   8.31928404
_cell_angle_alpha   90.00998698
_cell_angle_beta   89.99001301
_cell_angle_gamma   120.01328092
_symmetry_Int_Tables_number   1
_chemical_formula_structural   Tb5YSi10
_chemical_formula_sum   'Tb5 Y1 Si10'
_cell_volume   322.56776186
_cell_formula_units_Z   1
loop_
 _symmetry_equiv_pos_site_id
 _symmetry_equiv_pos_as_xyz
  1  'x, y, z'
loop_
 _atom_site_type_symbol
 _atom_site_label
 _atom_site_symmetry_multiplicity
 _atom_site_fract_x
 _atom_site_fract_y
 _atom_site_fract_z
 _atom_site_occupancy
  Tb  Tb0  1  0.330727  0.000000  0.999997  1
  Tb  Tb1  1  0.330729  0.999976  0.500002  1
  Tb  Tb2  1  0.999976  0.330729  0.499998  1
  Tb  Tb3  1  0.000000  0.330727  0.000003  1
  Tb  Tb4  1  0.669265  0.669265  0.000000  1
  Y  Y5  1  0.669272  0.669272  0.500000  1
  Si  Si6  1  0.380200  0.331363  0.250036  1
  Si  Si7  1  0.668718  0.048878  0.250018  1
  Si  Si8  1  0.951108  0.619869  0.250052  1
  Si  Si9  1  0.619869  0.951108  0.749948  1
  Si  Si10  1  0.999960  0.999956  0.250035  1
  Si  Si11  1  0.666646  0.333332  0.749986  1
  Si  Si12  1  0.048878  0.668718  0.749982  1
  Si  Si13  1  0.331363  0.380200  0.749964  1
  Si  Si14  1  0.333332  0.666646  0.250014  1
  Si  Si15  1  0.999956  0.999960  0.749965  1
