# generated using pymatgen
data_Yb4NiSb8Pd5
_symmetry_space_group_name_H-M   'P 1'
_cell_length_a   4.46943375
_cell_length_b   4.46943220
_cell_length_c   20.90819574
_cell_angle_alpha   96.13562717
_cell_angle_beta   96.13562395
_cell_angle_gamma   90.00000065
_symmetry_Int_Tables_number   1
_chemical_formula_structural   Yb4NiSb8Pd5
_chemical_formula_sum   'Yb4 Ni1 Sb8 Pd5'
_cell_volume   412.85975849
_cell_formula_units_Z   1
loop_
 _symmetry_equiv_pos_site_id
 _symmetry_equiv_pos_as_xyz
  1  'x, y, z'
loop_
 _atom_site_type_symbol
 _atom_site_label
 _atom_site_symmetry_multiplicity
 _atom_site_fract_x
 _atom_site_fract_y
 _atom_site_fract_z
 _atom_site_occupancy
  Yb  Yb0  1  0.056147  0.056147  0.112295  1
  Yb  Yb1  1  0.184419  0.184419  0.368839  1
  Yb  Yb2  1  0.814793  0.814793  0.629586  1
  Yb  Yb3  1  0.945976  0.945976  0.891952  1
  Ni  Ni4  1  0.652410  0.652410  0.304821  1
  Sb  Sb5  1  0.538886  0.538886  0.077772  1
  Sb  Sb6  1  0.620065  0.120065  0.240131  1
  Sb  Sb7  1  0.120065  0.620065  0.240131  1
  Sb  Sb8  1  0.711513  0.711513  0.423027  1
  Sb  Sb9  1  0.283435  0.283435  0.566871  1
  Sb  Sb10  1  0.883418  0.383418  0.766836  1
  Sb  Sb11  1  0.383418  0.883418  0.766836  1
  Sb  Sb12  1  0.462514  0.462514  0.925027  1
  Pd  Pd13  1  0.500752  0.000752  0.001505  1
  Pd  Pd14  1  0.000752  0.500752  0.001505  1
  Pd  Pd15  1  0.747819  0.247819  0.495637  1
  Pd  Pd16  1  0.247819  0.747819  0.495637  1
  Pd  Pd17  1  0.345798  0.345798  0.691594  1
