# generated using pymatgen
data_DyEr5Al24Os7Rh
_symmetry_space_group_name_H-M   'P 1'
_cell_length_a   8.79120286
_cell_length_b   8.78617520
_cell_length_c   9.52919204
_cell_angle_alpha   89.71574807
_cell_angle_beta   90.27975582
_cell_angle_gamma   119.69483150
_symmetry_Int_Tables_number   1
_chemical_formula_structural   DyEr5Al24Os7Rh
_chemical_formula_sum   'Dy1 Er5 Al24 Os7 Rh1'
_cell_volume   639.37422986
_cell_formula_units_Z   1
loop_
 _symmetry_equiv_pos_site_id
 _symmetry_equiv_pos_as_xyz
  1  'x, y, z'
loop_
 _atom_site_type_symbol
 _atom_site_label
 _atom_site_symmetry_multiplicity
 _atom_site_fract_x
 _atom_site_fract_y
 _atom_site_fract_z
 _atom_site_occupancy
  Dy  Dy0  1  0.189973  0.386765  0.251762  1
  Er  Er1  1  0.809793  0.612255  0.748030  1
  Er  Er2  1  0.612155  0.809848  0.251958  1
  Er  Er3  1  0.387831  0.190249  0.748037  1
  Er  Er4  1  0.195204  0.804928  0.251528  1
  Er  Er5  1  0.804882  0.195086  0.748443  1
  Al  Al6  1  0.333017  0.667409  0.019195  1
  Al  Al7  1  0.667063  0.333059  0.980583  1
  Al  Al8  1  0.666814  0.333415  0.517049  1
  Al  Al9  1  0.333472  0.666983  0.483165  1
  Al  Al10  1  0.164052  0.325321  0.577818  1
  Al  Al11  1  0.835964  0.674658  0.422750  1
  Al  Al12  1  0.674840  0.836101  0.577476  1
  Al  Al13  1  0.839181  0.675399  0.077434  1
  Al  Al14  1  0.325391  0.163676  0.422764  1
  Al  Al15  1  0.160783  0.324593  0.922039  1
  Al  Al16  1  0.163479  0.836620  0.576079  1
  Al  Al17  1  0.324655  0.160591  0.077442  1
  Al  Al18  1  0.836143  0.163249  0.424155  1
  Al  Al19  1  0.675485  0.839175  0.922369  1
  Al  Al20  1  0.836413  0.163058  0.075837  1
  Al  Al21  1  0.163231  0.836846  0.923923  1
  Al  Al22  1  0.560019  0.122054  0.249474  1
  Al  Al23  1  0.439903  0.877892  0.750529  1
  Al  Al24  1  0.877324  0.440054  0.249463  1
  Al  Al25  1  0.122022  0.560075  0.750494  1
  Al  Al26  1  0.560778  0.439919  0.249936  1
  Al  Al27  1  0.439966  0.560138  0.750164  1
  Al  Al28  1  0.999081  0.999685  0.250121  1
  Al  Al29  1  0.000519  0.999516  0.749899  1
  Os  Os30  1  0.500161  0.000266  0.999851  1
  Os  Os31  1  0.999677  0.500224  0.999599  1
  Os  Os32  1  0.500141  0.000262  0.500133  1
  Os  Os33  1  0.999808  0.500196  0.500342  1
  Os  Os34  1  0.500427  0.500168  0.500345  1
  Os  Os35  1  0.000003  0.000029  0.999968  1
  Os  Os36  1  0.000021  0.000040  0.500068  1
  Rh  Rh37  1  0.500330  0.500199  0.999778  1
