# generated using pymatgen
data_LaPrTe2(RhO6)2
_symmetry_space_group_name_H-M   'P 1'
_cell_length_a   5.30490600
_cell_length_b   5.30489305
_cell_length_c   10.30961300
_cell_angle_alpha   90.00063594
_cell_angle_beta   90.00016547
_cell_angle_gamma   120.00078072
_symmetry_Int_Tables_number   1
_chemical_formula_structural   LaPrTe2(RhO6)2
_chemical_formula_sum   'La1 Pr1 Te2 Rh2 O12'
_cell_volume   251.26031702
_cell_formula_units_Z   1
loop_
 _symmetry_equiv_pos_site_id
 _symmetry_equiv_pos_as_xyz
  1  'x, y, z'
loop_
 _atom_site_type_symbol
 _atom_site_label
 _atom_site_symmetry_multiplicity
 _atom_site_fract_x
 _atom_site_fract_y
 _atom_site_fract_z
 _atom_site_occupancy
  La  La0  1  0.000030  0.000035  0.000022  1
  Pr  Pr1  1  0.999979  0.999984  0.499994  1
  Te  Te2  1  0.666678  0.333325  0.250792  1
  Te  Te3  1  0.333315  0.666659  0.749216  1
  Rh  Rh4  1  0.333392  0.666632  0.250721  1
  Rh  Rh5  1  0.666623  0.333279  0.749247  1
  O  O6  1  0.640367  0.628975  0.144184  1
  O  O7  1  0.988582  0.359608  0.144182  1
  O  O8  1  0.371038  0.011418  0.144182  1
  O  O9  1  0.369040  0.357648  0.356953  1
  O  O10  1  0.988595  0.630961  0.356959  1
  O  O11  1  0.642372  0.011397  0.356954  1
  O  O12  1  0.357649  0.988632  0.643048  1
  O  O13  1  0.630952  0.642372  0.643043  1
  O  O14  1  0.011387  0.369037  0.643043  1
  O  O15  1  0.011418  0.640396  0.855824  1
  O  O16  1  0.628967  0.988609  0.855817  1
  O  O17  1  0.359613  0.371038  0.855817  1
