# generated using pymatgen
data_ErLu7Tc3OsC8
_symmetry_space_group_name_H-M   'P 1'
_cell_length_a   4.97732700
_cell_length_b   6.45889308
_cell_length_c   9.67486816
_cell_angle_alpha   89.71490310
_cell_angle_beta   90.00000000
_cell_angle_gamma   90.00000000
_symmetry_Int_Tables_number   1
_chemical_formula_structural   ErLu7Tc3OsC8
_chemical_formula_sum   'Er1 Lu7 Tc3 Os1 C8'
_cell_volume   311.02403317
_cell_formula_units_Z   1
loop_
 _symmetry_equiv_pos_site_id
 _symmetry_equiv_pos_as_xyz
  1  'x, y, z'
loop_
 _atom_site_type_symbol
 _atom_site_label
 _atom_site_symmetry_multiplicity
 _atom_site_fract_x
 _atom_site_fract_y
 _atom_site_fract_z
 _atom_site_occupancy
  Er  Er0  1  0.250000  0.033033  0.283469  1
  Lu  Lu1  1  0.250000  0.674845  0.558820  1
  Lu  Lu2  1  0.750000  0.325031  0.441029  1
  Lu  Lu3  1  0.750000  0.825601  0.058770  1
  Lu  Lu4  1  0.250000  0.173542  0.941508  1
  Lu  Lu5  1  0.250000  0.533291  0.217441  1
  Lu  Lu6  1  0.750000  0.464365  0.782130  1
  Lu  Lu7  1  0.750000  0.966196  0.715338  1
  Tc  Tc8  1  0.250000  0.715201  0.868675  1
  Tc  Tc9  1  0.750000  0.284967  0.129820  1
  Tc  Tc10  1  0.750000  0.783297  0.369688  1
  Os  Os11  1  0.250000  0.216205  0.631413  1
  C  C12  1  0.250000  0.448458  0.759365  1
  C  C13  1  0.750000  0.551855  0.240771  1
  C  C14  1  0.750000  0.051971  0.259461  1
  C  C15  1  0.250000  0.949449  0.741054  1
  C  C16  1  0.250000  0.825357  0.053850  1
  C  C17  1  0.750000  0.174158  0.944260  1
  C  C18  1  0.750000  0.673385  0.556408  1
  C  C19  1  0.250000  0.329792  0.446729  1
