# generated using pymatgen
data_Li7TbDy7ZnSn8
_symmetry_space_group_name_H-M   'P 1'
_cell_length_a   9.38190100
_cell_length_b   9.38036462
_cell_length_c   7.28641517
_cell_angle_alpha   89.95139231
_cell_angle_beta   90.00000000
_cell_angle_gamma   120.00541463
_symmetry_Int_Tables_number   1
_chemical_formula_structural   Li7TbDy7ZnSn8
_chemical_formula_sum   'Li7 Tb1 Dy7 Zn1 Sn8'
_cell_volume   555.30451407
_cell_formula_units_Z   1
loop_
 _symmetry_equiv_pos_site_id
 _symmetry_equiv_pos_as_xyz
  1  'x, y, z'
loop_
 _atom_site_type_symbol
 _atom_site_label
 _atom_site_symmetry_multiplicity
 _atom_site_fract_x
 _atom_site_fract_y
 _atom_site_fract_z
 _atom_site_occupancy
  Li  Li0  1  0.164988  0.832326  0.289054  1
  Li  Li1  1  0.667338  0.832326  0.289054  1
  Li  Li2  1  0.833150  0.666300  0.789323  1
  Li  Li3  1  0.832335  0.166303  0.788966  1
  Li  Li4  1  0.333969  0.166303  0.788966  1
  Li  Li5  1  0.333997  0.667995  0.674853  1
  Li  Li6  1  0.667959  0.335917  0.171988  1
  Tb  Tb7  1  0.511983  0.023964  0.497498  1
  Dy  Dy8  1  0.511776  0.488050  0.493620  1
  Dy  Dy9  1  0.976275  0.488050  0.493620  1
  Dy  Dy10  1  0.488163  0.976327  0.989967  1
  Dy  Dy11  1  0.486728  0.511038  0.992923  1
  Dy  Dy12  1  0.024309  0.511038  0.992923  1
  Dy  Dy13  1  0.999628  0.999257  0.499592  1
  Dy  Dy14  1  0.000789  0.001577  0.998682  1
  Zn  Zn15  1  0.166559  0.333117  0.297123  1
  Sn  Sn16  1  0.166506  0.333014  0.729669  1
  Sn  Sn17  1  0.165516  0.832581  0.729409  1
  Sn  Sn18  1  0.667065  0.832581  0.729409  1
  Sn  Sn19  1  0.833500  0.667000  0.230131  1
  Sn  Sn20  1  0.831737  0.165938  0.227019  1
  Sn  Sn21  1  0.334201  0.165938  0.227019  1
  Sn  Sn22  1  0.334402  0.668805  0.259273  1
  Sn  Sn23  1  0.667128  0.334253  0.761911  1
