# generated using pymatgen
data_LuPdF7
_symmetry_space_group_name_H-M   'P 1'
_cell_length_a   5.43491300
_cell_length_b   8.66537014
_cell_length_c   11.74460710
_cell_angle_alpha   62.80614637
_cell_angle_beta   90.00000000
_cell_angle_gamma   90.00000000
_symmetry_Int_Tables_number   1
_chemical_formula_structural   LuPdF7
_chemical_formula_sum   'Lu4 Pd4 F28'
_cell_volume   491.97979529
_cell_formula_units_Z   4
loop_
 _symmetry_equiv_pos_site_id
 _symmetry_equiv_pos_as_xyz
  1  'x, y, z'
loop_
 _atom_site_type_symbol
 _atom_site_label
 _atom_site_symmetry_multiplicity
 _atom_site_fract_x
 _atom_site_fract_y
 _atom_site_fract_z
 _atom_site_occupancy
  Lu  Lu0  1  0.262994  0.815142  0.264144  1
  Lu  Lu1  1  0.737006  0.184858  0.735856  1
  Lu  Lu2  1  0.762994  0.184858  0.235856  1
  Lu  Lu3  1  0.237006  0.815142  0.764144  1
  Pd  Pd4  1  0.759736  0.727378  0.043687  1
  Pd  Pd5  1  0.240264  0.272622  0.956313  1
  Pd  Pd6  1  0.259736  0.272622  0.456313  1
  Pd  Pd7  1  0.740264  0.727378  0.543687  1
  F  F8  1  0.936951  0.700151  0.416043  1
  F  F9  1  0.063049  0.299849  0.583957  1
  F  F10  1  0.436951  0.299849  0.083957  1
  F  F11  1  0.563049  0.700151  0.916043  1
  F  F12  1  0.463990  0.724024  0.137693  1
  F  F13  1  0.536010  0.275976  0.862307  1
  F  F14  1  0.963990  0.275976  0.362307  1
  F  F15  1  0.036010  0.724024  0.637693  1
  F  F16  1  0.950719  0.746898  0.177492  1
  F  F17  1  0.049281  0.253102  0.822508  1
  F  F18  1  0.450719  0.253102  0.322508  1
  F  F19  1  0.549281  0.746898  0.677492  1
  F  F20  1  0.777999  0.475756  0.143571  1
  F  F21  1  0.222001  0.524244  0.856429  1
  F  F22  1  0.277999  0.524244  0.356429  1
  F  F23  1  0.722001  0.475756  0.643571  1
  F  F24  1  0.935623  0.277571  0.043083  1
  F  F25  1  0.064377  0.722429  0.956917  1
  F  F26  1  0.435623  0.722429  0.456917  1
  F  F27  1  0.564377  0.277571  0.543083  1
  F  F28  1  0.746828  0.978436  0.450089  1
  F  F29  1  0.253172  0.021564  0.549911  1
  F  F30  1  0.246828  0.021564  0.049911  1
  F  F31  1  0.753172  0.978436  0.950089  1
  F  F32  1  0.583532  0.971216  0.232487  1
  F  F33  1  0.416468  0.028784  0.767513  1
  F  F34  1  0.083532  0.028784  0.267513  1
  F  F35  1  0.916468  0.971216  0.732487  1
