# generated using pymatgen
data_Ho6GaSi5Ni2
_symmetry_space_group_name_H-M   'P 1'
_cell_length_a   5.57915896
_cell_length_b   5.57915950
_cell_length_c   13.60990581
_cell_angle_alpha   108.82518748
_cell_angle_beta   108.82519039
_cell_angle_gamma   44.08525995
_symmetry_Int_Tables_number   1
_chemical_formula_structural   Ho6GaSi5Ni2
_chemical_formula_sum   'Ho6 Ga1 Si5 Ni2'
_cell_volume   276.29867616
_cell_formula_units_Z   1
loop_
 _symmetry_equiv_pos_site_id
 _symmetry_equiv_pos_as_xyz
  1  'x, y, z'
loop_
 _atom_site_type_symbol
 _atom_site_label
 _atom_site_symmetry_multiplicity
 _atom_site_fract_x
 _atom_site_fract_y
 _atom_site_fract_z
 _atom_site_occupancy
  Ho  Ho0  1  0.401629  0.401629  0.078908  1
  Ho  Ho1  1  0.749502  0.749502  0.232657  1
  Ho  Ho2  1  0.530884  0.530884  0.382067  1
  Ho  Ho3  1  0.467717  0.467717  0.618963  1
  Ho  Ho4  1  0.250518  0.250518  0.770989  1
  Ho  Ho5  1  0.599443  0.599443  0.915424  1
  Ga  Ga6  1  0.117392  0.117392  0.075149  1
  Si  Si7  1  0.047641  0.047641  0.238926  1
  Si  Si8  1  0.862274  0.862274  0.458587  1
  Si  Si9  1  0.136723  0.136723  0.544242  1
  Si  Si10  1  0.950337  0.950337  0.761777  1
  Si  Si11  1  0.886522  0.886522  0.921643  1
  Ni  Ni12  1  0.249421  0.249421  0.404149  1
  Ni  Ni13  1  0.749997  0.749997  0.596519  1
