# generated using pymatgen
data_RbCu2AuSe2
_symmetry_space_group_name_H-M   'P 1'
_cell_length_a   5.68754933
_cell_length_b   5.68754905
_cell_length_c   6.29757258
_cell_angle_alpha   90.51134628
_cell_angle_beta   89.48865171
_cell_angle_gamma   123.32414549
_symmetry_Int_Tables_number   1
_chemical_formula_structural   RbCu2AuSe2
_chemical_formula_sum   'Rb1 Cu2 Au1 Se2'
_cell_volume   170.21079555
_cell_formula_units_Z   1
loop_
 _symmetry_equiv_pos_site_id
 _symmetry_equiv_pos_as_xyz
  1  'x, y, z'
loop_
 _atom_site_type_symbol
 _atom_site_label
 _atom_site_symmetry_multiplicity
 _atom_site_fract_x
 _atom_site_fract_y
 _atom_site_fract_z
 _atom_site_occupancy
  Rb  Rb0  1  0.000000  0.000000  0.500000  1
  Cu  Cu1  1  0.000000  0.500000  0.000000  1
  Cu  Cu2  1  0.500000  0.000000  0.000000  1
  Au  Au3  1  0.500000  0.500000  0.000000  1
  Se  Se4  1  0.322449  0.677551  0.724055  1
  Se  Se5  1  0.677551  0.322449  0.275945  1
