# generated using pymatgen
data_SrAcPr2(Si5Pt3)2
_symmetry_space_group_name_H-M   'P 1'
_cell_length_a   8.35943150
_cell_length_b   8.36166693
_cell_length_c   8.36166673
_cell_angle_alpha   136.83673505
_cell_angle_beta   105.57289975
_cell_angle_gamma   90.12609083
_symmetry_Int_Tables_number   1
_chemical_formula_structural   SrAcPr2(Si5Pt3)2
_chemical_formula_sum   'Sr1 Ac1 Pr2 Si10 Pt6'
_cell_volume   367.34558015
_cell_formula_units_Z   1
loop_
 _symmetry_equiv_pos_site_id
 _symmetry_equiv_pos_as_xyz
  1  'x, y, z'
loop_
 _atom_site_type_symbol
 _atom_site_label
 _atom_site_symmetry_multiplicity
 _atom_site_fract_x
 _atom_site_fract_y
 _atom_site_fract_z
 _atom_site_occupancy
  Sr  Sr0  1  0.863117  0.627735  0.235381  1
  Ac  Ac1  1  0.136130  0.370983  0.765146  1
  Pr  Pr2  1  0.395578  0.128280  0.267298  1
  Pr  Pr3  1  0.605567  0.872284  0.733283  1
  Si  Si4  1  0.501683  0.750208  0.250978  1
  Si  Si5  1  0.501683  0.250705  0.751476  1
  Si  Si6  1  0.230901  0.980547  0.751742  1
  Si  Si7  1  0.767960  0.521636  0.751174  1
  Si  Si8  1  0.767960  0.016787  0.246324  1
  Si  Si9  1  0.230901  0.479160  0.250355  1
  Si  Si10  1  0.035870  0.888804  0.147067  1
  Si  Si11  1  0.961587  0.109980  0.851607  1
  Si  Si12  1  0.738916  0.386445  0.352471  1
  Si  Si13  1  0.262395  0.615685  0.646708  1
  Pt  Pt14  1  0.000576  0.749959  0.749580  1
  Pt  Pt15  1  0.000576  0.250998  0.250617  1
  Pt  Pt16  1  0.255148  0.864257  0.390892  1
  Pt  Pt17  1  0.743133  0.134770  0.608362  1
  Pt  Pt18  1  0.475876  0.364089  0.111787  1
  Pt  Pt19  1  0.524440  0.636692  0.887749  1
