# generated using pymatgen
data_TbZr(Ga3Rh)3
_symmetry_space_group_name_H-M   'P 1'
_cell_length_a   7.52752478
_cell_length_b   7.53623954
_cell_length_c   9.43559100
_cell_angle_alpha   90.00000000
_cell_angle_beta   90.00000000
_cell_angle_gamma   119.93013453
_symmetry_Int_Tables_number   1
_chemical_formula_structural   TbZr(Ga3Rh)3
_chemical_formula_sum   'Tb2 Zr2 Ga18 Rh6'
_cell_volume   463.88672483
_cell_formula_units_Z   2
loop_
 _symmetry_equiv_pos_site_id
 _symmetry_equiv_pos_as_xyz
  1  'x, y, z'
loop_
 _atom_site_type_symbol
 _atom_site_label
 _atom_site_symmetry_multiplicity
 _atom_site_fract_x
 _atom_site_fract_y
 _atom_site_fract_z
 _atom_site_occupancy
  Tb  Tb0  1  0.995718  0.668507  0.250000  1
  Tb  Tb1  1  0.004282  0.331493  0.750000  1
  Zr  Zr2  1  0.669149  0.995603  0.250000  1
  Zr  Zr3  1  0.330851  0.004397  0.750000  1
  Ga  Ga4  1  0.333340  0.330341  0.569060  1
  Ga  Ga5  1  0.666659  0.669660  0.430940  1
  Ga  Ga6  1  0.666659  0.669660  0.069060  1
  Ga  Ga7  1  0.333340  0.330341  0.930940  1
  Ga  Ga8  1  0.339195  0.550523  0.250000  1
  Ga  Ga9  1  0.660805  0.449477  0.750000  1
  Ga  Ga10  1  0.546590  0.334765  0.250000  1
  Ga  Ga11  1  0.453410  0.665235  0.750000  1
  Ga  Ga12  1  0.996482  0.330849  0.081549  1
  Ga  Ga13  1  0.003518  0.669151  0.918451  1
  Ga  Ga14  1  0.003518  0.669151  0.581549  1
  Ga  Ga15  1  0.337268  0.999169  0.421215  1
  Ga  Ga16  1  0.996482  0.330849  0.418451  1
  Ga  Ga17  1  0.662732  0.000831  0.578785  1
  Ga  Ga18  1  0.662732  0.000831  0.921215  1
  Ga  Ga19  1  0.337268  0.999169  0.078785  1
  Ga  Ga20  1  0.124310  0.125490  0.250000  1
  Ga  Ga21  1  0.875690  0.874510  0.750000  1
  Rh  Rh22  1  0.000000  0.000000  0.000000  1
  Rh  Rh23  1  0.000000  0.000000  0.500000  1
  Rh  Rh24  1  0.671310  0.328078  0.000270  1
  Rh  Rh25  1  0.328690  0.671922  0.999730  1
  Rh  Rh26  1  0.328690  0.671922  0.500270  1
  Rh  Rh27  1  0.671310  0.328078  0.499730  1
