# generated using pymatgen
data_Ta6Nb3Si6W
_symmetry_space_group_name_H-M   'P 1'
_cell_length_a   7.55553052
_cell_length_b   7.55374375
_cell_length_c   7.55221402
_cell_angle_alpha   128.64193654
_cell_angle_beta   128.65746921
_cell_angle_gamma   75.53938364
_symmetry_Int_Tables_number   1
_chemical_formula_structural   Ta6Nb3Si6W
_chemical_formula_sum   'Ta6 Nb3 Si6 W1'
_cell_volume   255.83815409
_cell_formula_units_Z   1
loop_
 _symmetry_equiv_pos_site_id
 _symmetry_equiv_pos_as_xyz
  1  'x, y, z'
loop_
 _atom_site_type_symbol
 _atom_site_label
 _atom_site_symmetry_multiplicity
 _atom_site_fract_x
 _atom_site_fract_y
 _atom_site_fract_z
 _atom_site_occupancy
  Ta  Ta0  1  0.183243  0.683349  0.168425  1
  Ta  Ta1  1  0.984515  0.815031  0.499280  1
  Ta  Ta2  1  0.315316  0.484926  0.499883  1
  Ta  Ta3  1  0.484979  0.984342  0.169054  1
  Ta  Ta4  1  0.814856  0.315281  0.830826  1
  Ta  Ta5  1  0.500442  0.500944  0.999968  1
  Nb  Nb6  1  0.016853  0.183936  0.500919  1
  Nb  Nb7  1  0.683227  0.516401  0.499785  1
  Nb  Nb8  1  0.515858  0.016425  0.832128  1
  Si  Si9  1  0.749629  0.749142  0.999713  1
  Si  Si10  1  0.249501  0.250023  0.999976  1
  Si  Si11  1  0.366487  0.127819  0.494620  1
  Si  Si12  1  0.633023  0.871686  0.505184  1
  Si  Si13  1  0.871780  0.366328  0.238681  1
  Si  Si14  1  0.127980  0.633189  0.761434  1
  W  W15  1  0.002312  0.001179  0.000123  1
