# generated using pymatgen
data_Ti17Re2Si16Ru
_symmetry_space_group_name_H-M   'P 1'
_cell_length_a   6.64053468
_cell_length_b   6.63833092
_cell_length_c   12.12927903
_cell_angle_alpha   90.14450988
_cell_angle_beta   90.62266707
_cell_angle_gamma   90.04943059
_symmetry_Int_Tables_number   1
_chemical_formula_structural   Ti17Re2Si16Ru
_chemical_formula_sum   'Ti17 Re2 Si16 Ru1'
_cell_volume   534.65020086
_cell_formula_units_Z   1
loop_
 _symmetry_equiv_pos_site_id
 _symmetry_equiv_pos_as_xyz
  1  'x, y, z'
loop_
 _atom_site_type_symbol
 _atom_site_label
 _atom_site_symmetry_multiplicity
 _atom_site_fract_x
 _atom_site_fract_y
 _atom_site_fract_z
 _atom_site_occupancy
  Ti  Ti0  1  0.347381  0.494042  0.870369  1
  Ti  Ti1  1  0.656532  0.504643  0.373041  1
  Ti  Ti2  1  0.495470  0.349075  0.129244  1
  Ti  Ti3  1  0.502808  0.648025  0.626649  1
  Ti  Ti4  1  0.003801  0.848409  0.120100  1
  Ti  Ti5  1  0.150162  0.999825  0.376080  1
  Ti  Ti6  1  0.847608  0.003575  0.881035  1
  Ti  Ti7  1  0.000737  0.339554  0.222224  1
  Ti  Ti8  1  0.156406  0.508429  0.469548  1
  Ti  Ti9  1  0.835975  0.496521  0.970991  1
  Ti  Ti10  1  0.505346  0.159687  0.528308  1
  Ti  Ti11  1  0.500323  0.838466  0.027006  1
  Ti  Ti12  1  0.000837  0.665998  0.722841  1
  Ti  Ti13  1  0.348875  0.000585  0.780031  1
  Ti  Ti14  1  0.663751  0.998516  0.280732  1
  Ti  Ti15  1  0.663714  0.329114  0.750787  1
  Ti  Ti16  1  0.831890  0.827490  0.499312  1
  Re  Re17  1  0.170648  0.168461  0.000757  1
  Re  Re18  1  0.328959  0.670078  0.248326  1
  Si  Si19  1  0.038763  0.301499  0.813504  1
  Si  Si20  1  0.196949  0.540354  0.063431  1
  Si  Si21  1  0.805234  0.455609  0.567231  1
  Si  Si22  1  0.539614  0.197445  0.936687  1
  Si  Si23  1  0.455810  0.801304  0.434801  1
  Si  Si24  1  0.960759  0.699006  0.313364  1
  Si  Si25  1  0.304780  0.040064  0.185400  1
  Si  Si26  1  0.699784  0.956504  0.686188  1
  Si  Si27  1  0.286134  0.357140  0.671227  1
  Si  Si28  1  0.141560  0.794051  0.921203  1
  Si  Si29  1  0.862068  0.207385  0.425194  1
  Si  Si30  1  0.792848  0.140265  0.078040  1
  Si  Si31  1  0.207772  0.867170  0.576021  1
  Si  Si32  1  0.705783  0.640659  0.173067  1
  Si  Si33  1  0.361465  0.296851  0.328575  1
  Si  Si34  1  0.638427  0.706911  0.826093  1
  Ru  Ru35  1  0.991027  0.147290  0.622595  1
