# generated using pymatgen
data_CsPu2Cl5
_symmetry_space_group_name_H-M   'P 1'
_cell_length_a   9.63037901
_cell_length_b   9.63037950
_cell_length_c   9.63037926
_cell_angle_alpha   132.06415884
_cell_angle_beta   132.06415619
_cell_angle_gamma   70.12771439
_symmetry_Int_Tables_number   1
_chemical_formula_structural   CsPu2Cl5
_chemical_formula_sum   'Cs2 Pu4 Cl10'
_cell_volume   482.55728441
_cell_formula_units_Z   2
loop_
 _symmetry_equiv_pos_site_id
 _symmetry_equiv_pos_as_xyz
  1  'x, y, z'
loop_
 _atom_site_type_symbol
 _atom_site_label
 _atom_site_symmetry_multiplicity
 _atom_site_fract_x
 _atom_site_fract_y
 _atom_site_fract_z
 _atom_site_occupancy
  Cs  Cs0  1  0.250000  0.250000  0.000000  1
  Cs  Cs1  1  0.750000  0.750000  0.000000  1
  Pu  Pu2  1  0.846852  0.346852  0.193702  1
  Pu  Pu3  1  0.653148  0.846852  0.500000  1
  Pu  Pu4  1  0.346852  0.153148  0.500000  1
  Pu  Pu5  1  0.153148  0.653148  0.806298  1
  Cl  Cl6  1  0.000000  0.000000  0.000000  1
  Cl  Cl7  1  0.500000  0.500000  0.000000  1
  Cl  Cl8  1  0.967457  0.769396  0.500000  1
  Cl  Cl9  1  0.769396  0.269396  0.801938  1
  Cl  Cl10  1  0.467457  0.967457  0.198062  1
  Cl  Cl11  1  0.269396  0.467457  0.500000  1
  Cl  Cl12  1  0.730604  0.532543  0.500000  1
  Cl  Cl13  1  0.532543  0.032543  0.801938  1
  Cl  Cl14  1  0.230604  0.730604  0.198062  1
  Cl  Cl15  1  0.032543  0.230604  0.500000  1
