# generated using pymatgen
data_Er2CuNi5(BIr)2
_symmetry_space_group_name_H-M   'P 1'
_cell_length_a   5.18710378
_cell_length_b   5.18710360
_cell_length_c   7.03138600
_cell_angle_alpha   90.00000000
_cell_angle_beta   90.00000000
_cell_angle_gamma   123.00740288
_symmetry_Int_Tables_number   1
_chemical_formula_structural   Er2CuNi5(BIr)2
_chemical_formula_sum   'Er2 Cu1 Ni5 B2 Ir2'
_cell_volume   158.65207476
_cell_formula_units_Z   1
loop_
 _symmetry_equiv_pos_site_id
 _symmetry_equiv_pos_as_xyz
  1  'x, y, z'
loop_
 _atom_site_type_symbol
 _atom_site_label
 _atom_site_symmetry_multiplicity
 _atom_site_fract_x
 _atom_site_fract_y
 _atom_site_fract_z
 _atom_site_occupancy
  Er  Er0  1  0.000559  0.999441  0.500000  1
  Er  Er1  1  0.995394  0.004606  0.000000  1
  Cu  Cu2  1  0.318235  0.681765  0.000000  1
  Ni  Ni3  1  0.672329  0.327671  0.000000  1
  Ni  Ni4  1  0.502002  0.999427  0.294913  1
  Ni  Ni5  1  0.000573  0.497998  0.294913  1
  Ni  Ni6  1  0.502002  0.999427  0.705087  1
  Ni  Ni7  1  0.000573  0.497998  0.705087  1
  B  B8  1  0.670264  0.329736  0.500000  1
  B  B9  1  0.332364  0.667636  0.500000  1
  Ir  Ir10  1  0.502853  0.497147  0.285448  1
  Ir  Ir11  1  0.502853  0.497147  0.714552  1
