# generated using pymatgen
data_Tb2Y5Ho9Cd3AgIr4
_symmetry_space_group_name_H-M   'P 1'
_cell_length_a   9.62539403
_cell_length_b   9.62522203
_cell_length_c   9.62833225
_cell_angle_alpha   59.81250638
_cell_angle_beta   59.79432600
_cell_angle_gamma   59.84195780
_symmetry_Int_Tables_number   1
_chemical_formula_structural   Tb2Y5Ho9Cd3AgIr4
_chemical_formula_sum   'Tb2 Y5 Ho9 Cd3 Ag1 Ir4'
_cell_volume   628.13089199
_cell_formula_units_Z   1
loop_
 _symmetry_equiv_pos_site_id
 _symmetry_equiv_pos_as_xyz
  1  'x, y, z'
loop_
 _atom_site_type_symbol
 _atom_site_label
 _atom_site_symmetry_multiplicity
 _atom_site_fract_x
 _atom_site_fract_y
 _atom_site_fract_z
 _atom_site_occupancy
  Tb  Tb0  1  0.810129  0.810238  0.187536  1
  Tb  Tb1  1  0.936813  0.560638  0.561463  1
  Y  Y2  1  0.560693  0.937223  0.936831  1
  Y  Y3  1  0.560913  0.936837  0.561576  1
  Y  Y4  1  0.937126  0.560759  0.936824  1
  Y  Y5  1  0.560980  0.560799  0.936994  1
  Y  Y6  1  0.937053  0.937092  0.561176  1
  Ho  Ho7  1  0.349050  0.349235  0.349643  1
  Ho  Ho8  1  0.349308  0.349083  0.953386  1
  Ho  Ho9  1  0.348669  0.954328  0.349081  1
  Ho  Ho10  1  0.954455  0.348499  0.349158  1
  Ho  Ho11  1  0.810715  0.189505  0.189025  1
  Ho  Ho12  1  0.187807  0.810215  0.810077  1
  Ho  Ho13  1  0.189380  0.810836  0.189051  1
  Ho  Ho14  1  0.810150  0.187871  0.810065  1
  Ho  Ho15  1  0.188942  0.189018  0.810959  1
  Cd  Cd16  1  0.581230  0.581191  0.259561  1
  Cd  Cd17  1  0.581284  0.259499  0.581167  1
  Cd  Cd18  1  0.259451  0.581304  0.581206  1
  Ag  Ag19  1  0.582540  0.582565  0.582673  1
  Ir  Ir20  1  0.141632  0.141523  0.141910  1
  Ir  Ir21  1  0.142523  0.142495  0.575882  1
  Ir  Ir22  1  0.144320  0.574883  0.142352  1
  Ir  Ir23  1  0.574838  0.144363  0.142408  1
