# generated using pymatgen
data_TbDy3GaFe2Ru5
_symmetry_space_group_name_H-M   'P 1'
_cell_length_a   5.24842006
_cell_length_b   5.40273022
_cell_length_c   9.18896382
_cell_angle_alpha   72.90366232
_cell_angle_beta   91.87181640
_cell_angle_gamma   120.97742972
_symmetry_Int_Tables_number   1
_chemical_formula_structural   TbDy3GaFe2Ru5
_chemical_formula_sum   'Tb1 Dy3 Ga1 Fe2 Ru5'
_cell_volume   211.27537197
_cell_formula_units_Z   1
loop_
 _symmetry_equiv_pos_site_id
 _symmetry_equiv_pos_as_xyz
  1  'x, y, z'
loop_
 _atom_site_type_symbol
 _atom_site_label
 _atom_site_symmetry_multiplicity
 _atom_site_fract_x
 _atom_site_fract_y
 _atom_site_fract_z
 _atom_site_occupancy
  Tb  Tb0  1  0.873136  0.748999  0.375139  1
  Dy  Dy1  1  0.379271  0.754297  0.870678  1
  Dy  Dy2  1  0.995656  0.995860  0.003939  1
  Dy  Dy3  1  0.502117  0.000918  0.500281  1
  Ga  Ga4  1  0.687563  0.375066  0.937432  1
  Fe  Fe5  1  0.942426  0.375912  0.190602  1
  Fe  Fe6  1  0.432523  0.374084  0.684354  1
  Ru  Ru7  1  0.437804  0.372861  0.184790  1
  Ru  Ru8  1  0.937123  0.377020  0.690183  1
  Ru  Ru9  1  0.437804  0.880154  0.184790  1
  Ru  Ru10  1  0.937123  0.869918  0.690183  1
  Ru  Ru11  1  0.187451  0.374911  0.437629  1
