# generated using pymatgen
data_Mn3SiMoW
_symmetry_space_group_name_H-M   'P 1'
_cell_length_a   4.78032700
_cell_length_b   4.78032758
_cell_length_c   7.75064400
_cell_angle_alpha   90.00000000
_cell_angle_beta   90.00000000
_cell_angle_gamma   120.00000292
_symmetry_Int_Tables_number   1
_chemical_formula_structural   Mn3SiMoW
_chemical_formula_sum   'Mn6 Si2 Mo2 W2'
_cell_volume   153.38527609
_cell_formula_units_Z   2
loop_
 _symmetry_equiv_pos_site_id
 _symmetry_equiv_pos_as_xyz
  1  'x, y, z'
loop_
 _atom_site_type_symbol
 _atom_site_label
 _atom_site_symmetry_multiplicity
 _atom_site_fract_x
 _atom_site_fract_y
 _atom_site_fract_z
 _atom_site_occupancy
  Mn  Mn0  1  0.828196  0.171804  0.749142  1
  Mn  Mn1  1  0.828196  0.656392  0.749142  1
  Mn  Mn2  1  0.343608  0.171804  0.749142  1
  Mn  Mn3  1  0.171804  0.828196  0.250858  1
  Mn  Mn4  1  0.171804  0.343608  0.250858  1
  Mn  Mn5  1  0.656392  0.828196  0.250858  1
  Si  Si6  1  0.000000  0.000000  0.000000  1
  Si  Si7  1  0.000000  0.000000  0.500000  1
  Mo  Mo8  1  0.333333  0.666667  0.937230  1
  Mo  Mo9  1  0.666667  0.333333  0.062770  1
  W  W10  1  0.666667  0.333333  0.435462  1
  W  W11  1  0.333333  0.666667  0.564538  1
