# generated using pymatgen
data_YHo2Zn3CuSi2
_symmetry_space_group_name_H-M   'P 1'
_cell_length_a   6.75359412
_cell_length_b   6.75359365
_cell_length_c   4.24056300
_cell_angle_alpha   90.00000000
_cell_angle_beta   90.00000000
_cell_angle_gamma   120.01547832
_symmetry_Int_Tables_number   1
_chemical_formula_structural   YHo2Zn3CuSi2
_chemical_formula_sum   'Y1 Ho2 Zn3 Cu1 Si2'
_cell_volume   167.47742587
_cell_formula_units_Z   1
loop_
 _symmetry_equiv_pos_site_id
 _symmetry_equiv_pos_as_xyz
  1  'x, y, z'
loop_
 _atom_site_type_symbol
 _atom_site_label
 _atom_site_symmetry_multiplicity
 _atom_site_fract_x
 _atom_site_fract_y
 _atom_site_fract_z
 _atom_site_occupancy
  Y  Y0  1  0.415356  0.415356  0.000000  1
  Ho  Ho1  1  0.000417  0.585748  0.000000  1
  Ho  Ho2  1  0.585748  0.000417  0.000000  1
  Zn  Zn3  1  0.999565  0.238366  0.500000  1
  Zn  Zn4  1  0.762148  0.762148  0.500000  1
  Zn  Zn5  1  0.238366  0.999565  0.500000  1
  Cu  Cu6  1  0.997488  0.997488  0.000000  1
  Si  Si7  1  0.333164  0.667748  0.500000  1
  Si  Si8  1  0.667748  0.333164  0.500000  1
