# generated using pymatgen
data_Pr2Nd3Bi3(SeO5)4
_symmetry_space_group_name_H-M   'P 1'
_cell_length_a   8.83524506
_cell_length_b   8.90293332
_cell_length_c   11.28907394
_cell_angle_alpha   91.44420092
_cell_angle_beta   88.51631346
_cell_angle_gamma   142.72539531
_symmetry_Int_Tables_number   1
_chemical_formula_structural   Pr2Nd3Bi3(SeO5)4
_chemical_formula_sum   'Pr2 Nd3 Bi3 Se4 O20'
_cell_volume   537.60510987
_cell_formula_units_Z   1
loop_
 _symmetry_equiv_pos_site_id
 _symmetry_equiv_pos_as_xyz
  1  'x, y, z'
loop_
 _atom_site_type_symbol
 _atom_site_label
 _atom_site_symmetry_multiplicity
 _atom_site_fract_x
 _atom_site_fract_y
 _atom_site_fract_z
 _atom_site_occupancy
  Pr  Pr0  1  0.751455  0.248100  0.119008  1
  Pr  Pr1  1  0.886657  0.069824  0.371840  1
  Nd  Nd2  1  0.741715  0.248265  0.616036  1
  Nd  Nd3  1  0.248280  0.751398  0.386378  1
  Nd  Nd4  1  0.249824  0.748619  0.883259  1
  Bi  Bi5  1  0.059623  0.915499  0.597675  1
  Bi  Bi6  1  0.364229  0.572676  0.613199  1
  Bi  Bi7  1  0.568968  0.409354  0.401075  1
  Se  Se8  1  0.389254  0.576350  0.121572  1
  Se  Se9  1  0.581400  0.386544  0.870429  1
  Se  Se10  1  0.885192  0.075676  0.870383  1
  Se  Se11  1  0.065966  0.876368  0.137392  1
  O  O12  1  0.146890  0.451179  0.215683  1
  O  O13  1  0.467114  0.136378  0.792738  1
  O  O14  1  0.651435  0.976318  0.787663  1
  O  O15  1  0.980354  0.646597  0.215459  1
  O  O16  1  0.565736  0.903872  0.512104  1
  O  O17  1  0.897121  0.579178  0.504612  1
  O  O18  1  0.071455  0.407834  0.487456  1
  O  O19  1  0.397086  0.081014  0.500113  1
  O  O20  1  0.130270  0.577382  0.709393  1
  O  O21  1  0.633363  0.078883  0.292284  1
  O  O22  1  0.480968  0.813651  0.049143  1
  O  O23  1  0.836003  0.508285  0.945880  1
  O  O24  1  0.168524  0.073751  0.249059  1
  O  O25  1  0.107226  0.211157  0.766264  1
  O  O26  1  0.722684  0.592172  0.760563  1
  O  O27  1  0.621959  0.730953  0.219814  1
  O  O28  1  0.243749  0.254380  0.495593  1
  O  O29  1  0.748118  0.752356  0.489060  1
  O  O30  1  0.339096  0.025289  0.066730  1
  O  O31  1  0.003331  0.325741  0.952147  1
