# generated using pymatgen
data_BaTh(TaS2)6
_symmetry_space_group_name_H-M   'P 1'
_cell_length_a   5.80466200
_cell_length_b   5.80466171
_cell_length_c   15.14377300
_cell_angle_alpha   90.00000000
_cell_angle_beta   90.00000000
_cell_angle_gamma   119.99999023
_symmetry_Int_Tables_number   1
_chemical_formula_structural   BaTh(TaS2)6
_chemical_formula_sum   'Ba1 Th1 Ta6 S12'
_cell_volume   441.89452084
_cell_formula_units_Z   1
loop_
 _symmetry_equiv_pos_site_id
 _symmetry_equiv_pos_as_xyz
  1  'x, y, z'
loop_
 _atom_site_type_symbol
 _atom_site_label
 _atom_site_symmetry_multiplicity
 _atom_site_fract_x
 _atom_site_fract_y
 _atom_site_fract_z
 _atom_site_occupancy
  Ba  Ba0  1  0.000000  0.000000  0.500000  1
  Th  Th1  1  0.000000  0.000000  0.000000  1
  Ta  Ta2  1  0.000000  0.000000  0.235266  1
  Ta  Ta3  1  0.000000  0.000000  0.764734  1
  Ta  Ta4  1  0.333333  0.666667  0.234911  1
  Ta  Ta5  1  0.666667  0.333333  0.765089  1
  Ta  Ta6  1  0.666667  0.333333  0.234911  1
  Ta  Ta7  1  0.333333  0.666667  0.765089  1
  S  S8  1  0.337079  0.000000  0.130445  1
  S  S9  1  0.000000  0.337079  0.130445  1
  S  S10  1  0.662921  0.662921  0.130445  1
  S  S11  1  0.338486  0.338486  0.661383  1
  S  S12  1  0.661514  0.661514  0.338617  1
  S  S13  1  0.661514  0.000000  0.661383  1
  S  S14  1  0.000000  0.661514  0.661383  1
  S  S15  1  0.000000  0.662921  0.869555  1
  S  S16  1  0.337079  0.337079  0.869555  1
  S  S17  1  0.000000  0.338486  0.338617  1
  S  S18  1  0.338486  0.000000  0.338617  1
  S  S19  1  0.662921  0.000000  0.869555  1
