# generated using pymatgen
data_NaSb12(OsRh)2
_symmetry_space_group_name_H-M   'P 1'
_cell_length_a   8.16159412
_cell_length_b   8.16159295
_cell_length_c   8.15312056
_cell_angle_alpha   109.46247373
_cell_angle_beta   109.49188942
_cell_angle_gamma   109.50137207
_symmetry_Int_Tables_number   1
_chemical_formula_structural   NaSb12(OsRh)2
_chemical_formula_sum   'Na1 Sb12 Os2 Rh2'
_cell_volume   417.85552432
_cell_formula_units_Z   1
loop_
 _symmetry_equiv_pos_site_id
 _symmetry_equiv_pos_as_xyz
  1  'x, y, z'
loop_
 _atom_site_type_symbol
 _atom_site_label
 _atom_site_symmetry_multiplicity
 _atom_site_fract_x
 _atom_site_fract_y
 _atom_site_fract_z
 _atom_site_occupancy
  Na  Na0  1  0.000000  0.000000  0.000000  1
  Sb  Sb1  1  0.843313  0.661281  0.504594  1
  Sb  Sb2  1  0.156687  0.338719  0.495406  1
  Sb  Sb3  1  0.155254  0.658725  0.813980  1
  Sb  Sb4  1  0.844746  0.341275  0.186020  1
  Sb  Sb5  1  0.658621  0.502815  0.842922  1
  Sb  Sb6  1  0.341379  0.497185  0.157078  1
  Sb  Sb7  1  0.659893  0.815700  0.157078  1
  Sb  Sb8  1  0.340107  0.184300  0.842922  1
  Sb  Sb9  1  0.504010  0.843727  0.659003  1
  Sb  Sb10  1  0.495990  0.156273  0.340997  1
  Sb  Sb11  1  0.184724  0.845007  0.340997  1
  Sb  Sb12  1  0.815276  0.154993  0.659003  1
  Os  Os13  1  0.500000  0.500000  0.500000  1
  Os  Os14  1  0.000000  0.000000  0.500000  1
  Rh  Rh15  1  0.500000  0.000000  0.000000  1
  Rh  Rh16  1  0.000000  0.500000  0.000000  1
