# generated using pymatgen
data_Er4Si4TcRh3
_symmetry_space_group_name_H-M   'P 1'
_cell_length_a   4.28485200
_cell_length_b   6.90649488
_cell_length_c   7.25916591
_cell_angle_alpha   89.94244033
_cell_angle_beta   90.00000000
_cell_angle_gamma   90.00000000
_symmetry_Int_Tables_number   1
_chemical_formula_structural   Er4Si4TcRh3
_chemical_formula_sum   'Er4 Si4 Tc1 Rh3'
_cell_volume   214.82262700
_cell_formula_units_Z   1
loop_
 _symmetry_equiv_pos_site_id
 _symmetry_equiv_pos_as_xyz
  1  'x, y, z'
loop_
 _atom_site_type_symbol
 _atom_site_label
 _atom_site_symmetry_multiplicity
 _atom_site_fract_x
 _atom_site_fract_y
 _atom_site_fract_z
 _atom_site_occupancy
  Er  Er0  1  0.250000  0.493570  0.691014  1
  Er  Er1  1  0.750000  0.510543  0.310241  1
  Er  Er2  1  0.250000  0.997439  0.813253  1
  Er  Er3  1  0.750000  0.003580  0.186227  1
  Si  Si4  1  0.250000  0.298150  0.109300  1
  Si  Si5  1  0.750000  0.702532  0.887071  1
  Si  Si6  1  0.250000  0.797271  0.400411  1
  Si  Si7  1  0.750000  0.200870  0.603436  1
  Tc  Tc8  1  0.750000  0.844548  0.567924  1
  Rh  Rh9  1  0.250000  0.155512  0.430220  1
  Rh  Rh10  1  0.750000  0.342642  0.933874  1
  Rh  Rh11  1  0.250000  0.653343  0.067031  1
