# generated using pymatgen
data_Sm7Th(Nb3Si4)4
_symmetry_space_group_name_H-M   'P 1'
_cell_length_a   7.14163129
_cell_length_b   7.14217861
_cell_length_c   13.24209708
_cell_angle_alpha   89.96016455
_cell_angle_beta   89.96993758
_cell_angle_gamma   90.03634260
_symmetry_Int_Tables_number   1
_chemical_formula_structural   Sm7Th(Nb3Si4)4
_chemical_formula_sum   'Sm7 Th1 Nb12 Si16'
_cell_volume   675.43668787
_cell_formula_units_Z   1
loop_
 _symmetry_equiv_pos_site_id
 _symmetry_equiv_pos_as_xyz
  1  'x, y, z'
loop_
 _atom_site_type_symbol
 _atom_site_label
 _atom_site_symmetry_multiplicity
 _atom_site_fract_x
 _atom_site_fract_y
 _atom_site_fract_z
 _atom_site_occupancy
  Sm  Sm0  1  0.002949  0.660459  0.717833  1
  Sm  Sm1  1  0.161106  0.498511  0.468241  1
  Sm  Sm2  1  0.501563  0.838746  0.031323  1
  Sm  Sm3  1  0.838744  0.501946  0.967810  1
  Sm  Sm4  1  0.497446  0.160789  0.532658  1
  Sm  Sm5  1  0.338754  0.997429  0.782183  1
  Sm  Sm6  1  0.660193  0.002353  0.282743  1
  Th  Th7  1  0.996623  0.338633  0.217855  1
  Nb  Nb8  1  0.169896  0.169536  0.999934  1
  Nb  Nb9  1  0.829921  0.830085  0.500841  1
  Nb  Nb10  1  0.328485  0.668513  0.249555  1
  Nb  Nb11  1  0.670517  0.329459  0.749782  1
  Nb  Nb12  1  0.155881  0.994659  0.375825  1
  Nb  Nb13  1  0.843555  0.008774  0.874880  1
  Nb  Nb14  1  0.508697  0.655431  0.625616  1
  Nb  Nb15  1  0.345045  0.491827  0.873823  1
  Nb  Nb16  1  0.492095  0.343472  0.125149  1
  Nb  Nb17  1  0.657687  0.509326  0.375002  1
  Nb  Nb18  1  0.990929  0.155739  0.625121  1
  Nb  Nb19  1  0.008369  0.844210  0.124370  1
  Si  Si20  1  0.294424  0.040970  0.186412  1
  Si  Si21  1  0.707895  0.955458  0.686544  1
  Si  Si22  1  0.455322  0.791488  0.436785  1
  Si  Si23  1  0.209657  0.544888  0.061411  1
  Si  Si24  1  0.542464  0.207511  0.935934  1
  Si  Si25  1  0.792095  0.456072  0.563667  1
  Si  Si26  1  0.044099  0.291692  0.813634  1
  Si  Si27  1  0.956717  0.712085  0.315036  1
  Si  Si28  1  0.373899  0.297129  0.316856  1
  Si  Si29  1  0.629859  0.703111  0.815482  1
  Si  Si30  1  0.203377  0.870974  0.565611  1
  Si  Si31  1  0.128862  0.796724  0.933930  1
  Si  Si32  1  0.794566  0.126868  0.063782  1
  Si  Si33  1  0.870160  0.203127  0.435717  1
  Si  Si34  1  0.296904  0.370206  0.684338  1
  Si  Si35  1  0.701241  0.631801  0.184315  1
