# generated using pymatgen
data_CuRuCl6
_symmetry_space_group_name_H-M   'P 1'
_cell_length_a   6.06636481
_cell_length_b   6.33966139
_cell_length_c   19.18113209
_cell_angle_alpha   91.90754261
_cell_angle_beta   87.68065077
_cell_angle_gamma   119.69233171
_symmetry_Int_Tables_number   1
_chemical_formula_structural   CuRuCl6
_chemical_formula_sum   'Cu3 Ru3 Cl18'
_cell_volume   640.22273312
_cell_formula_units_Z   3
loop_
 _symmetry_equiv_pos_site_id
 _symmetry_equiv_pos_as_xyz
  1  'x, y, z'
loop_
 _atom_site_type_symbol
 _atom_site_label
 _atom_site_symmetry_multiplicity
 _atom_site_fract_x
 _atom_site_fract_y
 _atom_site_fract_z
 _atom_site_occupancy
  Cu  Cu0  1  0.556017  0.110886  0.166672  1
  Cu  Cu1  1  0.889548  0.443795  0.500386  1
  Cu  Cu2  1  0.555524  0.444043  0.833444  1
  Ru  Ru3  1  0.230763  0.456332  0.166251  1
  Ru  Ru4  1  0.564036  0.789497  0.499725  1
  Ru  Ru5  1  0.230593  0.789633  0.833351  1
  Cl  Cl6  1  0.522957  0.764058  0.759506  1
  Cl  Cl7  1  0.899437  0.755107  0.905879  1
  Cl  Cl8  1  0.524605  0.089273  0.904186  1
  Cl  Cl9  1  0.855900  0.763971  0.425790  1
  Cl  Cl10  1  0.225440  0.475964  0.431442  1
  Cl  Cl11  1  0.892091  0.142616  0.097883  1
  Cl  Cl12  1  0.525418  0.755972  0.236935  1
  Cl  Cl13  1  0.892331  0.475797  0.764893  1
  Cl  Cl14  1  0.246814  0.478478  0.899369  1
  Cl  Cl15  1  0.579951  0.478168  0.565836  1
  Cl  Cl16  1  0.857959  0.088586  0.570796  1
  Cl  Cl17  1  0.232874  0.755205  0.572311  1
  Cl  Cl18  1  0.247000  0.145008  0.232401  1
  Cl  Cl19  1  0.571884  0.093340  0.433952  1
  Cl  Cl20  1  0.900235  0.422000  0.239028  1
  Cl  Cl21  1  0.522434  0.430037  0.092282  1
  Cl  Cl22  1  0.238264  0.092907  0.767283  1
  Cl  Cl23  1  0.237929  0.759321  0.100404  1
