# generated using pymatgen
data_Y6AlCo22
_symmetry_space_group_name_H-M   'P 1'
_cell_length_a   8.37238963
_cell_length_b   8.37238939
_cell_length_c   8.37238900
_cell_angle_alpha   59.99999761
_cell_angle_beta   59.99999853
_cell_angle_gamma   59.99999582
_symmetry_Int_Tables_number   1
_chemical_formula_structural   Y6AlCo22
_chemical_formula_sum   'Y6 Al1 Co22'
_cell_volume   414.98578831
_cell_formula_units_Z   1
loop_
 _symmetry_equiv_pos_site_id
 _symmetry_equiv_pos_as_xyz
  1  'x, y, z'
loop_
 _atom_site_type_symbol
 _atom_site_label
 _atom_site_symmetry_multiplicity
 _atom_site_fract_x
 _atom_site_fract_y
 _atom_site_fract_z
 _atom_site_occupancy
  Y  Y0  1  0.785026  0.785026  0.214974  1
  Y  Y1  1  0.214974  0.785026  0.214974  1
  Y  Y2  1  0.785026  0.214974  0.214974  1
  Y  Y3  1  0.214974  0.214974  0.785026  1
  Y  Y4  1  0.785026  0.214974  0.785026  1
  Y  Y5  1  0.214974  0.785026  0.785026  1
  Al  Al6  1  0.500000  0.500000  0.500000  1
  Co  Co7  1  0.000000  0.000000  0.500000  1
  Co  Co8  1  0.500000  0.000000  0.500000  1
  Co  Co9  1  0.000000  0.500000  0.500000  1
  Co  Co10  1  0.500000  0.500000  0.000000  1
  Co  Co11  1  0.000000  0.500000  0.000000  1
  Co  Co12  1  0.500000  0.000000  0.000000  1
  Co  Co13  1  0.822385  0.822385  0.532844  1
  Co  Co14  1  0.822385  0.532844  0.822385  1
  Co  Co15  1  0.532844  0.822385  0.822385  1
  Co  Co16  1  0.822385  0.822385  0.822385  1
  Co  Co17  1  0.177615  0.177615  0.467156  1
  Co  Co18  1  0.177615  0.467156  0.177615  1
  Co  Co19  1  0.467156  0.177615  0.177615  1
  Co  Co20  1  0.177615  0.177615  0.177615  1
  Co  Co21  1  0.626261  0.626261  0.121217  1
  Co  Co22  1  0.626261  0.121217  0.626261  1
  Co  Co23  1  0.121217  0.626261  0.626261  1
  Co  Co24  1  0.626261  0.626261  0.626261  1
  Co  Co25  1  0.373739  0.373739  0.878783  1
  Co  Co26  1  0.373739  0.878783  0.373739  1
  Co  Co27  1  0.878783  0.373739  0.373739  1
  Co  Co28  1  0.373739  0.373739  0.373739  1
