# generated using pymatgen
data_K3Al4GaI16
_symmetry_space_group_name_H-M   'P 1'
_cell_length_a   8.54053100
_cell_length_b   9.00643924
_cell_length_c   16.01636921
_cell_angle_alpha   90.24670742
_cell_angle_beta   90.00000000
_cell_angle_gamma   90.00000000
_symmetry_Int_Tables_number   1
_chemical_formula_structural   K3Al4GaI16
_chemical_formula_sum   'K3 Al4 Ga1 I16'
_cell_volume   1231.96407074
_cell_formula_units_Z   1
loop_
 _symmetry_equiv_pos_site_id
 _symmetry_equiv_pos_as_xyz
  1  'x, y, z'
loop_
 _atom_site_type_symbol
 _atom_site_label
 _atom_site_symmetry_multiplicity
 _atom_site_fract_x
 _atom_site_fract_y
 _atom_site_fract_z
 _atom_site_occupancy
  K  K0  1  0.250000  0.440102  0.146439  1
  K  K1  1  0.750000  0.946042  0.352380  1
  K  K2  1  0.750000  0.550308  0.845483  1
  Al  Al3  1  0.250000  0.287189  0.885117  1
  Al  Al4  1  0.750000  0.805356  0.606474  1
  Al  Al5  1  0.750000  0.707025  0.104333  1
  Al  Al6  1  0.250000  0.201022  0.405032  1
  Ga  Ga7  1  0.250000  0.062464  0.647247  1
  I  I8  1  0.250000  0.123572  0.014370  1
  I  I9  1  0.750000  0.630154  0.480565  1
  I  I10  1  0.750000  0.871496  0.975724  1
  I  I11  1  0.250000  0.357354  0.539023  1
  I  I12  1  0.250000  0.926748  0.447413  1
  I  I13  1  0.750000  0.429914  0.063855  1
  I  I14  1  0.750000  0.078958  0.561890  1
  I  I15  1  0.250000  0.562454  0.928067  1
  I  I16  1  0.993474  0.762906  0.195106  1
  I  I17  1  0.009704  0.264642  0.314492  1
  I  I18  1  0.490014  0.229251  0.792337  1
  I  I19  1  0.505976  0.753121  0.696361  1
  I  I20  1  0.009986  0.229251  0.792337  1
  I  I21  1  0.994024  0.753121  0.696361  1
  I  I22  1  0.506526  0.762906  0.195106  1
  I  I23  1  0.490296  0.264642  0.314492  1
