# generated using pymatgen
data_Ru2Pt3
_symmetry_space_group_name_H-M   'P 1'
_cell_length_a   2.74646470
_cell_length_b   2.74834012
_cell_length_c   11.60145514
_cell_angle_alpha   89.90056078
_cell_angle_beta   83.43504299
_cell_angle_gamma   60.00615081
_symmetry_Int_Tables_number   1
_chemical_formula_structural   Ru2Pt3
_chemical_formula_sum   'Ru2 Pt3'
_cell_volume   75.18906099
_cell_formula_units_Z   1
loop_
 _symmetry_equiv_pos_site_id
 _symmetry_equiv_pos_as_xyz
  1  'x, y, z'
loop_
 _atom_site_type_symbol
 _atom_site_label
 _atom_site_symmetry_multiplicity
 _atom_site_fract_x
 _atom_site_fract_y
 _atom_site_fract_z
 _atom_site_occupancy
  Ru  Ru0  1  0.162672  0.041966  0.597555  1
  Ru  Ru1  1  0.384066  0.429242  0.777273  1
  Pt  Pt2  1  0.962613  0.642514  0.397413  1
  Pt  Pt3  1  0.600244  0.815493  0.977462  1
  Pt  Pt4  1  0.769468  0.235201  0.187538  1
