# generated using pymatgen
data_Ho3Mn(Al4Rh)3
_symmetry_space_group_name_H-M   'P 1'
_cell_length_a   8.80292400
_cell_length_b   8.80292366
_cell_length_c   9.45240800
_cell_angle_alpha   90.00000000
_cell_angle_beta   90.00000000
_cell_angle_gamma   119.99999375
_symmetry_Int_Tables_number   1
_chemical_formula_structural   Ho3Mn(Al4Rh)3
_chemical_formula_sum   'Ho6 Mn2 Al24 Rh6'
_cell_volume   634.34716941
_cell_formula_units_Z   2
loop_
 _symmetry_equiv_pos_site_id
 _symmetry_equiv_pos_as_xyz
  1  'x, y, z'
loop_
 _atom_site_type_symbol
 _atom_site_label
 _atom_site_symmetry_multiplicity
 _atom_site_fract_x
 _atom_site_fract_y
 _atom_site_fract_z
 _atom_site_occupancy
  Ho  Ho0  1  0.193077  0.386155  0.250000  1
  Ho  Ho1  1  0.806923  0.613845  0.750000  1
  Ho  Ho2  1  0.613845  0.806923  0.250000  1
  Ho  Ho3  1  0.386155  0.193077  0.750000  1
  Ho  Ho4  1  0.193077  0.806923  0.250000  1
  Ho  Ho5  1  0.806923  0.193077  0.750000  1
  Mn  Mn6  1  0.000000  0.000000  0.000000  1
  Mn  Mn7  1  0.000000  0.000000  0.500000  1
  Al  Al8  1  0.333333  0.666667  0.025315  1
  Al  Al9  1  0.666667  0.333333  0.974685  1
  Al  Al10  1  0.666667  0.333333  0.525315  1
  Al  Al11  1  0.333333  0.666667  0.474685  1
  Al  Al12  1  0.160263  0.320526  0.575530  1
  Al  Al13  1  0.839737  0.679474  0.424470  1
  Al  Al14  1  0.679474  0.839737  0.575530  1
  Al  Al15  1  0.839737  0.679474  0.075530  1
  Al  Al16  1  0.320526  0.160263  0.424470  1
  Al  Al17  1  0.160263  0.320526  0.924470  1
  Al  Al18  1  0.160263  0.839737  0.575530  1
  Al  Al19  1  0.320526  0.160263  0.075530  1
  Al  Al20  1  0.839737  0.160263  0.424470  1
  Al  Al21  1  0.679474  0.839737  0.924470  1
  Al  Al22  1  0.839737  0.160263  0.075530  1
  Al  Al23  1  0.160263  0.839737  0.924470  1
  Al  Al24  1  0.562637  0.125274  0.250000  1
  Al  Al25  1  0.437363  0.874726  0.750000  1
  Al  Al26  1  0.874726  0.437363  0.250000  1
  Al  Al27  1  0.125274  0.562637  0.750000  1
  Al  Al28  1  0.562637  0.437363  0.250000  1
  Al  Al29  1  0.437363  0.562637  0.750000  1
  Al  Al30  1  0.000000  0.000000  0.250000  1
  Al  Al31  1  0.000000  0.000000  0.750000  1
  Rh  Rh32  1  0.500000  0.000000  0.000000  1
  Rh  Rh33  1  0.000000  0.500000  0.000000  1
  Rh  Rh34  1  0.500000  0.000000  0.500000  1
  Rh  Rh35  1  0.500000  0.500000  0.000000  1
  Rh  Rh36  1  0.000000  0.500000  0.500000  1
  Rh  Rh37  1  0.500000  0.500000  0.500000  1
