# generated using pymatgen
data_La9HoSi5Pb
_symmetry_space_group_name_H-M   'P 1'
_cell_length_a   7.79689082
_cell_length_b   7.79688996
_cell_length_c   9.25971400
_cell_angle_alpha   114.89846146
_cell_angle_beta   114.89846663
_cell_angle_gamma   89.99999915
_symmetry_Int_Tables_number   1
_chemical_formula_structural   La9HoSi5Pb
_chemical_formula_sum   'La9 Ho1 Si5 Pb1'
_cell_volume   452.25991588
_cell_formula_units_Z   1
loop_
 _symmetry_equiv_pos_site_id
 _symmetry_equiv_pos_as_xyz
  1  'x, y, z'
loop_
 _atom_site_type_symbol
 _atom_site_label
 _atom_site_symmetry_multiplicity
 _atom_site_fract_x
 _atom_site_fract_y
 _atom_site_fract_z
 _atom_site_occupancy
  La  La0  1  0.970269  0.970269  0.940538  1
  La  La1  1  0.979176  0.831451  0.281995  1
  La  La2  1  0.302819  0.450544  0.281995  1
  La  La3  1  0.831451  0.302819  0.281995  1
  La  La4  1  0.450544  0.979176  0.281995  1
  La  La5  1  0.047705  0.196623  0.720776  1
  La  La6  1  0.673073  0.524155  0.720776  1
  La  La7  1  0.196623  0.673073  0.720776  1
  La  La8  1  0.524155  0.047705  0.720776  1
  Ho  Ho9  1  0.517008  0.517008  0.034016  1
  Si  Si10  1  0.255941  0.255941  0.511883  1
  Si  Si11  1  0.615746  0.881636  0.004375  1
  Si  Si12  1  0.388629  0.122739  0.004375  1
  Si  Si13  1  0.881636  0.388629  0.004375  1
  Si  Si14  1  0.122739  0.615746  0.004375  1
  Pb  Pb15  1  0.742489  0.742489  0.484976  1
