# generated using pymatgen
data_Sc4Al6GaTc
_symmetry_space_group_name_H-M   'P 1'
_cell_length_a   5.34962100
_cell_length_b   5.34962066
_cell_length_c   8.63467200
_cell_angle_alpha   90.00000000
_cell_angle_beta   90.00000000
_cell_angle_gamma   120.00000831
_symmetry_Int_Tables_number   1
_chemical_formula_structural   Sc4Al6GaTc
_chemical_formula_sum   'Sc4 Al6 Ga1 Tc1'
_cell_volume   214.00427170
_cell_formula_units_Z   1
loop_
 _symmetry_equiv_pos_site_id
 _symmetry_equiv_pos_as_xyz
  1  'x, y, z'
loop_
 _atom_site_type_symbol
 _atom_site_label
 _atom_site_symmetry_multiplicity
 _atom_site_fract_x
 _atom_site_fract_y
 _atom_site_fract_z
 _atom_site_occupancy
  Sc  Sc0  1  0.333333  0.666667  0.064855  1
  Sc  Sc1  1  0.666667  0.333333  0.553236  1
  Sc  Sc2  1  0.333333  0.666667  0.446764  1
  Sc  Sc3  1  0.666667  0.333333  0.935145  1
  Al  Al4  1  0.831154  0.662307  0.243144  1
  Al  Al5  1  0.168846  0.831154  0.756856  1
  Al  Al6  1  0.662307  0.831154  0.756856  1
  Al  Al7  1  0.337693  0.168846  0.243144  1
  Al  Al8  1  0.831154  0.168846  0.243144  1
  Al  Al9  1  0.168846  0.337693  0.756856  1
  Ga  Ga10  1  0.000000  0.000000  0.500000  1
  Tc  Tc11  1  0.000000  0.000000  0.000000  1
