# generated using pymatgen
data_Ti6GeC2Se
_symmetry_space_group_name_H-M   'P 1'
_cell_length_a   5.53422596
_cell_length_b   5.53422593
_cell_length_c   8.18231500
_cell_angle_alpha   90.00000000
_cell_angle_beta   90.00000000
_cell_angle_gamma   146.19009995
_symmetry_Int_Tables_number   1
_chemical_formula_structural   Ti6GeC2Se
_chemical_formula_sum   'Ti6 Ge1 C2 Se1'
_cell_volume   139.44651922
_cell_formula_units_Z   1
loop_
 _symmetry_equiv_pos_site_id
 _symmetry_equiv_pos_as_xyz
  1  'x, y, z'
loop_
 _atom_site_type_symbol
 _atom_site_label
 _atom_site_symmetry_multiplicity
 _atom_site_fract_x
 _atom_site_fract_y
 _atom_site_fract_z
 _atom_site_occupancy
  Ti  Ti0  1  0.872251  0.127747  0.053207  1
  Ti  Ti1  1  0.554698  0.445300  0.250000  1
  Ti  Ti2  1  0.872251  0.127747  0.446793  1
  Ti  Ti3  1  0.125982  0.874016  0.549432  1
  Ti  Ti4  1  0.452745  0.547253  0.750000  1
  Ti  Ti5  1  0.125982  0.874016  0.950568  1
  Ge  Ge6  1  0.753691  0.246307  0.750000  1
  C  C7  1  0.498950  0.501048  0.002585  1
  C  C8  1  0.498950  0.501048  0.497415  1
  Se  Se9  1  0.244488  0.755510  0.250000  1
