# generated using pymatgen
data_Pr4Hf5Sc(Si5Ir2)4
_symmetry_space_group_name_H-M   'P 1'
_cell_length_a   12.55867300
_cell_length_b   12.55867300
_cell_length_c   4.19587300
_cell_angle_alpha   90.00000000
_cell_angle_beta   90.00000000
_cell_angle_gamma   90.00000000
_symmetry_Int_Tables_number   1
_chemical_formula_structural   Pr4Hf5Sc(Si5Ir2)4
_chemical_formula_sum   'Pr4 Hf5 Sc1 Si20 Ir8'
_cell_volume   661.77421204
_cell_formula_units_Z   1
loop_
 _symmetry_equiv_pos_site_id
 _symmetry_equiv_pos_as_xyz
  1  'x, y, z'
loop_
 _atom_site_type_symbol
 _atom_site_label
 _atom_site_symmetry_multiplicity
 _atom_site_fract_x
 _atom_site_fract_y
 _atom_site_fract_z
 _atom_site_occupancy
  Pr  Pr0  1  0.885322  0.384933  0.500000  1
  Pr  Pr1  1  0.114678  0.615067  0.500000  1
  Pr  Pr2  1  0.384933  0.114678  0.500000  1
  Pr  Pr3  1  0.615067  0.885322  0.500000  1
  Hf  Hf4  1  0.500000  0.500000  0.000000  1
  Hf  Hf5  1  0.675832  0.175665  0.500000  1
  Hf  Hf6  1  0.324168  0.824335  0.500000  1
  Hf  Hf7  1  0.175665  0.324168  0.500000  1
  Hf  Hf8  1  0.824335  0.675832  0.500000  1
  Sc  Sc9  1  0.000000  0.000000  0.000000  1
  Si  Si10  1  0.569113  0.069410  0.000000  1
  Si  Si11  1  0.430887  0.930590  0.000000  1
  Si  Si12  1  0.069410  0.430887  0.000000  1
  Si  Si13  1  0.930590  0.569113  0.000000  1
  Si  Si14  1  0.663676  0.702455  0.000000  1
  Si  Si15  1  0.336324  0.297545  0.000000  1
  Si  Si16  1  0.161715  0.799546  0.000000  1
  Si  Si17  1  0.838285  0.200454  0.000000  1
  Si  Si18  1  0.297545  0.663676  0.000000  1
  Si  Si19  1  0.702455  0.336324  0.000000  1
  Si  Si20  1  0.200454  0.161715  0.000000  1
  Si  Si21  1  0.799546  0.838285  0.000000  1
  Si  Si22  1  0.650225  0.510328  0.500000  1
  Si  Si23  1  0.349775  0.489672  0.500000  1
  Si  Si24  1  0.150371  0.989750  0.500000  1
  Si  Si25  1  0.849629  0.010250  0.500000  1
  Si  Si26  1  0.489672  0.650225  0.500000  1
  Si  Si27  1  0.510328  0.349775  0.500000  1
  Si  Si28  1  0.010250  0.150371  0.500000  1
  Si  Si29  1  0.989750  0.849629  0.500000  1
  Ir  Ir30  1  0.739321  0.525507  0.000000  1
  Ir  Ir31  1  0.260679  0.474493  0.000000  1
  Ir  Ir32  1  0.240756  0.974192  0.000000  1
  Ir  Ir33  1  0.759244  0.025808  0.000000  1
  Ir  Ir34  1  0.474493  0.739321  0.000000  1
  Ir  Ir35  1  0.525507  0.260679  0.000000  1
  Ir  Ir36  1  0.025808  0.240756  0.000000  1
  Ir  Ir37  1  0.974192  0.759244  0.000000  1
