# generated using pymatgen
data_Pr6Ho10Cd4IrPt3
_symmetry_space_group_name_H-M   'P 1'
_cell_length_a   9.79314881
_cell_length_b   9.77219044
_cell_length_c   9.77219000
_cell_angle_alpha   60.00000148
_cell_angle_beta   60.07077037
_cell_angle_gamma   60.07076851
_symmetry_Int_Tables_number   1
_chemical_formula_structural   Pr6Ho10Cd4IrPt3
_chemical_formula_sum   'Pr6 Ho10 Cd4 Ir1 Pt3'
_cell_volume   661.99531141
_cell_formula_units_Z   1
loop_
 _symmetry_equiv_pos_site_id
 _symmetry_equiv_pos_as_xyz
  1  'x, y, z'
loop_
 _atom_site_type_symbol
 _atom_site_label
 _atom_site_symmetry_multiplicity
 _atom_site_fract_x
 _atom_site_fract_y
 _atom_site_fract_z
 _atom_site_occupancy
  Pr  Pr0  1  0.938228  0.561823  0.561823  1
  Pr  Pr1  1  0.562625  0.938682  0.938682  1
  Pr  Pr2  1  0.562625  0.938682  0.560010  1
  Pr  Pr3  1  0.938228  0.561823  0.938127  1
  Pr  Pr4  1  0.562625  0.560010  0.938682  1
  Pr  Pr5  1  0.938228  0.938127  0.561823  1
  Ho  Ho6  1  0.350979  0.346659  0.346659  1
  Ho  Ho7  1  0.350979  0.346659  0.955702  1
  Ho  Ho8  1  0.350979  0.955702  0.346659  1
  Ho  Ho9  1  0.951729  0.349423  0.349423  1
  Ho  Ho10  1  0.809651  0.186934  0.186934  1
  Ho  Ho11  1  0.187680  0.812427  0.812427  1
  Ho  Ho12  1  0.187680  0.812427  0.187467  1
  Ho  Ho13  1  0.809651  0.186934  0.816482  1
  Ho  Ho14  1  0.187680  0.187467  0.812427  1
  Ho  Ho15  1  0.809651  0.816482  0.186934  1
  Cd  Cd16  1  0.579507  0.579357  0.579357  1
  Cd  Cd17  1  0.579507  0.579357  0.261777  1
  Cd  Cd18  1  0.579507  0.261777  0.579357  1
  Cd  Cd19  1  0.261981  0.579339  0.579339  1
  Ir  Ir20  1  0.575017  0.141661  0.141661  1
  Pt  Pt21  1  0.141755  0.142062  0.142062  1
  Pt  Pt22  1  0.141755  0.142062  0.574123  1
  Pt  Pt23  1  0.141755  0.574123  0.142062  1
