# generated using pymatgen
data_Hf2ScTa2Si3N
_symmetry_space_group_name_H-M   'P 1'
_cell_length_a   7.74914600
_cell_length_b   7.72130469
_cell_length_c   5.42182000
_cell_angle_alpha   90.00000000
_cell_angle_beta   90.00000000
_cell_angle_gamma   120.11935859
_symmetry_Int_Tables_number   1
_chemical_formula_structural   Hf2ScTa2Si3N
_chemical_formula_sum   'Hf4 Sc2 Ta4 Si6 N2'
_cell_volume   280.60581191
_cell_formula_units_Z   2
loop_
 _symmetry_equiv_pos_site_id
 _symmetry_equiv_pos_as_xyz
  1  'x, y, z'
loop_
 _atom_site_type_symbol
 _atom_site_label
 _atom_site_symmetry_multiplicity
 _atom_site_fract_x
 _atom_site_fract_y
 _atom_site_fract_z
 _atom_site_occupancy
  Hf  Hf0  1  0.999830  0.233529  0.250000  1
  Hf  Hf1  1  0.000170  0.766471  0.750000  1
  Hf  Hf2  1  0.766302  0.766471  0.250000  1
  Hf  Hf3  1  0.233698  0.233529  0.750000  1
  Sc  Sc4  1  0.236563  0.000000  0.250000  1
  Sc  Sc5  1  0.763437  0.000000  0.750000  1
  Ta  Ta6  1  0.332713  0.665427  0.000000  1
  Ta  Ta7  1  0.667287  0.334573  0.000000  1
  Ta  Ta8  1  0.667287  0.334573  0.500000  1
  Ta  Ta9  1  0.332713  0.665427  0.500000  1
  Si  Si10  1  0.591831  0.000000  0.250000  1
  Si  Si11  1  0.408169  0.000000  0.750000  1
  Si  Si12  1  0.001291  0.592651  0.250000  1
  Si  Si13  1  0.998709  0.407349  0.750000  1
  Si  Si14  1  0.408639  0.407349  0.250000  1
  Si  Si15  1  0.591361  0.592651  0.750000  1
  N  N16  1  0.000000  0.000000  0.000000  1
  N  N17  1  0.000000  0.000000  0.500000  1
