# generated using pymatgen
data_SrInAg5
_symmetry_space_group_name_H-M   'P 1'
_cell_length_a   5.91582194
_cell_length_b   5.91582119
_cell_length_c   5.91582103
_cell_angle_alpha   103.22251321
_cell_angle_beta   103.22250505
_cell_angle_gamma   122.85626610
_symmetry_Int_Tables_number   1
_chemical_formula_structural   SrInAg5
_chemical_formula_sum   'Sr1 In1 Ag5'
_cell_volume   152.73705481
_cell_formula_units_Z   1
loop_
 _symmetry_equiv_pos_site_id
 _symmetry_equiv_pos_as_xyz
  1  'x, y, z'
loop_
 _atom_site_type_symbol
 _atom_site_label
 _atom_site_symmetry_multiplicity
 _atom_site_fract_x
 _atom_site_fract_y
 _atom_site_fract_z
 _atom_site_occupancy
  Sr  Sr0  1  0.000000  0.000000  0.000000  1
  In  In1  1  0.750000  0.250000  0.500000  1
  Ag  Ag2  1  0.307520  0.692480  0.000000  1
  Ag  Ag3  1  0.692480  0.307520  0.000000  1
  Ag  Ag4  1  0.692480  0.692480  0.384959  1
  Ag  Ag5  1  0.307520  0.307520  0.615041  1
  Ag  Ag6  1  0.250000  0.750000  0.500000  1
