# generated using pymatgen
data_LiY2Ir4PbO14
_symmetry_space_group_name_H-M   'P 1'
_cell_length_a   7.35520447
_cell_length_b   7.22837334
_cell_length_c   7.29682900
_cell_angle_alpha   59.33904902
_cell_angle_beta   59.73500787
_cell_angle_gamma   59.41786335
_symmetry_Int_Tables_number   1
_chemical_formula_structural   LiY2Ir4PbO14
_chemical_formula_sum   'Li1 Y2 Ir4 Pb1 O14'
_cell_volume   271.17451717
_cell_formula_units_Z   1
loop_
 _symmetry_equiv_pos_site_id
 _symmetry_equiv_pos_as_xyz
  1  'x, y, z'
loop_
 _atom_site_type_symbol
 _atom_site_label
 _atom_site_symmetry_multiplicity
 _atom_site_fract_x
 _atom_site_fract_y
 _atom_site_fract_z
 _atom_site_occupancy
  Li  Li0  1  0.125000  0.625000  0.125000  1
  Y  Y1  1  0.625000  0.125000  0.125000  1
  Y  Y2  1  0.125000  0.125000  0.125000  1
  Ir  Ir3  1  0.125000  0.625000  0.625000  1
  Ir  Ir4  1  0.625000  0.125000  0.625000  1
  Ir  Ir5  1  0.625000  0.625000  0.125000  1
  Ir  Ir6  1  0.625000  0.625000  0.625000  1
  Pb  Pb7  1  0.125000  0.125000  0.625000  1
  O  O8  1  0.690958  0.711035  0.298984  1
  O  O9  1  0.294891  0.290660  0.706336  1
  O  O10  1  0.708114  0.290660  0.706336  1
  O  O11  1  0.299024  0.711035  0.298984  1
  O  O12  1  0.301503  0.709837  0.687157  1
  O  O13  1  0.710345  0.287734  0.291576  1
  O  O14  1  0.559042  0.538965  0.951016  1
  O  O15  1  0.955109  0.959340  0.543664  1
  O  O16  1  0.541886  0.959340  0.543664  1
  O  O17  1  0.950976  0.538965  0.951016  1
  O  O18  1  0.948497  0.540163  0.562843  1
  O  O19  1  0.539655  0.962266  0.958424  1
  O  O20  1  0.249882  0.263198  0.237038  1
  O  O21  1  0.000118  0.986802  0.012962  1
