# generated using pymatgen
data_Tb4PrNdTa2O14
_symmetry_space_group_name_H-M   'P 1'
_cell_length_a   6.53761715
_cell_length_b   6.53761692
_cell_length_c   7.64768313
_cell_angle_alpha   89.98258990
_cell_angle_beta   90.01741307
_cell_angle_gamma   109.37449770
_symmetry_Int_Tables_number   1
_chemical_formula_structural   Tb4PrNdTa2O14
_chemical_formula_sum   'Tb4 Pr1 Nd1 Ta2 O14'
_cell_volume   308.35504460
_cell_formula_units_Z   1
loop_
 _symmetry_equiv_pos_site_id
 _symmetry_equiv_pos_as_xyz
  1  'x, y, z'
loop_
 _atom_site_type_symbol
 _atom_site_label
 _atom_site_symmetry_multiplicity
 _atom_site_fract_x
 _atom_site_fract_y
 _atom_site_fract_z
 _atom_site_occupancy
  Tb  Tb0  1  0.000566  0.533868  0.249847  1
  Tb  Tb1  1  0.999434  0.466132  0.750153  1
  Tb  Tb2  1  0.533868  0.000566  0.750153  1
  Tb  Tb3  1  0.466132  0.999434  0.249847  1
  Pr  Pr4  1  0.500000  0.500000  0.500000  1
  Nd  Nd5  1  0.500000  0.500000  0.000000  1
  Ta  Ta6  1  0.000000  0.000000  0.500000  1
  Ta  Ta7  1  0.000000  0.000000  0.000000  1
  O  O8  1  0.937717  0.062283  0.749971  1
  O  O9  1  0.062283  0.937717  0.250029  1
  O  O10  1  0.357939  0.642061  0.249020  1
  O  O11  1  0.642061  0.357939  0.750980  1
  O  O12  1  0.364396  0.635604  0.751229  1
  O  O13  1  0.635604  0.364396  0.248771  1
  O  O14  1  0.319012  0.068627  0.968670  1
  O  O15  1  0.681196  0.931934  0.468639  1
  O  O16  1  0.318804  0.068066  0.531361  1
  O  O17  1  0.680988  0.931373  0.031330  1
  O  O18  1  0.068066  0.318804  0.468639  1
  O  O19  1  0.931373  0.680988  0.968670  1
  O  O20  1  0.931934  0.681196  0.531361  1
  O  O21  1  0.068627  0.319012  0.031330  1
