# generated using pymatgen
data_Y3CoSn6
_symmetry_space_group_name_H-M   'P 1'
_cell_length_a   8.49009653
_cell_length_b   8.49009659
_cell_length_c   13.15648400
_cell_angle_alpha   90.00000000
_cell_angle_beta   90.00000000
_cell_angle_gamma   148.75793354
_symmetry_Int_Tables_number   1
_chemical_formula_structural   Y3CoSn6
_chemical_formula_sum   'Y6 Co2 Sn12'
_cell_volume   491.86233450
_cell_formula_units_Z   2
loop_
 _symmetry_equiv_pos_site_id
 _symmetry_equiv_pos_as_xyz
  1  'x, y, z'
loop_
 _atom_site_type_symbol
 _atom_site_label
 _atom_site_symmetry_multiplicity
 _atom_site_fract_x
 _atom_site_fract_y
 _atom_site_fract_z
 _atom_site_occupancy
  Y  Y0  1  0.899572  0.100428  0.093310  1
  Y  Y1  1  0.100428  0.899572  0.593310  1
  Y  Y2  1  0.900774  0.099226  0.750000  1
  Y  Y3  1  0.100428  0.899572  0.906690  1
  Y  Y4  1  0.099226  0.900774  0.250000  1
  Y  Y5  1  0.899572  0.100428  0.406690  1
  Co  Co6  1  0.298568  0.701432  0.250000  1
  Co  Co7  1  0.701432  0.298568  0.750000  1
  Sn  Sn8  1  0.755131  0.244869  0.571188  1
  Sn  Sn9  1  0.427822  0.572178  0.576214  1
  Sn  Sn10  1  0.572178  0.427822  0.423786  1
  Sn  Sn11  1  0.733440  0.266560  0.250000  1
  Sn  Sn12  1  0.266560  0.733440  0.750000  1
  Sn  Sn13  1  0.244869  0.755131  0.071188  1
  Sn  Sn14  1  0.244869  0.755131  0.428812  1
  Sn  Sn15  1  0.572178  0.427822  0.076214  1
  Sn  Sn16  1  0.452814  0.547186  0.250000  1
  Sn  Sn17  1  0.547186  0.452814  0.750000  1
  Sn  Sn18  1  0.755131  0.244869  0.928812  1
  Sn  Sn19  1  0.427822  0.572178  0.923786  1
