# generated using pymatgen
data_Ho2Sc10AlCo5
_symmetry_space_group_name_H-M   'P 1'
_cell_length_a   7.73970931
_cell_length_b   7.73970944
_cell_length_c   7.73971100
_cell_angle_alpha   110.81413828
_cell_angle_beta   110.78312833
_cell_angle_gamma   106.84781728
_symmetry_Int_Tables_number   1
_chemical_formula_structural   Ho2Sc10AlCo5
_chemical_formula_sum   'Ho2 Sc10 Al1 Co5'
_cell_volume   356.34666043
_cell_formula_units_Z   1
loop_
 _symmetry_equiv_pos_site_id
 _symmetry_equiv_pos_as_xyz
  1  'x, y, z'
loop_
 _atom_site_type_symbol
 _atom_site_label
 _atom_site_symmetry_multiplicity
 _atom_site_fract_x
 _atom_site_fract_y
 _atom_site_fract_z
 _atom_site_occupancy
  Ho  Ho0  1  0.285063  0.188699  0.473766  1
  Ho  Ho1  1  0.714937  0.811301  0.526234  1
  Sc  Sc2  1  0.283624  0.810156  0.093786  1
  Sc  Sc3  1  0.716376  0.189844  0.906214  1
  Sc  Sc4  1  0.617253  0.312244  0.297383  1
  Sc  Sc5  1  0.382747  0.687756  0.702617  1
  Sc  Sc6  1  0.014855  0.319854  0.702609  1
  Sc  Sc7  1  0.985145  0.680146  0.297391  1
  Sc  Sc8  1  0.213700  0.410603  0.187136  1
  Sc  Sc9  1  0.786300  0.589397  0.812864  1
  Sc  Sc10  1  0.223469  0.026567  0.812857  1
  Sc  Sc11  1  0.776531  0.973433  0.187143  1
  Al  Al12  1  0.500000  0.500000  0.000000  1
  Co  Co13  1  0.995181  0.367260  0.362442  1
  Co  Co14  1  0.004819  0.632740  0.637558  1
  Co  Co15  1  0.379701  0.879697  0.499994  1
  Co  Co16  1  0.620299  0.120303  0.500006  1
  Co  Co17  1  0.000000  0.000000  0.000000  1
