# generated using pymatgen
data_Tm4Zn4IrPt3
_symmetry_space_group_name_H-M   'P 1'
_cell_length_a   4.12856600
_cell_length_b   6.84196532
_cell_length_c   8.12123679
_cell_angle_alpha   89.91859403
_cell_angle_beta   90.00000000
_cell_angle_gamma   90.00000000
_symmetry_Int_Tables_number   1
_chemical_formula_structural   Tm4Zn4IrPt3
_chemical_formula_sum   'Tm4 Zn4 Ir1 Pt3'
_cell_volume   229.40444866
_cell_formula_units_Z   1
loop_
 _symmetry_equiv_pos_site_id
 _symmetry_equiv_pos_as_xyz
  1  'x, y, z'
loop_
 _atom_site_type_symbol
 _atom_site_label
 _atom_site_symmetry_multiplicity
 _atom_site_fract_x
 _atom_site_fract_y
 _atom_site_fract_z
 _atom_site_occupancy
  Tm  Tm0  1  0.250000  0.540159  0.184021  1
  Tm  Tm1  1  0.750000  0.456214  0.812089  1
  Tm  Tm2  1  0.750000  0.965858  0.682441  1
  Tm  Tm3  1  0.250000  0.042316  0.319945  1
  Zn  Zn4  1  0.250000  0.637229  0.564156  1
  Zn  Zn5  1  0.750000  0.356612  0.439318  1
  Zn  Zn6  1  0.750000  0.859344  0.063626  1
  Zn  Zn7  1  0.250000  0.142490  0.933521  1
  Ir  Ir8  1  0.250000  0.251005  0.621404  1
  Pt  Pt9  1  0.250000  0.752632  0.879527  1
  Pt  Pt10  1  0.750000  0.249098  0.121807  1
  Pt  Pt11  1  0.750000  0.747043  0.378145  1
