# generated using pymatgen
data_Li2Y3MgSi2Hg
_symmetry_space_group_name_H-M   'P 1'
_cell_length_a   7.28390300
_cell_length_b   7.20532004
_cell_length_c   4.25083700
_cell_angle_alpha   90.00000000
_cell_angle_beta   90.00000000
_cell_angle_gamma   120.36143154
_symmetry_Int_Tables_number   1
_chemical_formula_structural   Li2Y3MgSi2Hg
_chemical_formula_sum   'Li2 Y3 Mg1 Si2 Hg1'
_cell_volume   192.49934355
_cell_formula_units_Z   1
loop_
 _symmetry_equiv_pos_site_id
 _symmetry_equiv_pos_as_xyz
  1  'x, y, z'
loop_
 _atom_site_type_symbol
 _atom_site_label
 _atom_site_symmetry_multiplicity
 _atom_site_fract_x
 _atom_site_fract_y
 _atom_site_fract_z
 _atom_site_occupancy
  Li  Li0  1  0.746724  0.746680  0.500000  1
  Li  Li1  1  0.000044  0.253320  0.500000  1
  Y  Y2  1  0.999383  0.564159  0.000000  1
  Y  Y3  1  0.574839  0.000000  0.000000  1
  Y  Y4  1  0.435223  0.435841  0.000000  1
  Mg  Mg5  1  0.248217  0.000000  0.500000  1
  Si  Si6  1  0.334933  0.665165  0.500000  1
  Si  Si7  1  0.669770  0.334835  0.500000  1
  Hg  Hg8  1  0.990867  0.000000  0.000000  1
