# generated using pymatgen
data_Zr10TiInBi4
_symmetry_space_group_name_H-M   'P 1'
_cell_length_a   5.72067238
_cell_length_b   8.57637847
_cell_length_c   8.57637844
_cell_angle_alpha   96.38628927
_cell_angle_beta   109.48215887
_cell_angle_gamma   70.51783616
_symmetry_Int_Tables_number   1
_chemical_formula_structural   Zr10TiInBi4
_chemical_formula_sum   'Zr10 Ti1 In1 Bi4'
_cell_volume   373.97603364
_cell_formula_units_Z   1
loop_
 _symmetry_equiv_pos_site_id
 _symmetry_equiv_pos_as_xyz
  1  'x, y, z'
loop_
 _atom_site_type_symbol
 _atom_site_label
 _atom_site_symmetry_multiplicity
 _atom_site_fract_x
 _atom_site_fract_y
 _atom_site_fract_z
 _atom_site_occupancy
  Zr  Zr0  1  0.409111  0.858485  0.708206  1
  Zr  Zr1  1  0.559390  0.141515  0.291794  1
  Zr  Zr2  1  0.940610  0.291794  0.141515  1
  Zr  Zr3  1  0.090889  0.708206  0.858485  1
  Zr  Zr4  1  0.700904  0.708206  0.141515  1
  Zr  Zr5  1  0.267595  0.291794  0.858485  1
  Zr  Zr6  1  0.799096  0.141515  0.708206  1
  Zr  Zr7  1  0.232405  0.858485  0.291794  1
  Zr  Zr8  1  0.250000  0.500000  0.500000  1
  Zr  Zr9  1  0.750000  0.500000  0.500000  1
  Ti  Ti10  1  0.250000  0.000000  0.000000  1
  In  In11  1  0.750000  0.000000  0.000000  1
  Bi  Bi12  1  0.335660  0.500000  0.171321  1
  Bi  Bi13  1  0.664340  0.500000  0.828679  1
  Bi  Bi14  1  0.835660  0.828679  0.500000  1
  Bi  Bi15  1  0.164340  0.171321  0.500000  1
