# generated using pymatgen
data_Sm8Er2Si5Hg
_symmetry_space_group_name_H-M   'P 1'
_cell_length_a   7.54306850
_cell_length_b   7.54306879
_cell_length_c   8.93837500
_cell_angle_alpha   114.95766938
_cell_angle_beta   114.95767039
_cell_angle_gamma   89.99999845
_symmetry_Int_Tables_number   1
_chemical_formula_structural   Sm8Er2Si5Hg
_chemical_formula_sum   'Sm8 Er2 Si5 Hg1'
_cell_volume   408.10343625
_cell_formula_units_Z   1
loop_
 _symmetry_equiv_pos_site_id
 _symmetry_equiv_pos_as_xyz
  1  'x, y, z'
loop_
 _atom_site_type_symbol
 _atom_site_label
 _atom_site_symmetry_multiplicity
 _atom_site_fract_x
 _atom_site_fract_y
 _atom_site_fract_z
 _atom_site_occupancy
  Sm  Sm0  1  0.976497  0.827891  0.284165  1
  Sm  Sm1  1  0.307669  0.456274  0.284165  1
  Sm  Sm2  1  0.827891  0.307669  0.284165  1
  Sm  Sm3  1  0.456274  0.976497  0.284165  1
  Sm  Sm4  1  0.043726  0.192331  0.715835  1
  Sm  Sm5  1  0.672109  0.523503  0.715835  1
  Sm  Sm6  1  0.192331  0.672109  0.715835  1
  Sm  Sm7  1  0.523503  0.043726  0.715835  1
  Er  Er8  1  0.516656  0.516656  0.033312  1
  Er  Er9  1  0.983344  0.983344  0.966688  1
  Si  Si10  1  0.250000  0.250000  0.500000  1
  Si  Si11  1  0.618877  0.881123  0.000000  1
  Si  Si12  1  0.381123  0.118877  0.000000  1
  Si  Si13  1  0.881123  0.381123  0.000000  1
  Si  Si14  1  0.118877  0.618877  0.000000  1
  Hg  Hg15  1  0.750000  0.750000  0.500000  1
