# generated using pymatgen
data_Y2ErGa6(Co2Ni)3
_symmetry_space_group_name_H-M   'P 1'
_cell_length_a   8.71046500
_cell_length_b   8.71046564
_cell_length_c   4.07461000
_cell_angle_alpha   90.00000000
_cell_angle_beta   90.00000000
_cell_angle_gamma   119.99999376
_symmetry_Int_Tables_number   1
_chemical_formula_structural   Y2ErGa6(Co2Ni)3
_chemical_formula_sum   'Y2 Er1 Ga6 Co6 Ni3'
_cell_volume   267.73146711
_cell_formula_units_Z   1
loop_
 _symmetry_equiv_pos_site_id
 _symmetry_equiv_pos_as_xyz
  1  'x, y, z'
loop_
 _atom_site_type_symbol
 _atom_site_label
 _atom_site_symmetry_multiplicity
 _atom_site_fract_x
 _atom_site_fract_y
 _atom_site_fract_z
 _atom_site_occupancy
  Y  Y0  1  0.666667  0.333333  0.500000  1
  Y  Y1  1  0.333333  0.666667  0.500000  1
  Er  Er2  1  0.000000  0.000000  0.000000  1
  Ga  Ga3  1  0.491573  0.491573  0.000000  1
  Ga  Ga4  1  0.508427  0.000000  0.000000  1
  Ga  Ga5  1  0.000000  0.508427  0.000000  1
  Ga  Ga6  1  0.726616  0.726616  0.500000  1
  Ga  Ga7  1  0.273384  0.000000  0.500000  1
  Ga  Ga8  1  0.000000  0.273384  0.500000  1
  Co  Co9  1  0.822520  0.185343  0.000000  1
  Co  Co10  1  0.814657  0.637177  0.000000  1
  Co  Co11  1  0.362823  0.177480  0.000000  1
  Co  Co12  1  0.185343  0.822520  0.000000  1
  Co  Co13  1  0.637177  0.814657  0.000000  1
  Co  Co14  1  0.177480  0.362823  0.000000  1
  Ni  Ni15  1  0.294578  0.294578  0.500000  1
  Ni  Ni16  1  0.705422  0.000000  0.500000  1
  Ni  Ni17  1  0.000000  0.705422  0.500000  1
