# generated using pymatgen
data_Tb20Bi8Ir3Rh
_symmetry_space_group_name_H-M   'P 1'
_cell_length_a   8.05695988
_cell_length_b   9.06785700
_cell_length_c   12.51612337
_cell_angle_alpha   90.00000000
_cell_angle_beta   89.94640219
_cell_angle_gamma   90.00000000
_symmetry_Int_Tables_number   1
_chemical_formula_structural   Tb20Bi8Ir3Rh
_chemical_formula_sum   'Tb20 Bi8 Ir3 Rh1'
_cell_volume   914.41956366
_cell_formula_units_Z   1
loop_
 _symmetry_equiv_pos_site_id
 _symmetry_equiv_pos_as_xyz
  1  'x, y, z'
loop_
 _atom_site_type_symbol
 _atom_site_label
 _atom_site_symmetry_multiplicity
 _atom_site_fract_x
 _atom_site_fract_y
 _atom_site_fract_z
 _atom_site_occupancy
  Tb  Tb0  1  0.841742  0.750000  0.791673  1
  Tb  Tb1  1  0.158185  0.250000  0.208377  1
  Tb  Tb2  1  0.341444  0.250000  0.708427  1
  Tb  Tb3  1  0.658630  0.750000  0.291645  1
  Tb  Tb4  1  0.375670  0.750000  0.694412  1
  Tb  Tb5  1  0.623905  0.250000  0.305826  1
  Tb  Tb6  1  0.876003  0.250000  0.805451  1
  Tb  Tb7  1  0.124206  0.750000  0.194769  1
  Tb  Tb8  1  0.949350  0.750000  0.500934  1
  Tb  Tb9  1  0.053566  0.250000  0.499425  1
  Tb  Tb10  1  0.444941  0.250000  0.999042  1
  Tb  Tb11  1  0.554689  0.750000  0.000642  1
  Tb  Tb12  1  0.677110  0.041734  0.566035  1
  Tb  Tb13  1  0.322127  0.960258  0.433303  1
  Tb  Tb14  1  0.176857  0.958729  0.933489  1
  Tb  Tb15  1  0.322127  0.539742  0.433303  1
  Tb  Tb16  1  0.822909  0.040644  0.066269  1
  Tb  Tb17  1  0.677110  0.458266  0.566035  1
  Tb  Tb18  1  0.822909  0.459356  0.066269  1
  Tb  Tb19  1  0.176857  0.541271  0.933489  1
  Bi  Bi20  1  0.569915  0.490827  0.827332  1
  Bi  Bi21  1  0.430227  0.509076  0.172472  1
  Bi  Bi22  1  0.069900  0.509042  0.672558  1
  Bi  Bi23  1  0.430227  0.990924  0.172472  1
  Bi  Bi24  1  0.929729  0.491066  0.327702  1
  Bi  Bi25  1  0.569915  0.009173  0.827332  1
  Bi  Bi26  1  0.929729  0.008934  0.327702  1
  Bi  Bi27  1  0.069900  0.990958  0.672558  1
  Ir  Ir28  1  0.428525  0.250000  0.490547  1
  Ir  Ir29  1  0.071651  0.250000  0.990623  1
  Ir  Ir30  1  0.928098  0.750000  0.009700  1
  Rh  Rh31  1  0.571845  0.750000  0.510189  1
