# generated using pymatgen
data_TiCu5(SnRh2)6
_symmetry_space_group_name_H-M   'P 1'
_cell_length_a   4.41013426
_cell_length_b   6.24442600
_cell_length_c   13.25096477
_cell_angle_alpha   90.00000000
_cell_angle_beta   89.96089892
_cell_angle_gamma   90.00000000
_symmetry_Int_Tables_number   1
_chemical_formula_structural   TiCu5(SnRh2)6
_chemical_formula_sum   'Ti1 Cu5 Sn6 Rh12'
_cell_volume   364.91501410
_cell_formula_units_Z   1
loop_
 _symmetry_equiv_pos_site_id
 _symmetry_equiv_pos_as_xyz
  1  'x, y, z'
loop_
 _atom_site_type_symbol
 _atom_site_label
 _atom_site_symmetry_multiplicity
 _atom_site_fract_x
 _atom_site_fract_y
 _atom_site_fract_z
 _atom_site_occupancy
  Ti  Ti0  1  0.000000  0.499999  0.000000  1
  Cu  Cu1  1  0.501585  0.000000  0.167684  1
  Cu  Cu2  1  0.999563  0.499999  0.333528  1
  Cu  Cu3  1  0.499999  0.000000  0.500000  1
  Cu  Cu4  1  0.000436  0.499999  0.666471  1
  Cu  Cu5  1  0.498414  0.000000  0.832316  1
  Sn  Sn6  1  0.000000  0.000000  0.000000  1
  Sn  Sn7  1  0.499608  0.499999  0.170735  1
  Sn  Sn8  1  0.999536  0.000000  0.336171  1
  Sn  Sn9  1  0.499999  0.499999  0.500000  1
  Sn  Sn10  1  0.000463  0.000000  0.663829  1
  Sn  Sn11  1  0.500391  0.499999  0.829265  1
  Rh  Rh12  1  0.499999  0.253607  0.000000  1
  Rh  Rh13  1  0.499999  0.746392  0.000000  1
  Rh  Rh14  1  0.000159  0.251563  0.163925  1
  Rh  Rh15  1  0.000159  0.748437  0.163925  1
  Rh  Rh16  1  0.499988  0.247599  0.332895  1
  Rh  Rh17  1  0.499988  0.752400  0.332895  1
  Rh  Rh18  1  0.000000  0.253658  0.500000  1
  Rh  Rh19  1  0.000000  0.746342  0.500000  1
  Rh  Rh20  1  0.500011  0.247599  0.667105  1
  Rh  Rh21  1  0.500011  0.752400  0.667105  1
  Rh  Rh22  1  0.999839  0.251563  0.836075  1
  Rh  Rh23  1  0.999839  0.748437  0.836075  1
