# generated using pymatgen
data_YLu3Th2(Co3P2)6
_symmetry_space_group_name_H-M   'P 1'
_cell_length_a   3.71589300
_cell_length_b   10.52949318
_cell_length_c   12.19204521
_cell_angle_alpha   89.97872465
_cell_angle_beta   90.00000000
_cell_angle_gamma   90.00000000
_symmetry_Int_Tables_number   1
_chemical_formula_structural   YLu3Th2(Co3P2)6
_chemical_formula_sum   'Y1 Lu3 Th2 Co18 P12'
_cell_volume   477.03165835
_cell_formula_units_Z   1
loop_
 _symmetry_equiv_pos_site_id
 _symmetry_equiv_pos_as_xyz
  1  'x, y, z'
loop_
 _atom_site_type_symbol
 _atom_site_label
 _atom_site_symmetry_multiplicity
 _atom_site_fract_x
 _atom_site_fract_y
 _atom_site_fract_z
 _atom_site_occupancy
  Y  Y0  1  0.500000  0.816087  0.203413  1
  Lu  Lu1  1  0.500000  0.184140  0.203272  1
  Lu  Lu2  1  0.000000  0.683521  0.796781  1
  Lu  Lu3  1  0.000000  0.316292  0.795990  1
  Th  Th4  1  0.000000  0.500158  0.525853  1
  Th  Th5  1  0.500000  0.000575  0.474735  1
  Co  Co6  1  0.500000  0.499688  0.156108  1
  Co  Co7  1  0.000000  0.000610  0.844248  1
  Co  Co8  1  0.500000  0.499653  0.704292  1
  Co  Co9  1  0.000000  0.001894  0.296281  1
  Co  Co10  1  0.000000  0.498986  0.984423  1
  Co  Co11  1  0.500000  0.000937  0.013143  1
  Co  Co12  1  0.500000  0.333334  0.994011  1
  Co  Co13  1  0.500000  0.665441  0.993261  1
  Co  Co14  1  0.000000  0.167414  0.004975  1
  Co  Co15  1  0.000000  0.833307  0.004437  1
  Co  Co16  1  0.500000  0.298794  0.429295  1
  Co  Co17  1  0.500000  0.701320  0.430998  1
  Co  Co18  1  0.000000  0.201901  0.570667  1
  Co  Co19  1  0.000000  0.798467  0.571712  1
  Co  Co20  1  0.500000  0.879081  0.714299  1
  Co  Co21  1  0.500000  0.120993  0.713595  1
  Co  Co22  1  0.000000  0.619467  0.287559  1
  Co  Co23  1  0.000000  0.378709  0.286022  1
  P  P24  1  0.500000  0.499391  0.881077  1
  P  P25  1  0.000000  0.001605  0.117481  1
  P  P26  1  0.500000  0.499917  0.338564  1
  P  P27  1  0.000000  0.000003  0.661900  1
  P  P28  1  0.500000  0.306179  0.620086  1
  P  P29  1  0.500000  0.693682  0.621089  1
  P  P30  1  0.000000  0.194372  0.379874  1
  P  P31  1  0.000000  0.805900  0.382075  1
  P  P32  1  0.500000  0.845434  0.894724  1
  P  P33  1  0.500000  0.154796  0.893900  1
  P  P34  1  0.000000  0.652000  0.104480  1
  P  P35  1  0.000000  0.345950  0.105378  1
