# generated using pymatgen
data_Er5In4AgIr
_symmetry_space_group_name_H-M   'P 1'
_cell_length_a   3.60035400
_cell_length_b   8.18484633
_cell_length_c   18.28735019
_cell_angle_alpha   89.71115476
_cell_angle_beta   90.00000000
_cell_angle_gamma   90.00000000
_symmetry_Int_Tables_number   1
_chemical_formula_structural   Er5In4AgIr
_chemical_formula_sum   'Er10 In8 Ag2 Ir2'
_cell_volume   538.89108263
_cell_formula_units_Z   2
loop_
 _symmetry_equiv_pos_site_id
 _symmetry_equiv_pos_as_xyz
  1  'x, y, z'
loop_
 _atom_site_type_symbol
 _atom_site_label
 _atom_site_symmetry_multiplicity
 _atom_site_fract_x
 _atom_site_fract_y
 _atom_site_fract_z
 _atom_site_occupancy
  Er  Er0  1  0.000000  0.500000  0.500000  1
  Er  Er1  1  0.000000  0.000000  0.000000  1
  Er  Er2  1  0.000000  0.715167  0.276760  1
  Er  Er3  1  0.000000  0.284833  0.723240  1
  Er  Er4  1  0.000000  0.737567  0.781939  1
  Er  Er5  1  0.000000  0.262433  0.218061  1
  Er  Er6  1  0.000000  0.614880  0.085966  1
  Er  Er7  1  0.000000  0.385120  0.914034  1
  Er  Er8  1  0.000000  0.879025  0.578570  1
  Er  Er9  1  0.000000  0.120975  0.421430  1
  In  In10  1  0.500000  0.709654  0.932656  1
  In  In11  1  0.500000  0.290346  0.067344  1
  In  In12  1  0.500000  0.790304  0.431293  1
  In  In13  1  0.500000  0.209696  0.568707  1
  In  In14  1  0.500000  0.580741  0.647448  1
  In  In15  1  0.500000  0.419259  0.352552  1
  In  In16  1  0.500000  0.921241  0.148926  1
  In  In17  1  0.500000  0.078759  0.851074  1
  Ag  Ag18  1  0.500000  0.980027  0.697907  1
  Ag  Ag19  1  0.500000  0.019973  0.302093  1
  Ir  Ir20  1  0.500000  0.520705  0.195201  1
  Ir  Ir21  1  0.500000  0.479295  0.804799  1
