# generated using pymatgen
data_La13NdPdAu5
_symmetry_space_group_name_H-M   'P 1'
_cell_length_a   10.64229300
_cell_length_b   10.59111470
_cell_length_c   6.62401059
_cell_angle_alpha   90.10137819
_cell_angle_beta   90.00000000
_cell_angle_gamma   120.15997363
_symmetry_Int_Tables_number   1
_chemical_formula_structural   La13NdPdAu5
_chemical_formula_sum   'La13 Nd1 Pd1 Au5'
_cell_volume   645.54315565
_cell_formula_units_Z   1
loop_
 _symmetry_equiv_pos_site_id
 _symmetry_equiv_pos_as_xyz
  1  'x, y, z'
loop_
 _atom_site_type_symbol
 _atom_site_label
 _atom_site_symmetry_multiplicity
 _atom_site_fract_x
 _atom_site_fract_y
 _atom_site_fract_z
 _atom_site_occupancy
  La  La0  1  0.666353  0.332704  0.932928  1
  La  La1  1  0.128589  0.870651  0.250439  1
  La  La2  1  0.742062  0.870651  0.250439  1
  La  La3  1  0.129838  0.259677  0.257983  1
  La  La4  1  0.879342  0.131049  0.747882  1
  La  La5  1  0.251708  0.131049  0.747882  1
  La  La6  1  0.872518  0.745036  0.749647  1
  La  La7  1  0.536555  0.460810  0.449607  1
  La  La8  1  0.924256  0.460810  0.449607  1
  La  La9  1  0.537206  0.074411  0.452414  1
  La  La10  1  0.456452  0.536881  0.947830  1
  La  La11  1  0.080430  0.536881  0.947830  1
  La  La12  1  0.462932  0.925865  0.951702  1
  Nd  Nd13  1  0.331141  0.662283  0.442268  1
  Pd  Pd14  1  0.188918  0.377834  0.687909  1
  Au  Au15  1  0.811486  0.188566  0.182954  1
  Au  Au16  1  0.377079  0.188566  0.182954  1
  Au  Au17  1  0.810754  0.621510  0.184596  1
  Au  Au18  1  0.190486  0.812382  0.684458  1
  Au  Au19  1  0.621896  0.812382  0.684458  1
