# generated using pymatgen
data_NaMnW2F11
_symmetry_space_group_name_H-M   'P 1'
_cell_length_a   5.78215000
_cell_length_b   5.78215112
_cell_length_c   7.79197674
_cell_angle_alpha   69.81122320
_cell_angle_beta   69.81122006
_cell_angle_gamma   73.62036927
_symmetry_Int_Tables_number   1
_chemical_formula_structural   NaMnW2F11
_chemical_formula_sum   'Na1 Mn1 W2 F11'
_cell_volume   225.52548858
_cell_formula_units_Z   1
loop_
 _symmetry_equiv_pos_site_id
 _symmetry_equiv_pos_as_xyz
  1  'x, y, z'
loop_
 _atom_site_type_symbol
 _atom_site_label
 _atom_site_symmetry_multiplicity
 _atom_site_fract_x
 _atom_site_fract_y
 _atom_site_fract_z
 _atom_site_occupancy
  Na  Na0  1  0.000000  0.000000  0.000000  1
  Mn  Mn1  1  0.000000  0.000000  0.500000  1
  W  W2  1  0.496061  0.496061  0.233453  1
  W  W3  1  0.503939  0.503939  0.766547  1
  F  F4  1  0.203160  0.772936  0.303471  1
  F  F5  1  0.227064  0.796840  0.696529  1
  F  F6  1  0.796840  0.227064  0.696529  1
  F  F7  1  0.772936  0.203160  0.303471  1
  F  F8  1  0.500000  0.500000  0.500000  1
  F  F9  1  0.664736  0.335264  0.000000  1
  F  F10  1  0.335264  0.664736  0.000000  1
  F  F11  1  0.750893  0.750893  0.644681  1
  F  F12  1  0.249107  0.249107  0.355319  1
  F  F13  1  0.736714  0.736714  0.109279  1
  F  F14  1  0.263286  0.263286  0.890721  1
