# generated using pymatgen
data_Dy7YRe3B24Ru
_symmetry_space_group_name_H-M   'P 1'
_cell_length_a   3.68081500
_cell_length_b   9.17004159
_cell_length_c   11.55506000
_cell_angle_alpha   90.10749897
_cell_angle_beta   90.00000000
_cell_angle_gamma   90.00000000
_symmetry_Int_Tables_number   1
_chemical_formula_structural   Dy7YRe3B24Ru
_chemical_formula_sum   'Dy7 Y1 Re3 B24 Ru1'
_cell_volume   390.01987262
_cell_formula_units_Z   1
loop_
 _symmetry_equiv_pos_site_id
 _symmetry_equiv_pos_as_xyz
  1  'x, y, z'
loop_
 _atom_site_type_symbol
 _atom_site_label
 _atom_site_symmetry_multiplicity
 _atom_site_fract_x
 _atom_site_fract_y
 _atom_site_fract_z
 _atom_site_occupancy
  Dy  Dy0  1  0.000000  0.677042  0.587576  1
  Dy  Dy1  1  0.000000  0.825004  0.084208  1
  Dy  Dy2  1  0.000000  0.176326  0.913621  1
  Dy  Dy3  1  0.000000  0.941819  0.369642  1
  Dy  Dy4  1  0.000000  0.056266  0.629356  1
  Dy  Dy5  1  0.000000  0.443294  0.130503  1
  Dy  Dy6  1  0.000000  0.556820  0.870939  1
  Y  Y7  1  0.000000  0.322181  0.414264  1
  Re  Re8  1  0.000000  0.362054  0.678227  1
  Re  Re9  1  0.000000  0.138329  0.179369  1
  Re  Re10  1  0.000000  0.861675  0.820990  1
  B  B11  1  0.500000  0.554250  0.432640  1
  B  B12  1  0.500000  0.447000  0.566928  1
  B  B13  1  0.500000  0.053314  0.066794  1
  B  B14  1  0.500000  0.946860  0.932911  1
  B  B15  1  0.500000  0.748238  0.418496  1
  B  B16  1  0.500000  0.250790  0.581279  1
  B  B17  1  0.500000  0.249223  0.081327  1
  B  B18  1  0.500000  0.751475  0.918796  1
  B  B19  1  0.500000  0.790761  0.265652  1
  B  B20  1  0.500000  0.208029  0.734085  1
  B  B21  1  0.500000  0.291729  0.234703  1
  B  B22  1  0.500000  0.707967  0.765955  1
  B  B23  1  0.500000  0.631850  0.186074  1
  B  B24  1  0.500000  0.369043  0.813850  1
  B  B25  1  0.500000  0.131162  0.314552  1
  B  B26  1  0.500000  0.868412  0.685814  1
  B  B27  1  0.500000  0.982846  0.211764  1
  B  B28  1  0.500000  0.017181  0.787756  1
  B  B29  1  0.500000  0.484115  0.288238  1
  B  B30  1  0.500000  0.517712  0.712001  1
  B  B31  1  0.500000  0.602465  0.029027  1
  B  B32  1  0.500000  0.398154  0.972042  1
  B  B33  1  0.500000  0.101007  0.471280  1
  B  B34  1  0.500000  0.897022  0.528295  1
  Ru  Ru35  1  0.000000  0.638584  0.321046  1
