# generated using pymatgen
data_LaU9O20
_symmetry_space_group_name_H-M   'P 1'
_cell_length_a   6.65718580
_cell_length_b   7.69250965
_cell_length_c   8.60442869
_cell_angle_alpha   102.94859425
_cell_angle_beta   97.43136899
_cell_angle_gamma   106.70243559
_symmetry_Int_Tables_number   1
_chemical_formula_structural   LaU9O20
_chemical_formula_sum   'La1 U9 O20'
_cell_volume   402.35784038
_cell_formula_units_Z   1
loop_
 _symmetry_equiv_pos_site_id
 _symmetry_equiv_pos_as_xyz
  1  'x, y, z'
loop_
 _atom_site_type_symbol
 _atom_site_label
 _atom_site_symmetry_multiplicity
 _atom_site_fract_x
 _atom_site_fract_y
 _atom_site_fract_z
 _atom_site_occupancy
  La  La0  1  0.000000  0.500000  0.000000  1
  U  U1  1  0.798886  0.599947  0.599159  1
  U  U2  1  0.600174  0.199725  0.200191  1
  U  U3  1  0.799450  0.099518  0.598977  1
  U  U4  1  0.399826  0.800275  0.799809  1
  U  U5  1  0.599894  0.700595  0.199672  1
  U  U6  1  0.201114  0.400053  0.400841  1
  U  U7  1  0.400106  0.299405  0.800328  1
  U  U8  1  0.000000  0.000000  0.000000  1
  U  U9  1  0.200550  0.900482  0.401023  1
  O  O10  1  0.647383  0.925496  0.048820  1
  O  O11  1  0.447412  0.525592  0.647377  1
  O  O12  1  0.637097  0.420938  0.053754  1
  O  O13  1  0.738711  0.369833  0.740155  1
  O  O14  1  0.255140  0.126285  0.250471  1
  O  O15  1  0.446881  0.022142  0.649456  1
  O  O16  1  0.050947  0.734179  0.844058  1
  O  O17  1  0.553119  0.977858  0.350544  1
  O  O18  1  0.744860  0.873715  0.749529  1
  O  O19  1  0.261289  0.630167  0.259845  1
  O  O20  1  0.362903  0.579062  0.946246  1
  O  O21  1  0.851554  0.325852  0.450729  1
  O  O22  1  0.052476  0.213265  0.843453  1
  O  O23  1  0.552588  0.474408  0.352623  1
  O  O24  1  0.150411  0.174856  0.547183  1
  O  O25  1  0.352617  0.074504  0.951180  1
  O  O26  1  0.849589  0.825144  0.452817  1
  O  O27  1  0.947524  0.786735  0.156547  1
  O  O28  1  0.148446  0.674148  0.549271  1
  O  O29  1  0.949053  0.265821  0.155942  1
