# generated using pymatgen
data_LiYb5(Si3Ru)8
_symmetry_space_group_name_H-M   'P 1'
_cell_length_a   10.13429053
_cell_length_b   10.13429096
_cell_length_c   8.12575139
_cell_angle_alpha   90.23966687
_cell_angle_beta   89.76033595
_cell_angle_gamma   132.71209976
_symmetry_Int_Tables_number   1
_chemical_formula_structural   LiYb5(Si3Ru)8
_chemical_formula_sum   'Li1 Yb5 Si24 Ru8'
_cell_volume   613.19406843
_cell_formula_units_Z   1
loop_
 _symmetry_equiv_pos_site_id
 _symmetry_equiv_pos_as_xyz
  1  'x, y, z'
loop_
 _atom_site_type_symbol
 _atom_site_label
 _atom_site_symmetry_multiplicity
 _atom_site_fract_x
 _atom_site_fract_y
 _atom_site_fract_z
 _atom_site_occupancy
  Li  Li0  1  0.999807  0.499807  0.250000  1
  Yb  Yb1  1  0.498117  0.998117  0.250000  1
  Yb  Yb2  1  0.002870  0.502870  0.750000  1
  Yb  Yb3  1  0.503011  0.003011  0.750000  1
  Yb  Yb4  1  0.499844  0.499861  0.499475  1
  Yb  Yb5  1  0.999861  0.999844  0.000525  1
  Si  Si6  1  0.387444  0.154465  0.008224  1
  Si  Si7  1  0.654465  0.887444  0.491776  1
  Si  Si8  1  0.113849  0.346427  0.506350  1
  Si  Si9  1  0.846427  0.613849  0.993650  1
  Si  Si10  1  0.613363  0.847590  0.990576  1
  Si  Si11  1  0.347590  0.113363  0.509424  1
  Si  Si12  1  0.885417  0.650701  0.489175  1
  Si  Si13  1  0.150701  0.385417  0.010825  1
  Si  Si14  1  0.608438  0.376671  0.230893  1
  Si  Si15  1  0.876671  0.108438  0.269107  1
  Si  Si16  1  0.893025  0.125972  0.730212  1
  Si  Si17  1  0.625972  0.393025  0.769788  1
  Si  Si18  1  0.392953  0.626856  0.769145  1
  Si  Si19  1  0.126856  0.892953  0.730855  1
  Si  Si20  1  0.712065  0.300018  0.005478  1
  Si  Si21  1  0.800018  0.212065  0.494522  1
  Si  Si22  1  0.289003  0.701962  0.004413  1
  Si  Si23  1  0.201962  0.789003  0.495587  1
  Si  Si24  1  0.166047  0.167028  0.332270  1
  Si  Si25  1  0.667028  0.666047  0.167730  1
  Si  Si26  1  0.331061  0.332378  0.831898  1
  Si  Si27  1  0.832378  0.831061  0.668102  1
  Si  Si28  1  0.370905  0.605018  0.232368  1
  Si  Si29  1  0.105018  0.870905  0.267632  1
  Ru  Ru30  1  0.624024  0.625184  0.875264  1
  Ru  Ru31  1  0.125184  0.124024  0.624736  1
  Ru  Ru32  1  0.874338  0.872382  0.375285  1
  Ru  Ru33  1  0.372382  0.374338  0.124715  1
  Ru  Ru34  1  0.331812  0.669742  0.500337  1
  Ru  Ru35  1  0.169742  0.831812  0.999663  1
  Ru  Ru36  1  0.669485  0.330865  0.499391  1
  Ru  Ru37  1  0.830865  0.169485  0.000609  1
