# generated using pymatgen
data_Np2Co9As7Rh3
_symmetry_space_group_name_H-M   'P 1'
_cell_length_a   9.49096300
_cell_length_b   9.49096414
_cell_length_c   3.79451500
_cell_angle_alpha   90.00000000
_cell_angle_beta   90.00000000
_cell_angle_gamma   119.99999458
_symmetry_Int_Tables_number   1
_chemical_formula_structural   Np2Co9As7Rh3
_chemical_formula_sum   'Np2 Co9 As7 Rh3'
_cell_volume   296.01079014
_cell_formula_units_Z   1
loop_
 _symmetry_equiv_pos_site_id
 _symmetry_equiv_pos_as_xyz
  1  'x, y, z'
loop_
 _atom_site_type_symbol
 _atom_site_label
 _atom_site_symmetry_multiplicity
 _atom_site_fract_x
 _atom_site_fract_y
 _atom_site_fract_z
 _atom_site_occupancy
  Np  Np0  1  0.666667  0.333333  0.742991  1
  Np  Np1  1  0.333333  0.666667  0.243096  1
  Co  Co2  1  0.057017  0.625792  0.743103  1
  Co  Co3  1  0.374208  0.431225  0.743103  1
  Co  Co4  1  0.568775  0.942983  0.743103  1
  Co  Co5  1  0.945889  0.382920  0.243159  1
  Co  Co6  1  0.617080  0.562969  0.243159  1
  Co  Co7  1  0.437031  0.054111  0.243159  1
  Co  Co8  1  0.279676  0.121151  0.743045  1
  Co  Co9  1  0.878849  0.158526  0.743045  1
  Co  Co10  1  0.841474  0.720324  0.743045  1
  As  As11  1  0.000000  0.000000  0.742492  1
  As  As12  1  0.299679  0.886076  0.743084  1
  As  As13  1  0.113924  0.413603  0.743084  1
  As  As14  1  0.586397  0.700321  0.743084  1
  As  As15  1  0.709141  0.118150  0.242963  1
  As  As16  1  0.881850  0.590991  0.242963  1
  As  As17  1  0.409009  0.290859  0.242963  1
  Rh  Rh18  1  0.768520  0.894850  0.242994  1
  Rh  Rh19  1  0.105150  0.873671  0.242994  1
  Rh  Rh20  1  0.126329  0.231480  0.242994  1
