# generated using pymatgen
data_Sm8Er2Sc10Si15Ni
_symmetry_space_group_name_H-M   'P 1'
_cell_length_a   7.16835840
_cell_length_b   7.56510612
_cell_length_c   14.15193361
_cell_angle_alpha   89.86991785
_cell_angle_beta   90.05192264
_cell_angle_gamma   90.21923958
_symmetry_Int_Tables_number   1
_chemical_formula_structural   Sm8Er2Sc10Si15Ni
_chemical_formula_sum   'Sm8 Er2 Sc10 Si15 Ni1'
_cell_volume   767.44284932
_cell_formula_units_Z   1
loop_
 _symmetry_equiv_pos_site_id
 _symmetry_equiv_pos_as_xyz
  1  'x, y, z'
loop_
 _atom_site_type_symbol
 _atom_site_label
 _atom_site_symmetry_multiplicity
 _atom_site_fract_x
 _atom_site_fract_y
 _atom_site_fract_z
 _atom_site_occupancy
  Sm  Sm0  1  0.013043  0.177690  0.095410  1
  Sm  Sm1  1  0.988379  0.824676  0.905446  1
  Sm  Sm2  1  0.488850  0.677428  0.905185  1
  Sm  Sm3  1  0.987217  0.823511  0.597032  1
  Sm  Sm4  1  0.512382  0.323270  0.094275  1
  Sm  Sm5  1  0.013816  0.178771  0.401347  1
  Sm  Sm6  1  0.513393  0.322063  0.401685  1
  Sm  Sm7  1  0.486289  0.678928  0.598965  1
  Er  Er8  1  0.313300  0.174061  0.628711  1
  Er  Er9  1  0.673716  0.824873  0.374333  1
  Sc  Sc10  1  0.160049  0.509343  0.752546  1
  Sc  Sc11  1  0.841886  0.496610  0.247380  1
  Sc  Sc12  1  0.340031  0.003736  0.247781  1
  Sc  Sc13  1  0.669277  0.000900  0.752337  1
  Sc  Sc14  1  0.172769  0.675486  0.372021  1
  Sc  Sc15  1  0.673159  0.827056  0.124694  1
  Sc  Sc16  1  0.832806  0.321451  0.630281  1
  Sc  Sc17  1  0.314544  0.172256  0.873508  1
  Sc  Sc18  1  0.835451  0.320054  0.872618  1
  Sc  Sc19  1  0.173623  0.675926  0.124279  1
  Si  Si20  1  0.974799  0.880541  0.245997  1
  Si  Si21  1  0.469237  0.613085  0.246457  1
  Si  Si22  1  0.532171  0.387196  0.753610  1
  Si  Si23  1  0.280071  0.875016  0.753362  1
  Si  Si24  1  0.713594  0.128620  0.247103  1
  Si  Si25  1  0.213846  0.375592  0.247935  1
  Si  Si26  1  0.782275  0.621648  0.751776  1
  Si  Si27  1  0.151624  0.470270  0.537827  1
  Si  Si28  1  0.848972  0.531902  0.462823  1
  Si  Si29  1  0.341283  0.962219  0.459985  1
  Si  Si30  1  0.846356  0.535590  0.037759  1
  Si  Si31  1  0.657727  0.038558  0.542354  1
  Si  Si32  1  0.155226  0.466263  0.961112  1
  Si  Si33  1  0.654574  0.036056  0.959672  1
  Si  Si34  1  0.348014  0.964720  0.039052  1
  Ni  Ni35  1  0.026252  0.104635  0.753340  1
