# generated using pymatgen
data_Tm2NbB4Ru10W3
_symmetry_space_group_name_H-M   'P 1'
_cell_length_a   9.54509104
_cell_length_b   9.54509155
_cell_length_c   3.01539300
_cell_angle_alpha   90.00000000
_cell_angle_beta   90.00000000
_cell_angle_gamma   90.50161110
_symmetry_Int_Tables_number   1
_chemical_formula_structural   Tm2NbB4Ru10W3
_chemical_formula_sum   'Tm2 Nb1 B4 Ru10 W3'
_cell_volume   274.71821243
_cell_formula_units_Z   1
loop_
 _symmetry_equiv_pos_site_id
 _symmetry_equiv_pos_as_xyz
  1  'x, y, z'
loop_
 _atom_site_type_symbol
 _atom_site_label
 _atom_site_symmetry_multiplicity
 _atom_site_fract_x
 _atom_site_fract_y
 _atom_site_fract_z
 _atom_site_occupancy
  Tm  Tm0  1  0.823686  0.675975  0.000000  1
  Tm  Tm1  1  0.175975  0.323686  0.000000  1
  Nb  Nb2  1  0.676334  0.176334  0.000000  1
  B  B3  1  0.621203  0.879845  0.000000  1
  B  B4  1  0.379845  0.121203  0.000000  1
  B  B5  1  0.120455  0.620455  0.000000  1
  B  B6  1  0.879296  0.379296  0.000000  1
  Ru  Ru7  1  0.558755  0.721794  0.500000  1
  Ru  Ru8  1  0.436509  0.277970  0.500000  1
  Ru  Ru9  1  0.082949  0.787237  0.500000  1
  Ru  Ru10  1  0.922505  0.214369  0.500000  1
  Ru  Ru11  1  0.287237  0.582949  0.500000  1
  Ru  Ru12  1  0.714369  0.422505  0.500000  1
  Ru  Ru13  1  0.221794  0.058755  0.500000  1
  Ru  Ru14  1  0.777970  0.936509  0.500000  1
  Ru  Ru15  1  0.496550  0.996550  0.500000  1
  Ru  Ru16  1  0.000826  0.500826  0.500000  1
  W  W17  1  0.323984  0.823984  0.000000  1
  W  W18  1  0.500749  0.499010  0.000000  1
  W  W19  1  0.999010  0.000749  0.000000  1
