# generated using pymatgen
data_Ac4InTe3
_symmetry_space_group_name_H-M   'P 1'
_cell_length_a   8.29096593
_cell_length_b   8.29096583
_cell_length_c   8.29096591
_cell_angle_alpha   132.04854631
_cell_angle_beta   132.04854662
_cell_angle_gamma   70.15236140
_symmetry_Int_Tables_number   1
_chemical_formula_structural   Ac4InTe3
_chemical_formula_sum   'Ac4 In1 Te3'
_cell_volume   308.05952172
_cell_formula_units_Z   1
loop_
 _symmetry_equiv_pos_site_id
 _symmetry_equiv_pos_as_xyz
  1  'x, y, z'
loop_
 _atom_site_type_symbol
 _atom_site_label
 _atom_site_symmetry_multiplicity
 _atom_site_fract_x
 _atom_site_fract_y
 _atom_site_fract_z
 _atom_site_occupancy
  Ac  Ac0  1  0.246929  0.246929  0.000000  1
  Ac  Ac1  1  0.753071  0.753071  0.000000  1
  Ac  Ac2  1  0.500000  0.000000  0.500000  1
  Ac  Ac3  1  0.000000  0.500000  0.500000  1
  In  In4  1  0.000000  0.000000  0.000000  1
  Te  Te5  1  0.500000  0.500000  0.000000  1
  Te  Te6  1  0.750000  0.250000  0.500000  1
  Te  Te7  1  0.250000  0.750000  0.500000  1
