# generated using pymatgen
data_Lu3Al4Zn7
_symmetry_space_group_name_H-M   'P 1'
_cell_length_a   8.04730924
_cell_length_b   8.04730817
_cell_length_c   8.04730823
_cell_angle_alpha   149.86878217
_cell_angle_beta   105.03815913
_cell_angle_gamma   82.85734135
_symmetry_Int_Tables_number   1
_chemical_formula_structural   Lu3Al4Zn7
_chemical_formula_sum   'Lu3 Al4 Zn7'
_cell_volume   247.20223459
_cell_formula_units_Z   1
loop_
 _symmetry_equiv_pos_site_id
 _symmetry_equiv_pos_as_xyz
  1  'x, y, z'
loop_
 _atom_site_type_symbol
 _atom_site_label
 _atom_site_symmetry_multiplicity
 _atom_site_fract_x
 _atom_site_fract_y
 _atom_site_fract_z
 _atom_site_occupancy
  Lu  Lu0  1  0.995432  0.000000  0.995432  1
  Lu  Lu1  1  0.303008  0.303125  0.999883  1
  Lu  Lu2  1  0.696758  0.696875  0.999883  1
  Al  Al3  1  0.701796  0.500000  0.201796  1
  Al  Al4  1  0.413867  0.139143  0.274724  1
  Al  Al5  1  0.135581  0.860856  0.274723  1
  Al  Al6  1  0.505360  0.000000  0.505360  1
  Zn  Zn7  1  0.713498  0.341562  0.371937  1
  Zn  Zn8  1  0.030375  0.658437  0.371935  1
  Zn  Zn9  1  0.970093  0.344644  0.625450  1
  Zn  Zn10  1  0.280805  0.655355  0.625449  1
  Zn  Zn11  1  0.866212  0.143672  0.722540  1
  Zn  Zn12  1  0.578867  0.856327  0.722539  1
  Zn  Zn13  1  0.308350  0.499999  0.808348  1
