# generated using pymatgen
data_CaNdSi7Rh12
_symmetry_space_group_name_H-M   'P 1'
_cell_length_a   9.79375900
_cell_length_b   9.79375917
_cell_length_c   3.87230200
_cell_angle_alpha   90.00000000
_cell_angle_beta   90.00000000
_cell_angle_gamma   120.00000280
_symmetry_Int_Tables_number   1
_chemical_formula_structural   CaNdSi7Rh12
_chemical_formula_sum   'Ca1 Nd1 Si7 Rh12'
_cell_volume   321.66119664
_cell_formula_units_Z   1
loop_
 _symmetry_equiv_pos_site_id
 _symmetry_equiv_pos_as_xyz
  1  'x, y, z'
loop_
 _atom_site_type_symbol
 _atom_site_label
 _atom_site_symmetry_multiplicity
 _atom_site_fract_x
 _atom_site_fract_y
 _atom_site_fract_z
 _atom_site_occupancy
  Ca  Ca0  1  0.333333  0.666667  0.251649  1
  Nd  Nd1  1  0.000000  0.000000  0.750148  1
  Si  Si2  1  0.666667  0.333333  0.523504  1
  Si  Si3  1  0.066165  0.622517  0.751224  1
  Si  Si4  1  0.377483  0.443647  0.751224  1
  Si  Si5  1  0.556353  0.933835  0.751224  1
  Si  Si6  1  0.269706  0.042642  0.250070  1
  Si  Si7  1  0.957358  0.227064  0.250070  1
  Si  Si8  1  0.772936  0.730294  0.250070  1
  Rh  Rh9  1  0.810593  0.595916  0.745562  1
  Rh  Rh10  1  0.404084  0.214676  0.745562  1
  Rh  Rh11  1  0.785324  0.189407  0.745562  1
  Rh  Rh12  1  0.526720  0.075510  0.257313  1
  Rh  Rh13  1  0.924490  0.451210  0.257313  1
  Rh  Rh14  1  0.548790  0.473280  0.257313  1
  Rh  Rh15  1  0.109916  0.396259  0.752475  1
  Rh  Rh16  1  0.603741  0.713657  0.752475  1
  Rh  Rh17  1  0.286343  0.890084  0.752475  1
  Rh  Rh18  1  0.224980  0.273246  0.248235  1
  Rh  Rh19  1  0.726754  0.951735  0.248235  1
  Rh  Rh20  1  0.048265  0.775020  0.248235  1
