# generated using pymatgen
data_Tb3Tm5In3Ir
_symmetry_space_group_name_H-M   'P 1'
_cell_length_a   10.36730700
_cell_length_b   10.36730655
_cell_length_c   7.04539600
_cell_angle_alpha   90.00000000
_cell_angle_beta   90.00000000
_cell_angle_gamma   119.99999824
_symmetry_Int_Tables_number   1
_chemical_formula_structural   Tb3Tm5In3Ir
_chemical_formula_sum   'Tb6 Tm10 In6 Ir2'
_cell_volume   655.79476785
_cell_formula_units_Z   2
loop_
 _symmetry_equiv_pos_site_id
 _symmetry_equiv_pos_as_xyz
  1  'x, y, z'
loop_
 _atom_site_type_symbol
 _atom_site_label
 _atom_site_symmetry_multiplicity
 _atom_site_fract_x
 _atom_site_fract_y
 _atom_site_fract_z
 _atom_site_occupancy
  Tb  Tb0  1  0.532548  0.065098  0.514826  1
  Tb  Tb1  1  0.934902  0.467452  0.514826  1
  Tb  Tb2  1  0.532548  0.467452  0.514826  1
  Tb  Tb3  1  0.467452  0.934902  0.014826  1
  Tb  Tb4  1  0.065098  0.532548  0.014826  1
  Tb  Tb5  1  0.467452  0.532548  0.014826  1
  Tm  Tm6  1  0.176603  0.353208  0.721134  1
  Tm  Tm7  1  0.646792  0.823397  0.721134  1
  Tm  Tm8  1  0.176603  0.823397  0.721134  1
  Tm  Tm9  1  0.823397  0.646792  0.221134  1
  Tm  Tm10  1  0.353208  0.176603  0.221134  1
  Tm  Tm11  1  0.823397  0.176603  0.221134  1
  Tm  Tm12  1  0.666667  0.333333  0.896838  1
  Tm  Tm13  1  0.333333  0.666667  0.396838  1
  Tm  Tm14  1  0.000000  0.000000  0.500339  1
  Tm  Tm15  1  0.000000  0.000000  0.000339  1
  In  In16  1  0.837389  0.674779  0.761839  1
  In  In17  1  0.325221  0.162611  0.761839  1
  In  In18  1  0.837389  0.162611  0.761839  1
  In  In19  1  0.162611  0.325221  0.261839  1
  In  In20  1  0.674779  0.837389  0.261839  1
  In  In21  1  0.162611  0.837389  0.261839  1
  Ir  Ir22  1  0.666667  0.333333  0.288425  1
  Ir  Ir23  1  0.333333  0.666667  0.788425  1
