# generated using pymatgen
data_Pr8Y3Er9Si16
_symmetry_space_group_name_H-M   'P 1'
_cell_length_a   7.50945559
_cell_length_b   7.79423177
_cell_length_c   14.80963498
_cell_angle_alpha   90.01672090
_cell_angle_beta   89.91783371
_cell_angle_gamma   90.04821154
_symmetry_Int_Tables_number   1
_chemical_formula_structural   Pr8Y3Er9Si16
_chemical_formula_sum   'Pr8 Y3 Er9 Si16'
_cell_volume   866.81317724
_cell_formula_units_Z   1
loop_
 _symmetry_equiv_pos_site_id
 _symmetry_equiv_pos_as_xyz
  1  'x, y, z'
loop_
 _atom_site_type_symbol
 _atom_site_label
 _atom_site_symmetry_multiplicity
 _atom_site_fract_x
 _atom_site_fract_y
 _atom_site_fract_z
 _atom_site_occupancy
  Pr  Pr0  1  0.022686  0.178107  0.402427  1
  Pr  Pr1  1  0.522598  0.321941  0.402447  1
  Pr  Pr2  1  0.477203  0.678322  0.901423  1
  Pr  Pr3  1  0.477457  0.677877  0.597822  1
  Pr  Pr4  1  0.977275  0.821921  0.597906  1
  Pr  Pr5  1  0.976822  0.821597  0.901264  1
  Pr  Pr6  1  0.523351  0.321434  0.098418  1
  Pr  Pr7  1  0.022820  0.178407  0.098295  1
  Y  Y8  1  0.320557  0.179060  0.876543  1
  Y  Y9  1  0.179428  0.678579  0.123219  1
  Y  Y10  1  0.679500  0.821118  0.123269  1
  Er  Er11  1  0.321151  0.178571  0.623187  1
  Er  Er12  1  0.678838  0.821432  0.377089  1
  Er  Er13  1  0.651770  0.990024  0.749477  1
  Er  Er14  1  0.178806  0.678536  0.377087  1
  Er  Er15  1  0.820671  0.321357  0.876008  1
  Er  Er16  1  0.821151  0.321474  0.623051  1
  Er  Er17  1  0.848278  0.489324  0.250794  1
  Er  Er18  1  0.348332  0.010647  0.250791  1
  Er  Er19  1  0.151488  0.510319  0.749389  1
  Si  Si20  1  0.271364  0.879626  0.749213  1
  Si  Si21  1  0.474145  0.612812  0.251423  1
  Si  Si22  1  0.024920  0.114187  0.749127  1
  Si  Si23  1  0.526862  0.386711  0.749175  1
  Si  Si24  1  0.145452  0.468526  0.540037  1
  Si  Si25  1  0.974176  0.886973  0.251435  1
  Si  Si26  1  0.728765  0.120353  0.250828  1
  Si  Si27  1  0.854528  0.529457  0.039193  1
  Si  Si28  1  0.355552  0.969871  0.040026  1
  Si  Si29  1  0.143153  0.469115  0.959331  1
  Si  Si30  1  0.645267  0.031440  0.540038  1
  Si  Si31  1  0.354643  0.968514  0.460111  1
  Si  Si32  1  0.854649  0.531459  0.460046  1
  Si  Si33  1  0.771616  0.619532  0.749734  1
  Si  Si34  1  0.228734  0.379647  0.250831  1
  Si  Si35  1  0.645991  0.031731  0.959547  1
