# generated using pymatgen
data_ThZnAsN
_symmetry_space_group_name_H-M   'P 1'
_cell_length_a   4.09042200
_cell_length_b   4.09042200
_cell_length_c   9.15898800
_cell_angle_alpha   90.00000000
_cell_angle_beta   90.00000000
_cell_angle_gamma   90.00000000
_symmetry_Int_Tables_number   1
_chemical_formula_structural   ThZnAsN
_chemical_formula_sum   'Th2 Zn2 As2 N2'
_cell_volume   153.24408525
_cell_formula_units_Z   2
loop_
 _symmetry_equiv_pos_site_id
 _symmetry_equiv_pos_as_xyz
  1  'x, y, z'
loop_
 _atom_site_type_symbol
 _atom_site_label
 _atom_site_symmetry_multiplicity
 _atom_site_fract_x
 _atom_site_fract_y
 _atom_site_fract_z
 _atom_site_occupancy
  Th  Th0  1  0.250001  0.250001  0.125994  1
  Th  Th1  1  0.750001  0.750001  0.874007  1
  Zn  Zn2  1  0.750001  0.250001  0.500000  1
  Zn  Zn3  1  0.250001  0.750001  0.500000  1
  As  As4  1  0.750001  0.750001  0.326462  1
  As  As5  1  0.250001  0.250001  0.673538  1
  N  N6  1  0.750001  0.250001  0.000000  1
  N  N7  1  0.250001  0.750001  0.000000  1
