# generated using pymatgen
data_Pr2DyY(SiO5)2
_symmetry_space_group_name_H-M   'P 1'
_cell_length_a   8.15255613
_cell_length_b   8.15255497
_cell_length_c   10.83453585
_cell_angle_alpha   61.12205822
_cell_angle_beta   61.12206247
_cell_angle_gamma   50.28934346
_symmetry_Int_Tables_number   1
_chemical_formula_structural   Pr2DyY(SiO5)2
_chemical_formula_sum   'Pr4 Dy2 Y2 Si4 O20'
_cell_volume   468.54368597
_cell_formula_units_Z   2
loop_
 _symmetry_equiv_pos_site_id
 _symmetry_equiv_pos_as_xyz
  1  'x, y, z'
loop_
 _atom_site_type_symbol
 _atom_site_label
 _atom_site_symmetry_multiplicity
 _atom_site_fract_x
 _atom_site_fract_y
 _atom_site_fract_z
 _atom_site_occupancy
  Pr  Pr0  1  0.782891  0.291461  0.035520  1
  Pr  Pr1  1  0.708539  0.217109  0.464480  1
  Pr  Pr2  1  0.217084  0.708566  0.964643  1
  Pr  Pr3  1  0.291434  0.782916  0.535357  1
  Dy  Dy4  1  0.236964  0.477437  0.336796  1
  Dy  Dy5  1  0.522563  0.763036  0.163204  1
  Y  Y6  1  0.763355  0.522492  0.663103  1
  Y  Y7  1  0.477508  0.236645  0.836897  1
  Si  Si8  1  0.728223  0.903229  0.306821  1
  Si  Si9  1  0.096771  0.271777  0.193179  1
  Si  Si10  1  0.271685  0.096778  0.693149  1
  Si  Si11  1  0.903222  0.728315  0.806851  1
  O  O12  1  0.421423  0.611874  0.109748  1
  O  O13  1  0.388126  0.578577  0.390252  1
  O  O14  1  0.578380  0.388190  0.890841  1
  O  O15  1  0.611810  0.421620  0.609159  1
  O  O16  1  0.867539  0.724139  0.432343  1
  O  O17  1  0.275861  0.132461  0.067657  1
  O  O18  1  0.133286  0.275823  0.567134  1
  O  O19  1  0.724177  0.866714  0.932866  1
  O  O20  1  0.565451  0.842689  0.317121  1
  O  O21  1  0.157311  0.434549  0.182879  1
  O  O22  1  0.434670  0.157091  0.682737  1
  O  O23  1  0.842909  0.565330  0.817263  1
  O  O24  1  0.158603  0.588063  0.822897  1
  O  O25  1  0.411937  0.841397  0.677103  1
  O  O26  1  0.841101  0.412648  0.177062  1
  O  O27  1  0.587352  0.158899  0.322938  1
  O  O28  1  0.908534  0.905557  0.645725  1
  O  O29  1  0.094443  0.091466  0.854275  1
  O  O30  1  0.091354  0.094505  0.354267  1
  O  O31  1  0.905495  0.908646  0.145733  1
