# generated using pymatgen
data_Zr2Be2Os5W
_symmetry_space_group_name_H-M   'P 1'
_cell_length_a   9.46763400
_cell_length_b   9.46763400
_cell_length_c   3.20971700
_cell_angle_alpha   90.00000000
_cell_angle_beta   90.00000000
_cell_angle_gamma   90.00000000
_symmetry_Int_Tables_number   1
_chemical_formula_structural   Zr2Be2Os5W
_chemical_formula_sum   'Zr4 Be4 Os10 W2'
_cell_volume   287.70649331
_cell_formula_units_Z   2
loop_
 _symmetry_equiv_pos_site_id
 _symmetry_equiv_pos_as_xyz
  1  'x, y, z'
loop_
 _atom_site_type_symbol
 _atom_site_label
 _atom_site_symmetry_multiplicity
 _atom_site_fract_x
 _atom_site_fract_y
 _atom_site_fract_z
 _atom_site_occupancy
  Zr  Zr0  1  0.674078  0.174078  0.000000  1
  Zr  Zr1  1  0.325922  0.825922  0.000000  1
  Zr  Zr2  1  0.174078  0.325922  0.000000  1
  Zr  Zr3  1  0.825922  0.674078  0.000000  1
  Be  Be4  1  0.121646  0.621646  0.000000  1
  Be  Be5  1  0.878354  0.378354  0.000000  1
  Be  Be6  1  0.621646  0.878354  0.000000  1
  Be  Be7  1  0.378354  0.121646  0.000000  1
  Os  Os8  1  0.210823  0.068518  0.500000  1
  Os  Os9  1  0.789177  0.931482  0.500000  1
  Os  Os10  1  0.068518  0.789177  0.500000  1
  Os  Os11  1  0.710823  0.431482  0.500000  1
  Os  Os12  1  0.931482  0.210823  0.500000  1
  Os  Os13  1  0.289177  0.568518  0.500000  1
  Os  Os14  1  0.568518  0.710823  0.500000  1
  Os  Os15  1  0.431482  0.289177  0.500000  1
  Os  Os16  1  0.500000  0.000000  0.500000  1
  Os  Os17  1  0.000000  0.500000  0.500000  1
  W  W18  1  0.000000  0.000000  0.000000  1
  W  W19  1  0.500000  0.500000  0.000000  1
