# generated using pymatgen
data_HoTm(WN3)2
_symmetry_space_group_name_H-M   'P 1'
_cell_length_a   7.37346020
_cell_length_b   7.37349124
_cell_length_c   6.26035312
_cell_angle_alpha   73.03260440
_cell_angle_beta   73.03242713
_cell_angle_gamma   81.25565612
_symmetry_Int_Tables_number   1
_chemical_formula_structural   HoTm(WN3)2
_chemical_formula_sum   'Ho2 Tm2 W4 N12'
_cell_volume   310.54426125
_cell_formula_units_Z   2
loop_
 _symmetry_equiv_pos_site_id
 _symmetry_equiv_pos_as_xyz
  1  'x, y, z'
loop_
 _atom_site_type_symbol
 _atom_site_label
 _atom_site_symmetry_multiplicity
 _atom_site_fract_x
 _atom_site_fract_y
 _atom_site_fract_z
 _atom_site_occupancy
  Ho  Ho0  1  0.716779  0.283226  0.250000  1
  Ho  Ho1  1  0.283221  0.716774  0.750000  1
  Tm  Tm2  1  0.909715  0.090285  0.750000  1
  Tm  Tm3  1  0.090285  0.909715  0.250000  1
  W  W4  1  0.620838  0.798598  0.278797  1
  W  W5  1  0.201403  0.379161  0.221205  1
  W  W6  1  0.379162  0.201402  0.721203  1
  W  W7  1  0.798597  0.620839  0.778795  1
  N  N8  1  0.666113  0.624738  0.085080  1
  N  N9  1  0.373758  0.884484  0.332637  1
  N  N10  1  0.375262  0.333889  0.414918  1
  N  N11  1  0.115513  0.626239  0.167367  1
  N  N12  1  0.003274  0.215262  0.346582  1
  N  N13  1  0.784737  0.996728  0.153417  1
  N  N14  1  0.215263  0.003272  0.846583  1
  N  N15  1  0.626242  0.115516  0.667363  1
  N  N16  1  0.333887  0.375262  0.914920  1
  N  N17  1  0.884487  0.373761  0.832633  1
  N  N18  1  0.624738  0.666111  0.585082  1
  N  N19  1  0.996726  0.784738  0.653418  1
