# generated using pymatgen
data_Ho2Sc2CrFeB12
_symmetry_space_group_name_H-M   'P 1'
_cell_length_a   3.43419500
_cell_length_b   8.93760489
_cell_length_c   11.31110722
_cell_angle_alpha   89.86877653
_cell_angle_beta   90.00000000
_cell_angle_gamma   90.00000000
_symmetry_Int_Tables_number   1
_chemical_formula_structural   Ho2Sc2CrFeB12
_chemical_formula_sum   'Ho4 Sc4 Cr2 Fe2 B24'
_cell_volume   347.17631037
_cell_formula_units_Z   2
loop_
 _symmetry_equiv_pos_site_id
 _symmetry_equiv_pos_as_xyz
  1  'x, y, z'
loop_
 _atom_site_type_symbol
 _atom_site_label
 _atom_site_symmetry_multiplicity
 _atom_site_fract_x
 _atom_site_fract_y
 _atom_site_fract_z
 _atom_site_occupancy
  Ho  Ho0  1  0.000000  0.822336  0.085051  1
  Ho  Ho1  1  0.000000  0.177664  0.914949  1
  Ho  Ho2  1  0.000000  0.321864  0.414293  1
  Ho  Ho3  1  0.000000  0.678136  0.585707  1
  Sc  Sc4  1  0.000000  0.443222  0.129434  1
  Sc  Sc5  1  0.000000  0.556778  0.870566  1
  Sc  Sc6  1  0.000000  0.943914  0.370106  1
  Sc  Sc7  1  0.000000  0.056086  0.629894  1
  Cr  Cr8  1  0.000000  0.641085  0.317002  1
  Cr  Cr9  1  0.000000  0.358915  0.682998  1
  Fe  Fe10  1  0.000000  0.140783  0.181237  1
  Fe  Fe11  1  0.000000  0.859217  0.818763  1
  B  B12  1  0.500000  0.055818  0.068714  1
  B  B13  1  0.500000  0.944182  0.931286  1
  B  B14  1  0.500000  0.554237  0.431956  1
  B  B15  1  0.500000  0.445763  0.568044  1
  B  B16  1  0.500000  0.251181  0.083282  1
  B  B17  1  0.500000  0.748819  0.916718  1
  B  B18  1  0.500000  0.752349  0.417452  1
  B  B19  1  0.500000  0.247651  0.582548  1
  B  B20  1  0.500000  0.291987  0.234337  1
  B  B21  1  0.500000  0.708013  0.765663  1
  B  B22  1  0.500000  0.795080  0.264251  1
  B  B23  1  0.500000  0.204920  0.735749  1
  B  B24  1  0.500000  0.129456  0.315047  1
  B  B25  1  0.500000  0.870544  0.684953  1
  B  B26  1  0.500000  0.629834  0.182782  1
  B  B27  1  0.500000  0.370166  0.817218  1
  B  B28  1  0.500000  0.481261  0.285730  1
  B  B29  1  0.500000  0.518739  0.714270  1
  B  B30  1  0.500000  0.984659  0.212909  1
  B  B31  1  0.500000  0.015341  0.787091  1
  B  B32  1  0.500000  0.097743  0.473178  1
  B  B33  1  0.500000  0.902257  0.526822  1
  B  B34  1  0.500000  0.598127  0.025941  1
  B  B35  1  0.500000  0.401873  0.974059  1
