# generated using pymatgen
data_Dy2Fe3P7Ir2Ru7
_symmetry_space_group_name_H-M   'P 1'
_cell_length_a   9.32869799
_cell_length_b   9.29049802
_cell_length_c   3.85800700
_cell_angle_alpha   90.00000000
_cell_angle_beta   90.00000000
_cell_angle_gamma   119.98556032
_symmetry_Int_Tables_number   1
_chemical_formula_structural   Dy2Fe3P7Ir2Ru7
_chemical_formula_sum   'Dy2 Fe3 P7 Ir2 Ru7'
_cell_volume   289.61219458
_cell_formula_units_Z   1
loop_
 _symmetry_equiv_pos_site_id
 _symmetry_equiv_pos_as_xyz
  1  'x, y, z'
loop_
 _atom_site_type_symbol
 _atom_site_label
 _atom_site_symmetry_multiplicity
 _atom_site_fract_x
 _atom_site_fract_y
 _atom_site_fract_z
 _atom_site_occupancy
  Dy  Dy0  1  0.333048  0.666235  0.000000  1
  Dy  Dy1  1  0.000430  0.001751  0.500000  1
  Fe  Fe2  1  0.934193  0.491590  0.000000  1
  Fe  Fe3  1  0.509140  0.443551  0.000000  1
  Fe  Fe4  1  0.555684  0.063044  0.000000  1
  P  P5  1  0.971484  0.743404  0.000000  1
  P  P6  1  0.253906  0.228964  0.000000  1
  P  P7  1  0.775634  0.033659  0.000000  1
  P  P8  1  0.064136  0.450198  0.500000  1
  P  P9  1  0.544954  0.609710  0.500000  1
  P  P10  1  0.389952  0.933454  0.500000  1
  P  P11  1  0.666741  0.332476  0.000000  1
  Ir  Ir12  1  0.733554  0.759887  0.000000  1
  Ir  Ir13  1  0.241513  0.973989  0.000000  1
  Ru  Ru14  1  0.027230  0.271824  0.000000  1
  Ru  Ru15  1  0.106345  0.721151  0.500000  1
  Ru  Ru16  1  0.279267  0.384603  0.500000  1
  Ru  Ru17  1  0.615697  0.892389  0.500000  1
  Ru  Ru18  1  0.753167  0.540517  0.500000  1
  Ru  Ru19  1  0.458993  0.211629  0.500000  1
  Ru  Ru20  1  0.784932  0.245977  0.500000  1
