# generated using pymatgen
data_Th14Re5Pt
_symmetry_space_group_name_H-M   'P 1'
_cell_length_a   10.06756043
_cell_length_b   10.06756021
_cell_length_c   6.33301222
_cell_angle_alpha   89.91351530
_cell_angle_beta   90.08648077
_cell_angle_gamma   119.49875894
_symmetry_Int_Tables_number   1
_chemical_formula_structural   Th14Re5Pt
_chemical_formula_sum   'Th14 Re5 Pt1'
_cell_volume   558.67629170
_cell_formula_units_Z   1
loop_
 _symmetry_equiv_pos_site_id
 _symmetry_equiv_pos_as_xyz
  1  'x, y, z'
loop_
 _atom_site_type_symbol
 _atom_site_label
 _atom_site_symmetry_multiplicity
 _atom_site_fract_x
 _atom_site_fract_y
 _atom_site_fract_z
 _atom_site_occupancy
  Th  Th0  1  0.665198  0.334802  0.530457  1
  Th  Th1  1  0.333812  0.666188  0.023966  1
  Th  Th2  1  0.872754  0.748465  0.759626  1
  Th  Th3  1  0.251535  0.127246  0.759626  1
  Th  Th4  1  0.874159  0.125841  0.760814  1
  Th  Th5  1  0.136314  0.258846  0.258457  1
  Th  Th6  1  0.741154  0.863686  0.258457  1
  Th  Th7  1  0.124519  0.875481  0.258319  1
  Th  Th8  1  0.454330  0.920395  0.546150  1
  Th  Th9  1  0.079605  0.545670  0.546150  1
  Th  Th10  1  0.460681  0.539319  0.549833  1
  Th  Th11  1  0.532812  0.070382  0.043262  1
  Th  Th12  1  0.929618  0.467188  0.043262  1
  Th  Th13  1  0.540791  0.459209  0.049577  1
  Re  Re14  1  0.180720  0.370707  0.799279  1
  Re  Re15  1  0.629293  0.819280  0.799279  1
  Re  Re16  1  0.184975  0.815025  0.802355  1
  Re  Re17  1  0.816296  0.622878  0.300038  1
  Re  Re18  1  0.377122  0.183704  0.300038  1
  Pt  Pt19  1  0.814313  0.185687  0.299151  1
