# generated using pymatgen
data_K3Li2O6
_symmetry_space_group_name_H-M   'P 1'
_cell_length_a   9.24640336
_cell_length_b   9.25202346
_cell_length_c   5.36689300
_cell_angle_alpha   90.00000000
_cell_angle_beta   90.00000000
_cell_angle_gamma   131.45031829
_symmetry_Int_Tables_number   1
_chemical_formula_structural   K3Li2O6
_chemical_formula_sum   'K6 Li4 O12'
_cell_volume   344.12919529
_cell_formula_units_Z   2
loop_
 _symmetry_equiv_pos_site_id
 _symmetry_equiv_pos_as_xyz
  1  'x, y, z'
loop_
 _atom_site_type_symbol
 _atom_site_label
 _atom_site_symmetry_multiplicity
 _atom_site_fract_x
 _atom_site_fract_y
 _atom_site_fract_z
 _atom_site_occupancy
  K  K0  1  0.218029  0.218391  0.750000  1
  K  K1  1  0.781971  0.781609  0.250000  1
  K  K2  1  0.014005  0.643107  0.750000  1
  K  K3  1  0.356571  0.985747  0.250000  1
  K  K4  1  0.985995  0.356893  0.250000  1
  K  K5  1  0.643429  0.014253  0.750000  1
  Li  Li6  1  0.401345  0.599648  0.499912  1
  Li  Li7  1  0.401345  0.599648  0.000088  1
  Li  Li8  1  0.598655  0.400352  0.500088  1
  Li  Li9  1  0.598655  0.400352  0.999912  1
  O  O10  1  0.517482  0.206487  0.750000  1
  O  O11  1  0.793669  0.482491  0.250000  1
  O  O12  1  0.482518  0.793513  0.250000  1
  O  O13  1  0.206331  0.517509  0.750000  1
  O  O14  1  0.012646  0.330512  0.750000  1
  O  O15  1  0.670219  0.987393  0.250000  1
  O  O16  1  0.987354  0.669488  0.250000  1
  O  O17  1  0.329781  0.012607  0.750000  1
  O  O18  1  0.682532  0.595599  0.750000  1
  O  O19  1  0.402887  0.315803  0.250000  1
  O  O20  1  0.317468  0.404401  0.250000  1
  O  O21  1  0.597113  0.684197  0.750000  1
