# generated using pymatgen
data_Ho10GaSb5
_symmetry_space_group_name_H-M   'P 1'
_cell_length_a   8.87608200
_cell_length_b   8.85476166
_cell_length_c   6.35495800
_cell_angle_alpha   90.00000000
_cell_angle_beta   90.00000000
_cell_angle_gamma   120.07968083
_symmetry_Int_Tables_number   1
_chemical_formula_structural   Ho10GaSb5
_chemical_formula_sum   'Ho10 Ga1 Sb5'
_cell_volume   432.20743677
_cell_formula_units_Z   1
loop_
 _symmetry_equiv_pos_site_id
 _symmetry_equiv_pos_as_xyz
  1  'x, y, z'
loop_
 _atom_site_type_symbol
 _atom_site_label
 _atom_site_symmetry_multiplicity
 _atom_site_fract_x
 _atom_site_fract_y
 _atom_site_fract_z
 _atom_site_occupancy
  Ho  Ho0  1  0.335020  0.674908  0.998722  1
  Ho  Ho1  1  0.660113  0.325092  0.501278  1
  Ho  Ho2  1  0.660113  0.325092  0.998722  1
  Ho  Ho3  1  0.335020  0.674908  0.501278  1
  Ho  Ho4  1  0.750767  0.000000  0.750000  1
  Ho  Ho5  1  0.755703  0.756094  0.250000  1
  Ho  Ho6  1  0.999609  0.243906  0.250000  1
  Ho  Ho7  1  0.010577  0.764234  0.750000  1
  Ho  Ho8  1  0.246343  0.235766  0.750000  1
  Ho  Ho9  1  0.244909  0.000000  0.250000  1
  Ga  Ga10  1  0.392308  0.000000  0.750000  1
  Sb  Sb11  1  0.389460  0.392353  0.250000  1
  Sb  Sb12  1  0.997107  0.607647  0.250000  1
  Sb  Sb13  1  0.001874  0.390208  0.750000  1
  Sb  Sb14  1  0.611666  0.609792  0.750000  1
  Sb  Sb15  1  0.609412  0.000000  0.250000  1
