# generated using pymatgen
data_Li3Ho8Sc8Si16Rh
_symmetry_space_group_name_H-M   'P 1'
_cell_length_a   6.82271758
_cell_length_b   7.41736497
_cell_length_c   13.92747200
_cell_angle_alpha   90.00000000
_cell_angle_beta   90.00000000
_cell_angle_gamma   89.91921017
_symmetry_Int_Tables_number   1
_chemical_formula_structural   Li3Ho8Sc8Si16Rh
_chemical_formula_sum   'Li3 Ho8 Sc8 Si16 Rh1'
_cell_volume   704.82111445
_cell_formula_units_Z   1
loop_
 _symmetry_equiv_pos_site_id
 _symmetry_equiv_pos_as_xyz
  1  'x, y, z'
loop_
 _atom_site_type_symbol
 _atom_site_label
 _atom_site_symmetry_multiplicity
 _atom_site_fract_x
 _atom_site_fract_y
 _atom_site_fract_z
 _atom_site_occupancy
  Li  Li0  1  0.843430  0.491994  0.250000  1
  Li  Li1  1  0.342314  0.007595  0.250000  1
  Li  Li2  1  0.657654  0.984467  0.750000  1
  Ho  Ho3  1  0.014470  0.183582  0.096046  1
  Ho  Ho4  1  0.988649  0.818655  0.902037  1
  Ho  Ho5  1  0.490769  0.680874  0.902510  1
  Ho  Ho6  1  0.988649  0.818655  0.597963  1
  Ho  Ho7  1  0.514558  0.318043  0.097015  1
  Ho  Ho8  1  0.014470  0.183582  0.403954  1
  Ho  Ho9  1  0.514558  0.318043  0.402985  1
  Ho  Ho10  1  0.490769  0.680874  0.597490  1
  Sc  Sc11  1  0.326039  0.174795  0.628489  1
  Sc  Sc12  1  0.671661  0.821145  0.373795  1
  Sc  Sc13  1  0.172013  0.675996  0.375791  1
  Sc  Sc14  1  0.671661  0.821145  0.126205  1
  Sc  Sc15  1  0.824485  0.322060  0.629565  1
  Sc  Sc16  1  0.326039  0.174795  0.871511  1
  Sc  Sc17  1  0.824485  0.322060  0.870435  1
  Sc  Sc18  1  0.172013  0.675996  0.124209  1
  Si  Si19  1  0.025439  0.097275  0.750000  1
  Si  Si20  1  0.973708  0.896194  0.250000  1
  Si  Si21  1  0.473198  0.600515  0.250000  1
  Si  Si22  1  0.510486  0.410042  0.750000  1
  Si  Si23  1  0.275155  0.866335  0.750000  1
  Si  Si24  1  0.721081  0.118985  0.250000  1
  Si  Si25  1  0.217227  0.381075  0.250000  1
  Si  Si26  1  0.794046  0.620097  0.750000  1
  Si  Si27  1  0.157489  0.465391  0.544816  1
  Si  Si28  1  0.840363  0.536187  0.466955  1
  Si  Si29  1  0.341229  0.963002  0.465667  1
  Si  Si30  1  0.840363  0.536187  0.033045  1
  Si  Si31  1  0.660030  0.037016  0.536077  1
  Si  Si32  1  0.157489  0.465391  0.955184  1
  Si  Si33  1  0.660030  0.037016  0.963923  1
  Si  Si34  1  0.341229  0.963002  0.034333  1
  Rh  Rh35  1  0.162756  0.531936  0.750000  1
