# generated using pymatgen
data_Tb2DyAl3Ga2Cu
_symmetry_space_group_name_H-M   'P 1'
_cell_length_a   6.96789821
_cell_length_b   6.96789827
_cell_length_c   4.29916000
_cell_angle_alpha   90.00000000
_cell_angle_beta   90.00000000
_cell_angle_gamma   119.97170085
_symmetry_Int_Tables_number   1
_chemical_formula_structural   Tb2DyAl3Ga2Cu
_chemical_formula_sum   'Tb2 Dy1 Al3 Ga2 Cu1'
_cell_volume   180.81797979
_cell_formula_units_Z   1
loop_
 _symmetry_equiv_pos_site_id
 _symmetry_equiv_pos_as_xyz
  1  'x, y, z'
loop_
 _atom_site_type_symbol
 _atom_site_label
 _atom_site_symmetry_multiplicity
 _atom_site_fract_x
 _atom_site_fract_y
 _atom_site_fract_z
 _atom_site_occupancy
  Tb  Tb0  1  0.589748  0.999927  0.500000  1
  Tb  Tb1  1  0.999927  0.589748  0.500000  1
  Dy  Dy2  1  0.409987  0.409987  0.500000  1
  Al  Al3  1  0.764524  0.764524  0.000000  1
  Al  Al4  1  0.235308  0.999981  0.000000  1
  Al  Al5  1  0.999981  0.235308  0.000000  1
  Ga  Ga6  1  0.666238  0.333554  0.000000  1
  Ga  Ga7  1  0.333554  0.666238  0.000000  1
  Cu  Cu8  1  0.000733  0.000733  0.500000  1
