# generated using pymatgen
data_Ti3MnRe2P3
_symmetry_space_group_name_H-M   'P 1'
_cell_length_a   6.55436871
_cell_length_b   6.55436886
_cell_length_c   3.31948100
_cell_angle_alpha   90.00000000
_cell_angle_beta   90.00000000
_cell_angle_gamma   120.84620791
_symmetry_Int_Tables_number   1
_chemical_formula_structural   Ti3MnRe2P3
_chemical_formula_sum   'Ti3 Mn1 Re2 P3'
_cell_volume   122.43225254
_cell_formula_units_Z   1
loop_
 _symmetry_equiv_pos_site_id
 _symmetry_equiv_pos_as_xyz
  1  'x, y, z'
loop_
 _atom_site_type_symbol
 _atom_site_label
 _atom_site_symmetry_multiplicity
 _atom_site_fract_x
 _atom_site_fract_y
 _atom_site_fract_z
 _atom_site_occupancy
  Ti  Ti0  1  0.594828  0.999631  0.000000  1
  Ti  Ti1  1  0.999631  0.594828  0.000000  1
  Ti  Ti2  1  0.411142  0.411142  0.000000  1
  Mn  Mn3  1  0.745379  0.745379  0.500000  1
  Re  Re4  1  0.254727  0.002427  0.500000  1
  Re  Re5  1  0.002427  0.254727  0.500000  1
  P  P6  1  0.346017  0.671654  0.500000  1
  P  P7  1  0.671654  0.346017  0.500000  1
  P  P8  1  0.974196  0.974196  0.000000  1
