# generated using pymatgen
data_CsTa(MoS3)2
_symmetry_space_group_name_H-M   'P 1'
_cell_length_a   5.65099900
_cell_length_b   5.65099988
_cell_length_c   18.00615300
_cell_angle_alpha   90.00000000
_cell_angle_beta   90.00000000
_cell_angle_gamma   119.99998897
_symmetry_Int_Tables_number   1
_chemical_formula_structural   CsTa(MoS3)2
_chemical_formula_sum   'Cs2 Ta2 Mo4 S12'
_cell_volume   497.96881346
_cell_formula_units_Z   2
loop_
 _symmetry_equiv_pos_site_id
 _symmetry_equiv_pos_as_xyz
  1  'x, y, z'
loop_
 _atom_site_type_symbol
 _atom_site_label
 _atom_site_symmetry_multiplicity
 _atom_site_fract_x
 _atom_site_fract_y
 _atom_site_fract_z
 _atom_site_occupancy
  Cs  Cs0  1  0.000000  0.000000  0.500000  1
  Cs  Cs1  1  0.000000  0.000000  0.000000  1
  Ta  Ta2  1  0.666667  0.333333  0.250000  1
  Ta  Ta3  1  0.333333  0.666667  0.750000  1
  Mo  Mo4  1  0.000000  0.000000  0.250000  1
  Mo  Mo5  1  0.000000  0.000000  0.750000  1
  Mo  Mo6  1  0.333333  0.666667  0.250000  1
  Mo  Mo7  1  0.666667  0.333333  0.750000  1
  S  S8  1  0.330232  0.995036  0.163650  1
  S  S9  1  0.004964  0.335197  0.163650  1
  S  S10  1  0.664803  0.669768  0.163650  1
  S  S11  1  0.335197  0.330232  0.663650  1
  S  S12  1  0.664803  0.669768  0.336350  1
  S  S13  1  0.669768  0.004964  0.663650  1
  S  S14  1  0.995036  0.664803  0.663650  1
  S  S15  1  0.995036  0.664803  0.836350  1
  S  S16  1  0.335197  0.330232  0.836350  1
  S  S17  1  0.004964  0.335197  0.336350  1
  S  S18  1  0.330232  0.995036  0.336350  1
  S  S19  1  0.669768  0.004964  0.836350  1
