# generated using pymatgen
data_Er7Sn22Os6Cl
_symmetry_space_group_name_H-M   'P 1'
_cell_length_a   9.82139400
_cell_length_b   9.82139339
_cell_length_c   10.05500600
_cell_angle_alpha   90.00000000
_cell_angle_beta   90.00000000
_cell_angle_gamma   120.00000206
_symmetry_Int_Tables_number   1
_chemical_formula_structural   Er7Sn22Os6Cl
_chemical_formula_sum   'Er7 Sn22 Os6 Cl1'
_cell_volume   839.96114587
_cell_formula_units_Z   1
loop_
 _symmetry_equiv_pos_site_id
 _symmetry_equiv_pos_as_xyz
  1  'x, y, z'
loop_
 _atom_site_type_symbol
 _atom_site_label
 _atom_site_symmetry_multiplicity
 _atom_site_fract_x
 _atom_site_fract_y
 _atom_site_fract_z
 _atom_site_occupancy
  Er  Er0  1  0.485782  0.514218  0.302436  1
  Er  Er1  1  0.514218  0.485782  0.697564  1
  Er  Er2  1  0.485782  0.971565  0.302436  1
  Er  Er3  1  0.514218  0.028435  0.697564  1
  Er  Er4  1  0.028435  0.514218  0.302436  1
  Er  Er5  1  0.971565  0.485782  0.697564  1
  Er  Er6  1  0.000000  0.000000  0.000000  1
  Sn  Sn7  1  0.119349  0.880651  0.276794  1
  Sn  Sn8  1  0.880651  0.119349  0.723206  1
  Sn  Sn9  1  0.119349  0.238697  0.276794  1
  Sn  Sn10  1  0.880651  0.761303  0.723206  1
  Sn  Sn11  1  0.761303  0.880651  0.276794  1
  Sn  Sn12  1  0.238697  0.119349  0.723206  1
  Sn  Sn13  1  0.776920  0.223080  0.464014  1
  Sn  Sn14  1  0.223080  0.776920  0.535986  1
  Sn  Sn15  1  0.776920  0.553841  0.464014  1
  Sn  Sn16  1  0.223080  0.446159  0.535986  1
  Sn  Sn17  1  0.446159  0.223080  0.464014  1
  Sn  Sn18  1  0.553841  0.776920  0.535986  1
  Sn  Sn19  1  0.350250  0.000000  0.000000  1
  Sn  Sn20  1  0.649750  0.000000  0.000000  1
  Sn  Sn21  1  0.000000  0.350250  0.000000  1
  Sn  Sn22  1  0.000000  0.649750  0.000000  1
  Sn  Sn23  1  0.649750  0.649750  0.000000  1
  Sn  Sn24  1  0.350250  0.350250  0.000000  1
  Sn  Sn25  1  0.333333  0.666667  0.132630  1
  Sn  Sn26  1  0.666667  0.333333  0.867370  1
  Sn  Sn27  1  0.333333  0.666667  0.830292  1
  Sn  Sn28  1  0.666667  0.333333  0.169708  1
  Os  Os29  1  0.831860  0.168140  0.205695  1
  Os  Os30  1  0.168140  0.831860  0.794305  1
  Os  Os31  1  0.831860  0.663722  0.205695  1
  Os  Os32  1  0.168140  0.336278  0.794305  1
  Os  Os33  1  0.336278  0.168140  0.205695  1
  Os  Os34  1  0.663722  0.831860  0.794305  1
  Cl  Cl35  1  0.000000  0.000000  0.500000  1
