# generated using pymatgen
data_SmPa(BiTe)2
_symmetry_space_group_name_H-M   'P 1'
_cell_length_a   4.45042000
_cell_length_b   4.45042000
_cell_length_c   9.27446300
_cell_angle_alpha   90.00000000
_cell_angle_beta   90.00000000
_cell_angle_gamma   90.00000000
_symmetry_Int_Tables_number   1
_chemical_formula_structural   SmPa(BiTe)2
_chemical_formula_sum   'Sm1 Pa1 Bi2 Te2'
_cell_volume   183.69222314
_cell_formula_units_Z   1
loop_
 _symmetry_equiv_pos_site_id
 _symmetry_equiv_pos_as_xyz
  1  'x, y, z'
loop_
 _atom_site_type_symbol
 _atom_site_label
 _atom_site_symmetry_multiplicity
 _atom_site_fract_x
 _atom_site_fract_y
 _atom_site_fract_z
 _atom_site_occupancy
  Sm  Sm0  1  0.500000  0.000000  0.277003  1
  Pa  Pa1  1  0.000000  0.500000  0.720634  1
  Bi  Bi2  1  0.000000  0.000000  0.996302  1
  Bi  Bi3  1  0.500000  0.500000  0.996302  1
  Te  Te4  1  0.000000  0.500000  0.374770  1
  Te  Te5  1  0.500000  0.000000  0.634990  1
