# generated using pymatgen
data_Nb3(BiSe3)2
_symmetry_space_group_name_H-M   'P 1'
_cell_length_a   5.99666800
_cell_length_b   5.99666865
_cell_length_c   18.52999000
_cell_angle_alpha   90.00000000
_cell_angle_beta   90.00000000
_cell_angle_gamma   120.00000744
_symmetry_Int_Tables_number   1
_chemical_formula_structural   Nb3(BiSe3)2
_chemical_formula_sum   'Nb6 Bi4 Se12'
_cell_volume   577.06647115
_cell_formula_units_Z   2
loop_
 _symmetry_equiv_pos_site_id
 _symmetry_equiv_pos_as_xyz
  1  'x, y, z'
loop_
 _atom_site_type_symbol
 _atom_site_label
 _atom_site_symmetry_multiplicity
 _atom_site_fract_x
 _atom_site_fract_y
 _atom_site_fract_z
 _atom_site_occupancy
  Nb  Nb0  1  0.673923  0.673923  0.750000  1
  Nb  Nb1  1  0.326077  0.000000  0.750000  1
  Nb  Nb2  1  0.000000  0.326077  0.750000  1
  Nb  Nb3  1  0.326077  0.326077  0.250000  1
  Nb  Nb4  1  0.673923  0.000000  0.250000  1
  Nb  Nb5  1  0.000000  0.673923  0.250000  1
  Bi  Bi6  1  0.666667  0.333333  0.000000  1
  Bi  Bi7  1  0.333333  0.666667  0.000000  1
  Bi  Bi8  1  0.333333  0.666667  0.500000  1
  Bi  Bi9  1  0.666667  0.333333  0.500000  1
  Se  Se10  1  0.000000  0.000000  0.842782  1
  Se  Se11  1  0.000000  0.000000  0.157218  1
  Se  Se12  1  0.000000  0.000000  0.342782  1
  Se  Se13  1  0.000000  0.000000  0.657218  1
  Se  Se14  1  0.666667  0.333333  0.839329  1
  Se  Se15  1  0.333333  0.666667  0.839329  1
  Se  Se16  1  0.333333  0.666667  0.160671  1
  Se  Se17  1  0.666667  0.333333  0.160671  1
  Se  Se18  1  0.333333  0.666667  0.339329  1
  Se  Se19  1  0.666667  0.333333  0.339329  1
  Se  Se20  1  0.666667  0.333333  0.660671  1
  Se  Se21  1  0.333333  0.666667  0.660671  1
