# generated using pymatgen
data_Mn3Nb4SiOs4
_symmetry_space_group_name_H-M   'P 1'
_cell_length_a   4.95147634
_cell_length_b   4.99356182
_cell_length_c   8.26976200
_cell_angle_alpha   90.00000000
_cell_angle_beta   90.00000000
_cell_angle_gamma   119.00355676
_symmetry_Int_Tables_number   1
_chemical_formula_structural   Mn3Nb4SiOs4
_chemical_formula_sum   'Mn3 Nb4 Si1 Os4'
_cell_volume   178.83085945
_cell_formula_units_Z   1
loop_
 _symmetry_equiv_pos_site_id
 _symmetry_equiv_pos_as_xyz
  1  'x, y, z'
loop_
 _atom_site_type_symbol
 _atom_site_label
 _atom_site_symmetry_multiplicity
 _atom_site_fract_x
 _atom_site_fract_y
 _atom_site_fract_z
 _atom_site_occupancy
  Mn  Mn0  1  0.641825  0.834576  0.750000  1
  Mn  Mn1  1  0.833123  0.654306  0.250000  1
  Mn  Mn2  1  0.169901  0.836670  0.750000  1
  Nb  Nb3  1  0.338091  0.667485  0.430441  1
  Nb  Nb4  1  0.670211  0.336925  0.934264  1
  Nb  Nb5  1  0.670211  0.336925  0.565736  1
  Nb  Nb6  1  0.338091  0.667485  0.069559  1
  Si  Si7  1  0.837002  0.170798  0.250000  1
  Os  Os8  1  0.178600  0.357721  0.750000  1
  Os  Os9  1  0.349929  0.169956  0.250000  1
  Os  Os10  1  0.986508  0.983576  0.994965  1
  Os  Os11  1  0.986508  0.983576  0.505035  1
