# generated using pymatgen
data_Tb7Er3(GePb3)2
_symmetry_space_group_name_H-M   'P 1'
_cell_length_a   9.33978500
_cell_length_b   9.33978482
_cell_length_c   6.58170000
_cell_angle_alpha   90.00000000
_cell_angle_beta   90.00000000
_cell_angle_gamma   120.00001127
_symmetry_Int_Tables_number   1
_chemical_formula_structural   Tb7Er3(GePb3)2
_chemical_formula_sum   'Tb7 Er3 Ge2 Pb6'
_cell_volume   497.21293093
_cell_formula_units_Z   1
loop_
 _symmetry_equiv_pos_site_id
 _symmetry_equiv_pos_as_xyz
  1  'x, y, z'
loop_
 _atom_site_type_symbol
 _atom_site_label
 _atom_site_symmetry_multiplicity
 _atom_site_fract_x
 _atom_site_fract_y
 _atom_site_fract_z
 _atom_site_occupancy
  Tb  Tb0  1  0.252019  0.000183  0.249690  1
  Tb  Tb1  1  0.748164  0.000183  0.750310  1
  Tb  Tb2  1  0.999817  0.251836  0.249690  1
  Tb  Tb3  1  0.999817  0.747981  0.750310  1
  Tb  Tb4  1  0.748164  0.747981  0.249690  1
  Tb  Tb5  1  0.252019  0.251836  0.750310  1
  Tb  Tb6  1  0.333333  0.666667  0.000000  1
  Er  Er7  1  0.666667  0.333333  0.000000  1
  Er  Er8  1  0.666667  0.333333  0.500000  1
  Er  Er9  1  0.333333  0.666667  0.500000  1
  Ge  Ge10  1  0.000000  0.000000  0.000000  1
  Ge  Ge11  1  0.000000  0.000000  0.500000  1
  Pb  Pb12  1  0.606705  0.000479  0.250142  1
  Pb  Pb13  1  0.393775  0.000479  0.749858  1
  Pb  Pb14  1  0.999521  0.606225  0.250142  1
  Pb  Pb15  1  0.999521  0.393295  0.749858  1
  Pb  Pb16  1  0.393775  0.393295  0.250142  1
  Pb  Pb17  1  0.606705  0.606225  0.749858  1
