# generated using pymatgen
data_Dy5ErTiAl23Ru8
_symmetry_space_group_name_H-M   'P 1'
_cell_length_a   8.82103723
_cell_length_b   8.82103659
_cell_length_c   9.55526300
_cell_angle_alpha   89.99921165
_cell_angle_beta   90.00101036
_cell_angle_gamma   120.02632010
_symmetry_Int_Tables_number   1
_chemical_formula_structural   Dy5ErTiAl23Ru8
_chemical_formula_sum   'Dy5 Er1 Ti1 Al23 Ru8'
_cell_volume   643.72045741
_cell_formula_units_Z   1
loop_
 _symmetry_equiv_pos_site_id
 _symmetry_equiv_pos_as_xyz
  1  'x, y, z'
loop_
 _atom_site_type_symbol
 _atom_site_label
 _atom_site_symmetry_multiplicity
 _atom_site_fract_x
 _atom_site_fract_y
 _atom_site_fract_z
 _atom_site_occupancy
  Dy  Dy0  1  0.194000  0.387964  0.250019  1
  Dy  Dy1  1  0.806523  0.613034  0.748987  1
  Dy  Dy2  1  0.612037  0.806001  0.250018  1
  Dy  Dy3  1  0.386963  0.193476  0.748988  1
  Dy  Dy4  1  0.193983  0.806009  0.250021  1
  Er  Er5  1  0.806308  0.193700  0.748927  1
  Ti  Ti6  1  0.333325  0.666681  0.995675  1
  Al  Al7  1  0.666767  0.333234  0.982800  1
  Al  Al8  1  0.666782  0.333218  0.515125  1
  Al  Al9  1  0.333341  0.666658  0.483464  1
  Al  Al10  1  0.161270  0.323009  0.577519  1
  Al  Al11  1  0.838084  0.676143  0.422391  1
  Al  Al12  1  0.676990  0.838730  0.577519  1
  Al  Al13  1  0.837595  0.675205  0.078146  1
  Al  Al14  1  0.323856  0.161915  0.422390  1
  Al  Al15  1  0.158574  0.317525  0.923194  1
  Al  Al16  1  0.161548  0.838452  0.577437  1
  Al  Al17  1  0.324795  0.162404  0.078147  1
  Al  Al18  1  0.838092  0.161907  0.422610  1
  Al  Al19  1  0.682475  0.841425  0.923195  1
  Al  Al20  1  0.837608  0.162391  0.077952  1
  Al  Al21  1  0.158798  0.841202  0.923283  1
  Al  Al22  1  0.561924  0.123782  0.252254  1
  Al  Al23  1  0.440256  0.880013  0.750431  1
  Al  Al24  1  0.876219  0.438075  0.252254  1
  Al  Al25  1  0.119987  0.559745  0.750432  1
  Al  Al26  1  0.561889  0.438110  0.252236  1
  Al  Al27  1  0.439803  0.560198  0.750447  1
  Al  Al28  1  0.000020  0.999980  0.249272  1
  Al  Al29  1  0.999757  0.000244  0.748882  1
  Ru  Ru30  1  0.498593  0.996806  0.002537  1
  Ru  Ru31  1  0.003192  0.501413  0.002539  1
  Ru  Ru32  1  0.499994  0.999547  0.503279  1
  Ru  Ru33  1  0.498391  0.501616  0.002681  1
  Ru  Ru34  1  0.000449  0.500005  0.503280  1
  Ru  Ru35  1  0.499766  0.500234  0.503146  1
  Ru  Ru36  1  0.000019  0.999979  0.999849  1
  Ru  Ru37  1  0.000025  0.999973  0.498679  1
