# generated using pymatgen
data_Ba2TbFeO5
_symmetry_space_group_name_H-M   'P 1'
_cell_length_a   6.16590100
_cell_length_b   7.94884044
_cell_length_c   12.80647863
_cell_angle_alpha   91.84374268
_cell_angle_beta   90.00000000
_cell_angle_gamma   90.00000000
_symmetry_Int_Tables_number   1
_chemical_formula_structural   Ba2TbFeO5
_chemical_formula_sum   'Ba8 Tb4 Fe4 O20'
_cell_volume   627.34314717
_cell_formula_units_Z   4
loop_
 _symmetry_equiv_pos_site_id
 _symmetry_equiv_pos_as_xyz
  1  'x, y, z'
loop_
 _atom_site_type_symbol
 _atom_site_label
 _atom_site_symmetry_multiplicity
 _atom_site_fract_x
 _atom_site_fract_y
 _atom_site_fract_z
 _atom_site_occupancy
  Ba  Ba0  1  0.763351  0.482265  0.346987  1
  Ba  Ba1  1  0.736649  0.982265  0.846987  1
  Ba  Ba2  1  0.236649  0.517735  0.653013  1
  Ba  Ba3  1  0.263351  0.017735  0.153013  1
  Ba  Ba4  1  0.760269  0.993025  0.379868  1
  Ba  Ba5  1  0.739731  0.493025  0.879868  1
  Ba  Ba6  1  0.239731  0.006975  0.620132  1
  Ba  Ba7  1  0.260269  0.506975  0.120132  1
  Tb  Tb8  1  0.749786  0.267220  0.629225  1
  Tb  Tb9  1  0.750214  0.767220  0.129225  1
  Tb  Tb10  1  0.250214  0.732780  0.370775  1
  Tb  Tb11  1  0.249786  0.232780  0.870775  1
  Fe  Fe12  1  0.732318  0.742870  0.583320  1
  Fe  Fe13  1  0.767682  0.242870  0.083320  1
  Fe  Fe14  1  0.267682  0.257130  0.416680  1
  Fe  Fe15  1  0.232318  0.757130  0.916680  1
  O  O16  1  0.766397  0.972365  0.631340  1
  O  O17  1  0.733603  0.472365  0.131340  1
  O  O18  1  0.233603  0.027635  0.368660  1
  O  O19  1  0.266397  0.527635  0.868660  1
  O  O20  1  0.732086  0.062469  0.175648  1
  O  O21  1  0.767914  0.562469  0.675648  1
  O  O22  1  0.267914  0.937531  0.824352  1
  O  O23  1  0.232086  0.437531  0.324352  1
  O  O24  1  0.550237  0.745340  0.275889  1
  O  O25  1  0.949763  0.245340  0.775889  1
  O  O26  1  0.449763  0.254660  0.724111  1
  O  O27  1  0.050237  0.754660  0.224111  1
  O  O28  1  0.557676  0.220890  0.973694  1
  O  O29  1  0.942324  0.720890  0.473694  1
  O  O30  1  0.442324  0.779110  0.026306  1
  O  O31  1  0.057676  0.279110  0.526306  1
  O  O32  1  0.053245  0.233614  0.025111  1
  O  O33  1  0.446755  0.733614  0.525111  1
  O  O34  1  0.946755  0.766386  0.974889  1
  O  O35  1  0.553245  0.266386  0.474889  1
