# generated using pymatgen
data_La16Dy4Sn13Sb3
_symmetry_space_group_name_H-M   'P 1'
_cell_length_a   8.43319573
_cell_length_b   8.52238600
_cell_length_c   16.27036475
_cell_angle_alpha   90.17021481
_cell_angle_beta   89.71407027
_cell_angle_gamma   90.15382954
_symmetry_Int_Tables_number   1
_chemical_formula_structural   La16Dy4Sn13Sb3
_chemical_formula_sum   'La16 Dy4 Sn13 Sb3'
_cell_volume   1169.34266916
_cell_formula_units_Z   1
loop_
 _symmetry_equiv_pos_site_id
 _symmetry_equiv_pos_as_xyz
  1  'x, y, z'
loop_
 _atom_site_type_symbol
 _atom_site_label
 _atom_site_symmetry_multiplicity
 _atom_site_fract_x
 _atom_site_fract_y
 _atom_site_fract_z
 _atom_site_occupancy
  La  La0  1  0.375608  0.842498  0.882337  1
  La  La1  1  0.877823  0.657967  0.617601  1
  La  La2  1  0.623122  0.156967  0.381979  1
  La  La3  1  0.124826  0.342523  0.118739  1
  La  La4  1  0.626015  0.157840  0.118021  1
  La  La5  1  0.124785  0.341826  0.382161  1
  La  La6  1  0.375894  0.841971  0.617451  1
  La  La7  1  0.874850  0.657393  0.881103  1
  La  La8  1  0.530703  0.323571  0.897688  1
  La  La9  1  0.034952  0.177725  0.602636  1
  La  La10  1  0.465207  0.677181  0.397063  1
  La  La11  1  0.969081  0.820332  0.101046  1
  La  La12  1  0.471072  0.679313  0.100865  1
  La  La13  1  0.970818  0.819593  0.398450  1
  La  La14  1  0.528414  0.319350  0.601649  1
  La  La15  1  0.027083  0.182209  0.898772  1
  Dy  Dy16  1  0.209828  0.502012  0.750730  1
  Dy  Dy17  1  0.709934  0.998896  0.753169  1
  Dy  Dy18  1  0.789650  0.498735  0.246942  1
  Dy  Dy19  1  0.289703  0.000768  0.251375  1
  Sn  Sn20  1  0.217971  0.530263  0.952713  1
  Sn  Sn21  1  0.719362  0.970623  0.951971  1
  Sn  Sn22  1  0.219821  0.528109  0.548571  1
  Sn  Sn23  1  0.280400  0.027988  0.451239  1
  Sn  Sn24  1  0.783193  0.470014  0.048110  1
  Sn  Sn25  1  0.571640  0.621622  0.748086  1
  Sn  Sn26  1  0.072153  0.879041  0.749796  1
  Sn  Sn27  1  0.428807  0.378274  0.250056  1
  Sn  Sn28  1  0.928367  0.120856  0.250734  1
  Sn  Sn29  1  0.333556  0.145923  0.750083  1
  Sn  Sn30  1  0.833719  0.353976  0.748802  1
  Sn  Sn31  1  0.665792  0.853317  0.250544  1
  Sn  Sn32  1  0.164965  0.646354  0.249660  1
  Sb  Sb33  1  0.280949  0.028282  0.049807  1
  Sb  Sb34  1  0.778388  0.472913  0.450508  1
  Sb  Sb35  1  0.721549  0.973773  0.549542  1
