# generated using pymatgen
data_Er4Fe13Co
_symmetry_space_group_name_H-M   'P 1'
_cell_length_a   12.33440873
_cell_length_b   12.33440839
_cell_length_c   12.33440862
_cell_angle_alpha   23.68322307
_cell_angle_beta   23.68322561
_cell_angle_gamma   23.68322682
_symmetry_Int_Tables_number   1
_chemical_formula_structural   Er4Fe13Co
_chemical_formula_sum   'Er4 Fe13 Co1'
_cell_volume   265.93894298
_cell_formula_units_Z   1
loop_
 _symmetry_equiv_pos_site_id
 _symmetry_equiv_pos_as_xyz
  1  'x, y, z'
loop_
 _atom_site_type_symbol
 _atom_site_label
 _atom_site_symmetry_multiplicity
 _atom_site_fract_x
 _atom_site_fract_y
 _atom_site_fract_z
 _atom_site_occupancy
  Er  Er0  1  0.947809  0.947809  0.947809  1
  Er  Er1  1  0.149623  0.149623  0.149623  1
  Er  Er2  1  0.052191  0.052191  0.052191  1
  Er  Er3  1  0.850377  0.850377  0.850377  1
  Fe  Fe4  1  0.612265  0.612265  0.612265  1
  Fe  Fe5  1  0.387735  0.387735  0.387735  1
  Fe  Fe6  1  0.107980  0.610083  0.610083  1
  Fe  Fe7  1  0.389917  0.389917  0.892020  1
  Fe  Fe8  1  0.610083  0.610083  0.107980  1
  Fe  Fe9  1  0.610083  0.107980  0.610083  1
  Fe  Fe10  1  0.389917  0.892020  0.389917  1
  Fe  Fe11  1  0.500000  0.000000  0.500000  1
  Fe  Fe12  1  0.721091  0.721091  0.721091  1
  Fe  Fe13  1  0.892020  0.389917  0.389917  1
  Fe  Fe14  1  0.000000  0.500000  0.500000  1
  Fe  Fe15  1  0.278909  0.278909  0.278909  1
  Fe  Fe16  1  0.500000  0.500000  0.000000  1
  Co  Co17  1  0.500000  0.500000  0.500000  1
