# generated using pymatgen
data_Cs12TiMo3Se16
_symmetry_space_group_name_H-M   'P 1'
_cell_length_a   10.40040700
_cell_length_b   10.47786358
_cell_length_c   12.12648300
_cell_angle_alpha   90.00000000
_cell_angle_beta   90.00000000
_cell_angle_gamma   89.69371312
_symmetry_Int_Tables_number   1
_chemical_formula_structural   Cs12TiMo3Se16
_chemical_formula_sum   'Cs12 Ti1 Mo3 Se16'
_cell_volume   1321.45303135
_cell_formula_units_Z   1
loop_
 _symmetry_equiv_pos_site_id
 _symmetry_equiv_pos_as_xyz
  1  'x, y, z'
loop_
 _atom_site_type_symbol
 _atom_site_label
 _atom_site_symmetry_multiplicity
 _atom_site_fract_x
 _atom_site_fract_y
 _atom_site_fract_z
 _atom_site_occupancy
  Cs  Cs0  1  0.946179  0.702517  0.964378  1
  Cs  Cs1  1  0.453999  0.787300  0.960613  1
  Cs  Cs2  1  0.557442  0.214917  0.454000  1
  Cs  Cs3  1  0.042217  0.298307  0.049108  1
  Cs  Cs4  1  0.144053  0.083255  0.750000  1
  Cs  Cs5  1  0.645768  0.421282  0.750000  1
  Cs  Cs6  1  0.359615  0.580609  0.250000  1
  Cs  Cs7  1  0.853513  0.913532  0.250000  1
  Cs  Cs8  1  0.042217  0.298307  0.450892  1
  Cs  Cs9  1  0.453999  0.787300  0.539387  1
  Cs  Cs10  1  0.557442  0.214917  0.046000  1
  Cs  Cs11  1  0.946179  0.702517  0.535622  1
  Ti  Ti12  1  0.777631  0.484331  0.250000  1
  Mo  Mo13  1  0.277852  0.015798  0.250000  1
  Mo  Mo14  1  0.722161  0.985626  0.750000  1
  Mo  Mo15  1  0.220238  0.514987  0.750000  1
  Se  Se16  1  0.203716  0.740606  0.750000  1
  Se  Se17  1  0.705232  0.760609  0.750000  1
  Se  Se18  1  0.296241  0.240195  0.250000  1
  Se  Se19  1  0.796288  0.254352  0.250000  1
  Se  Se20  1  0.010886  0.425750  0.750000  1
  Se  Se21  1  0.512498  0.076459  0.750000  1
  Se  Se22  1  0.486730  0.925148  0.250000  1
  Se  Se23  1  0.991780  0.573308  0.250000  1
  Se  Se24  1  0.665526  0.547927  0.415673  1
  Se  Se25  1  0.167781  0.953548  0.088347  1
  Se  Se26  1  0.833412  0.048003  0.588863  1
  Se  Se27  1  0.331343  0.449557  0.909978  1
  Se  Se28  1  0.331343  0.449557  0.590022  1
  Se  Se29  1  0.665526  0.547927  0.084327  1
  Se  Se30  1  0.167781  0.953548  0.411653  1
  Se  Se31  1  0.833412  0.048003  0.911137  1
