# generated using pymatgen
data_TmLu3ZnRu7
_symmetry_space_group_name_H-M   'P 1'
_cell_length_a   5.16799400
_cell_length_b   5.38541396
_cell_length_c   8.87860700
_cell_angle_alpha   90.00102135
_cell_angle_beta   89.99951219
_cell_angle_gamma   121.20689233
_symmetry_Int_Tables_number   1
_chemical_formula_structural   TmLu3ZnRu7
_chemical_formula_sum   'Tm1 Lu3 Zn1 Ru7'
_cell_volume   211.35152308
_cell_formula_units_Z   1
loop_
 _symmetry_equiv_pos_site_id
 _symmetry_equiv_pos_as_xyz
  1  'x, y, z'
loop_
 _atom_site_type_symbol
 _atom_site_label
 _atom_site_symmetry_multiplicity
 _atom_site_fract_x
 _atom_site_fract_y
 _atom_site_fract_z
 _atom_site_occupancy
  Tm  Tm0  1  0.660965  0.330076  0.567638  1
  Lu  Lu1  1  0.337586  0.668813  0.434965  1
  Lu  Lu2  1  0.337400  0.668706  0.064746  1
  Lu  Lu3  1  0.660527  0.329869  0.932293  1
  Zn  Zn4  1  0.336305  0.168182  0.249749  1
  Ru  Ru5  1  0.984789  0.992118  0.500141  1
  Ru  Ru6  1  0.985127  0.992282  0.999710  1
  Ru  Ru7  1  0.172895  0.349177  0.750685  1
  Ru  Ru8  1  0.172862  0.825137  0.750607  1
  Ru  Ru9  1  0.671703  0.835436  0.750541  1
  Ru  Ru10  1  0.839820  0.656920  0.249465  1
  Ru  Ru11  1  0.840021  0.183286  0.249457  1
