# generated using pymatgen
data_YbTm9(In2Pt)4
_symmetry_space_group_name_H-M   'P 1'
_cell_length_a   3.55788600
_cell_length_b   8.13751313
_cell_length_c   18.17303382
_cell_angle_alpha   89.91680479
_cell_angle_beta   90.00000000
_cell_angle_gamma   90.00000000
_symmetry_Int_Tables_number   1
_chemical_formula_structural   YbTm9(In2Pt)4
_chemical_formula_sum   'Yb1 Tm9 In8 Pt4'
_cell_volume   526.15137281
_cell_formula_units_Z   1
loop_
 _symmetry_equiv_pos_site_id
 _symmetry_equiv_pos_as_xyz
  1  'x, y, z'
loop_
 _atom_site_type_symbol
 _atom_site_label
 _atom_site_symmetry_multiplicity
 _atom_site_fract_x
 _atom_site_fract_y
 _atom_site_fract_z
 _atom_site_occupancy
  Yb  Yb0  1  0.000000  0.000000  0.000000  1
  Tm  Tm1  1  0.000000  0.117605  0.414591  1
  Tm  Tm2  1  0.000000  0.882395  0.585409  1
  Tm  Tm3  1  0.000000  0.380882  0.914118  1
  Tm  Tm4  1  0.000000  0.619118  0.085882  1
  Tm  Tm5  1  0.000000  0.242953  0.221073  1
  Tm  Tm6  1  0.000000  0.757047  0.778927  1
  Tm  Tm7  1  0.000000  0.257403  0.720935  1
  Tm  Tm8  1  0.000000  0.742597  0.279065  1
  Tm  Tm9  1  0.000000  0.500000  0.500000  1
  In  In10  1  0.500000  0.423682  0.351856  1
  In  In11  1  0.500000  0.576318  0.648144  1
  In  In12  1  0.500000  0.075223  0.850705  1
  In  In13  1  0.500000  0.924777  0.149295  1
  In  In14  1  0.500000  0.293544  0.067257  1
  In  In15  1  0.500000  0.706456  0.932743  1
  In  In16  1  0.500000  0.208324  0.566596  1
  In  In17  1  0.500000  0.791676  0.433404  1
  Pt  Pt18  1  0.500000  0.025162  0.303926  1
  Pt  Pt19  1  0.500000  0.974838  0.696074  1
  Pt  Pt20  1  0.500000  0.475968  0.802990  1
  Pt  Pt21  1  0.500000  0.524032  0.197010  1
