# generated using pymatgen
data_Np(S8O)3
_symmetry_space_group_name_H-M   'P 1'
_cell_length_a   14.83251747
_cell_length_b   14.83251783
_cell_length_c   14.83251614
_cell_angle_alpha   118.74802354
_cell_angle_beta   118.74801853
_cell_angle_gamma   118.74802034
_symmetry_Int_Tables_number   1
_chemical_formula_structural   Np(S8O)3
_chemical_formula_sum   'Np1 S24 O3'
_cell_volume   943.09018846
_cell_formula_units_Z   1
loop_
 _symmetry_equiv_pos_site_id
 _symmetry_equiv_pos_as_xyz
  1  'x, y, z'
loop_
 _atom_site_type_symbol
 _atom_site_label
 _atom_site_symmetry_multiplicity
 _atom_site_fract_x
 _atom_site_fract_y
 _atom_site_fract_z
 _atom_site_occupancy
  Np  Np0  1  0.068857  0.068857  0.068857  1
  S  S1  1  0.803213  0.525431  0.525431  1
  S  S2  1  0.525431  0.525431  0.803213  1
  S  S3  1  0.525431  0.803213  0.525431  1
  S  S4  1  0.244626  0.376498  0.632800  1
  S  S5  1  0.350800  0.953144  0.350800  1
  S  S6  1  0.350800  0.350800  0.953144  1
  S  S7  1  0.953144  0.350800  0.350800  1
  S  S8  1  0.120826  0.735442  0.251806  1
  S  S9  1  0.251806  0.120826  0.735442  1
  S  S10  1  0.735442  0.251806  0.120826  1
  S  S11  1  0.735442  0.120826  0.251806  1
  S  S12  1  0.251806  0.735442  0.120826  1
  S  S13  1  0.120826  0.251806  0.735442  1
  S  S14  1  0.351593  0.884601  0.536292  1
  S  S15  1  0.536292  0.351593  0.884601  1
  S  S16  1  0.884601  0.536292  0.351593  1
  S  S17  1  0.884601  0.351593  0.536292  1
  S  S18  1  0.536292  0.884601  0.351593  1
  S  S19  1  0.351593  0.536292  0.884601  1
  S  S20  1  0.244626  0.632800  0.376498  1
  S  S21  1  0.376498  0.244626  0.632800  1
  S  S22  1  0.632800  0.376498  0.244626  1
  S  S23  1  0.632800  0.244626  0.376498  1
  S  S24  1  0.376498  0.632800  0.244626  1
  O  O25  1  0.819633  0.929509  0.929509  1
  O  O26  1  0.929509  0.929509  0.819633  1
  O  O27  1  0.929509  0.819633  0.929509  1
