# generated using pymatgen
data_CaHo3Tm4(B6Os)4
_symmetry_space_group_name_H-M   'P 1'
_cell_length_a   3.62808900
_cell_length_b   9.10742417
_cell_length_c   11.50009400
_cell_angle_alpha   89.90444969
_cell_angle_beta   90.00000000
_cell_angle_gamma   90.00000000
_symmetry_Int_Tables_number   1
_chemical_formula_structural   CaHo3Tm4(B6Os)4
_chemical_formula_sum   'Ca1 Ho3 Tm4 B24 Os4'
_cell_volume   379.99185003
_cell_formula_units_Z   1
loop_
 _symmetry_equiv_pos_site_id
 _symmetry_equiv_pos_as_xyz
  1  'x, y, z'
loop_
 _atom_site_type_symbol
 _atom_site_label
 _atom_site_symmetry_multiplicity
 _atom_site_fract_x
 _atom_site_fract_y
 _atom_site_fract_z
 _atom_site_occupancy
  Ca  Ca0  1  0.000000  0.321949  0.413709  1
  Ho  Ho1  1  0.000000  0.676846  0.585262  1
  Ho  Ho2  1  0.000000  0.821908  0.086628  1
  Ho  Ho3  1  0.000000  0.178707  0.914346  1
  Tm  Tm4  1  0.000000  0.944171  0.372038  1
  Tm  Tm5  1  0.000000  0.057407  0.627275  1
  Tm  Tm6  1  0.000000  0.443355  0.128498  1
  Tm  Tm7  1  0.000000  0.555961  0.872821  1
  B  B8  1  0.500000  0.554289  0.432658  1
  B  B9  1  0.500000  0.446385  0.567684  1
  B  B10  1  0.500000  0.053206  0.066525  1
  B  B11  1  0.500000  0.945999  0.932710  1
  B  B12  1  0.500000  0.748976  0.419242  1
  B  B13  1  0.500000  0.251398  0.581409  1
  B  B14  1  0.500000  0.248466  0.080463  1
  B  B15  1  0.500000  0.750978  0.919555  1
  B  B16  1  0.500000  0.792036  0.266090  1
  B  B17  1  0.500000  0.208919  0.734268  1
  B  B18  1  0.500000  0.290547  0.233248  1
  B  B19  1  0.500000  0.708744  0.766316  1
  B  B20  1  0.500000  0.631510  0.185423  1
  B  B21  1  0.500000  0.368998  0.815409  1
  B  B22  1  0.500000  0.130515  0.314038  1
  B  B23  1  0.500000  0.868918  0.684986  1
  B  B24  1  0.500000  0.982562  0.212431  1
  B  B25  1  0.500000  0.017307  0.786784  1
  B  B26  1  0.500000  0.483320  0.286967  1
  B  B27  1  0.500000  0.517276  0.713272  1
  B  B28  1  0.500000  0.605823  0.029349  1
  B  B29  1  0.500000  0.394374  0.971083  1
  B  B30  1  0.500000  0.102505  0.471535  1
  B  B31  1  0.500000  0.895767  0.528809  1
  Os  Os32  1  0.000000  0.640041  0.320049  1
  Os  Os33  1  0.000000  0.362037  0.680797  1
  Os  Os34  1  0.000000  0.136505  0.177470  1
  Os  Os35  1  0.000000  0.862294  0.820855  1
