# generated using pymatgen
data_Tb16Cd2Hg2Ru3Pt
_symmetry_space_group_name_H-M   'P 1'
_cell_length_a   9.64037200
_cell_length_b   9.67204187
_cell_length_c   9.71413000
_cell_angle_alpha   59.85594801
_cell_angle_beta   59.74658422
_cell_angle_gamma   59.69639770
_symmetry_Int_Tables_number   1
_chemical_formula_structural   Tb16Cd2Hg2Ru3Pt
_chemical_formula_sum   'Tb16 Cd2 Hg2 Ru3 Pt1'
_cell_volume   637.07207085
_cell_formula_units_Z   1
loop_
 _symmetry_equiv_pos_site_id
 _symmetry_equiv_pos_as_xyz
  1  'x, y, z'
loop_
 _atom_site_type_symbol
 _atom_site_label
 _atom_site_symmetry_multiplicity
 _atom_site_fract_x
 _atom_site_fract_y
 _atom_site_fract_z
 _atom_site_occupancy
  Tb  Tb0  1  0.346391  0.351113  0.349010  1
  Tb  Tb1  1  0.346391  0.351113  0.953487  1
  Tb  Tb2  1  0.347934  0.952956  0.349556  1
  Tb  Tb3  1  0.959334  0.347354  0.346656  1
  Tb  Tb4  1  0.813648  0.188993  0.192382  1
  Tb  Tb5  1  0.186704  0.810408  0.811220  1
  Tb  Tb6  1  0.186704  0.810408  0.191666  1
  Tb  Tb7  1  0.813648  0.188993  0.804977  1
  Tb  Tb8  1  0.187673  0.188176  0.812075  1
  Tb  Tb9  1  0.812236  0.803001  0.192382  1
  Tb  Tb10  1  0.936733  0.561127  0.562533  1
  Tb  Tb11  1  0.557727  0.937123  0.938678  1
  Tb  Tb12  1  0.557727  0.937123  0.566472  1
  Tb  Tb13  1  0.936733  0.561127  0.939607  1
  Tb  Tb14  1  0.558430  0.566179  0.937696  1
  Tb  Tb15  1  0.937802  0.938786  0.561706  1
  Cd  Cd16  1  0.579187  0.260127  0.580343  1
  Cd  Cd17  1  0.258740  0.578620  0.581319  1
  Hg  Hg18  1  0.583748  0.583631  0.586929  1
  Hg  Hg19  1  0.583748  0.583631  0.245690  1
  Ru  Ru20  1  0.144104  0.139177  0.138036  1
  Ru  Ru21  1  0.144104  0.139177  0.578684  1
  Ru  Ru22  1  0.144057  0.578675  0.138635  1
  Pt  Pt23  1  0.576493  0.142983  0.140262  1
