# generated using pymatgen
data_Pr8Er6Sc5Si16Au
_symmetry_space_group_name_H-M   'P 1'
_cell_length_a   7.27754388
_cell_length_b   7.67704704
_cell_length_c   14.65010647
_cell_angle_alpha   89.98568728
_cell_angle_beta   90.07846380
_cell_angle_gamma   90.12588342
_symmetry_Int_Tables_number   1
_chemical_formula_structural   Pr8Er6Sc5Si16Au
_chemical_formula_sum   'Pr8 Er6 Sc5 Si16 Au1'
_cell_volume   818.49936508
_cell_formula_units_Z   1
loop_
 _symmetry_equiv_pos_site_id
 _symmetry_equiv_pos_as_xyz
  1  'x, y, z'
loop_
 _atom_site_type_symbol
 _atom_site_label
 _atom_site_symmetry_multiplicity
 _atom_site_fract_x
 _atom_site_fract_y
 _atom_site_fract_z
 _atom_site_occupancy
  Pr  Pr0  1  0.015905  0.177129  0.398158  1
  Pr  Pr1  1  0.515379  0.326917  0.397412  1
  Pr  Pr2  1  0.485766  0.686957  0.902746  1
  Pr  Pr3  1  0.485107  0.689021  0.600401  1
  Pr  Pr4  1  0.974989  0.827191  0.602142  1
  Pr  Pr5  1  0.977210  0.825369  0.900862  1
  Pr  Pr6  1  0.513581  0.328318  0.097901  1
  Pr  Pr7  1  0.015307  0.174798  0.097790  1
  Er  Er8  1  0.337218  0.172640  0.626918  1
  Er  Er9  1  0.677322  0.819322  0.370984  1
  Er  Er10  1  0.176136  0.677011  0.374127  1
  Er  Er11  1  0.818341  0.313382  0.875816  1
  Er  Er12  1  0.818166  0.312655  0.627777  1
  Er  Er13  1  0.337993  0.171270  0.875910  1
  Sc  Sc14  1  0.845612  0.497491  0.245203  1
  Sc  Sc15  1  0.344706  0.002136  0.246084  1
  Sc  Sc16  1  0.176338  0.675965  0.124738  1
  Sc  Sc17  1  0.677147  0.821387  0.127465  1
  Sc  Sc18  1  0.150061  0.504863  0.750731  1
  Si  Si19  1  0.270505  0.874380  0.751336  1
  Si  Si20  1  0.473242  0.616910  0.244442  1
  Si  Si21  1  0.037725  0.114187  0.751848  1
  Si  Si22  1  0.517455  0.412930  0.751617  1
  Si  Si23  1  0.148616  0.468181  0.541921  1
  Si  Si24  1  0.974997  0.879922  0.244519  1
  Si  Si25  1  0.714435  0.122236  0.246568  1
  Si  Si26  1  0.853532  0.538440  0.041141  1
  Si  Si27  1  0.353264  0.961997  0.045114  1
  Si  Si28  1  0.150717  0.470520  0.962533  1
  Si  Si29  1  0.654043  0.041646  0.525500  1
  Si  Si30  1  0.351621  0.969244  0.457730  1
  Si  Si31  1  0.850730  0.533093  0.463518  1
  Si  Si32  1  0.782994  0.611626  0.751481  1
  Si  Si33  1  0.214181  0.380398  0.246679  1
  Si  Si34  1  0.656219  0.035043  0.977090  1
  Au  Au35  1  0.653442  0.965431  0.753800  1
