# generated using pymatgen
data_Tb8CrSi16W11
_symmetry_space_group_name_H-M   'P 1'
_cell_length_a   6.88333734
_cell_length_b   6.88333778
_cell_length_c   12.80482034
_cell_angle_alpha   89.93604826
_cell_angle_beta   89.93605090
_cell_angle_gamma   90.01438968
_symmetry_Int_Tables_number   1
_chemical_formula_structural   Tb8CrSi16W11
_chemical_formula_sum   'Tb8 Cr1 Si16 W11'
_cell_volume   606.69591424
_cell_formula_units_Z   1
loop_
 _symmetry_equiv_pos_site_id
 _symmetry_equiv_pos_as_xyz
  1  'x, y, z'
loop_
 _atom_site_type_symbol
 _atom_site_label
 _atom_site_symmetry_multiplicity
 _atom_site_fract_x
 _atom_site_fract_y
 _atom_site_fract_z
 _atom_site_occupancy
  Tb  Tb0  1  0.002008  0.336430  0.219033  1
  Tb  Tb1  1  0.997709  0.662805  0.718745  1
  Tb  Tb2  1  0.163210  0.501935  0.469608  1
  Tb  Tb3  1  0.498065  0.836790  0.030392  1
  Tb  Tb4  1  0.836276  0.498548  0.968270  1
  Tb  Tb5  1  0.501452  0.163724  0.531730  1
  Tb  Tb6  1  0.337195  0.002291  0.781255  1
  Tb  Tb7  1  0.663570  0.997992  0.280967  1
  Cr  Cr8  1  0.666529  0.333471  0.750000  1
  Si  Si9  1  0.376030  0.298919  0.316083  1
  Si  Si10  1  0.624865  0.698218  0.814426  1
  Si  Si11  1  0.201197  0.875397  0.566504  1
  Si  Si12  1  0.124603  0.798803  0.933496  1
  Si  Si13  1  0.797501  0.125022  0.065076  1
  Si  Si14  1  0.874978  0.202499  0.434924  1
  Si  Si15  1  0.301782  0.375135  0.685574  1
  Si  Si16  1  0.701081  0.623970  0.183917  1
  Si  Si17  1  0.287490  0.034694  0.186491  1
  Si  Si18  1  0.711542  0.966643  0.686777  1
  Si  Si19  1  0.464065  0.788675  0.436617  1
  Si  Si20  1  0.211325  0.535935  0.063383  1
  Si  Si21  1  0.538196  0.213124  0.933584  1
  Si  Si22  1  0.786876  0.461804  0.566416  1
  Si  Si23  1  0.033357  0.288458  0.813223  1
  Si  Si24  1  0.965306  0.712510  0.313509  1
  W  W25  1  0.167082  0.166094  0.000487  1
  W  W26  1  0.833906  0.832918  0.499513  1
  W  W27  1  0.333184  0.666816  0.250000  1
  W  W28  1  0.165381  0.001085  0.377120  1
  W  W29  1  0.834509  0.000434  0.874901  1
  W  W30  1  0.500594  0.664332  0.626304  1
  W  W31  1  0.335668  0.499406  0.873696  1
  W  W32  1  0.498787  0.333796  0.125104  1
  W  W33  1  0.666204  0.501213  0.374896  1
  W  W34  1  0.999566  0.165491  0.625099  1
  W  W35  1  0.998915  0.834619  0.122880  1
