# generated using pymatgen
data_Nd4Sc4Re3B24Ir
_symmetry_space_group_name_H-M   'P 1'
_cell_length_a   3.63901200
_cell_length_b   9.08841550
_cell_length_c   11.54111100
_cell_angle_alpha   90.02332806
_cell_angle_beta   90.00000000
_cell_angle_gamma   90.00000000
_symmetry_Int_Tables_number   1
_chemical_formula_structural   Nd4Sc4Re3B24Ir
_chemical_formula_sum   'Nd4 Sc4 Re3 B24 Ir1'
_cell_volume   381.69743657
_cell_formula_units_Z   1
loop_
 _symmetry_equiv_pos_site_id
 _symmetry_equiv_pos_as_xyz
  1  'x, y, z'
loop_
 _atom_site_type_symbol
 _atom_site_label
 _atom_site_symmetry_multiplicity
 _atom_site_fract_x
 _atom_site_fract_y
 _atom_site_fract_z
 _atom_site_occupancy
  Nd  Nd0  1  0.500000  0.318446  0.416408  1
  Nd  Nd1  1  0.500000  0.679206  0.588600  1
  Nd  Nd2  1  0.500000  0.178877  0.913544  1
  Nd  Nd3  1  0.500000  0.823701  0.082521  1
  Sc  Sc4  1  0.500000  0.440424  0.126776  1
  Sc  Sc5  1  0.500000  0.555746  0.871118  1
  Sc  Sc6  1  0.500000  0.055048  0.629338  1
  Sc  Sc7  1  0.500000  0.947387  0.371161  1
  Re  Re8  1  0.500000  0.141691  0.183573  1
  Re  Re9  1  0.500000  0.858623  0.817278  1
  Re  Re10  1  0.500000  0.359452  0.681995  1
  B  B11  1  0.000000  0.094231  0.474413  1
  B  B12  1  0.000000  0.903537  0.525065  1
  B  B13  1  0.000000  0.405070  0.974879  1
  B  B14  1  0.000000  0.595481  0.026177  1
  B  B15  1  0.000000  0.128208  0.316824  1
  B  B16  1  0.000000  0.871555  0.683335  1
  B  B17  1  0.000000  0.372220  0.816180  1
  B  B18  1  0.000000  0.628211  0.182548  1
  B  B19  1  0.000000  0.055907  0.069861  1
  B  B20  1  0.000000  0.944167  0.929674  1
  B  B21  1  0.000000  0.443924  0.569844  1
  B  B22  1  0.000000  0.556778  0.430793  1
  B  B23  1  0.000000  0.483561  0.284914  1
  B  B24  1  0.000000  0.517735  0.715361  1
  B  B25  1  0.000000  0.017061  0.783875  1
  B  B26  1  0.000000  0.983100  0.215427  1
  B  B27  1  0.000000  0.254391  0.084257  1
  B  B28  1  0.000000  0.745987  0.915961  1
  B  B29  1  0.000000  0.245221  0.584098  1
  B  B30  1  0.000000  0.754495  0.416497  1
  B  B31  1  0.000000  0.294305  0.235000  1
  B  B32  1  0.000000  0.705761  0.765975  1
  B  B33  1  0.000000  0.206002  0.734215  1
  B  B34  1  0.000000  0.793668  0.265329  1
  Ir  Ir35  1  0.500000  0.640823  0.317184  1
