# generated using pymatgen
data_Tb11Pr8DyPb16
_symmetry_space_group_name_H-M   'P 1'
_cell_length_a   8.34450900
_cell_length_b   8.41236756
_cell_length_c   15.93709400
_cell_angle_alpha   90.00000000
_cell_angle_beta   90.00000000
_cell_angle_gamma   90.02092989
_symmetry_Int_Tables_number   1
_chemical_formula_structural   Tb11Pr8DyPb16
_chemical_formula_sum   'Tb11 Pr8 Dy1 Pb16'
_cell_volume   1118.73733726
_cell_formula_units_Z   1
loop_
 _symmetry_equiv_pos_site_id
 _symmetry_equiv_pos_as_xyz
  1  'x, y, z'
loop_
 _atom_site_type_symbol
 _atom_site_label
 _atom_site_symmetry_multiplicity
 _atom_site_fract_x
 _atom_site_fract_y
 _atom_site_fract_z
 _atom_site_occupancy
  Tb  Tb0  1  0.633393  0.158528  0.622102  1
  Tb  Tb1  1  0.133403  0.341480  0.877820  1
  Tb  Tb2  1  0.366751  0.841619  0.122219  1
  Tb  Tb3  1  0.866444  0.658577  0.377784  1
  Tb  Tb4  1  0.366751  0.841619  0.377781  1
  Tb  Tb5  1  0.866444  0.658577  0.122216  1
  Tb  Tb6  1  0.633393  0.158528  0.877898  1
  Tb  Tb7  1  0.133403  0.341480  0.622180  1
  Tb  Tb8  1  0.799374  0.495240  0.750000  1
  Tb  Tb9  1  0.299386  0.004686  0.750000  1
  Tb  Tb10  1  0.200633  0.504671  0.250000  1
  Pr  Pr11  1  0.476274  0.677685  0.597577  1
  Pr  Pr12  1  0.976333  0.822287  0.902489  1
  Pr  Pr13  1  0.523785  0.322168  0.097626  1
  Pr  Pr14  1  0.023527  0.177570  0.402359  1
  Pr  Pr15  1  0.523785  0.322168  0.402374  1
  Pr  Pr16  1  0.023527  0.177570  0.097641  1
  Pr  Pr17  1  0.476274  0.677685  0.902423  1
  Pr  Pr18  1  0.976333  0.822287  0.597511  1
  Dy  Dy19  1  0.700769  0.995117  0.250000  1
  Pb  Pb20  1  0.705786  0.960048  0.456505  1
  Pb  Pb21  1  0.205677  0.540078  0.043321  1
  Pb  Pb22  1  0.294272  0.040115  0.956705  1
  Pb  Pb23  1  0.794285  0.459967  0.543293  1
  Pb  Pb24  1  0.294272  0.040115  0.543295  1
  Pb  Pb25  1  0.794285  0.459967  0.956707  1
  Pb  Pb26  1  0.705786  0.960048  0.043495  1
  Pb  Pb27  1  0.205677  0.540078  0.456679  1
  Pb  Pb28  1  0.437617  0.371649  0.750000  1
  Pb  Pb29  1  0.937627  0.128328  0.750000  1
  Pb  Pb30  1  0.562510  0.628704  0.250000  1
  Pb  Pb31  1  0.062044  0.871781  0.250000  1
  Pb  Pb32  1  0.664968  0.850548  0.750000  1
  Pb  Pb33  1  0.165022  0.649589  0.750000  1
  Pb  Pb34  1  0.335196  0.149450  0.250000  1
  Pb  Pb35  1  0.834993  0.349992  0.250000  1
