# generated using pymatgen
data_PrAl2GaCu
_symmetry_space_group_name_H-M   'P 1'
_cell_length_a   4.22296028
_cell_length_b   4.22414444
_cell_length_c   6.14064510
_cell_angle_alpha   69.52530962
_cell_angle_beta   69.88821079
_cell_angle_gamma   90.00001650
_symmetry_Int_Tables_number   1
_chemical_formula_structural   PrAl2GaCu
_chemical_formula_sum   'Pr1 Al2 Ga1 Cu1'
_cell_volume   95.45700004
_cell_formula_units_Z   1
loop_
 _symmetry_equiv_pos_site_id
 _symmetry_equiv_pos_as_xyz
  1  'x, y, z'
loop_
 _atom_site_type_symbol
 _atom_site_label
 _atom_site_symmetry_multiplicity
 _atom_site_fract_x
 _atom_site_fract_y
 _atom_site_fract_z
 _atom_site_occupancy
  Pr  Pr0  1  0.990655  0.990156  0.018689  1
  Al  Al1  1  0.742353  0.243445  0.515295  1
  Al  Al2  1  0.242361  0.741352  0.515277  1
  Ga  Ga3  1  0.398846  0.398922  0.202308  1
  Cu  Cu4  1  0.625785  0.626125  0.748430  1
