# generated using pymatgen
data_Ce8Si12IrAu3
_symmetry_space_group_name_H-M   'P 1'
_cell_length_a   8.39913600
_cell_length_b   8.39913501
_cell_length_c   8.44881400
_cell_angle_alpha   90.00000000
_cell_angle_beta   90.00000000
_cell_angle_gamma   120.00000391
_symmetry_Int_Tables_number   1
_chemical_formula_structural   Ce8Si12IrAu3
_chemical_formula_sum   'Ce8 Si12 Ir1 Au3'
_cell_volume   516.17330400
_cell_formula_units_Z   1
loop_
 _symmetry_equiv_pos_site_id
 _symmetry_equiv_pos_as_xyz
  1  'x, y, z'
loop_
 _atom_site_type_symbol
 _atom_site_label
 _atom_site_symmetry_multiplicity
 _atom_site_fract_x
 _atom_site_fract_y
 _atom_site_fract_z
 _atom_site_occupancy
  Ce  Ce0  1  0.496484  0.992966  0.255581  1
  Ce  Ce1  1  0.495790  0.991580  0.744352  1
  Ce  Ce2  1  0.007034  0.503516  0.255581  1
  Ce  Ce3  1  0.008420  0.504210  0.744352  1
  Ce  Ce4  1  0.496484  0.503516  0.255581  1
  Ce  Ce5  1  0.495790  0.504210  0.744352  1
  Ce  Ce6  1  0.000000  0.000000  0.250454  1
  Ce  Ce7  1  0.000000  0.000000  0.749315  1
  Si  Si8  1  0.162507  0.325015  0.996645  1
  Si  Si9  1  0.836627  0.673255  0.001498  1
  Si  Si10  1  0.674985  0.837493  0.996645  1
  Si  Si11  1  0.838714  0.677427  0.502185  1
  Si  Si12  1  0.326745  0.163373  0.001498  1
  Si  Si13  1  0.166775  0.333550  0.498982  1
  Si  Si14  1  0.162507  0.837493  0.996645  1
  Si  Si15  1  0.322573  0.161286  0.502185  1
  Si  Si16  1  0.836627  0.163373  0.001498  1
  Si  Si17  1  0.666450  0.833225  0.498982  1
  Si  Si18  1  0.838714  0.161286  0.502185  1
  Si  Si19  1  0.166775  0.833225  0.498982  1
  Ir  Ir20  1  0.333333  0.666667  0.502454  1
  Au  Au21  1  0.333333  0.666667  0.001198  1
  Au  Au22  1  0.666667  0.333333  0.997085  1
  Au  Au23  1  0.666667  0.333333  0.501764  1
