# generated using pymatgen
data_TaTi5Re2(Si3Ru2)2
_symmetry_space_group_name_H-M   'P 1'
_cell_length_a   7.43043173
_cell_length_b   7.42013609
_cell_length_c   7.43043176
_cell_angle_alpha   126.95845842
_cell_angle_beta   124.64232690
_cell_angle_gamma   80.26516379
_symmetry_Int_Tables_number   1
_chemical_formula_structural   TaTi5Re2(Si3Ru2)2
_chemical_formula_sum   'Ta1 Ti5 Re2 Si6 Ru4'
_cell_volume   259.86708923
_cell_formula_units_Z   1
loop_
 _symmetry_equiv_pos_site_id
 _symmetry_equiv_pos_as_xyz
  1  'x, y, z'
loop_
 _atom_site_type_symbol
 _atom_site_label
 _atom_site_symmetry_multiplicity
 _atom_site_fract_x
 _atom_site_fract_y
 _atom_site_fract_z
 _atom_site_occupancy
  Ta  Ta0  1  0.244934  0.909862  0.164927  1
  Ti  Ti1  1  0.964827  0.491005  0.026176  1
  Ti  Ti2  1  0.034663  0.056048  0.521385  1
  Ti  Ti3  1  0.441129  0.480794  0.539664  1
  Ti  Ti4  1  0.754595  0.919909  0.665314  1
  Ti  Ti5  1  0.558647  0.101810  0.043163  1
  Re  Re6  1  0.501469  0.244274  0.745996  1
  Re  Re7  1  0.998278  0.244274  0.242805  1
  Si  Si8  1  0.779844  0.548359  0.268517  1
  Si  Si9  1  0.175172  0.162553  0.995619  1
  Si  Si10  1  0.666934  0.162553  0.487380  1
  Si  Si11  1  0.339914  0.820515  0.502004  1
  Si  Si12  1  0.220223  0.482970  0.762747  1
  Si  Si13  1  0.818512  0.820515  0.980601  1
  Ru  Ru14  1  0.837887  0.497426  0.589551  1
  Ru  Ru15  1  0.592075  0.750958  0.087934  1
  Ru  Ru16  1  0.407874  0.497426  0.159539  1
  Ru  Ru17  1  0.163024  0.750958  0.658884  1
