# generated using pymatgen
data_Tm2Pa3Al4Ga11
_symmetry_space_group_name_H-M   'P 1'
_cell_length_a   12.45866425
_cell_length_b   12.46133907
_cell_length_c   12.46133900
_cell_angle_alpha   28.56493664
_cell_angle_beta   28.53779032
_cell_angle_gamma   28.53779474
_symmetry_Int_Tables_number   1
_chemical_formula_structural   Tm2Pa3Al4Ga11
_chemical_formula_sum   'Tm2 Pa3 Al4 Ga11'
_cell_volume   390.52206194
_cell_formula_units_Z   1
loop_
 _symmetry_equiv_pos_site_id
 _symmetry_equiv_pos_as_xyz
  1  'x, y, z'
loop_
 _atom_site_type_symbol
 _atom_site_label
 _atom_site_symmetry_multiplicity
 _atom_site_fract_x
 _atom_site_fract_y
 _atom_site_fract_z
 _atom_site_occupancy
  Tm  Tm0  1  0.401856  0.400663  0.400663  1
  Tm  Tm1  1  0.598637  0.599107  0.599107  1
  Pa  Pa2  1  0.128722  0.132027  0.132027  1
  Pa  Pa3  1  0.869364  0.869558  0.869558  1
  Pa  Pa4  1  0.999299  0.999801  0.999801  1
  Al  Al5  1  0.437889  0.879490  0.879490  1
  Al  Al6  1  0.499148  0.501207  0.000014  1
  Al  Al7  1  0.499148  0.000014  0.501207  1
  Al  Al8  1  0.999280  0.500273  0.500273  1
  Ga  Ga9  1  0.884045  0.881193  0.430432  1
  Ga  Ga10  1  0.884045  0.430432  0.881193  1
  Ga  Ga11  1  0.118433  0.566743  0.118896  1
  Ga  Ga12  1  0.118433  0.118896  0.566743  1
  Ga  Ga13  1  0.566548  0.118834  0.118834  1
  Ga  Ga14  1  0.126451  0.636465  0.636465  1
  Ga  Ga15  1  0.633917  0.637928  0.126424  1
  Ga  Ga16  1  0.633917  0.126424  0.637928  1
  Ga  Ga17  1  0.364770  0.871404  0.364660  1
  Ga  Ga18  1  0.364770  0.364660  0.871404  1
  Ga  Ga19  1  0.871326  0.364883  0.364883  1
