# generated using pymatgen
data_Dy5Er5Pt8
_symmetry_space_group_name_H-M   'P 1'
_cell_length_a   7.44460900
_cell_length_b   7.53924069
_cell_length_c   14.70216911
_cell_angle_alpha   90.03142630
_cell_angle_beta   90.00000000
_cell_angle_gamma   90.00000000
_symmetry_Int_Tables_number   1
_chemical_formula_structural   Dy5Er5Pt8
_chemical_formula_sum   'Dy10 Er10 Pt16'
_cell_volume   825.18409735
_cell_formula_units_Z   2
loop_
 _symmetry_equiv_pos_site_id
 _symmetry_equiv_pos_as_xyz
  1  'x, y, z'
loop_
 _atom_site_type_symbol
 _atom_site_label
 _atom_site_symmetry_multiplicity
 _atom_site_fract_x
 _atom_site_fract_y
 _atom_site_fract_z
 _atom_site_occupancy
  Dy  Dy0  1  0.656846  0.167897  0.877648  1
  Dy  Dy1  1  0.156846  0.332103  0.622352  1
  Dy  Dy2  1  0.501741  0.680102  0.592659  1
  Dy  Dy3  1  0.001741  0.819898  0.907341  1
  Dy  Dy4  1  0.498334  0.320320  0.092964  1
  Dy  Dy5  1  0.998334  0.179680  0.407036  1
  Dy  Dy6  1  0.498461  0.320173  0.407180  1
  Dy  Dy7  1  0.998461  0.179827  0.092820  1
  Dy  Dy8  1  0.501382  0.679739  0.907256  1
  Dy  Dy9  1  0.001382  0.820261  0.592744  1
  Er  Er10  1  0.656808  0.167879  0.622501  1
  Er  Er11  1  0.156808  0.332121  0.877499  1
  Er  Er12  1  0.343132  0.832042  0.122626  1
  Er  Er13  1  0.843132  0.667958  0.377374  1
  Er  Er14  1  0.343217  0.832063  0.377397  1
  Er  Er15  1  0.843217  0.667937  0.122603  1
  Er  Er16  1  0.819246  0.512007  0.750008  1
  Er  Er17  1  0.319246  0.987993  0.749992  1
  Er  Er18  1  0.180656  0.488427  0.250003  1
  Er  Er19  1  0.680656  0.011573  0.249997  1
  Pt  Pt20  1  0.683146  0.967196  0.458253  1
  Pt  Pt21  1  0.183146  0.532804  0.041747  1
  Pt  Pt22  1  0.316415  0.032597  0.958384  1
  Pt  Pt23  1  0.816415  0.467403  0.541616  1
  Pt  Pt24  1  0.317353  0.032072  0.541570  1
  Pt  Pt25  1  0.817353  0.467928  0.958430  1
  Pt  Pt26  1  0.683118  0.966727  0.042067  1
  Pt  Pt27  1  0.183118  0.533273  0.457933  1
  Pt  Pt28  1  0.454052  0.387323  0.749987  1
  Pt  Pt29  1  0.954052  0.112677  0.750013  1
  Pt  Pt30  1  0.546098  0.613163  0.250005  1
  Pt  Pt31  1  0.046098  0.886837  0.249995  1
  Pt  Pt32  1  0.683068  0.856641  0.749829  1
  Pt  Pt33  1  0.183068  0.643359  0.750171  1
  Pt  Pt34  1  0.316928  0.142940  0.250007  1
  Pt  Pt35  1  0.816928  0.357060  0.249993  1
