# generated using pymatgen
data_Dy8BeZnPd23
_symmetry_space_group_name_H-M   'P 1'
_cell_length_a   8.35630200
_cell_length_b   8.33203100
_cell_length_c   8.33203100
_cell_angle_alpha   90.00000000
_cell_angle_beta   90.00000000
_cell_angle_gamma   90.00000000
_symmetry_Int_Tables_number   1
_chemical_formula_structural   Dy8BeZnPd23
_chemical_formula_sum   'Dy8 Be1 Zn1 Pd23'
_cell_volume   580.11738600
_cell_formula_units_Z   1
loop_
 _symmetry_equiv_pos_site_id
 _symmetry_equiv_pos_as_xyz
  1  'x, y, z'
loop_
 _atom_site_type_symbol
 _atom_site_label
 _atom_site_symmetry_multiplicity
 _atom_site_fract_x
 _atom_site_fract_y
 _atom_site_fract_z
 _atom_site_occupancy
  Dy  Dy0  1  0.238567  0.254912  0.254912  1
  Dy  Dy1  1  0.738907  0.747536  0.747536  1
  Dy  Dy2  1  0.738907  0.747536  0.252464  1
  Dy  Dy3  1  0.738907  0.252464  0.747536  1
  Dy  Dy4  1  0.238567  0.254912  0.745088  1
  Dy  Dy5  1  0.238567  0.745088  0.254912  1
  Dy  Dy6  1  0.238567  0.745088  0.745088  1
  Dy  Dy7  1  0.738907  0.252464  0.252464  1
  Be  Be8  1  0.461348  0.000000  0.000000  1
  Zn  Zn9  1  0.147804  0.000000  0.000000  1
  Pd  Pd10  1  0.236693  0.500000  0.000000  1
  Pd  Pd11  1  0.739539  0.500000  0.000000  1
  Pd  Pd12  1  0.988762  0.252420  0.500000  1
  Pd  Pd13  1  0.487628  0.265978  0.000000  1
  Pd  Pd14  1  0.988762  0.747580  0.500000  1
  Pd  Pd15  1  0.487628  0.734022  0.000000  1
  Pd  Pd16  1  0.487628  0.000000  0.265978  1
  Pd  Pd17  1  0.236693  0.000000  0.500000  1
  Pd  Pd18  1  0.487628  0.000000  0.734022  1
  Pd  Pd19  1  0.739539  0.000000  0.500000  1
  Pd  Pd20  1  0.988762  0.500000  0.252420  1
  Pd  Pd21  1  0.988762  0.500000  0.747580  1
  Pd  Pd22  1  0.238058  0.500000  0.500000  1
  Pd  Pd23  1  0.738894  0.500000  0.500000  1
  Pd  Pd24  1  0.488286  0.253141  0.500000  1
  Pd  Pd25  1  0.488286  0.746859  0.500000  1
  Pd  Pd26  1  0.488286  0.500000  0.253141  1
  Pd  Pd27  1  0.488286  0.500000  0.746859  1
  Pd  Pd28  1  0.744578  0.000000  0.000000  1
  Pd  Pd29  1  0.987064  0.261951  0.000000  1
  Pd  Pd30  1  0.987064  0.738049  0.000000  1
  Pd  Pd31  1  0.987064  0.000000  0.261951  1
  Pd  Pd32  1  0.987064  0.000000  0.738049  1
