# generated using pymatgen
data_CsDy2Tl(SbAu)4
_symmetry_space_group_name_H-M   'P 1'
_cell_length_a   4.62533700
_cell_length_b   4.62533609
_cell_length_c   19.30454800
_cell_angle_alpha   90.00000000
_cell_angle_beta   90.00000000
_cell_angle_gamma   120.00001368
_symmetry_Int_Tables_number   1
_chemical_formula_structural   CsDy2Tl(SbAu)4
_chemical_formula_sum   'Cs1 Dy2 Tl1 Sb4 Au4'
_cell_volume   357.66536358
_cell_formula_units_Z   1
loop_
 _symmetry_equiv_pos_site_id
 _symmetry_equiv_pos_as_xyz
  1  'x, y, z'
loop_
 _atom_site_type_symbol
 _atom_site_label
 _atom_site_symmetry_multiplicity
 _atom_site_fract_x
 _atom_site_fract_y
 _atom_site_fract_z
 _atom_site_occupancy
  Cs  Cs0  1  0.000000  0.000000  0.500000  1
  Dy  Dy1  1  0.000000  0.000000  0.239313  1
  Dy  Dy2  1  0.000000  0.000000  0.760687  1
  Tl  Tl3  1  0.000000  0.000000  0.000000  1
  Sb  Sb4  1  0.333333  0.666667  0.352282  1
  Sb  Sb5  1  0.666667  0.333333  0.647718  1
  Sb  Sb6  1  0.666667  0.333333  0.876127  1
  Sb  Sb7  1  0.333333  0.666667  0.123873  1
  Au  Au8  1  0.666667  0.333333  0.321496  1
  Au  Au9  1  0.333333  0.666667  0.678504  1
  Au  Au10  1  0.333333  0.666667  0.842568  1
  Au  Au11  1  0.666667  0.333333  0.157432  1
