# generated using pymatgen
data_Ca3Th(Ga2Ag)4
_symmetry_space_group_name_H-M   'P 1'
_cell_length_a   4.41403900
_cell_length_b   7.03451177
_cell_length_c   10.51258554
_cell_angle_alpha   90.00076242
_cell_angle_beta   90.00000000
_cell_angle_gamma   90.00000000
_symmetry_Int_Tables_number   1
_chemical_formula_structural   Ca3Th(Ga2Ag)4
_chemical_formula_sum   'Ca3 Th1 Ga8 Ag4'
_cell_volume   326.42218622
_cell_formula_units_Z   1
loop_
 _symmetry_equiv_pos_site_id
 _symmetry_equiv_pos_as_xyz
  1  'x, y, z'
loop_
 _atom_site_type_symbol
 _atom_site_label
 _atom_site_symmetry_multiplicity
 _atom_site_fract_x
 _atom_site_fract_y
 _atom_site_fract_z
 _atom_site_occupancy
  Ca  Ca0  1  0.250000  0.775338  0.829221  1
  Ca  Ca1  1  0.750000  0.225536  0.174416  1
  Ca  Ca2  1  0.750000  0.723722  0.325190  1
  Th  Th3  1  0.250000  0.282537  0.671082  1
  Ga  Ga4  1  0.250000  0.926111  0.149973  1
  Ga  Ga5  1  0.750000  0.073726  0.847736  1
  Ga  Ga6  1  0.750000  0.579552  0.651253  1
  Ga  Ga7  1  0.250000  0.422321  0.352643  1
  Ga  Ga8  1  0.250000  0.704784  0.535898  1
  Ga  Ga9  1  0.750000  0.293601  0.463986  1
  Ga  Ga10  1  0.750000  0.801223  0.033359  1
  Ga  Ga11  1  0.250000  0.201041  0.965876  1
  Ag  Ag12  1  0.250000  0.541473  0.100205  1
  Ag  Ag13  1  0.750000  0.458285  0.901914  1
  Ag  Ag14  1  0.750000  0.954121  0.597827  1
  Ag  Ag15  1  0.250000  0.036632  0.399421  1
