# generated using pymatgen
data_YbAsPRu2
_symmetry_space_group_name_H-M   'P 1'
_cell_length_a   5.76748146
_cell_length_b   5.76748127
_cell_length_c   5.76748081
_cell_angle_alpha   137.91996868
_cell_angle_beta   137.91996908
_cell_angle_gamma   61.02559661
_symmetry_Int_Tables_number   1
_chemical_formula_structural   YbAsPRu2
_chemical_formula_sum   'Yb1 As1 P1 Ru2'
_cell_volume   85.21553394
_cell_formula_units_Z   1
loop_
 _symmetry_equiv_pos_site_id
 _symmetry_equiv_pos_as_xyz
  1  'x, y, z'
loop_
 _atom_site_type_symbol
 _atom_site_label
 _atom_site_symmetry_multiplicity
 _atom_site_fract_x
 _atom_site_fract_y
 _atom_site_fract_z
 _atom_site_occupancy
  Yb  Yb0  1  0.001255  0.001255  0.000000  1
  As  As1  1  0.375360  0.375360  0.000000  1
  P  P2  1  0.636528  0.636528  0.000000  1
  Ru  Ru3  1  0.243429  0.743429  0.500000  1
  Ru  Ru4  1  0.743429  0.243429  0.500000  1
