# generated using pymatgen
data_Dy13HoAu20
_symmetry_space_group_name_H-M   'P 1'
_cell_length_a   8.72805600
_cell_length_b   8.72805735
_cell_length_c   10.40574700
_cell_angle_alpha   89.99969769
_cell_angle_beta   89.99970036
_cell_angle_gamma   107.01181838
_symmetry_Int_Tables_number   1
_chemical_formula_structural   Dy13HoAu20
_chemical_formula_sum   'Dy13 Ho1 Au20'
_cell_volume   758.01411986
_cell_formula_units_Z   1
loop_
 _symmetry_equiv_pos_site_id
 _symmetry_equiv_pos_as_xyz
  1  'x, y, z'
loop_
 _atom_site_type_symbol
 _atom_site_label
 _atom_site_symmetry_multiplicity
 _atom_site_fract_x
 _atom_site_fract_y
 _atom_site_fract_z
 _atom_site_occupancy
  Dy  Dy0  1  0.693513  0.306487  0.000000  1
  Dy  Dy1  1  0.306487  0.693513  0.000000  1
  Dy  Dy2  1  0.806516  0.193484  0.500000  1
  Dy  Dy3  1  0.193484  0.806516  0.500000  1
  Dy  Dy4  1  0.500000  0.500000  0.500000  1
  Dy  Dy5  1  0.002581  0.502586  0.249890  1
  Dy  Dy6  1  0.997419  0.497414  0.750110  1
  Dy  Dy7  1  0.497414  0.997419  0.750110  1
  Dy  Dy8  1  0.502586  0.002581  0.249890  1
  Dy  Dy9  1  0.313029  0.313029  0.187946  1
  Dy  Dy10  1  0.686971  0.686971  0.812054  1
  Dy  Dy11  1  0.186843  0.186843  0.688392  1
  Dy  Dy12  1  0.813157  0.813157  0.311608  1
  Ho  Ho13  1  0.000000  0.000000  0.000000  1
  Au  Au14  1  0.859965  0.148874  0.209194  1
  Au  Au15  1  0.140035  0.851126  0.790806  1
  Au  Au16  1  0.640533  0.350820  0.709510  1
  Au  Au17  1  0.649180  0.359467  0.290490  1
  Au  Au18  1  0.359467  0.649180  0.290490  1
  Au  Au19  1  0.350820  0.640533  0.709510  1
  Au  Au20  1  0.851126  0.140035  0.790806  1
  Au  Au21  1  0.148874  0.859965  0.209194  1
  Au  Au22  1  0.937165  0.645625  0.002343  1
  Au  Au23  1  0.062835  0.354375  0.997657  1
  Au  Au24  1  0.563014  0.855010  0.502234  1
  Au  Au25  1  0.144990  0.436986  0.497766  1
  Au  Au26  1  0.436986  0.144990  0.497766  1
  Au  Au27  1  0.855010  0.563014  0.502234  1
  Au  Au28  1  0.354375  0.062835  0.997657  1
  Au  Au29  1  0.645625  0.937165  0.002343  1
  Au  Au30  1  0.104971  0.104971  0.397289  1
  Au  Au31  1  0.895029  0.895029  0.602711  1
  Au  Au32  1  0.395255  0.395255  0.897282  1
  Au  Au33  1  0.604745  0.604745  0.102718  1
