# generated using pymatgen
data_HoErRe2C3
_symmetry_space_group_name_H-M   'P 1'
_cell_length_a   6.05304595
_cell_length_b   6.05304675
_cell_length_c   5.64958820
_cell_angle_alpha   67.51687010
_cell_angle_beta   67.51686637
_cell_angle_gamma   31.57957511
_symmetry_Int_Tables_number   1
_chemical_formula_structural   HoErRe2C3
_chemical_formula_sum   'Ho1 Er1 Re2 C3'
_cell_volume   99.47321354
_cell_formula_units_Z   1
loop_
 _symmetry_equiv_pos_site_id
 _symmetry_equiv_pos_as_xyz
  1  'x, y, z'
loop_
 _atom_site_type_symbol
 _atom_site_label
 _atom_site_symmetry_multiplicity
 _atom_site_fract_x
 _atom_site_fract_y
 _atom_site_fract_z
 _atom_site_occupancy
  Ho  Ho0  1  0.608929  0.608929  0.180228  1
  Er  Er1  1  0.390867  0.390867  0.820476  1
  Re  Re2  1  0.843553  0.843553  0.321828  1
  Re  Re3  1  0.156430  0.156430  0.678063  1
  C  C4  1  0.246983  0.246983  0.266695  1
  C  C5  1  0.753399  0.753399  0.733055  1
  C  C6  1  0.999840  0.999840  0.999656  1
