# generated using pymatgen
data_NdAlGaAu2
_symmetry_space_group_name_H-M   'P 1'
_cell_length_a   4.50294400
_cell_length_b   4.50294400
_cell_length_c   10.28293400
_cell_angle_alpha   90.00000000
_cell_angle_beta   90.00000000
_cell_angle_gamma   90.00000000
_symmetry_Int_Tables_number   1
_chemical_formula_structural   NdAlGaAu2
_chemical_formula_sum   'Nd2 Al2 Ga2 Au4'
_cell_volume   208.50195924
_cell_formula_units_Z   2
loop_
 _symmetry_equiv_pos_site_id
 _symmetry_equiv_pos_as_xyz
  1  'x, y, z'
loop_
 _atom_site_type_symbol
 _atom_site_label
 _atom_site_symmetry_multiplicity
 _atom_site_fract_x
 _atom_site_fract_y
 _atom_site_fract_z
 _atom_site_occupancy
  Nd  Nd0  1  0.000000  0.500000  0.251116  1
  Nd  Nd1  1  0.500000  0.000000  0.748884  1
  Al  Al2  1  0.000000  0.500000  0.874615  1
  Al  Al3  1  0.500000  0.000000  0.125385  1
  Ga  Ga4  1  0.000000  0.000000  0.500000  1
  Ga  Ga5  1  0.500000  0.500000  0.500000  1
  Au  Au6  1  0.000000  0.000000  0.000000  1
  Au  Au7  1  0.500000  0.500000  0.000000  1
  Au  Au8  1  0.000000  0.500000  0.631984  1
  Au  Au9  1  0.500000  0.000000  0.368016  1
