# generated using pymatgen
data_Yb11Sm(SiAg)12
_symmetry_space_group_name_H-M   'P 1'
_cell_length_a   4.51082200
_cell_length_b   7.71324831
_cell_length_c   21.30425283
_cell_angle_alpha   90.07385534
_cell_angle_beta   90.00000000
_cell_angle_gamma   90.00000000
_symmetry_Int_Tables_number   1
_chemical_formula_structural   Yb11Sm(SiAg)12
_chemical_formula_sum   'Yb11 Sm1 Si12 Ag12'
_cell_volume   741.24017372
_cell_formula_units_Z   1
loop_
 _symmetry_equiv_pos_site_id
 _symmetry_equiv_pos_as_xyz
  1  'x, y, z'
loop_
 _atom_site_type_symbol
 _atom_site_label
 _atom_site_symmetry_multiplicity
 _atom_site_fract_x
 _atom_site_fract_y
 _atom_site_fract_z
 _atom_site_occupancy
  Yb  Yb0  1  0.250000  0.219585  0.001045  1
  Yb  Yb1  1  0.250000  0.281092  0.499552  1
  Yb  Yb2  1  0.750000  0.778048  0.001943  1
  Yb  Yb3  1  0.750000  0.718300  0.500091  1
  Yb  Yb4  1  0.250000  0.203925  0.333626  1
  Yb  Yb5  1  0.250000  0.291279  0.833024  1
  Yb  Yb6  1  0.750000  0.794339  0.665282  1
  Yb  Yb7  1  0.750000  0.704634  0.166599  1
  Yb  Yb8  1  0.250000  0.210528  0.665767  1
  Yb  Yb9  1  0.250000  0.292157  0.167401  1
  Yb  Yb10  1  0.750000  0.792496  0.332899  1
  Sm  Sm11  1  0.750000  0.708697  0.833416  1
  Si  Si12  1  0.250000  0.582808  0.726170  1
  Si  Si13  1  0.250000  0.918307  0.224170  1
  Si  Si14  1  0.750000  0.418081  0.275831  1
  Si  Si15  1  0.750000  0.080129  0.775274  1
  Si  Si16  1  0.250000  0.912595  0.106428  1
  Si  Si17  1  0.250000  0.587148  0.606812  1
  Si  Si18  1  0.750000  0.086593  0.893408  1
  Si  Si19  1  0.750000  0.413109  0.393553  1
  Si  Si20  1  0.250000  0.593118  0.920678  1
  Si  Si21  1  0.250000  0.908628  0.428215  1
  Si  Si22  1  0.750000  0.409258  0.071555  1
  Si  Si23  1  0.750000  0.091574  0.572008  1
  Ag  Ag24  1  0.250000  0.916466  0.760295  1
  Ag  Ag25  1  0.250000  0.587510  0.262192  1
  Ag  Ag26  1  0.750000  0.087925  0.238147  1
  Ag  Ag27  1  0.750000  0.409256  0.736986  1
  Ag  Ag28  1  0.250000  0.923636  0.907436  1
  Ag  Ag29  1  0.250000  0.581560  0.405661  1
  Ag  Ag30  1  0.750000  0.081702  0.094479  1
  Ag  Ag31  1  0.750000  0.418484  0.593882  1
  Ag  Ag32  1  0.250000  0.916377  0.565192  1
  Ag  Ag33  1  0.250000  0.582552  0.067504  1
  Ag  Ag34  1  0.750000  0.083311  0.434746  1
  Ag  Ag35  1  0.750000  0.414795  0.938734  1
