# generated using pymatgen
data_KRbHg(BSe)9
_symmetry_space_group_name_H-M   'P 1'
_cell_length_a   9.92551863
_cell_length_b   10.74627622
_cell_length_c   11.27450702
_cell_angle_alpha   100.20151936
_cell_angle_beta   90.77763982
_cell_angle_gamma   116.35471177
_symmetry_Int_Tables_number   1
_chemical_formula_structural   KRbHg(BSe)9
_chemical_formula_sum   'K2 Rb2 Hg2 B18 Se18'
_cell_volume   1054.72759609
_cell_formula_units_Z   2
loop_
 _symmetry_equiv_pos_site_id
 _symmetry_equiv_pos_as_xyz
  1  'x, y, z'
loop_
 _atom_site_type_symbol
 _atom_site_label
 _atom_site_symmetry_multiplicity
 _atom_site_fract_x
 _atom_site_fract_y
 _atom_site_fract_z
 _atom_site_occupancy
  K  K0  1  0.791985  0.174555  0.003095  1
  K  K1  1  0.208015  0.825445  0.996905  1
  Rb  Rb2  1  0.175538  0.344234  0.504157  1
  Rb  Rb3  1  0.824462  0.655766  0.495843  1
  Hg  Hg4  1  0.324981  0.318685  0.074531  1
  Hg  Hg5  1  0.675019  0.681315  0.925469  1
  B  B6  1  0.515700  0.163332  0.552052  1
  B  B7  1  0.484300  0.836668  0.447948  1
  B  B8  1  0.663221  0.120532  0.587162  1
  B  B9  1  0.336779  0.879468  0.412838  1
  B  B10  1  0.486231  0.042237  0.648441  1
  B  B11  1  0.513769  0.957763  0.351559  1
  B  B12  1  0.338023  0.007983  0.538411  1
  B  B13  1  0.661977  0.992017  0.461589  1
  B  B14  1  0.422752  0.063742  0.405843  1
  B  B15  1  0.577248  0.936258  0.594157  1
  B  B16  1  0.621717  0.132130  0.436279  1
  B  B17  1  0.378283  0.867870  0.563721  1
  B  B18  1  0.752956  0.416383  0.715054  1
  B  B19  1  0.247044  0.583617  0.284946  1
  B  B20  1  0.250582  0.086322  0.780639  1
  B  B21  1  0.749418  0.913678  0.219361  1
  B  B22  1  0.570295  0.284453  0.260103  1
  B  B23  1  0.429705  0.715547  0.739897  1
  Se  Se24  1  0.556543  0.362706  0.627367  1
  Se  Se25  1  0.443457  0.637294  0.372633  1
  Se  Se26  1  0.840499  0.280917  0.696544  1
  Se  Se27  1  0.159501  0.719083  0.303456  1
  Se  Se28  1  0.448040  0.094670  0.820631  1
  Se  Se29  1  0.551960  0.905330  0.179369  1
  Se  Se30  1  0.161846  0.028538  0.609962  1
  Se  Se31  1  0.838154  0.971462  0.390038  1
  Se  Se32  1  0.362303  0.156500  0.288721  1
  Se  Se33  1  0.637697  0.843500  0.711279  1
  Se  Se34  1  0.745018  0.287275  0.347993  1
  Se  Se35  1  0.254982  0.712725  0.652007  1
  Se  Se36  1  0.872076  0.604010  0.814509  1
  Se  Se37  1  0.127924  0.395990  0.185491  1
  Se  Se38  1  0.127358  0.119698  0.901940  1
  Se  Se39  1  0.872642  0.880302  0.098060  1
  Se  Se40  1  0.609370  0.407327  0.143967  1
  Se  Se41  1  0.390630  0.592673  0.856033  1
