# generated using pymatgen
data_TaCoB3
_symmetry_space_group_name_H-M   'P 1'
_cell_length_a   9.06748025
_cell_length_b   9.06748107
_cell_length_c   3.06199000
_cell_angle_alpha   90.00000000
_cell_angle_beta   90.00000000
_cell_angle_gamma   159.52753097
_symmetry_Int_Tables_number   1
_chemical_formula_structural   TaCoB3
_chemical_formula_sum   'Ta2 Co2 B6'
_cell_volume   88.05292488
_cell_formula_units_Z   2
loop_
 _symmetry_equiv_pos_site_id
 _symmetry_equiv_pos_as_xyz
  1  'x, y, z'
loop_
 _atom_site_type_symbol
 _atom_site_label
 _atom_site_symmetry_multiplicity
 _atom_site_fract_x
 _atom_site_fract_y
 _atom_site_fract_z
 _atom_site_occupancy
  Ta  Ta0  1  0.923132  0.076868  0.250000  1
  Ta  Ta1  1  0.076868  0.923132  0.750000  1
  Co  Co2  1  0.205397  0.794603  0.250000  1
  Co  Co3  1  0.794603  0.205397  0.750000  1
  B  B4  1  0.629694  0.370306  0.250000  1
  B  B5  1  0.370306  0.629694  0.750000  1
  B  B6  1  0.525169  0.474831  0.250000  1
  B  B7  1  0.474831  0.525169  0.750000  1
  B  B8  1  0.681601  0.318399  0.750000  1
  B  B9  1  0.318399  0.681601  0.250000  1
