# generated using pymatgen
data_Dy3YFe10(P6Rh5)2
_symmetry_space_group_name_H-M   'P 1'
_cell_length_a   3.79109000
_cell_length_b   10.45426305
_cell_length_c   12.25292606
_cell_angle_alpha   89.98860001
_cell_angle_beta   90.00000000
_cell_angle_gamma   90.00000000
_symmetry_Int_Tables_number   1
_chemical_formula_structural   Dy3YFe10(P6Rh5)2
_chemical_formula_sum   'Dy3 Y1 Fe10 P12 Rh10'
_cell_volume   485.62084748
_cell_formula_units_Z   1
loop_
 _symmetry_equiv_pos_site_id
 _symmetry_equiv_pos_as_xyz
  1  'x, y, z'
loop_
 _atom_site_type_symbol
 _atom_site_label
 _atom_site_symmetry_multiplicity
 _atom_site_fract_x
 _atom_site_fract_y
 _atom_site_fract_z
 _atom_site_occupancy
  Dy  Dy0  1  0.250000  0.583031  0.712094  1
  Dy  Dy1  1  0.250000  0.916905  0.212014  1
  Dy  Dy2  1  0.750000  0.076556  0.790453  1
  Y  Y3  1  0.750000  0.423495  0.290372  1
  Fe  Fe4  1  0.750000  0.774173  0.828596  1
  Fe  Fe5  1  0.750000  0.725837  0.328542  1
  Fe  Fe6  1  0.250000  0.874362  0.697027  1
  Fe  Fe7  1  0.250000  0.625754  0.196943  1
  Fe  Fe8  1  0.750000  0.119791  0.302012  1
  Fe  Fe9  1  0.750000  0.380100  0.802034  1
  Fe  Fe10  1  0.250000  0.460026  0.934973  1
  Fe  Fe11  1  0.250000  0.039963  0.435106  1
  Fe  Fe12  1  0.750000  0.541451  0.064427  1
  Fe  Fe13  1  0.750000  0.958602  0.564497  1
  P  P14  1  0.250000  0.439530  0.111520  1
  P  P15  1  0.250000  0.060446  0.611540  1
  P  P16  1  0.750000  0.570393  0.887076  1
  P  P17  1  0.750000  0.929593  0.387170  1
  P  P18  1  0.250000  0.272272  0.863483  1
  P  P19  1  0.250000  0.227602  0.363632  1
  P  P20  1  0.750000  0.726369  0.146559  1
  P  P21  1  0.750000  0.773697  0.646509  1
  P  P22  1  0.250000  0.610002  0.377008  1
  P  P23  1  0.250000  0.890136  0.876918  1
  P  P24  1  0.750000  0.402626  0.618448  1
  P  P25  1  0.750000  0.097330  0.118421  1
  Rh  Rh26  1  0.250000  0.707755  0.984555  1
  Rh  Rh27  1  0.250000  0.792327  0.484595  1
  Rh  Rh28  1  0.750000  0.287036  0.009163  1
  Rh  Rh29  1  0.750000  0.212856  0.509259  1
  Rh  Rh30  1  0.250000  0.411855  0.478550  1
  Rh  Rh31  1  0.250000  0.088126  0.978328  1
  Rh  Rh32  1  0.750000  0.599343  0.520310  1
  Rh  Rh33  1  0.750000  0.900668  0.020266  1
  Rh  Rh34  1  0.250000  0.229693  0.173739  1
  Rh  Rh35  1  0.250000  0.270301  0.673862  1
