# generated using pymatgen
data_Pd2Se12I3Cl
_symmetry_space_group_name_H-M   'P 1'
_cell_length_a   8.73294222
_cell_length_b   5.09961954
_cell_length_c   13.57214881
_cell_angle_alpha   80.02918914
_cell_angle_beta   90.30684947
_cell_angle_gamma   89.27310640
_symmetry_Int_Tables_number   1
_chemical_formula_structural   Pd2Se12I3Cl
_chemical_formula_sum   'Pd2 Se12 I3 Cl1'
_cell_volume   595.23665549
_cell_formula_units_Z   1
loop_
 _symmetry_equiv_pos_site_id
 _symmetry_equiv_pos_as_xyz
  1  'x, y, z'
loop_
 _atom_site_type_symbol
 _atom_site_label
 _atom_site_symmetry_multiplicity
 _atom_site_fract_x
 _atom_site_fract_y
 _atom_site_fract_z
 _atom_site_occupancy
  Pd  Pd0  1  0.498759  0.000127  0.499352  1
  Pd  Pd1  1  0.999581  0.995292  0.003379  1
  Se  Se2  1  0.110648  0.165640  0.355612  1
  Se  Se3  1  0.885927  0.838828  0.641272  1
  Se  Se4  1  0.375761  0.014337  0.138729  1
  Se  Se5  1  0.381979  0.150262  0.860412  1
  Se  Se6  1  0.631592  0.966165  0.866490  1
  Se  Se7  1  0.130792  0.029197  0.633164  1
  Se  Se8  1  0.733908  0.147661  0.007843  1
  Se  Se9  1  0.233590  0.853217  0.490548  1
  Se  Se10  1  0.267090  0.840759  0.996809  1
  Se  Se11  1  0.763149  0.150931  0.505966  1
  Se  Se12  1  0.866502  0.976884  0.363705  1
  Se  Se13  1  0.624686  0.830336  0.143709  1
  I  I14  1  0.533312  0.612190  0.654705  1
  I  I15  1  0.030629  0.381429  0.850333  1
  I  I16  1  0.464639  0.389207  0.345153  1
  Cl  Cl17  1  0.967455  0.657536  0.142820  1
