# generated using pymatgen
data_Y2Ho6Ti11Si16W
_symmetry_space_group_name_H-M   'P 1'
_cell_length_a   7.02735471
_cell_length_b   7.02737209
_cell_length_c   12.92440979
_cell_angle_alpha   89.97849407
_cell_angle_beta   90.00795543
_cell_angle_gamma   90.04891705
_symmetry_Int_Tables_number   1
_chemical_formula_structural   Y2Ho6Ti11Si16W
_chemical_formula_sum   'Y2 Ho6 Ti11 Si16 W1'
_cell_volume   638.25665420
_cell_formula_units_Z   1
loop_
 _symmetry_equiv_pos_site_id
 _symmetry_equiv_pos_as_xyz
  1  'x, y, z'
loop_
 _atom_site_type_symbol
 _atom_site_label
 _atom_site_symmetry_multiplicity
 _atom_site_fract_x
 _atom_site_fract_y
 _atom_site_fract_z
 _atom_site_occupancy
  Y  Y0  1  0.340550  0.003366  0.466971  1
  Y  Y1  1  0.496859  0.840208  0.717568  1
  Ho  Ho2  1  0.501278  0.159329  0.215522  1
  Ho  Ho3  1  0.840428  0.497196  0.282644  1
  Ho  Ho4  1  0.159053  0.501070  0.784447  1
  Ho  Ho5  1  0.658119  0.998465  0.967081  1
  Ho  Ho6  1  0.002793  0.341008  0.533079  1
  Ho  Ho7  1  0.998374  0.658003  0.032901  1
  Ti  Ti8  1  0.173833  0.827240  0.249417  1
  Ti  Ti9  1  0.827543  0.174127  0.750522  1
  Ti  Ti10  1  0.673332  0.672790  0.499864  1
  Ti  Ti11  1  0.153347  0.009003  0.876653  1
  Ti  Ti12  1  0.491958  0.650980  0.124379  1
  Ti  Ti13  1  0.507192  0.348980  0.626315  1
  Ti  Ti14  1  0.651144  0.491715  0.875726  1
  Ti  Ti15  1  0.348922  0.507119  0.373740  1
  Ti  Ti16  1  0.848312  0.992479  0.375726  1
  Ti  Ti17  1  0.008849  0.153553  0.123443  1
  Ti  Ti18  1  0.992293  0.848294  0.624301  1
  Si  Si19  1  0.201890  0.131315  0.684498  1
  Si  Si20  1  0.369273  0.700782  0.934330  1
  Si  Si21  1  0.631249  0.297671  0.434102  1
  Si  Si22  1  0.700925  0.369311  0.065742  1
  Si  Si23  1  0.296930  0.630159  0.565633  1
  Si  Si24  1  0.797486  0.869146  0.184262  1
  Si  Si25  1  0.130566  0.202698  0.315426  1
  Si  Si26  1  0.869573  0.797421  0.815867  1
  Si  Si27  1  0.290936  0.954193  0.064732  1
  Si  Si28  1  0.546985  0.791268  0.314705  1
  Si  Si29  1  0.452504  0.208856  0.815721  1
  Si  Si30  1  0.791986  0.546354  0.685113  1
  Si  Si31  1  0.208357  0.452475  0.184453  1
  Si  Si32  1  0.709635  0.047597  0.564795  1
  Si  Si33  1  0.954138  0.290930  0.935241  1
  Si  Si34  1  0.046951  0.708482  0.435068  1
  W  W35  1  0.326436  0.326418  0.000012  1
