# generated using pymatgen
data_Lu16Sc4HgBi11
_symmetry_space_group_name_H-M   'P 1'
_cell_length_a   7.99978101
_cell_length_b   9.29493900
_cell_length_c   11.72043236
_cell_angle_alpha   90.00000000
_cell_angle_beta   89.62891517
_cell_angle_gamma   90.00000000
_symmetry_Int_Tables_number   1
_chemical_formula_structural   Lu16Sc4HgBi11
_chemical_formula_sum   'Lu16 Sc4 Hg1 Bi11'
_cell_volume   871.48349546
_cell_formula_units_Z   1
loop_
 _symmetry_equiv_pos_site_id
 _symmetry_equiv_pos_as_xyz
  1  'x, y, z'
loop_
 _atom_site_type_symbol
 _atom_site_label
 _atom_site_symmetry_multiplicity
 _atom_site_fract_x
 _atom_site_fract_y
 _atom_site_fract_z
 _atom_site_occupancy
  Lu  Lu0  1  0.356022  0.250000  0.290151  1
  Lu  Lu1  1  0.645964  0.750000  0.717732  1
  Lu  Lu2  1  0.146988  0.750000  0.783167  1
  Lu  Lu3  1  0.855138  0.250000  0.216411  1
  Lu  Lu4  1  0.189724  0.250000  0.777878  1
  Lu  Lu5  1  0.811605  0.750000  0.217643  1
  Lu  Lu6  1  0.313645  0.750000  0.281111  1
  Lu  Lu7  1  0.679384  0.250000  0.713731  1
  Lu  Lu8  1  0.195691  0.067252  0.059471  1
  Lu  Lu9  1  0.804195  0.932401  0.941229  1
  Lu  Lu10  1  0.304699  0.943974  0.558797  1
  Lu  Lu11  1  0.804195  0.567599  0.941229  1
  Lu  Lu12  1  0.689978  0.071981  0.443757  1
  Lu  Lu13  1  0.195691  0.432748  0.059471  1
  Lu  Lu14  1  0.689978  0.428019  0.443757  1
  Lu  Lu15  1  0.304699  0.556026  0.558797  1
  Sc  Sc16  1  0.033073  0.250000  0.510647  1
  Sc  Sc17  1  0.979165  0.750000  0.487987  1
  Sc  Sc18  1  0.477153  0.750000  0.011339  1
  Sc  Sc19  1  0.523180  0.250000  0.989055  1
  Hg  Hg20  1  0.401152  0.250000  0.542686  1
  Bi  Bi21  1  0.599680  0.750000  0.456362  1
  Bi  Bi22  1  0.100272  0.750000  0.043421  1
  Bi  Bi23  1  0.899893  0.250000  0.955170  1
  Bi  Bi24  1  0.064404  0.003204  0.327663  1
  Bi  Bi25  1  0.934857  0.996038  0.671973  1
  Bi  Bi26  1  0.435136  0.996851  0.828995  1
  Bi  Bi27  1  0.934857  0.503962  0.671973  1
  Bi  Bi28  1  0.565021  0.003665  0.170868  1
  Bi  Bi29  1  0.064404  0.496796  0.327663  1
  Bi  Bi30  1  0.565021  0.496335  0.170868  1
  Bi  Bi31  1  0.435136  0.503149  0.828995  1
