# generated using pymatgen
data_Ce3Sm(Si4Tc3)2
_symmetry_space_group_name_H-M   'P 1'
_cell_length_a   8.14965252
_cell_length_b   5.69503367
_cell_length_c   6.91598075
_cell_angle_alpha   76.32195720
_cell_angle_beta   90.05910260
_cell_angle_gamma   89.92752661
_symmetry_Int_Tables_number   1
_chemical_formula_structural   Ce3Sm(Si4Tc3)2
_chemical_formula_sum   'Ce3 Sm1 Si8 Tc6'
_cell_volume   311.88444154
_cell_formula_units_Z   1
loop_
 _symmetry_equiv_pos_site_id
 _symmetry_equiv_pos_as_xyz
  1  'x, y, z'
loop_
 _atom_site_type_symbol
 _atom_site_label
 _atom_site_symmetry_multiplicity
 _atom_site_fract_x
 _atom_site_fract_y
 _atom_site_fract_z
 _atom_site_occupancy
  Ce  Ce0  1  0.936578  0.567456  0.252084  1
  Ce  Ce1  1  0.436536  0.931984  0.751410  1
  Ce  Ce2  1  0.063939  0.432576  0.748332  1
  Sm  Sm3  1  0.565514  0.064734  0.252478  1
  Si  Si4  1  0.590429  0.608771  0.119683  1
  Si  Si5  1  0.089629  0.887722  0.880464  1
  Si  Si6  1  0.411253  0.385678  0.883078  1
  Si  Si7  1  0.908464  0.113965  0.116928  1
  Si  Si8  1  0.751727  0.719388  0.586734  1
  Si  Si9  1  0.251329  0.782716  0.411474  1
  Si  Si10  1  0.249762  0.278826  0.412223  1
  Si  Si11  1  0.748999  0.220496  0.587770  1
  Tc  Tc12  1  0.291516  0.614759  0.114927  1
  Tc  Tc13  1  0.791124  0.885447  0.886520  1
  Tc  Tc14  1  0.709405  0.389857  0.882309  1
  Tc  Tc15  1  0.204678  0.116514  0.112143  1
  Tc  Tc16  1  0.498772  0.498347  0.500533  1
  Tc  Tc17  1  0.000348  0.000765  0.500910  1
