# generated using pymatgen
data_Er16Cd4IrPdRu2
_symmetry_space_group_name_H-M   'P 1'
_cell_length_a   9.56945054
_cell_length_b   9.60929763
_cell_length_c   9.60929869
_cell_angle_alpha   59.75345886
_cell_angle_beta   59.39528169
_cell_angle_gamma   59.39527405
_symmetry_Int_Tables_number   1
_chemical_formula_structural   Er16Cd4IrPdRu2
_chemical_formula_sum   'Er16 Cd4 Ir1 Pd1 Ru2'
_cell_volume   617.90827553
_cell_formula_units_Z   1
loop_
 _symmetry_equiv_pos_site_id
 _symmetry_equiv_pos_as_xyz
  1  'x, y, z'
loop_
 _atom_site_type_symbol
 _atom_site_label
 _atom_site_symmetry_multiplicity
 _atom_site_fract_x
 _atom_site_fract_y
 _atom_site_fract_z
 _atom_site_occupancy
  Er  Er0  1  0.347125  0.351642  0.351642  1
  Er  Er1  1  0.346674  0.355693  0.950221  1
  Er  Er2  1  0.346674  0.950221  0.355693  1
  Er  Er3  1  0.962221  0.345338  0.345338  1
  Er  Er4  1  0.814445  0.189569  0.189569  1
  Er  Er5  1  0.183366  0.811997  0.811997  1
  Er  Er6  1  0.187693  0.808452  0.190335  1
  Er  Er7  1  0.814722  0.189521  0.804153  1
  Er  Er8  1  0.187693  0.190335  0.808452  1
  Er  Er9  1  0.814722  0.804153  0.189521  1
  Er  Er10  1  0.938112  0.560624  0.560624  1
  Er  Er11  1  0.556588  0.938482  0.938482  1
  Er  Er12  1  0.558153  0.938194  0.567305  1
  Er  Er13  1  0.935822  0.563699  0.937132  1
  Er  Er14  1  0.558153  0.567305  0.938194  1
  Er  Er15  1  0.935822  0.937132  0.563699  1
  Cd  Cd16  1  0.579688  0.580497  0.580497  1
  Cd  Cd17  1  0.581253  0.579281  0.257112  1
  Cd  Cd18  1  0.581253  0.257112  0.579281  1
  Cd  Cd19  1  0.255005  0.581659  0.581659  1
  Ir  Ir20  1  0.150663  0.137553  0.137553  1
  Pd  Pd21  1  0.573021  0.143147  0.143147  1
  Ru  Ru22  1  0.145565  0.143006  0.575386  1
  Ru  Ru23  1  0.145565  0.575386  0.143006  1
