# generated using pymatgen
data_Sr4InSnIr4
_symmetry_space_group_name_H-M   'P 1'
_cell_length_a   6.05878612
_cell_length_b   6.05878780
_cell_length_c   8.13864978
_cell_angle_alpha   79.15351034
_cell_angle_beta   79.15350584
_cell_angle_gamma   60.82355501
_symmetry_Int_Tables_number   1
_chemical_formula_structural   Sr4InSnIr4
_chemical_formula_sum   'Sr4 In1 Sn1 Ir4'
_cell_volume   254.56928790
_cell_formula_units_Z   1
loop_
 _symmetry_equiv_pos_site_id
 _symmetry_equiv_pos_as_xyz
  1  'x, y, z'
loop_
 _atom_site_type_symbol
 _atom_site_label
 _atom_site_symmetry_multiplicity
 _atom_site_fract_x
 _atom_site_fract_y
 _atom_site_fract_z
 _atom_site_occupancy
  Sr  Sr0  1  0.505983  0.785235  0.357692  1
  Sr  Sr1  1  0.214765  0.494017  0.142308  1
  Sr  Sr2  1  0.495293  0.212290  0.643161  1
  Sr  Sr3  1  0.787710  0.504707  0.856839  1
  In  In4  1  0.099518  0.900482  0.750000  1
  Sn  Sn5  1  0.904839  0.095161  0.250000  1
  Ir  Ir6  1  0.298036  0.993561  0.995816  1
  Ir  Ir7  1  0.006439  0.701964  0.504184  1
  Ir  Ir8  1  0.698822  0.011403  0.012972  1
  Ir  Ir9  1  0.988597  0.301178  0.487028  1
