# generated using pymatgen
data_Er16In3HgIr4
_symmetry_space_group_name_H-M   'P 1'
_cell_length_a   9.56248212
_cell_length_b   9.57215564
_cell_length_c   9.57215600
_cell_angle_alpha   59.99999875
_cell_angle_beta   59.96652925
_cell_angle_gamma   59.96652649
_symmetry_Int_Tables_number   1
_chemical_formula_structural   Er16In3HgIr4
_chemical_formula_sum   'Er16 In3 Hg1 Ir4'
_cell_volume   619.23464292
_cell_formula_units_Z   1
loop_
 _symmetry_equiv_pos_site_id
 _symmetry_equiv_pos_as_xyz
  1  'x, y, z'
loop_
 _atom_site_type_symbol
 _atom_site_label
 _atom_site_symmetry_multiplicity
 _atom_site_fract_x
 _atom_site_fract_y
 _atom_site_fract_z
 _atom_site_occupancy
  Er  Er0  1  0.059141  0.063465  0.438697  1
  Er  Er1  1  0.650284  0.049410  0.650153  1
  Er  Er2  1  0.191075  0.808959  0.191006  1
  Er  Er3  1  0.438491  0.061088  0.439332  1
  Er  Er4  1  0.191075  0.191006  0.808959  1
  Er  Er5  1  0.650284  0.650153  0.650153  1
  Er  Er6  1  0.048477  0.650508  0.650508  1
  Er  Er7  1  0.438491  0.061088  0.061088  1
  Er  Er8  1  0.650284  0.650153  0.049410  1
  Er  Er9  1  0.191075  0.808959  0.808959  1
  Er  Er10  1  0.809369  0.190650  0.809331  1
  Er  Er11  1  0.809369  0.190650  0.190650  1
  Er  Er12  1  0.809369  0.809331  0.190650  1
  Er  Er13  1  0.059141  0.438697  0.438697  1
  Er  Er14  1  0.438491  0.439332  0.061088  1
  Er  Er15  1  0.059141  0.438697  0.063465  1
  In  In16  1  0.416848  0.416882  0.749387  1
  In  In17  1  0.416848  0.749387  0.416882  1
  In  In18  1  0.416848  0.416882  0.416882  1
  Hg  Hg19  1  0.756265  0.414578  0.414578  1
  Ir  Ir20  1  0.858264  0.858751  0.858751  1
  Ir  Ir21  1  0.424843  0.858386  0.858386  1
  Ir  Ir22  1  0.858264  0.858751  0.424235  1
  Ir  Ir23  1  0.858264  0.424235  0.858751  1
