# generated using pymatgen
data_CeTm7(Si3Pt)4
_symmetry_space_group_name_H-M   'P 1'
_cell_length_a   8.15483700
_cell_length_b   8.17236790
_cell_length_c   7.84454200
_cell_angle_alpha   90.00000000
_cell_angle_beta   90.00000000
_cell_angle_gamma   119.92906052
_symmetry_Int_Tables_number   1
_chemical_formula_structural   CeTm7(Si3Pt)4
_chemical_formula_sum   'Ce1 Tm7 Si12 Pt4'
_cell_volume   453.07638083
_cell_formula_units_Z   1
loop_
 _symmetry_equiv_pos_site_id
 _symmetry_equiv_pos_as_xyz
  1  'x, y, z'
loop_
 _atom_site_type_symbol
 _atom_site_label
 _atom_site_symmetry_multiplicity
 _atom_site_fract_x
 _atom_site_fract_y
 _atom_site_fract_z
 _atom_site_occupancy
  Ce  Ce0  1  0.509745  0.019489  0.250000  1
  Tm  Tm1  1  0.489788  0.979577  0.750000  1
  Tm  Tm2  1  0.980476  0.489847  0.250000  1
  Tm  Tm3  1  0.022489  0.510597  0.750000  1
  Tm  Tm4  1  0.509372  0.489847  0.250000  1
  Tm  Tm5  1  0.488108  0.510597  0.750000  1
  Tm  Tm6  1  0.000013  0.000026  0.250000  1
  Tm  Tm7  1  0.999872  0.999745  0.750000  1
  Si  Si8  1  0.163990  0.327979  0.001357  1
  Si  Si9  1  0.835366  0.670733  0.998171  1
  Si  Si10  1  0.670206  0.835186  0.001114  1
  Si  Si11  1  0.835366  0.670733  0.501829  1
  Si  Si12  1  0.330831  0.165564  0.996439  1
  Si  Si13  1  0.163990  0.327979  0.498643  1
  Si  Si14  1  0.164981  0.835186  0.001114  1
  Si  Si15  1  0.330831  0.165564  0.503561  1
  Si  Si16  1  0.834732  0.165564  0.996439  1
  Si  Si17  1  0.670206  0.835186  0.498886  1
  Si  Si18  1  0.834732  0.165564  0.503561  1
  Si  Si19  1  0.164981  0.835186  0.498886  1
  Pt  Pt20  1  0.331372  0.662746  0.028627  1
  Pt  Pt21  1  0.668591  0.337180  0.958188  1
  Pt  Pt22  1  0.668591  0.337180  0.541812  1
  Pt  Pt23  1  0.331372  0.662746  0.471373  1
