# generated using pymatgen
data_Th2Ni7B2Ir
_symmetry_space_group_name_H-M   'P 1'
_cell_length_a   5.11838358
_cell_length_b   5.11838418
_cell_length_c   7.15691900
_cell_angle_alpha   90.00000000
_cell_angle_beta   90.00000000
_cell_angle_gamma   120.77674086
_symmetry_Int_Tables_number   1
_chemical_formula_structural   Th2Ni7B2Ir
_chemical_formula_sum   'Th2 Ni7 B2 Ir1'
_cell_volume   161.09043279
_cell_formula_units_Z   1
loop_
 _symmetry_equiv_pos_site_id
 _symmetry_equiv_pos_as_xyz
  1  'x, y, z'
loop_
 _atom_site_type_symbol
 _atom_site_label
 _atom_site_symmetry_multiplicity
 _atom_site_fract_x
 _atom_site_fract_y
 _atom_site_fract_z
 _atom_site_occupancy
  Th  Th0  1  0.000000  0.000000  0.505651  1
  Th  Th1  1  0.000000  0.000000  0.007176  1
  Ni  Ni2  1  0.324948  0.675052  0.994701  1
  Ni  Ni3  1  0.675052  0.324948  0.994701  1
  Ni  Ni4  1  0.500000  0.000000  0.290886  1
  Ni  Ni5  1  0.000000  0.500000  0.290886  1
  Ni  Ni6  1  0.500000  0.000000  0.707196  1
  Ni  Ni7  1  0.500000  0.500000  0.712284  1
  Ni  Ni8  1  0.000000  0.500000  0.707196  1
  B  B9  1  0.670198  0.329802  0.501371  1
  B  B10  1  0.329802  0.670198  0.501371  1
  Ir  Ir11  1  0.500000  0.500000  0.286581  1
