# generated using pymatgen
data_Yb3DyEr2(CoSn6)2
_symmetry_space_group_name_H-M   'P 1'
_cell_length_a   8.37477049
_cell_length_b   8.37477078
_cell_length_c   13.23132137
_cell_angle_alpha   90.05176090
_cell_angle_beta   89.94824004
_cell_angle_gamma   147.91107312
_symmetry_Int_Tables_number   1
_chemical_formula_structural   Yb3DyEr2(CoSn6)2
_chemical_formula_sum   'Yb3 Dy1 Er2 Co2 Sn12'
_cell_volume   492.98695735
_cell_formula_units_Z   1
loop_
 _symmetry_equiv_pos_site_id
 _symmetry_equiv_pos_as_xyz
  1  'x, y, z'
loop_
 _atom_site_type_symbol
 _atom_site_label
 _atom_site_symmetry_multiplicity
 _atom_site_fract_x
 _atom_site_fract_y
 _atom_site_fract_z
 _atom_site_occupancy
  Yb  Yb0  1  0.100202  0.899798  0.597812  1
  Yb  Yb1  1  0.100684  0.899316  0.902699  1
  Yb  Yb2  1  0.900092  0.099908  0.401562  1
  Dy  Dy3  1  0.898495  0.101505  0.095759  1
  Er  Er4  1  0.901299  0.098701  0.754250  1
  Er  Er5  1  0.098735  0.901265  0.247425  1
  Co  Co6  1  0.298671  0.701329  0.249430  1
  Co  Co7  1  0.703544  0.296456  0.750437  1
  Sn  Sn8  1  0.759191  0.240809  0.572216  1
  Sn  Sn9  1  0.424830  0.575170  0.578605  1
  Sn  Sn10  1  0.573636  0.426364  0.422123  1
  Sn  Sn11  1  0.732401  0.267599  0.248728  1
  Sn  Sn12  1  0.268428  0.731572  0.750277  1
  Sn  Sn13  1  0.241393  0.758607  0.072046  1
  Sn  Sn14  1  0.241883  0.758117  0.427323  1
  Sn  Sn15  1  0.572920  0.427080  0.075314  1
  Sn  Sn16  1  0.455294  0.544706  0.248217  1
  Sn  Sn17  1  0.545038  0.454962  0.750486  1
  Sn  Sn18  1  0.757470  0.242530  0.929632  1
  Sn  Sn19  1  0.425799  0.574201  0.925659  1
