# generated using pymatgen
data_TmTa5(ReSi)6
_symmetry_space_group_name_H-M   'P 1'
_cell_length_a   7.62019923
_cell_length_b   7.58610318
_cell_length_c   7.62020036
_cell_angle_alpha   127.01863252
_cell_angle_beta   124.80069082
_cell_angle_gamma   80.16166676
_symmetry_Int_Tables_number   1
_chemical_formula_structural   TmTa5(ReSi)6
_chemical_formula_sum   'Tm1 Ta5 Re6 Si6'
_cell_volume   278.60434821
_cell_formula_units_Z   1
loop_
 _symmetry_equiv_pos_site_id
 _symmetry_equiv_pos_as_xyz
  1  'x, y, z'
loop_
 _atom_site_type_symbol
 _atom_site_label
 _atom_site_symmetry_multiplicity
 _atom_site_fract_x
 _atom_site_fract_y
 _atom_site_fract_z
 _atom_site_occupancy
  Tm  Tm0  1  0.534779  0.061427  0.026649  1
  Ta  Ta1  1  0.462819  0.496307  0.533488  1
  Ta  Ta2  1  0.944532  0.483567  0.039035  1
  Ta  Ta3  1  0.054558  0.102670  0.548112  1
  Ta  Ta4  1  0.744787  0.906894  0.662107  1
  Ta  Ta5  1  0.252930  0.910594  0.157664  1
  Re  Re6  1  0.484600  0.247221  0.729631  1
  Re  Re7  1  0.017590  0.247221  0.262621  1
  Re  Re8  1  0.083078  0.748857  0.582307  1
  Re  Re9  1  0.900865  0.498173  0.650478  1
  Re  Re10  1  0.666550  0.748857  0.165779  1
  Re  Re11  1  0.347695  0.498173  0.097308  1
  Si  Si12  1  0.731355  0.475240  0.243885  1
  Si  Si13  1  0.279974  0.549313  0.769339  1
  Si  Si14  1  0.320276  0.822585  0.478919  1
  Si  Si15  1  0.673432  0.161257  0.504741  1
  Si  Si16  1  0.843665  0.822585  0.002308  1
  Si  Si17  1  0.156516  0.161257  0.987825  1
