# generated using pymatgen
data_Hf6Al16Cu2Ir4Rh
_symmetry_space_group_name_H-M   'P 1'
_cell_length_a   8.66074049
_cell_length_b   8.70320088
_cell_length_c   8.66072600
_cell_angle_alpha   59.83614406
_cell_angle_beta   60.32513719
_cell_angle_gamma   59.83599044
_symmetry_Int_Tables_number   1
_chemical_formula_structural   Hf6Al16Cu2Ir4Rh
_chemical_formula_sum   'Hf6 Al16 Cu2 Ir4 Rh1'
_cell_volume   461.57599409
_cell_formula_units_Z   1
loop_
 _symmetry_equiv_pos_site_id
 _symmetry_equiv_pos_as_xyz
  1  'x, y, z'
loop_
 _atom_site_type_symbol
 _atom_site_label
 _atom_site_symmetry_multiplicity
 _atom_site_fract_x
 _atom_site_fract_y
 _atom_site_fract_z
 _atom_site_occupancy
  Hf  Hf0  1  0.691651  0.308341  0.308372  1
  Hf  Hf1  1  0.308349  0.691659  0.691628  1
  Hf  Hf2  1  0.327492  0.672516  0.327492  1
  Hf  Hf3  1  0.672508  0.327484  0.672508  1
  Hf  Hf4  1  0.308373  0.308341  0.691650  1
  Hf  Hf5  1  0.691627  0.691659  0.308350  1
  Al  Al6  1  0.338437  0.330816  0.338437  1
  Al  Al7  1  0.661563  0.669184  0.661563  1
  Al  Al8  1  0.330779  0.338416  0.992376  1
  Al  Al9  1  0.338396  0.992403  0.338396  1
  Al  Al10  1  0.669221  0.661584  0.007624  1
  Al  Al11  1  0.661604  0.007597  0.661604  1
  Al  Al12  1  0.992376  0.338416  0.330779  1
  Al  Al13  1  0.007624  0.661584  0.669221  1
  Al  Al14  1  0.124522  0.109709  0.124522  1
  Al  Al15  1  0.875478  0.890291  0.875478  1
  Al  Al16  1  0.109698  0.124580  0.641215  1
  Al  Al17  1  0.124555  0.641228  0.124555  1
  Al  Al18  1  0.890302  0.875420  0.358785  1
  Al  Al19  1  0.875445  0.358772  0.875445  1
  Al  Al20  1  0.641215  0.124580  0.109699  1
  Al  Al21  1  0.358785  0.875420  0.890301  1
  Cu  Cu22  1  0.000000  0.500000  0.000000  1
  Cu  Cu23  1  0.500000  0.000000  0.500000  1
  Ir  Ir24  1  0.500000  0.000000  0.000000  1
  Ir  Ir25  1  0.000000  0.500000  0.500000  1
  Ir  Ir26  1  0.000000  0.000000  0.500000  1
  Ir  Ir27  1  0.500000  0.500000  0.000000  1
  Rh  Rh28  1  0.000000  0.000000  0.000000  1
