# generated using pymatgen
data_Er8In3Os
_symmetry_space_group_name_H-M   'P 1'
_cell_length_a   10.32017400
_cell_length_b   10.32017363
_cell_length_c   7.02062700
_cell_angle_alpha   90.00000000
_cell_angle_beta   90.00000000
_cell_angle_gamma   119.99999479
_symmetry_Int_Tables_number   1
_chemical_formula_structural   Er8In3Os
_chemical_formula_sum   'Er16 In6 Os2'
_cell_volume   647.56084028
_cell_formula_units_Z   2
loop_
 _symmetry_equiv_pos_site_id
 _symmetry_equiv_pos_as_xyz
  1  'x, y, z'
loop_
 _atom_site_type_symbol
 _atom_site_label
 _atom_site_symmetry_multiplicity
 _atom_site_fract_x
 _atom_site_fract_y
 _atom_site_fract_z
 _atom_site_occupancy
  Er  Er0  1  0.533074  0.066148  0.793735  1
  Er  Er1  1  0.933852  0.466926  0.793735  1
  Er  Er2  1  0.533074  0.466926  0.793735  1
  Er  Er3  1  0.466926  0.933852  0.293735  1
  Er  Er4  1  0.066148  0.533074  0.293735  1
  Er  Er5  1  0.466926  0.533074  0.293735  1
  Er  Er6  1  0.822761  0.645522  0.499307  1
  Er  Er7  1  0.354478  0.177239  0.499307  1
  Er  Er8  1  0.822761  0.177239  0.499307  1
  Er  Er9  1  0.177239  0.354478  0.999307  1
  Er  Er10  1  0.645522  0.822761  0.999307  1
  Er  Er11  1  0.177239  0.822761  0.999307  1
  Er  Er12  1  0.666667  0.333333  0.172628  1
  Er  Er13  1  0.333333  0.666667  0.672628  1
  Er  Er14  1  0.000000  0.000000  0.778508  1
  Er  Er15  1  0.000000  0.000000  0.278508  1
  In  In16  1  0.837028  0.674057  0.038728  1
  In  In17  1  0.325943  0.162972  0.038728  1
  In  In18  1  0.837028  0.162972  0.038728  1
  In  In19  1  0.162972  0.325943  0.538728  1
  In  In20  1  0.674057  0.837028  0.538728  1
  In  In21  1  0.162972  0.837028  0.538728  1
  Os  Os22  1  0.666667  0.333333  0.571506  1
  Os  Os23  1  0.333333  0.666667  0.071506  1
