# generated using pymatgen
data_MgSc2Al3Si2Ir
_symmetry_space_group_name_H-M   'P 1'
_cell_length_a   6.64271800
_cell_length_b   6.61327550
_cell_length_c   4.07839400
_cell_angle_alpha   90.00000000
_cell_angle_beta   90.00000000
_cell_angle_gamma   120.14738158
_symmetry_Int_Tables_number   1
_chemical_formula_structural   MgSc2Al3Si2Ir
_chemical_formula_sum   'Mg1 Sc2 Al3 Si2 Ir1'
_cell_volume   154.92993802
_cell_formula_units_Z   1
loop_
 _symmetry_equiv_pos_site_id
 _symmetry_equiv_pos_as_xyz
  1  'x, y, z'
loop_
 _atom_site_type_symbol
 _atom_site_label
 _atom_site_symmetry_multiplicity
 _atom_site_fract_x
 _atom_site_fract_y
 _atom_site_fract_z
 _atom_site_occupancy
  Mg  Mg0  1  0.414113  0.000000  0.000000  1
  Sc  Sc1  1  0.000252  0.421408  0.000000  1
  Sc  Sc2  1  0.578843  0.578592  0.000000  1
  Al  Al3  1  0.760651  0.000000  0.500000  1
  Al  Al4  1  0.238940  0.240599  0.500000  1
  Al  Al5  1  0.998342  0.759401  0.500000  1
  Si  Si6  1  0.670639  0.334723  0.500000  1
  Si  Si7  1  0.335916  0.665277  0.500000  1
  Ir  Ir8  1  0.002302  0.000000  0.000000  1
