# generated using pymatgen
data_Yb3Er3Ge2BO13
_symmetry_space_group_name_H-M   'P 1'
_cell_length_a   7.34903367
_cell_length_b   7.34903428
_cell_length_c   7.35000324
_cell_angle_alpha   60.19329488
_cell_angle_beta   60.19329157
_cell_angle_gamma   90.30912260
_symmetry_Int_Tables_number   1
_chemical_formula_structural   Yb3Er3Ge2BO13
_chemical_formula_sum   'Yb3 Er3 Ge2 B1 O13'
_cell_volume   281.57298997
_cell_formula_units_Z   1
loop_
 _symmetry_equiv_pos_site_id
 _symmetry_equiv_pos_as_xyz
  1  'x, y, z'
loop_
 _atom_site_type_symbol
 _atom_site_label
 _atom_site_symmetry_multiplicity
 _atom_site_fract_x
 _atom_site_fract_y
 _atom_site_fract_z
 _atom_site_occupancy
  Yb  Yb0  1  0.771644  0.768307  0.459395  1
  Yb  Yb1  1  0.230008  0.769992  0.000000  1
  Yb  Yb2  1  0.231693  0.228356  0.540605  1
  Er  Er3  1  0.228683  0.223991  0.999532  1
  Er  Er4  1  0.773816  0.226184  0.000000  1
  Er  Er5  1  0.776009  0.771317  0.000468  1
  Ge  Ge6  1  0.746382  0.253618  0.500000  1
  Ge  Ge7  1  0.247041  0.752959  0.500000  1
  B  B8  1  0.502154  0.497846  0.000000  1
  O  O9  1  0.993438  0.006562  0.000000  1
  O  O10  1  0.416059  0.570702  0.840871  1
  O  O11  1  0.423457  0.248067  0.159557  1
  O  O12  1  0.429298  0.583941  0.159129  1
  O  O13  1  0.751933  0.576543  0.840443  1
  O  O14  1  0.151807  0.856327  0.297398  1
  O  O15  1  0.147049  0.451860  0.704033  1
  O  O16  1  0.143673  0.848193  0.702602  1
  O  O17  1  0.548140  0.852951  0.295967  1
  O  O18  1  0.840685  0.149756  0.702359  1
  O  O19  1  0.844250  0.547463  0.298291  1
  O  O20  1  0.850244  0.159315  0.297641  1
  O  O21  1  0.452537  0.155750  0.701709  1
