# generated using pymatgen
data_Sr8PrPd6
_symmetry_space_group_name_H-M   'P 1'
_cell_length_a   8.13480692
_cell_length_b   8.13480691
_cell_length_c   8.13480627
_cell_angle_alpha   71.98232660
_cell_angle_beta   71.98232982
_cell_angle_gamma   71.98232493
_symmetry_Int_Tables_number   1
_chemical_formula_structural   Sr8PrPd6
_chemical_formula_sum   'Sr8 Pr1 Pd6'
_cell_volume   473.03928810
_cell_formula_units_Z   1
loop_
 _symmetry_equiv_pos_site_id
 _symmetry_equiv_pos_as_xyz
  1  'x, y, z'
loop_
 _atom_site_type_symbol
 _atom_site_label
 _atom_site_symmetry_multiplicity
 _atom_site_fract_x
 _atom_site_fract_y
 _atom_site_fract_z
 _atom_site_occupancy
  Sr  Sr0  1  0.340803  0.825462  0.110838  1
  Sr  Sr1  1  0.889161  0.659197  0.174538  1
  Sr  Sr2  1  0.294203  0.294203  0.294203  1
  Sr  Sr3  1  0.825462  0.110837  0.340803  1
  Sr  Sr4  1  0.174537  0.889162  0.659196  1
  Sr  Sr5  1  0.705796  0.705796  0.705796  1
  Sr  Sr6  1  0.110838  0.340803  0.825462  1
  Sr  Sr7  1  0.659196  0.174538  0.889162  1
  Pr  Pr8  1  0.500000  0.500000  0.500000  1
  Pd  Pd9  1  0.634220  0.463169  0.105050  1
  Pd  Pd10  1  0.536830  0.894949  0.365780  1
  Pd  Pd11  1  0.105051  0.634219  0.463169  1
  Pd  Pd12  1  0.894949  0.365780  0.536831  1
  Pd  Pd13  1  0.463170  0.105050  0.634219  1
  Pd  Pd14  1  0.365779  0.536831  0.894950  1
