# generated using pymatgen
data_Y3Ho2Er3(CdIr)2
_symmetry_space_group_name_H-M   'P 1'
_cell_length_a   9.60633462
_cell_length_b   9.60633499
_cell_length_c   9.60633600
_cell_angle_alpha   60.00000343
_cell_angle_beta   60.00000214
_cell_angle_gamma   60.00000271
_symmetry_Int_Tables_number   1
_chemical_formula_structural   Y3Ho2Er3(CdIr)2
_chemical_formula_sum   'Y6 Ho4 Er6 Cd4 Ir4'
_cell_volume   626.84222022
_cell_formula_units_Z   2
loop_
 _symmetry_equiv_pos_site_id
 _symmetry_equiv_pos_as_xyz
  1  'x, y, z'
loop_
 _atom_site_type_symbol
 _atom_site_label
 _atom_site_symmetry_multiplicity
 _atom_site_fract_x
 _atom_site_fract_y
 _atom_site_fract_z
 _atom_site_occupancy
  Y  Y0  1  0.938741  0.561259  0.561259  1
  Y  Y1  1  0.561259  0.938741  0.938741  1
  Y  Y2  1  0.561259  0.938741  0.561259  1
  Y  Y3  1  0.938741  0.561259  0.938741  1
  Y  Y4  1  0.561259  0.561259  0.938741  1
  Y  Y5  1  0.938741  0.938741  0.561259  1
  Ho  Ho6  1  0.348744  0.348744  0.348744  1
  Ho  Ho7  1  0.348744  0.348744  0.953768  1
  Ho  Ho8  1  0.348744  0.953768  0.348744  1
  Ho  Ho9  1  0.953768  0.348744  0.348744  1
  Er  Er10  1  0.811050  0.188950  0.188950  1
  Er  Er11  1  0.188950  0.811050  0.811050  1
  Er  Er12  1  0.188950  0.811050  0.188950  1
  Er  Er13  1  0.811050  0.188950  0.811050  1
  Er  Er14  1  0.188950  0.188950  0.811050  1
  Er  Er15  1  0.811050  0.811050  0.188950  1
  Cd  Cd16  1  0.580638  0.580638  0.580638  1
  Cd  Cd17  1  0.580638  0.580638  0.258086  1
  Cd  Cd18  1  0.580638  0.258086  0.580638  1
  Cd  Cd19  1  0.258086  0.580638  0.580638  1
  Ir  Ir20  1  0.141423  0.141423  0.141423  1
  Ir  Ir21  1  0.141423  0.141423  0.575731  1
  Ir  Ir22  1  0.141423  0.575731  0.141423  1
  Ir  Ir23  1  0.575731  0.141423  0.141423  1
