# generated using pymatgen
data_Li6PaTlO6
_symmetry_space_group_name_H-M   'P 1'
_cell_length_a   5.60318891
_cell_length_b   5.60318931
_cell_length_c   5.60318900
_cell_angle_alpha   101.09899938
_cell_angle_beta   101.09900017
_cell_angle_gamma   101.09900120
_symmetry_Int_Tables_number   1
_chemical_formula_structural   Li6PaTlO6
_chemical_formula_sum   'Li6 Pa1 Tl1 O6'
_cell_volume   164.51296189
_cell_formula_units_Z   1
loop_
 _symmetry_equiv_pos_site_id
 _symmetry_equiv_pos_as_xyz
  1  'x, y, z'
loop_
 _atom_site_type_symbol
 _atom_site_label
 _atom_site_symmetry_multiplicity
 _atom_site_fract_x
 _atom_site_fract_y
 _atom_site_fract_z
 _atom_site_occupancy
  Li  Li0  1  0.648480  0.351521  0.000000  1
  Li  Li1  1  0.351521  0.648480  0.000000  1
  Li  Li2  1  0.648480  0.000000  0.351521  1
  Li  Li3  1  0.000000  0.648480  0.351521  1
  Li  Li4  1  0.351522  0.000000  0.648480  1
  Li  Li5  1  0.000000  0.351522  0.648480  1
  Pa  Pa6  1  0.000000  0.000000  0.000000  1
  Tl  Tl7  1  0.500000  0.500000  0.500000  1
  O  O8  1  0.724869  0.724869  0.105576  1
  O  O9  1  0.894424  0.275132  0.275131  1
  O  O10  1  0.275132  0.894424  0.275131  1
  O  O11  1  0.724869  0.105577  0.724869  1
  O  O12  1  0.105577  0.724869  0.724869  1
  O  O13  1  0.275131  0.275131  0.894424  1
