# generated using pymatgen
data_Y2Er3Sn3Sb
_symmetry_space_group_name_H-M   'P 1'
_cell_length_a   8.08208100
_cell_length_b   8.11617900
_cell_length_c   15.28635400
_cell_angle_alpha   90.00000000
_cell_angle_beta   90.00000000
_cell_angle_gamma   90.00000000
_symmetry_Int_Tables_number   1
_chemical_formula_structural   Y2Er3Sn3Sb
_chemical_formula_sum   'Y8 Er12 Sn12 Sb4'
_cell_volume   1002.71780838
_cell_formula_units_Z   4
loop_
 _symmetry_equiv_pos_site_id
 _symmetry_equiv_pos_as_xyz
  1  'x, y, z'
loop_
 _atom_site_type_symbol
 _atom_site_label
 _atom_site_symmetry_multiplicity
 _atom_site_fract_x
 _atom_site_fract_y
 _atom_site_fract_z
 _atom_site_occupancy
  Y  Y0  1  0.531614  0.324747  0.899462  1
  Y  Y1  1  0.031614  0.175253  0.600538  1
  Y  Y2  1  0.468386  0.675253  0.399462  1
  Y  Y3  1  0.968386  0.824747  0.100538  1
  Y  Y4  1  0.476421  0.676783  0.099102  1
  Y  Y5  1  0.976421  0.823217  0.400898  1
  Y  Y6  1  0.523579  0.323217  0.599102  1
  Y  Y7  1  0.023579  0.176783  0.900898  1
  Er  Er8  1  0.370358  0.838746  0.876747  1
  Er  Er9  1  0.870358  0.661254  0.623253  1
  Er  Er10  1  0.629642  0.161254  0.376747  1
  Er  Er11  1  0.129642  0.338746  0.123253  1
  Er  Er12  1  0.632340  0.162794  0.123042  1
  Er  Er13  1  0.132340  0.337206  0.376958  1
  Er  Er14  1  0.367660  0.837206  0.623042  1
  Er  Er15  1  0.867660  0.662794  0.876958  1
  Er  Er16  1  0.197354  0.501593  0.748521  1
  Er  Er17  1  0.697354  0.998407  0.751479  1
  Er  Er18  1  0.802646  0.498407  0.248521  1
  Er  Er19  1  0.302646  0.001593  0.251479  1
  Sn  Sn20  1  0.709550  0.964367  0.957942  1
  Sn  Sn21  1  0.209550  0.535633  0.542058  1
  Sn  Sn22  1  0.290450  0.035633  0.457942  1
  Sn  Sn23  1  0.790450  0.464367  0.042058  1
  Sn  Sn24  1  0.564493  0.621282  0.749517  1
  Sn  Sn25  1  0.064493  0.878718  0.750483  1
  Sn  Sn26  1  0.435507  0.378718  0.249517  1
  Sn  Sn27  1  0.935507  0.121282  0.250483  1
  Sn  Sn28  1  0.333621  0.147695  0.750308  1
  Sn  Sn29  1  0.833621  0.352305  0.749692  1
  Sn  Sn30  1  0.666379  0.852305  0.250308  1
  Sn  Sn31  1  0.166379  0.647695  0.249692  1
  Sb  Sb32  1  0.286620  0.034707  0.042944  1
  Sb  Sb33  1  0.786620  0.465293  0.457056  1
  Sb  Sb34  1  0.713380  0.965293  0.542944  1
  Sb  Sb35  1  0.213380  0.534707  0.957056  1
