# generated using pymatgen
data_Eu4Ga18TcPt5
_symmetry_space_group_name_H-M   'P 1'
_cell_length_a   7.74707248
_cell_length_b   7.74727371
_cell_length_c   9.78627226
_cell_angle_alpha   90.12266351
_cell_angle_beta   90.12234667
_cell_angle_gamma   119.86445515
_symmetry_Int_Tables_number   1
_chemical_formula_structural   Eu4Ga18TcPt5
_chemical_formula_sum   'Eu4 Ga18 Tc1 Pt5'
_cell_volume   509.35672919
_cell_formula_units_Z   1
loop_
 _symmetry_equiv_pos_site_id
 _symmetry_equiv_pos_as_xyz
  1  'x, y, z'
loop_
 _atom_site_type_symbol
 _atom_site_label
 _atom_site_symmetry_multiplicity
 _atom_site_fract_x
 _atom_site_fract_y
 _atom_site_fract_z
 _atom_site_occupancy
  Eu  Eu0  1  0.666543  0.995816  0.251062  1
  Eu  Eu1  1  0.004180  0.333470  0.748945  1
  Eu  Eu2  1  0.998165  0.670090  0.249926  1
  Eu  Eu3  1  0.329906  0.001839  0.750050  1
  Ga  Ga4  1  0.666663  0.006205  0.923864  1
  Ga  Ga5  1  0.131361  0.133244  0.250528  1
  Ga  Ga6  1  0.000627  0.334967  0.421550  1
  Ga  Ga7  1  0.334054  0.334362  0.565587  1
  Ga  Ga8  1  0.337468  0.540275  0.249932  1
  Ga  Ga9  1  0.459717  0.662580  0.750067  1
  Ga  Ga10  1  0.866822  0.868653  0.749471  1
  Ga  Ga11  1  0.667345  0.660813  0.058977  1
  Ga  Ga12  1  0.665589  0.665949  0.434441  1
  Ga  Ga13  1  0.998616  0.667286  0.580169  1
  Ga  Ga14  1  0.994660  0.660124  0.924378  1
  Ga  Ga15  1  0.332769  0.001440  0.419895  1
  Ga  Ga16  1  0.661193  0.452984  0.753560  1
  Ga  Ga17  1  0.546949  0.338735  0.246447  1
  Ga  Ga18  1  0.339185  0.332606  0.941005  1
  Ga  Ga19  1  0.339936  0.005396  0.075567  1
  Ga  Ga20  1  0.664978  0.999368  0.578475  1
  Ga  Ga21  1  0.993814  0.333291  0.076108  1
  Tc  Tc22  1  0.670371  0.329605  0.999985  1
  Pt  Pt23  1  0.330159  0.669855  0.500006  1
  Pt  Pt24  1  0.330444  0.669564  0.999996  1
  Pt  Pt25  1  0.669109  0.330867  0.500007  1
  Pt  Pt26  1  0.999801  0.000201  0.999999  1
  Pt  Pt27  1  0.999577  0.000412  0.500004  1
