# generated using pymatgen
data_Hf6Al16Cu4OsRu2
_symmetry_space_group_name_H-M   'P 1'
_cell_length_a   8.67002801
_cell_length_b   8.67002856
_cell_length_c   8.59805500
_cell_angle_alpha   60.27422716
_cell_angle_beta   60.27422507
_cell_angle_gamma   59.45334500
_symmetry_Int_Tables_number   1
_chemical_formula_structural   Hf6Al16Cu4OsRu2
_chemical_formula_sum   'Hf6 Al16 Cu4 Os1 Ru2'
_cell_volume   456.95458589
_cell_formula_units_Z   1
loop_
 _symmetry_equiv_pos_site_id
 _symmetry_equiv_pos_as_xyz
  1  'x, y, z'
loop_
 _atom_site_type_symbol
 _atom_site_label
 _atom_site_symmetry_multiplicity
 _atom_site_fract_x
 _atom_site_fract_y
 _atom_site_fract_z
 _atom_site_occupancy
  Hf  Hf0  1  0.688080  0.311920  0.313786  1
  Hf  Hf1  1  0.311920  0.688080  0.686214  1
  Hf  Hf2  1  0.311920  0.688080  0.313786  1
  Hf  Hf3  1  0.688080  0.311920  0.686214  1
  Hf  Hf4  1  0.302746  0.302746  0.697254  1
  Hf  Hf5  1  0.697254  0.697254  0.302746  1
  Al  Al6  1  0.335030  0.335030  0.335559  1
  Al  Al7  1  0.664970  0.664970  0.664441  1
  Al  Al8  1  0.335030  0.335030  0.994380  1
  Al  Al9  1  0.337817  0.995395  0.333394  1
  Al  Al10  1  0.664970  0.664970  0.005620  1
  Al  Al11  1  0.662183  0.004605  0.666606  1
  Al  Al12  1  0.995395  0.337817  0.333394  1
  Al  Al13  1  0.004605  0.662183  0.666606  1
  Al  Al14  1  0.115335  0.115335  0.125731  1
  Al  Al15  1  0.884665  0.884665  0.874269  1
  Al  Al16  1  0.115335  0.115335  0.643600  1
  Al  Al17  1  0.126739  0.643992  0.114634  1
  Al  Al18  1  0.884665  0.884665  0.356400  1
  Al  Al19  1  0.873261  0.356008  0.885366  1
  Al  Al20  1  0.643992  0.126739  0.114634  1
  Al  Al21  1  0.356008  0.873261  0.885366  1
  Cu  Cu22  1  0.500000  0.000000  0.000000  1
  Cu  Cu23  1  0.000000  0.500000  0.500000  1
  Cu  Cu24  1  0.000000  0.500000  0.000000  1
  Cu  Cu25  1  0.500000  0.000000  0.500000  1
  Os  Os26  1  0.000000  0.000000  0.500000  1
  Ru  Ru27  1  0.500000  0.500000  0.000000  1
  Ru  Ru28  1  0.000000  0.000000  0.000000  1
