# generated using pymatgen
data_Zr4AlRe2Os5
_symmetry_space_group_name_H-M   'P 1'
_cell_length_a   5.29413532
_cell_length_b   5.24317943
_cell_length_c   8.55221570
_cell_angle_alpha   90.00000293
_cell_angle_beta   89.70745018
_cell_angle_gamma   119.68211385
_symmetry_Int_Tables_number   1
_chemical_formula_structural   Zr4AlRe2Os5
_chemical_formula_sum   'Zr4 Al1 Re2 Os5'
_cell_volume   206.24042162
_cell_formula_units_Z   1
loop_
 _symmetry_equiv_pos_site_id
 _symmetry_equiv_pos_as_xyz
  1  'x, y, z'
loop_
 _atom_site_type_symbol
 _atom_site_label
 _atom_site_symmetry_multiplicity
 _atom_site_fract_x
 _atom_site_fract_y
 _atom_site_fract_z
 _atom_site_occupancy
  Zr  Zr0  1  0.333238  0.668167  0.426809  1
  Zr  Zr1  1  0.666994  0.331395  0.942403  1
  Zr  Zr2  1  0.666762  0.334928  0.573191  1
  Zr  Zr3  1  0.333006  0.664402  0.057597  1
  Al  Al4  1  0.000000  0.002247  0.500000  1
  Re  Re5  1  0.825830  0.652369  0.249874  1
  Re  Re6  1  0.174170  0.826538  0.750126  1
  Os  Os7  1  0.168787  0.341272  0.745940  1
  Os  Os8  1  0.831213  0.172485  0.254060  1
  Os  Os9  1  0.342551  0.171781  0.251454  1
  Os  Os10  1  0.657449  0.829229  0.748546  1
  Os  Os11  1  0.000000  0.005188  0.000000  1
