# generated using pymatgen
data_Y4TcRuC4
_symmetry_space_group_name_H-M   'P 1'
_cell_length_a   5.12390100
_cell_length_b   6.53880300
_cell_length_c   9.85450900
_cell_angle_alpha   90.00000000
_cell_angle_beta   90.00000000
_cell_angle_gamma   90.00000000
_symmetry_Int_Tables_number   1
_chemical_formula_structural   Y4TcRuC4
_chemical_formula_sum   'Y8 Tc2 Ru2 C8'
_cell_volume   330.16723576
_cell_formula_units_Z   2
loop_
 _symmetry_equiv_pos_site_id
 _symmetry_equiv_pos_as_xyz
  1  'x, y, z'
loop_
 _atom_site_type_symbol
 _atom_site_label
 _atom_site_symmetry_multiplicity
 _atom_site_fract_x
 _atom_site_fract_y
 _atom_site_fract_z
 _atom_site_occupancy
  Y  Y0  1  0.750000  0.820216  0.056606  1
  Y  Y1  1  0.250000  0.679784  0.556606  1
  Y  Y2  1  0.750000  0.323616  0.444328  1
  Y  Y3  1  0.250000  0.176384  0.944328  1
  Y  Y4  1  0.750000  0.470387  0.784255  1
  Y  Y5  1  0.250000  0.029613  0.284255  1
  Y  Y6  1  0.750000  0.968475  0.715812  1
  Y  Y7  1  0.250000  0.531525  0.215812  1
  Tc  Tc8  1  0.750000  0.278663  0.135391  1
  Tc  Tc9  1  0.250000  0.221337  0.635391  1
  Ru  Ru10  1  0.750000  0.778587  0.365018  1
  Ru  Ru11  1  0.250000  0.721413  0.865018  1
  C  C12  1  0.750000  0.178178  0.950458  1
  C  C13  1  0.250000  0.822910  0.049669  1
  C  C14  1  0.750000  0.677090  0.549669  1
  C  C15  1  0.250000  0.321822  0.450458  1
  C  C16  1  0.750000  0.045185  0.257769  1
  C  C17  1  0.250000  0.454815  0.757769  1
  C  C18  1  0.750000  0.544413  0.240695  1
  C  C19  1  0.250000  0.955587  0.740695  1
