# generated using pymatgen
data_BaIn2Au5
_symmetry_space_group_name_H-M   'P 1'
_cell_length_a   7.48590500
_cell_length_b   9.42047800
_cell_length_c   10.83718900
_cell_angle_alpha   90.00000000
_cell_angle_beta   90.00000000
_cell_angle_gamma   90.00000000
_symmetry_Int_Tables_number   1
_chemical_formula_structural   BaIn2Au5
_chemical_formula_sum   'Ba4 In8 Au20'
_cell_volume   764.24727447
_cell_formula_units_Z   4
loop_
 _symmetry_equiv_pos_site_id
 _symmetry_equiv_pos_as_xyz
  1  'x, y, z'
loop_
 _atom_site_type_symbol
 _atom_site_label
 _atom_site_symmetry_multiplicity
 _atom_site_fract_x
 _atom_site_fract_y
 _atom_site_fract_z
 _atom_site_occupancy
  Ba  Ba0  1  0.250000  0.254200  0.114892  1
  Ba  Ba1  1  0.250000  0.754200  0.385108  1
  Ba  Ba2  1  0.750000  0.745800  0.885108  1
  Ba  Ba3  1  0.750000  0.245800  0.614892  1
  In  In4  1  0.250000  0.058221  0.605532  1
  In  In5  1  0.250000  0.558221  0.894468  1
  In  In6  1  0.750000  0.941779  0.394468  1
  In  In7  1  0.750000  0.441779  0.105532  1
  In  In8  1  0.250000  0.368492  0.476433  1
  In  In9  1  0.250000  0.868492  0.023567  1
  In  In10  1  0.750000  0.631508  0.523567  1
  In  In11  1  0.750000  0.131508  0.976433  1
  Au  Au12  1  0.060436  0.110992  0.379988  1
  Au  Au13  1  0.439564  0.610992  0.120012  1
  Au  Au14  1  0.560436  0.889008  0.620012  1
  Au  Au15  1  0.939564  0.389008  0.879988  1
  Au  Au16  1  0.939564  0.889008  0.620012  1
  Au  Au17  1  0.560436  0.389008  0.879988  1
  Au  Au18  1  0.439564  0.110992  0.379988  1
  Au  Au19  1  0.060436  0.610992  0.120012  1
  Au  Au20  1  0.051630  0.067763  0.846900  1
  Au  Au21  1  0.448370  0.567763  0.653100  1
  Au  Au22  1  0.551630  0.932237  0.153100  1
  Au  Au23  1  0.948370  0.432237  0.346900  1
  Au  Au24  1  0.948370  0.932237  0.153100  1
  Au  Au25  1  0.551630  0.432237  0.346900  1
  Au  Au26  1  0.448370  0.067763  0.846900  1
  Au  Au27  1  0.051630  0.567763  0.653100  1
  Au  Au28  1  0.250000  0.311424  0.735048  1
  Au  Au29  1  0.250000  0.811424  0.764952  1
  Au  Au30  1  0.750000  0.688576  0.264952  1
  Au  Au31  1  0.750000  0.188576  0.235048  1
