# generated using pymatgen
data_Tb4LuPt2Rh
_symmetry_space_group_name_H-M   'P 1'
_cell_length_a   11.05560400
_cell_length_b   11.05560400
_cell_length_c   6.35144500
_cell_angle_alpha   90.00000000
_cell_angle_beta   90.00000000
_cell_angle_gamma   90.00000000
_symmetry_Int_Tables_number   1
_chemical_formula_structural   Tb4LuPt2Rh
_chemical_formula_sum   'Tb16 Lu4 Pt8 Rh4'
_cell_volume   776.31412888
_cell_formula_units_Z   4
loop_
 _symmetry_equiv_pos_site_id
 _symmetry_equiv_pos_as_xyz
  1  'x, y, z'
loop_
 _atom_site_type_symbol
 _atom_site_label
 _atom_site_symmetry_multiplicity
 _atom_site_fract_x
 _atom_site_fract_y
 _atom_site_fract_z
 _atom_site_occupancy
  Tb  Tb0  1  0.291926  0.086955  0.376381  1
  Tb  Tb1  1  0.291926  0.913045  0.876381  1
  Tb  Tb2  1  0.708074  0.086955  0.876381  1
  Tb  Tb3  1  0.708074  0.913045  0.376381  1
  Tb  Tb4  1  0.586955  0.791926  0.876381  1
  Tb  Tb5  1  0.586955  0.208074  0.376381  1
  Tb  Tb6  1  0.413045  0.791926  0.376381  1
  Tb  Tb7  1  0.413045  0.208074  0.876381  1
  Tb  Tb8  1  0.208074  0.413045  0.623619  1
  Tb  Tb9  1  0.208074  0.586955  0.123619  1
  Tb  Tb10  1  0.791926  0.413045  0.123619  1
  Tb  Tb11  1  0.791926  0.586955  0.623619  1
  Tb  Tb12  1  0.913045  0.708074  0.123619  1
  Tb  Tb13  1  0.913045  0.291926  0.623619  1
  Tb  Tb14  1  0.086955  0.708074  0.623619  1
  Tb  Tb15  1  0.086955  0.291926  0.123619  1
  Lu  Lu16  1  0.000000  0.000000  0.500000  1
  Lu  Lu17  1  0.000000  0.000000  0.000000  1
  Lu  Lu18  1  0.500000  0.500000  0.000000  1
  Lu  Lu19  1  0.500000  0.500000  0.500000  1
  Pt  Pt20  1  0.849533  0.150467  0.250000  1
  Pt  Pt21  1  0.849533  0.849533  0.750000  1
  Pt  Pt22  1  0.150467  0.150467  0.750000  1
  Pt  Pt23  1  0.150467  0.849533  0.250000  1
  Pt  Pt24  1  0.650467  0.349533  0.750000  1
  Pt  Pt25  1  0.650467  0.650467  0.250000  1
  Pt  Pt26  1  0.349533  0.349533  0.250000  1
  Pt  Pt27  1  0.349533  0.650467  0.750000  1
  Rh  Rh28  1  0.500000  0.000000  0.121082  1
  Rh  Rh29  1  0.500000  0.000000  0.621082  1
  Rh  Rh30  1  0.000000  0.500000  0.878918  1
  Rh  Rh31  1  0.000000  0.500000  0.378918  1
