# generated using pymatgen
data_Y3Th(B2Ir5)2
_symmetry_space_group_name_H-M   'P 1'
_cell_length_a   11.03538780
_cell_length_b   11.03538785
_cell_length_c   11.03538812
_cell_angle_alpha   28.86399916
_cell_angle_beta   28.86399922
_cell_angle_gamma   28.86400216
_symmetry_Int_Tables_number   1
_chemical_formula_structural   Y3Th(B2Ir5)2
_chemical_formula_sum   'Y3 Th1 B4 Ir10'
_cell_volume   276.93883659
_cell_formula_units_Z   1
loop_
 _symmetry_equiv_pos_site_id
 _symmetry_equiv_pos_as_xyz
  1  'x, y, z'
loop_
 _atom_site_type_symbol
 _atom_site_label
 _atom_site_symmetry_multiplicity
 _atom_site_fract_x
 _atom_site_fract_y
 _atom_site_fract_z
 _atom_site_occupancy
  Y  Y0  1  0.950219  0.950219  0.950219  1
  Y  Y1  1  0.849010  0.849010  0.849010  1
  Y  Y2  1  0.048686  0.048686  0.048686  1
  Th  Th3  1  0.152008  0.152008  0.152008  1
  B  B4  1  0.618069  0.618069  0.618069  1
  B  B5  1  0.716098  0.716098  0.716098  1
  B  B6  1  0.382280  0.382280  0.382280  1
  B  B7  1  0.283701  0.283701  0.283701  1
  Ir  Ir8  1  0.407131  0.898976  0.407131  1
  Ir  Ir9  1  0.898976  0.407131  0.407131  1
  Ir  Ir10  1  0.499826  0.499826  0.000284  1
  Ir  Ir11  1  0.499826  0.000284  0.499826  1
  Ir  Ir12  1  0.000284  0.499826  0.499826  1
  Ir  Ir13  1  0.500366  0.500366  0.500366  1
  Ir  Ir14  1  0.593426  0.099537  0.593426  1
  Ir  Ir15  1  0.593426  0.593426  0.099537  1
  Ir  Ir16  1  0.099537  0.593426  0.593426  1
  Ir  Ir17  1  0.407131  0.407131  0.898976  1
