# generated using pymatgen
data_CeZr4Sc3Ir4
_symmetry_space_group_name_H-M   'P 1'
_cell_length_a   6.86121423
_cell_length_b   4.58073800
_cell_length_c   8.14798985
_cell_angle_alpha   90.00000000
_cell_angle_beta   90.29947064
_cell_angle_gamma   90.00000000
_symmetry_Int_Tables_number   1
_chemical_formula_structural   CeZr4Sc3Ir4
_chemical_formula_sum   'Ce1 Zr4 Sc3 Ir4'
_cell_volume   256.08313566
_cell_formula_units_Z   1
loop_
 _symmetry_equiv_pos_site_id
 _symmetry_equiv_pos_as_xyz
  1  'x, y, z'
loop_
 _atom_site_type_symbol
 _atom_site_label
 _atom_site_symmetry_multiplicity
 _atom_site_fract_x
 _atom_site_fract_y
 _atom_site_fract_z
 _atom_site_occupancy
  Ce  Ce0  1  0.512157  0.750000  0.678456  1
  Zr  Zr1  1  0.863012  0.250000  0.580004  1
  Zr  Zr2  1  0.348044  0.250000  0.925563  1
  Zr  Zr3  1  0.149080  0.750000  0.412539  1
  Zr  Zr4  1  0.644919  0.750000  0.087748  1
  Sc  Sc5  1  0.986665  0.250000  0.170360  1
  Sc  Sc6  1  0.488650  0.250000  0.319955  1
  Sc  Sc7  1  0.007142  0.750000  0.830798  1
  Ir  Ir8  1  0.742947  0.250000  0.915372  1
  Ir  Ir9  1  0.246889  0.250000  0.580880  1
  Ir  Ir10  1  0.251564  0.750000  0.085606  1
  Ir  Ir11  1  0.758933  0.750000  0.412718  1
