# generated using pymatgen
data_Ca3Ga24RePd8
_symmetry_space_group_name_H-M   'P 1'
_cell_length_a   8.45605485
_cell_length_b   8.45735197
_cell_length_c   8.45396500
_cell_angle_alpha   89.60719471
_cell_angle_beta   89.59347429
_cell_angle_gamma   89.61598865
_symmetry_Int_Tables_number   1
_chemical_formula_structural   Ca3Ga24RePd8
_chemical_formula_sum   'Ca3 Ga24 Re1 Pd8'
_cell_volume   604.54953229
_cell_formula_units_Z   1
loop_
 _symmetry_equiv_pos_site_id
 _symmetry_equiv_pos_as_xyz
  1  'x, y, z'
loop_
 _atom_site_type_symbol
 _atom_site_label
 _atom_site_symmetry_multiplicity
 _atom_site_fract_x
 _atom_site_fract_y
 _atom_site_fract_z
 _atom_site_occupancy
  Ca  Ca0  1  0.000000  0.500000  0.000000  1
  Ca  Ca1  1  0.500000  0.000000  0.000000  1
  Ca  Ca2  1  0.000000  0.000000  0.500000  1
  Ga  Ga3  1  0.990566  0.642732  0.642642  1
  Ga  Ga4  1  0.642753  0.642802  0.990596  1
  Ga  Ga5  1  0.642686  0.990516  0.642634  1
  Ga  Ga6  1  0.009434  0.357268  0.357358  1
  Ga  Ga7  1  0.357247  0.357198  0.009404  1
  Ga  Ga8  1  0.357314  0.009484  0.357366  1
  Ga  Ga9  1  0.735922  0.500076  0.263909  1
  Ga  Ga10  1  0.264078  0.499924  0.736091  1
  Ga  Ga11  1  0.499879  0.264043  0.736211  1
  Ga  Ga12  1  0.500121  0.735957  0.263789  1
  Ga  Ga13  1  0.263813  0.736101  0.500047  1
  Ga  Ga14  1  0.736187  0.263899  0.499953  1
  Ga  Ga15  1  0.839420  0.141025  0.839407  1
  Ga  Ga16  1  0.141144  0.839391  0.839368  1
  Ga  Ga17  1  0.839299  0.839311  0.141212  1
  Ga  Ga18  1  0.160580  0.858975  0.160593  1
  Ga  Ga19  1  0.858856  0.160609  0.160632  1
  Ga  Ga20  1  0.160701  0.160689  0.858788  1
  Ga  Ga21  1  0.728999  0.488520  0.728983  1
  Ga  Ga22  1  0.488380  0.729079  0.729039  1
  Ga  Ga23  1  0.729091  0.729121  0.488187  1
  Ga  Ga24  1  0.271001  0.511480  0.271017  1
  Ga  Ga25  1  0.511620  0.270921  0.270961  1
  Ga  Ga26  1  0.270909  0.270879  0.511813  1
  Re  Re27  1  0.500000  0.500000  0.500000  1
  Pd  Pd28  1  0.834138  0.834119  0.834187  1
  Pd  Pd29  1  0.165862  0.165881  0.165813  1
  Pd  Pd30  1  0.663858  0.336170  0.999992  1
  Pd  Pd31  1  0.999994  0.336146  0.663889  1
  Pd  Pd32  1  0.336143  0.999994  0.663896  1
  Pd  Pd33  1  0.336142  0.663830  0.000008  1
  Pd  Pd34  1  0.000006  0.663854  0.336111  1
  Pd  Pd35  1  0.663857  0.000006  0.336104  1
