# generated using pymatgen
data_DyY7(CdPt)2
_symmetry_space_group_name_H-M   'P 1'
_cell_length_a   9.72704493
_cell_length_b   9.72704564
_cell_length_c   9.72900000
_cell_angle_alpha   59.99336021
_cell_angle_beta   59.99335778
_cell_angle_gamma   59.97884605
_symmetry_Int_Tables_number   1
_chemical_formula_structural   DyY7(CdPt)2
_chemical_formula_sum   'Dy2 Y14 Cd4 Pt4'
_cell_volume   650.73177663
_cell_formula_units_Z   2
loop_
 _symmetry_equiv_pos_site_id
 _symmetry_equiv_pos_as_xyz
  1  'x, y, z'
loop_
 _atom_site_type_symbol
 _atom_site_label
 _atom_site_symmetry_multiplicity
 _atom_site_fract_x
 _atom_site_fract_y
 _atom_site_fract_z
 _atom_site_occupancy
  Dy  Dy0  1  0.351947  0.351947  0.350097  1
  Dy  Dy1  1  0.351947  0.351947  0.946009  1
  Y  Y2  1  0.354891  0.939241  0.352934  1
  Y  Y3  1  0.939241  0.354891  0.352934  1
  Y  Y4  1  0.810267  0.190028  0.190325  1
  Y  Y5  1  0.190028  0.810267  0.809380  1
  Y  Y6  1  0.190028  0.810267  0.190325  1
  Y  Y7  1  0.810267  0.190028  0.809380  1
  Y  Y8  1  0.191030  0.191030  0.808970  1
  Y  Y9  1  0.810744  0.810744  0.189256  1
  Y  Y10  1  0.936461  0.563528  0.564474  1
  Y  Y11  1  0.563528  0.936461  0.935537  1
  Y  Y12  1  0.563528  0.936461  0.564474  1
  Y  Y13  1  0.936461  0.563528  0.935537  1
  Y  Y14  1  0.564461  0.564461  0.935539  1
  Y  Y15  1  0.936426  0.936426  0.563574  1
  Cd  Cd16  1  0.581307  0.581307  0.582395  1
  Cd  Cd17  1  0.581307  0.581307  0.254991  1
  Cd  Cd18  1  0.581104  0.254339  0.582278  1
  Cd  Cd19  1  0.254339  0.581104  0.582278  1
  Pt  Pt20  1  0.143940  0.143940  0.144008  1
  Pt  Pt21  1  0.143940  0.143940  0.568113  1
  Pt  Pt22  1  0.143621  0.569186  0.143596  1
  Pt  Pt23  1  0.569186  0.143621  0.143596  1
