# generated using pymatgen
data_Yb20Tl3Ag8Pt
_symmetry_space_group_name_H-M   'P 1'
_cell_length_a   8.00470100
_cell_length_b   7.99778996
_cell_length_c   14.58821300
_cell_angle_alpha   89.95177944
_cell_angle_beta   89.99833224
_cell_angle_gamma   89.98981862
_symmetry_Int_Tables_number   1
_chemical_formula_structural   Yb20Tl3Ag8Pt
_chemical_formula_sum   'Yb20 Tl3 Ag8 Pt1'
_cell_volume   933.93584403
_cell_formula_units_Z   1
loop_
 _symmetry_equiv_pos_site_id
 _symmetry_equiv_pos_as_xyz
  1  'x, y, z'
loop_
 _atom_site_type_symbol
 _atom_site_label
 _atom_site_symmetry_multiplicity
 _atom_site_fract_x
 _atom_site_fract_y
 _atom_site_fract_z
 _atom_site_occupancy
  Yb  Yb0  1  0.000011  0.999628  0.754902  1
  Yb  Yb1  1  0.503893  0.492441  0.251142  1
  Yb  Yb2  1  0.991820  0.004056  0.245297  1
  Yb  Yb3  1  0.499618  0.499981  0.748833  1
  Yb  Yb4  1  0.170863  0.661667  0.107193  1
  Yb  Yb5  1  0.669210  0.167271  0.609229  1
  Yb  Yb6  1  0.819266  0.327927  0.111518  1
  Yb  Yb7  1  0.331642  0.833634  0.608752  1
  Yb  Yb8  1  0.348396  0.170029  0.111419  1
  Yb  Yb9  1  0.832063  0.669193  0.607708  1
  Yb  Yb10  1  0.662173  0.840513  0.111464  1
  Yb  Yb11  1  0.167262  0.330354  0.607720  1
  Yb  Yb12  1  0.338204  0.828571  0.894519  1
  Yb  Yb13  1  0.823492  0.321219  0.385272  1
  Yb  Yb14  1  0.662755  0.172152  0.893968  1
  Yb  Yb15  1  0.165914  0.667693  0.389909  1
  Yb  Yb16  1  0.172557  0.336328  0.895623  1
  Yb  Yb17  1  0.667719  0.844568  0.385350  1
  Yb  Yb18  1  0.827035  0.662575  0.895817  1
  Yb  Yb19  1  0.342541  0.165768  0.385654  1
  Tl  Tl20  1  0.001608  0.000409  0.499479  1
  Tl  Tl21  1  0.001451  0.000256  0.000024  1
  Tl  Tl22  1  0.500616  0.501416  0.499577  1
  Ag  Ag23  1  0.127592  0.627514  0.751722  1
  Ag  Ag24  1  0.872685  0.372785  0.751680  1
  Ag  Ag25  1  0.369189  0.870002  0.248358  1
  Ag  Ag26  1  0.371917  0.128184  0.751778  1
  Ag  Ag27  1  0.872615  0.628177  0.248197  1
  Ag  Ag28  1  0.128130  0.372116  0.248297  1
  Ag  Ag29  1  0.628187  0.871874  0.751805  1
  Ag  Ag30  1  0.499730  0.500511  0.999698  1
  Pt  Pt31  1  0.629847  0.131188  0.248098  1
