# generated using pymatgen
data_Y4Si(PtRh)6
_symmetry_space_group_name_H-M   'P 1'
_cell_length_a   7.24177915
_cell_length_b   7.24178018
_cell_length_c   7.24178000
_cell_angle_alpha   109.47121455
_cell_angle_beta   109.47121741
_cell_angle_gamma   109.47122496
_symmetry_Int_Tables_number   1
_chemical_formula_structural   Y4Si(PtRh)6
_chemical_formula_sum   'Y4 Si1 Pt6 Rh6'
_cell_volume   292.35739077
_cell_formula_units_Z   1
loop_
 _symmetry_equiv_pos_site_id
 _symmetry_equiv_pos_as_xyz
  1  'x, y, z'
loop_
 _atom_site_type_symbol
 _atom_site_label
 _atom_site_symmetry_multiplicity
 _atom_site_fract_x
 _atom_site_fract_y
 _atom_site_fract_z
 _atom_site_occupancy
  Y  Y0  1  0.000000  0.000000  0.500000  1
  Y  Y1  1  0.000000  0.500000  0.000000  1
  Y  Y2  1  0.500000  0.000000  0.000000  1
  Y  Y3  1  0.500000  0.500000  0.500000  1
  Si  Si4  1  0.000000  0.000000  0.000000  1
  Pt  Pt5  1  0.750000  0.250000  0.500000  1
  Pt  Pt6  1  0.750000  0.500000  0.250000  1
  Pt  Pt7  1  0.500000  0.250000  0.750000  1
  Pt  Pt8  1  0.250000  0.500000  0.750000  1
  Pt  Pt9  1  0.250000  0.750000  0.500000  1
  Pt  Pt10  1  0.500000  0.750000  0.250000  1
  Rh  Rh11  1  0.724362  0.724362  0.000000  1
  Rh  Rh12  1  0.275638  0.000000  0.275638  1
  Rh  Rh13  1  0.000000  0.275638  0.275638  1
  Rh  Rh14  1  0.275638  0.275638  0.000000  1
  Rh  Rh15  1  0.724362  0.000000  0.724362  1
  Rh  Rh16  1  0.000000  0.724362  0.724362  1
