# generated using pymatgen
data_Th2Sb2AsP
_symmetry_space_group_name_H-M   'P 1'
_cell_length_a   4.22110600
_cell_length_b   4.22110600
_cell_length_c   8.82213500
_cell_angle_alpha   90.00000000
_cell_angle_beta   90.00000000
_cell_angle_gamma   90.00000000
_symmetry_Int_Tables_number   1
_chemical_formula_structural   Th2Sb2AsP
_chemical_formula_sum   'Th2 Sb2 As1 P1'
_cell_volume   157.19047118
_cell_formula_units_Z   1
loop_
 _symmetry_equiv_pos_site_id
 _symmetry_equiv_pos_as_xyz
  1  'x, y, z'
loop_
 _atom_site_type_symbol
 _atom_site_label
 _atom_site_symmetry_multiplicity
 _atom_site_fract_x
 _atom_site_fract_y
 _atom_site_fract_z
 _atom_site_occupancy
  Th  Th0  1  0.000000  0.500000  0.696053  1
  Th  Th1  1  0.500000  0.000000  0.306955  1
  Sb  Sb2  1  0.000000  0.000000  0.999622  1
  Sb  Sb3  1  0.500000  0.500000  0.999622  1
  As  As4  1  0.000000  0.500000  0.360402  1
  P  P5  1  0.500000  0.000000  0.637346  1
