# generated using pymatgen
data_GdHoB6Os
_symmetry_space_group_name_H-M   'P 1'
_cell_length_a   3.66236700
_cell_length_b   9.16457700
_cell_length_c   11.55084300
_cell_angle_alpha   90.00000000
_cell_angle_beta   90.00000000
_cell_angle_gamma   90.00000000
_symmetry_Int_Tables_number   1
_chemical_formula_structural   GdHoB6Os
_chemical_formula_sum   'Gd4 Ho4 B24 Os4'
_cell_volume   387.69300701
_cell_formula_units_Z   4
loop_
 _symmetry_equiv_pos_site_id
 _symmetry_equiv_pos_as_xyz
  1  'x, y, z'
loop_
 _atom_site_type_symbol
 _atom_site_label
 _atom_site_symmetry_multiplicity
 _atom_site_fract_x
 _atom_site_fract_y
 _atom_site_fract_z
 _atom_site_occupancy
  Gd  Gd0  1  0.000000  0.322361  0.414317  1
  Gd  Gd1  1  0.000000  0.677639  0.585683  1
  Gd  Gd2  1  0.000000  0.822361  0.085683  1
  Gd  Gd3  1  0.000000  0.177639  0.914317  1
  Ho  Ho4  1  0.000000  0.944148  0.372834  1
  Ho  Ho5  1  0.000000  0.055852  0.627166  1
  Ho  Ho6  1  0.000000  0.444148  0.127166  1
  Ho  Ho7  1  0.000000  0.555852  0.872834  1
  B  B8  1  0.500000  0.554481  0.432250  1
  B  B9  1  0.500000  0.445519  0.567750  1
  B  B10  1  0.500000  0.054481  0.067750  1
  B  B11  1  0.500000  0.945519  0.932250  1
  B  B12  1  0.500000  0.748428  0.419214  1
  B  B13  1  0.500000  0.251572  0.580786  1
  B  B14  1  0.500000  0.248428  0.080786  1
  B  B15  1  0.500000  0.751572  0.919214  1
  B  B16  1  0.500000  0.790969  0.266539  1
  B  B17  1  0.500000  0.209031  0.733461  1
  B  B18  1  0.500000  0.290969  0.233461  1
  B  B19  1  0.500000  0.709031  0.766539  1
  B  B20  1  0.500000  0.631674  0.185200  1
  B  B21  1  0.500000  0.368326  0.814800  1
  B  B22  1  0.500000  0.131674  0.314800  1
  B  B23  1  0.500000  0.868326  0.685200  1
  B  B24  1  0.500000  0.984130  0.213342  1
  B  B25  1  0.500000  0.015870  0.786658  1
  B  B26  1  0.500000  0.484130  0.286658  1
  B  B27  1  0.500000  0.515870  0.713342  1
  B  B28  1  0.500000  0.606590  0.029388  1
  B  B29  1  0.500000  0.393410  0.970612  1
  B  B30  1  0.500000  0.106590  0.470612  1
  B  B31  1  0.500000  0.893410  0.529388  1
  Os  Os32  1  0.000000  0.638233  0.320708  1
  Os  Os33  1  0.000000  0.361767  0.679292  1
  Os  Os34  1  0.000000  0.138233  0.179292  1
  Os  Os35  1  0.000000  0.861767  0.820708  1
