# generated using pymatgen
data_K4Al3GaI16
_symmetry_space_group_name_H-M   'P 1'
_cell_length_a   8.21315020
_cell_length_b   8.55380541
_cell_length_c   16.68781822
_cell_angle_alpha   85.12394715
_cell_angle_beta   90.01761826
_cell_angle_gamma   89.98327298
_symmetry_Int_Tables_number   1
_chemical_formula_structural   K4Al3GaI16
_chemical_formula_sum   'K4 Al3 Ga1 I16'
_cell_volume   1168.13771830
_cell_formula_units_Z   1
loop_
 _symmetry_equiv_pos_site_id
 _symmetry_equiv_pos_as_xyz
  1  'x, y, z'
loop_
 _atom_site_type_symbol
 _atom_site_label
 _atom_site_symmetry_multiplicity
 _atom_site_fract_x
 _atom_site_fract_y
 _atom_site_fract_z
 _atom_site_occupancy
  K  K0  1  0.501678  0.257035  0.639808  1
  K  K1  1  0.002085  0.742809  0.860257  1
  K  K2  1  0.498168  0.742927  0.360248  1
  K  K3  1  0.998197  0.257177  0.139665  1
  Al  Al4  1  0.358090  0.244551  0.360791  1
  Al  Al5  1  0.858196  0.755421  0.139114  1
  Al  Al6  1  0.641831  0.755532  0.639213  1
  Ga  Ga7  1  0.141728  0.244285  0.860975  1
  I  I8  1  0.859844  0.139437  0.908503  1
  I  I9  1  0.362358  0.859377  0.591802  1
  I  I10  1  0.137548  0.859489  0.091880  1
  I  I11  1  0.637559  0.140464  0.408049  1
  I  I12  1  0.389519  0.411820  0.226302  1
  I  I13  1  0.889453  0.588256  0.273702  1
  I  I14  1  0.610212  0.588661  0.773857  1
  I  I15  1  0.110321  0.413205  0.725040  1
  I  I16  1  0.657602  0.979162  0.158911  1
  I  I17  1  0.157618  0.020918  0.341019  1
  I  I18  1  0.344679  0.018563  0.840800  1
  I  I19  1  0.842350  0.979153  0.658939  1
  I  I20  1  0.244429  0.418633  0.465963  1
  I  I21  1  0.744206  0.581467  0.033986  1
  I  I22  1  0.755715  0.581390  0.534088  1
  I  I23  1  0.256616  0.420267  0.967090  1
