# generated using pymatgen
data_Tb4Ga24CoPt8
_symmetry_space_group_name_H-M   'P 1'
_cell_length_a   7.56657706
_cell_length_b   7.55808752
_cell_length_c   13.27050486
_cell_angle_alpha   84.33469763
_cell_angle_beta   78.98952807
_cell_angle_gamma   60.07892572
_symmetry_Int_Tables_number   1
_chemical_formula_structural   Tb4Ga24CoPt8
_chemical_formula_sum   'Tb4 Ga24 Co1 Pt8'
_cell_volume   645.65700704
_cell_formula_units_Z   1
loop_
 _symmetry_equiv_pos_site_id
 _symmetry_equiv_pos_as_xyz
  1  'x, y, z'
loop_
 _atom_site_type_symbol
 _atom_site_label
 _atom_site_symmetry_multiplicity
 _atom_site_fract_x
 _atom_site_fract_y
 _atom_site_fract_z
 _atom_site_occupancy
  Tb  Tb0  1  0.398227  0.163233  0.810010  1
  Tb  Tb1  1  0.601773  0.836767  0.189990  1
  Tb  Tb2  1  0.727640  0.498368  0.810181  1
  Tb  Tb3  1  0.272360  0.501632  0.189819  1
  Ga  Ga4  1  0.693952  0.822253  0.942990  1
  Ga  Ga5  1  0.306048  0.177747  0.057010  1
  Ga  Ga6  1  0.147157  0.832404  0.560839  1
  Ga  Ga7  1  0.852843  0.167596  0.439161  1
  Ga  Ga8  1  0.480648  0.167418  0.557823  1
  Ga  Ga9  1  0.519352  0.832582  0.442177  1
  Ga  Ga10  1  0.219324  0.165845  0.324526  1
  Ga  Ga11  1  0.780676  0.834155  0.675474  1
  Ga  Ga12  1  0.435063  0.505720  0.675252  1
  Ga  Ga13  1  0.564937  0.494280  0.324748  1
  Ga  Ga14  1  0.107870  0.162268  0.673393  1
  Ga  Ga15  1  0.892130  0.837732  0.326607  1
  Ga  Ga16  1  0.344622  0.496890  0.943037  1
  Ga  Ga17  1  0.655378  0.503110  0.056963  1
  Ga  Ga18  1  0.017806  0.183371  0.948419  1
  Ga  Ga19  1  0.982194  0.816629  0.051581  1
  Ga  Ga20  1  0.185641  0.497905  0.442508  1
  Ga  Ga21  1  0.814359  0.502095  0.557492  1
  Ga  Ga22  1  0.739419  0.164363  0.181589  1
  Ga  Ga23  1  0.260581  0.835637  0.818411  1
  Ga  Ga24  1  0.058940  0.620418  0.823124  1
  Ga  Ga25  1  0.941060  0.379582  0.176876  1
  Ga  Ga26  1  0.859596  0.036915  0.818170  1
  Ga  Ga27  1  0.140404  0.963085  0.181831  1
  Co  Co28  1  0.000000  0.500000  0.000000  1
  Pt  Pt29  1  0.118805  0.494820  0.640426  1
  Pt  Pt30  1  0.881195  0.505180  0.359574  1
  Pt  Pt31  1  0.659475  0.170366  0.999865  1
  Pt  Pt32  1  0.340525  0.829634  0.000135  1
  Pt  Pt33  1  0.538841  0.166113  0.360276  1
  Pt  Pt34  1  0.461159  0.833887  0.639724  1
  Pt  Pt35  1  0.779173  0.175273  0.638049  1
  Pt  Pt36  1  0.220827  0.824727  0.361951  1
