# generated using pymatgen
data_HfZrGeB2Ru5
_symmetry_space_group_name_H-M   'P 1'
_cell_length_a   9.39238266
_cell_length_b   9.39238266
_cell_length_c   3.06191700
_cell_angle_alpha   90.00000000
_cell_angle_beta   90.00000000
_cell_angle_gamma   90.21585099
_symmetry_Int_Tables_number   1
_chemical_formula_structural   HfZrGeB2Ru5
_chemical_formula_sum   'Hf2 Zr2 Ge2 B4 Ru10'
_cell_volume   270.11076228
_cell_formula_units_Z   2
loop_
 _symmetry_equiv_pos_site_id
 _symmetry_equiv_pos_as_xyz
  1  'x, y, z'
loop_
 _atom_site_type_symbol
 _atom_site_label
 _atom_site_symmetry_multiplicity
 _atom_site_fract_x
 _atom_site_fract_y
 _atom_site_fract_z
 _atom_site_occupancy
  Hf  Hf0  1  0.674833  0.174833  0.000000  1
  Hf  Hf1  1  0.325167  0.825167  0.000000  1
  Zr  Zr2  1  0.175616  0.324384  0.000000  1
  Zr  Zr3  1  0.824384  0.675616  0.000000  1
  Ge  Ge4  1  0.000000  0.000000  0.000000  1
  Ge  Ge5  1  0.500000  0.500000  0.000000  1
  B  B6  1  0.124107  0.624107  0.000000  1
  B  B7  1  0.875893  0.375893  0.000000  1
  B  B8  1  0.623135  0.876865  0.000000  1
  B  B9  1  0.376865  0.123135  0.000000  1
  Ru  Ru10  1  0.214535  0.067433  0.500000  1
  Ru  Ru11  1  0.785465  0.932567  0.500000  1
  Ru  Ru12  1  0.070626  0.786491  0.500000  1
  Ru  Ru13  1  0.713509  0.429374  0.500000  1
  Ru  Ru14  1  0.929374  0.213509  0.500000  1
  Ru  Ru15  1  0.286491  0.570626  0.500000  1
  Ru  Ru16  1  0.567433  0.714535  0.500000  1
  Ru  Ru17  1  0.432567  0.285465  0.500000  1
  Ru  Ru18  1  0.500000  0.000000  0.500000  1
  Ru  Ru19  1  0.000000  0.500000  0.500000  1
