# generated using pymatgen
data_Ho12Si12IrPt3
_symmetry_space_group_name_H-M   'P 1'
_cell_length_a   4.23995500
_cell_length_b   10.61570111
_cell_length_c   12.29372428
_cell_angle_alpha   90.05238192
_cell_angle_beta   90.00000000
_cell_angle_gamma   90.00000000
_symmetry_Int_Tables_number   1
_chemical_formula_structural   Ho12Si12IrPt3
_chemical_formula_sum   'Ho12 Si12 Ir1 Pt3'
_cell_volume   553.34146665
_cell_formula_units_Z   1
loop_
 _symmetry_equiv_pos_site_id
 _symmetry_equiv_pos_as_xyz
  1  'x, y, z'
loop_
 _atom_site_type_symbol
 _atom_site_label
 _atom_site_symmetry_multiplicity
 _atom_site_fract_x
 _atom_site_fract_y
 _atom_site_fract_z
 _atom_site_occupancy
  Ho  Ho0  1  0.250000  0.878544  0.020463  1
  Ho  Ho1  1  0.250000  0.619679  0.521812  1
  Ho  Ho2  1  0.750000  0.120828  0.978732  1
  Ho  Ho3  1  0.750000  0.379017  0.480217  1
  Ho  Ho4  1  0.250000  0.918952  0.602499  1
  Ho  Ho5  1  0.250000  0.580536  0.102195  1
  Ho  Ho6  1  0.750000  0.080764  0.398479  1
  Ho  Ho7  1  0.750000  0.419749  0.896649  1
  Ho  Ho8  1  0.250000  0.659199  0.800429  1
  Ho  Ho9  1  0.250000  0.839254  0.301721  1
  Ho  Ho10  1  0.750000  0.339236  0.198496  1
  Ho  Ho11  1  0.750000  0.161364  0.697939  1
  Si  Si12  1  0.250000  0.016093  0.823292  1
  Si  Si13  1  0.250000  0.484913  0.322270  1
  Si  Si14  1  0.750000  0.984590  0.177214  1
  Si  Si15  1  0.750000  0.509667  0.678437  1
  Si  Si16  1  0.250000  0.247842  0.839751  1
  Si  Si17  1  0.250000  0.254954  0.343703  1
  Si  Si18  1  0.750000  0.754569  0.157022  1
  Si  Si19  1  0.750000  0.744499  0.656317  1
  Si  Si20  1  0.250000  0.200226  0.543905  1
  Si  Si21  1  0.250000  0.305242  0.040144  1
  Si  Si22  1  0.750000  0.805975  0.459273  1
  Si  Si23  1  0.750000  0.694487  0.958813  1
  Ir  Ir24  1  0.250000  0.389860  0.680684  1
  Pt  Pt25  1  0.250000  0.110349  0.181420  1
  Pt  Pt26  1  0.750000  0.609739  0.318958  1
  Pt  Pt27  1  0.750000  0.889871  0.819166  1
