# generated using pymatgen
data_Li(Cu2P)2
_symmetry_space_group_name_H-M   'P 1'
_cell_length_a   7.25981800
_cell_length_b   7.25981800
_cell_length_c   3.61423500
_cell_angle_alpha   90.00000000
_cell_angle_beta   90.00000000
_cell_angle_gamma   90.00000000
_symmetry_Int_Tables_number   1
_chemical_formula_structural   Li(Cu2P)2
_chemical_formula_sum   'Li2 Cu8 P4'
_cell_volume   190.48810168
_cell_formula_units_Z   2
loop_
 _symmetry_equiv_pos_site_id
 _symmetry_equiv_pos_as_xyz
  1  'x, y, z'
loop_
 _atom_site_type_symbol
 _atom_site_label
 _atom_site_symmetry_multiplicity
 _atom_site_fract_x
 _atom_site_fract_y
 _atom_site_fract_z
 _atom_site_occupancy
  Li  Li0  1  0.000000  0.000000  0.000000  1
  Li  Li1  1  0.500000  0.500000  0.500000  1
  Cu  Cu2  1  0.680293  0.929357  0.500000  1
  Cu  Cu3  1  0.180293  0.570643  0.000000  1
  Cu  Cu4  1  0.429357  0.819707  0.000000  1
  Cu  Cu5  1  0.929357  0.680293  0.500000  1
  Cu  Cu6  1  0.819707  0.429357  0.000000  1
  Cu  Cu7  1  0.570643  0.180293  0.000000  1
  Cu  Cu8  1  0.070643  0.319707  0.500000  1
  Cu  Cu9  1  0.319707  0.070643  0.500000  1
  P  P10  1  0.268767  0.268767  0.000000  1
  P  P11  1  0.731233  0.731233  0.000000  1
  P  P12  1  0.768767  0.231233  0.500000  1
  P  P13  1  0.231233  0.768767  0.500000  1
