# generated using pymatgen
data_YEr2Si2GeRu2
_symmetry_space_group_name_H-M   'P 1'
_cell_length_a   5.72883255
_cell_length_b   5.72883272
_cell_length_c   13.87126500
_cell_angle_alpha   90.00000000
_cell_angle_beta   90.00000000
_cell_angle_gamma   137.28841014
_symmetry_Int_Tables_number   1
_chemical_formula_structural   YEr2Si2GeRu2
_chemical_formula_sum   'Y2 Er4 Si4 Ge2 Ru4'
_cell_volume   308.79871123
_cell_formula_units_Z   2
loop_
 _symmetry_equiv_pos_site_id
 _symmetry_equiv_pos_as_xyz
  1  'x, y, z'
loop_
 _atom_site_type_symbol
 _atom_site_label
 _atom_site_symmetry_multiplicity
 _atom_site_fract_x
 _atom_site_fract_y
 _atom_site_fract_z
 _atom_site_occupancy
  Y  Y0  1  0.644313  0.355687  0.250000  1
  Y  Y1  1  0.355687  0.644313  0.750000  1
  Er  Er2  1  0.924534  0.075466  0.387643  1
  Er  Er3  1  0.075466  0.924534  0.612357  1
  Er  Er4  1  0.924534  0.075466  0.112357  1
  Er  Er5  1  0.075466  0.924534  0.887643  1
  Si  Si6  1  0.616810  0.383190  0.461608  1
  Si  Si7  1  0.383190  0.616810  0.538392  1
  Si  Si8  1  0.616810  0.383190  0.038392  1
  Si  Si9  1  0.383190  0.616810  0.961608  1
  Ge  Ge10  1  0.338755  0.661245  0.250000  1
  Ge  Ge11  1  0.661245  0.338755  0.750000  1
  Ru  Ru12  1  0.788167  0.211833  0.921366  1
  Ru  Ru13  1  0.211833  0.788167  0.078634  1
  Ru  Ru14  1  0.788167  0.211833  0.578634  1
  Ru  Ru15  1  0.211833  0.788167  0.421366  1
