# generated using pymatgen
data_DyAg3Ir3RuO14
_symmetry_space_group_name_H-M   'P 1'
_cell_length_a   7.26406705
_cell_length_b   7.26406687
_cell_length_c   7.26406589
_cell_angle_alpha   59.38005983
_cell_angle_beta   59.38005993
_cell_angle_gamma   59.38005821
_symmetry_Int_Tables_number   1
_chemical_formula_structural   DyAg3Ir3RuO14
_chemical_formula_sum   'Dy1 Ag3 Ir3 Ru1 O14'
_cell_volume   267.21030988
_cell_formula_units_Z   1
loop_
 _symmetry_equiv_pos_site_id
 _symmetry_equiv_pos_as_xyz
  1  'x, y, z'
loop_
 _atom_site_type_symbol
 _atom_site_label
 _atom_site_symmetry_multiplicity
 _atom_site_fract_x
 _atom_site_fract_y
 _atom_site_fract_z
 _atom_site_occupancy
  Dy  Dy0  1  0.125000  0.125000  0.125000  1
  Ag  Ag1  1  0.125000  0.125000  0.625000  1
  Ag  Ag2  1  0.125000  0.625000  0.125000  1
  Ag  Ag3  1  0.625000  0.125000  0.125000  1
  Ir  Ir4  1  0.625000  0.625000  0.125000  1
  Ir  Ir5  1  0.625000  0.125000  0.625000  1
  Ir  Ir6  1  0.125000  0.625000  0.625000  1
  Ru  Ru7  1  0.625000  0.625000  0.625000  1
  O  O8  1  0.254537  0.254537  0.254537  1
  O  O9  1  0.995463  0.995463  0.995463  1
  O  O10  1  0.294467  0.716074  0.294467  1
  O  O11  1  0.557520  0.944862  0.557520  1
  O  O12  1  0.294467  0.294467  0.716074  1
  O  O13  1  0.716074  0.294467  0.294467  1
  O  O14  1  0.305138  0.692480  0.692480  1
  O  O15  1  0.692480  0.692480  0.305138  1
  O  O16  1  0.692480  0.305138  0.692480  1
  O  O17  1  0.944862  0.557520  0.557520  1
  O  O18  1  0.533926  0.955533  0.955533  1
  O  O19  1  0.955533  0.533926  0.955533  1
  O  O20  1  0.557520  0.557520  0.944862  1
  O  O21  1  0.955533  0.955533  0.533926  1
