# generated using pymatgen
data_Hf3VTc2P3
_symmetry_space_group_name_H-M   'P 1'
_cell_length_a   6.80292800
_cell_length_b   6.80359098
_cell_length_c   3.39805600
_cell_angle_alpha   90.00000000
_cell_angle_beta   90.00000000
_cell_angle_gamma   119.99677657
_symmetry_Int_Tables_number   1
_chemical_formula_structural   Hf3VTc2P3
_chemical_formula_sum   'Hf3 V1 Tc2 P3'
_cell_volume   136.21010896
_cell_formula_units_Z   1
loop_
 _symmetry_equiv_pos_site_id
 _symmetry_equiv_pos_as_xyz
  1  'x, y, z'
loop_
 _atom_site_type_symbol
 _atom_site_label
 _atom_site_symmetry_multiplicity
 _atom_site_fract_x
 _atom_site_fract_y
 _atom_site_fract_z
 _atom_site_occupancy
  Hf  Hf0  1  0.001506  0.596994  0.500000  1
  Hf  Hf1  1  0.404512  0.403006  0.500000  1
  Hf  Hf2  1  0.591192  0.000000  0.500000  1
  V  V3  1  0.250898  0.000000  0.000000  1
  Tc  Tc4  1  0.749104  0.750873  0.000000  1
  Tc  Tc5  1  0.998232  0.249127  0.000000  1
  P  P6  1  0.662203  0.330693  0.000000  1
  P  P7  1  0.331509  0.669307  0.000000  1
  P  P8  1  0.010845  0.000000  0.500000  1
