# generated using pymatgen
data_CeNd7(HgIr)2
_symmetry_space_group_name_H-M   'P 1'
_cell_length_a   9.90985312
_cell_length_b   9.90985288
_cell_length_c   9.98456500
_cell_angle_alpha   59.75029448
_cell_angle_beta   59.75029530
_cell_angle_gamma   59.69250044
_symmetry_Int_Tables_number   1
_chemical_formula_structural   CeNd7(HgIr)2
_chemical_formula_sum   'Ce2 Nd14 Hg4 Ir4'
_cell_volume   689.10797325
_cell_formula_units_Z   2
loop_
 _symmetry_equiv_pos_site_id
 _symmetry_equiv_pos_as_xyz
  1  'x, y, z'
loop_
 _atom_site_type_symbol
 _atom_site_label
 _atom_site_symmetry_multiplicity
 _atom_site_fract_x
 _atom_site_fract_y
 _atom_site_fract_z
 _atom_site_occupancy
  Ce  Ce0  1  0.594500  0.594500  0.596520  1
  Ce  Ce1  1  0.594500  0.594500  0.214482  1
  Nd  Nd2  1  0.600789  0.196750  0.601231  1
  Nd  Nd3  1  0.196750  0.600789  0.601231  1
  Nd  Nd4  1  0.059507  0.440149  0.441403  1
  Nd  Nd5  1  0.440149  0.059507  0.058941  1
  Nd  Nd6  1  0.440149  0.059507  0.441403  1
  Nd  Nd7  1  0.059507  0.440149  0.058941  1
  Nd  Nd8  1  0.441150  0.441150  0.058850  1
  Nd  Nd9  1  0.058830  0.058830  0.441170  1
  Nd  Nd10  1  0.192702  0.809631  0.811347  1
  Nd  Nd11  1  0.809631  0.192702  0.186320  1
  Nd  Nd12  1  0.809631  0.192702  0.811347  1
  Nd  Nd13  1  0.192702  0.809631  0.186320  1
  Nd  Nd14  1  0.809789  0.809789  0.190211  1
  Nd  Nd15  1  0.188249  0.188249  0.811751  1
  Hg  Hg16  1  0.832635  0.832635  0.835902  1
  Hg  Hg17  1  0.832635  0.832635  0.498826  1
  Hg  Hg18  1  0.831573  0.499111  0.834658  1
  Hg  Hg19  1  0.499111  0.831573  0.834658  1
  Ir  Ir20  1  0.397671  0.397671  0.384951  1
  Ir  Ir21  1  0.397671  0.397671  0.819706  1
  Ir  Ir22  1  0.402709  0.817459  0.389915  1
  Ir  Ir23  1  0.817459  0.402709  0.389915  1
