# generated using pymatgen
data_Pr12Ir3OsBr12
_symmetry_space_group_name_H-M   'P 1'
_cell_length_a   10.57681601
_cell_length_b   10.56536322
_cell_length_c   10.56541277
_cell_angle_alpha   109.44912312
_cell_angle_beta   109.49320691
_cell_angle_gamma   109.49276902
_symmetry_Int_Tables_number   1
_chemical_formula_structural   Pr12Ir3OsBr12
_chemical_formula_sum   'Pr12 Ir3 Os1 Br12'
_cell_volume   908.63391836
_cell_formula_units_Z   1
loop_
 _symmetry_equiv_pos_site_id
 _symmetry_equiv_pos_as_xyz
  1  'x, y, z'
loop_
 _atom_site_type_symbol
 _atom_site_label
 _atom_site_symmetry_multiplicity
 _atom_site_fract_x
 _atom_site_fract_y
 _atom_site_fract_z
 _atom_site_occupancy
  Pr  Pr0  1  0.468038  0.485556  0.232826  1
  Pr  Pr1  1  0.750000  0.234380  0.265620  1
  Pr  Pr2  1  0.750000  0.015874  0.484126  1
  Pr  Pr3  1  0.234126  0.468251  0.484125  1
  Pr  Pr4  1  0.264787  0.747271  0.232827  1
  Pr  Pr5  1  0.031960  0.267175  0.014444  1
  Pr  Pr6  1  0.015621  0.031241  0.265620  1
  Pr  Pr7  1  0.482483  0.747270  0.014444  1
  Pr  Pr8  1  0.484379  0.234379  0.468758  1
  Pr  Pr9  1  0.017516  0.485556  0.752730  1
  Pr  Pr10  1  0.265875  0.015875  0.031750  1
  Pr  Pr11  1  0.235213  0.267173  0.752729  1
  Ir  Ir12  1  0.250000  0.249339  0.250661  1
  Ir  Ir13  1  0.500661  0.001321  0.250661  1
  Ir  Ir14  1  0.999339  0.249339  0.498678  1
  Os  Os15  1  0.250000  0.499999  0.000000  1
  Br  Br16  1  0.250004  0.754581  0.745419  1
  Br  Br17  1  0.508994  0.504454  0.754367  1
  Br  Br18  1  0.991006  0.745633  0.995546  1
  Br  Br19  1  0.745373  0.249913  0.754367  1
  Br  Br20  1  0.995415  0.990835  0.745416  1
  Br  Br21  1  0.250000  0.995771  0.504229  1
  Br  Br22  1  0.754229  0.508457  0.504229  1
  Br  Br23  1  0.504540  0.249914  0.995546  1
  Br  Br24  1  0.754627  0.745633  0.250087  1
  Br  Br25  1  0.745771  0.995771  0.991543  1
  Br  Br26  1  0.995460  0.504454  0.250087  1
  Br  Br27  1  0.504583  0.754583  0.509167  1
