# generated using pymatgen
data_AcSm3(MoN3)4
_symmetry_space_group_name_H-M   'P 1'
_cell_length_a   7.36290251
_cell_length_b   7.36290117
_cell_length_c   6.24447376
_cell_angle_alpha   76.89082762
_cell_angle_beta   76.89082943
_cell_angle_gamma   84.66982865
_symmetry_Int_Tables_number   1
_chemical_formula_structural   AcSm3(MoN3)4
_chemical_formula_sum   'Ac1 Sm3 Mo4 N12'
_cell_volume   320.80628823
_cell_formula_units_Z   1
loop_
 _symmetry_equiv_pos_site_id
 _symmetry_equiv_pos_as_xyz
  1  'x, y, z'
loop_
 _atom_site_type_symbol
 _atom_site_label
 _atom_site_symmetry_multiplicity
 _atom_site_fract_x
 _atom_site_fract_y
 _atom_site_fract_z
 _atom_site_occupancy
  Ac  Ac0  1  0.683818  0.316182  0.750000  1
  Sm  Sm1  1  0.311963  0.688037  0.250000  1
  Sm  Sm2  1  0.916523  0.083477  0.250000  1
  Sm  Sm3  1  0.094449  0.905551  0.750000  1
  Mo  Mo4  1  0.618005  0.803192  0.743465  1
  Mo  Mo5  1  0.377921  0.199273  0.262070  1
  Mo  Mo6  1  0.800727  0.622079  0.237930  1
  Mo  Mo7  1  0.196808  0.381995  0.756535  1
  N  N8  1  0.387585  0.889696  0.851753  1
  N  N9  1  0.008180  0.214302  0.852491  1
  N  N10  1  0.660413  0.625548  0.005348  1
  N  N11  1  0.110304  0.612415  0.648247  1
  N  N12  1  0.880749  0.388819  0.335018  1
  N  N13  1  0.224694  0.996645  0.352188  1
  N  N14  1  0.327752  0.374578  0.999803  1
  N  N15  1  0.785698  0.991820  0.647509  1
  N  N16  1  0.611181  0.119251  0.164982  1
  N  N17  1  0.374452  0.339587  0.494652  1
  N  N18  1  0.003355  0.775306  0.147812  1
  N  N19  1  0.625422  0.672248  0.500197  1
