# generated using pymatgen
data_Cs6Tm(PBr6)3
_symmetry_space_group_name_H-M   'P 1'
_cell_length_a   7.92947100
_cell_length_b   7.92947220
_cell_length_c   19.48241500
_cell_angle_alpha   90.00000000
_cell_angle_beta   90.00000000
_cell_angle_gamma   119.99999082
_symmetry_Int_Tables_number   1
_chemical_formula_structural   Cs6Tm(PBr6)3
_chemical_formula_sum   'Cs6 Tm1 P3 Br18'
_cell_volume   1060.86948637
_cell_formula_units_Z   1
loop_
 _symmetry_equiv_pos_site_id
 _symmetry_equiv_pos_as_xyz
  1  'x, y, z'
loop_
 _atom_site_type_symbol
 _atom_site_label
 _atom_site_symmetry_multiplicity
 _atom_site_fract_x
 _atom_site_fract_y
 _atom_site_fract_z
 _atom_site_occupancy
  Cs  Cs0  1  0.333333  0.666667  0.079716  1
  Cs  Cs1  1  0.666667  0.333333  0.917609  1
  Cs  Cs2  1  0.666667  0.333333  0.580505  1
  Cs  Cs3  1  0.333333  0.666667  0.403107  1
  Cs  Cs4  1  0.000000  0.000000  0.252680  1
  Cs  Cs5  1  0.000000  0.000000  0.762932  1
  Tm  Tm6  1  0.333333  0.666667  0.839512  1
  P  P7  1  0.333333  0.666667  0.648225  1
  P  P8  1  0.666667  0.333333  0.342271  1
  P  P9  1  0.666667  0.333333  0.156266  1
  Br  Br10  1  0.184941  0.369882  0.585188  1
  Br  Br11  1  0.817333  0.634667  0.411366  1
  Br  Br12  1  0.630118  0.815059  0.585188  1
  Br  Br13  1  0.815289  0.630577  0.091160  1
  Br  Br14  1  0.365333  0.182667  0.411366  1
  Br  Br15  1  0.169050  0.338100  0.916015  1
  Br  Br16  1  0.184941  0.815059  0.585188  1
  Br  Br17  1  0.369423  0.184711  0.091160  1
  Br  Br18  1  0.817333  0.182667  0.411366  1
  Br  Br19  1  0.661900  0.830950  0.916015  1
  Br  Br20  1  0.815289  0.184711  0.091160  1
  Br  Br21  1  0.169050  0.830950  0.916015  1
  Br  Br22  1  0.508294  0.016587  0.253558  1
  Br  Br23  1  0.494592  0.989183  0.748440  1
  Br  Br24  1  0.983413  0.491706  0.253558  1
  Br  Br25  1  0.010817  0.505408  0.748440  1
  Br  Br26  1  0.508294  0.491706  0.253558  1
  Br  Br27  1  0.494592  0.505408  0.748440  1
