# generated using pymatgen
data_SrEu(SO4)3
_symmetry_space_group_name_H-M   'P 1'
_cell_length_a   8.82104155
_cell_length_b   8.82104153
_cell_length_c   9.44827600
_cell_angle_alpha   65.27661054
_cell_angle_beta   65.27661060
_cell_angle_gamma   65.53676874
_symmetry_Int_Tables_number   1
_chemical_formula_structural   SrEu(SO4)3
_chemical_formula_sum   'Sr2 Eu2 S6 O24'
_cell_volume   580.53069437
_cell_formula_units_Z   2
loop_
 _symmetry_equiv_pos_site_id
 _symmetry_equiv_pos_as_xyz
  1  'x, y, z'
loop_
 _atom_site_type_symbol
 _atom_site_label
 _atom_site_symmetry_multiplicity
 _atom_site_fract_x
 _atom_site_fract_y
 _atom_site_fract_z
 _atom_site_occupancy
  Sr  Sr0  1  0.104309  0.619355  0.080891  1
  Sr  Sr1  1  0.619355  0.104309  0.580891  1
  Eu  Eu2  1  0.381311  0.887556  0.439622  1
  Eu  Eu3  1  0.887556  0.381311  0.939622  1
  S  S4  1  0.739326  0.532543  0.292101  1
  S  S5  1  0.532543  0.739326  0.792101  1
  S  S6  1  0.041991  0.978662  0.247444  1
  S  S7  1  0.978662  0.041991  0.747444  1
  S  S8  1  0.484926  0.222571  0.206317  1
  S  S9  1  0.222571  0.484926  0.706317  1
  O  O10  1  0.874647  0.973910  0.375482  1
  O  O11  1  0.973910  0.874647  0.875482  1
  O  O12  1  0.866033  0.542710  0.348564  1
  O  O13  1  0.577435  0.681724  0.311006  1
  O  O14  1  0.817839  0.551536  0.111644  1
  O  O15  1  0.542710  0.866033  0.848564  1
  O  O16  1  0.173261  0.946998  0.324891  1
  O  O17  1  0.691732  0.370030  0.377820  1
  O  O18  1  0.681724  0.577435  0.811006  1
  O  O19  1  0.551536  0.817839  0.611644  1
  O  O20  1  0.946998  0.173261  0.824891  1
  O  O21  1  0.652279  0.264100  0.115992  1
  O  O22  1  0.370030  0.691732  0.877820  1
  O  O23  1  0.100546  0.846045  0.166502  1
  O  O24  1  0.464372  0.149986  0.386633  1
  O  O25  1  0.338433  0.376844  0.176031  1
  O  O26  1  0.264100  0.652279  0.615992  1
  O  O27  1  0.846045  0.100546  0.666502  1
  O  O28  1  0.484353  0.077203  0.163985  1
  O  O29  1  0.149986  0.464372  0.886633  1
  O  O30  1  0.376844  0.338433  0.676031  1
  O  O31  1  0.077203  0.484353  0.663985  1
  O  O32  1  0.030522  0.154911  0.125074  1
  O  O33  1  0.154911  0.030522  0.625074  1
