# generated using pymatgen
data_Er5Tm5(ZnIn3)2
_symmetry_space_group_name_H-M   'P 1'
_cell_length_a   9.06117019
_cell_length_b   9.06117091
_cell_length_c   6.63959200
_cell_angle_alpha   90.00000000
_cell_angle_beta   90.00000000
_cell_angle_gamma   119.97625028
_symmetry_Int_Tables_number   1
_chemical_formula_structural   Er5Tm5(ZnIn3)2
_chemical_formula_sum   'Er5 Tm5 Zn2 In6'
_cell_volume   472.22015454
_cell_formula_units_Z   1
loop_
 _symmetry_equiv_pos_site_id
 _symmetry_equiv_pos_as_xyz
  1  'x, y, z'
loop_
 _atom_site_type_symbol
 _atom_site_label
 _atom_site_symmetry_multiplicity
 _atom_site_fract_x
 _atom_site_fract_y
 _atom_site_fract_z
 _atom_site_occupancy
  Er  Er0  1  0.275917  0.000019  0.750000  1
  Er  Er1  1  0.724000  0.999942  0.250000  1
  Er  Er2  1  0.000019  0.275917  0.750000  1
  Er  Er3  1  0.999942  0.724000  0.250000  1
  Er  Er4  1  0.724314  0.724314  0.750000  1
  Tm  Tm5  1  0.333319  0.666533  0.499956  1
  Tm  Tm6  1  0.666533  0.333319  0.499956  1
  Tm  Tm7  1  0.666533  0.333319  0.000044  1
  Tm  Tm8  1  0.333319  0.666533  0.000044  1
  Tm  Tm9  1  0.275900  0.275900  0.250000  1
  Zn  Zn10  1  0.000141  0.000141  0.499927  1
  Zn  Zn11  1  0.000141  0.000141  0.000073  1
  In  In12  1  0.621982  0.000004  0.750000  1
  In  In13  1  0.378000  0.000260  0.250000  1
  In  In14  1  0.000004  0.621982  0.750000  1
  In  In15  1  0.000260  0.378000  0.250000  1
  In  In16  1  0.377932  0.377932  0.750000  1
  In  In17  1  0.621746  0.621746  0.250000  1
