# generated using pymatgen
data_RbLiCeS3
_symmetry_space_group_name_H-M   'P 1'
_cell_length_a   7.56693973
_cell_length_b   7.56693955
_cell_length_c   10.64719300
_cell_angle_alpha   90.00000000
_cell_angle_beta   90.00000000
_cell_angle_gamma   147.94319074
_symmetry_Int_Tables_number   1
_chemical_formula_structural   RbLiCeS3
_chemical_formula_sum   'Rb2 Li2 Ce2 S6'
_cell_volume   323.57408293
_cell_formula_units_Z   2
loop_
 _symmetry_equiv_pos_site_id
 _symmetry_equiv_pos_as_xyz
  1  'x, y, z'
loop_
 _atom_site_type_symbol
 _atom_site_label
 _atom_site_symmetry_multiplicity
 _atom_site_fract_x
 _atom_site_fract_y
 _atom_site_fract_z
 _atom_site_occupancy
  Rb  Rb0  1  0.237357  0.762642  0.250000  1
  Rb  Rb1  1  0.762642  0.237357  0.750000  1
  Li  Li2  1  0.963711  0.036288  0.250000  1
  Li  Li3  1  0.036288  0.963711  0.750000  1
  Ce  Ce4  1  0.500000  0.500000  0.000000  1
  Ce  Ce5  1  0.500000  0.500000  0.500000  1
  S  S6  1  0.884023  0.115977  0.052708  1
  S  S7  1  0.549434  0.450565  0.250000  1
  S  S8  1  0.884023  0.115977  0.447292  1
  S  S9  1  0.115977  0.884023  0.552708  1
  S  S10  1  0.450565  0.549434  0.750000  1
  S  S11  1  0.115977  0.884023  0.947292  1
