# generated using pymatgen
data_HoTh3(SiPd14)2
_symmetry_space_group_name_H-M   'P 1'
_cell_length_a   9.02756900
_cell_length_b   9.02756900
_cell_length_c   7.06442200
_cell_angle_alpha   90.00000000
_cell_angle_beta   90.00000000
_cell_angle_gamma   90.00000000
_symmetry_Int_Tables_number   1
_chemical_formula_structural   HoTh3(SiPd14)2
_chemical_formula_sum   'Ho1 Th3 Si2 Pd28'
_cell_volume   575.72921421
_cell_formula_units_Z   1
loop_
 _symmetry_equiv_pos_site_id
 _symmetry_equiv_pos_as_xyz
  1  'x, y, z'
loop_
 _atom_site_type_symbol
 _atom_site_label
 _atom_site_symmetry_multiplicity
 _atom_site_fract_x
 _atom_site_fract_y
 _atom_site_fract_z
 _atom_site_occupancy
  Ho  Ho0  1  0.000000  0.500000  0.069494  1
  Th  Th1  1  0.500000  0.000000  0.932389  1
  Th  Th2  1  0.000000  0.000000  0.500597  1
  Th  Th3  1  0.500000  0.500000  0.500597  1
  Si  Si4  1  0.500000  0.000000  0.447144  1
  Si  Si5  1  0.000000  0.500000  0.553458  1
  Pd  Pd6  1  0.335005  0.835005  0.613776  1
  Pd  Pd7  1  0.335005  0.164995  0.613776  1
  Pd  Pd8  1  0.664995  0.835005  0.613776  1
  Pd  Pd9  1  0.664995  0.164995  0.613776  1
  Pd  Pd10  1  0.163619  0.663619  0.384014  1
  Pd  Pd11  1  0.163619  0.336381  0.384014  1
  Pd  Pd12  1  0.836381  0.663619  0.384014  1
  Pd  Pd13  1  0.836381  0.336381  0.384014  1
  Pd  Pd14  1  0.500000  0.770593  0.256184  1
  Pd  Pd15  1  0.500000  0.229407  0.256184  1
  Pd  Pd16  1  0.270593  0.000000  0.256184  1
  Pd  Pd17  1  0.729407  0.000000  0.256184  1
  Pd  Pd18  1  0.000000  0.728477  0.744909  1
  Pd  Pd19  1  0.000000  0.271523  0.744909  1
  Pd  Pd20  1  0.228477  0.500000  0.744909  1
  Pd  Pd21  1  0.771523  0.500000  0.744909  1
  Pd  Pd22  1  0.500000  0.348868  0.852409  1
  Pd  Pd23  1  0.500000  0.651132  0.852409  1
  Pd  Pd24  1  0.848868  0.000000  0.852409  1
  Pd  Pd25  1  0.151132  0.000000  0.852409  1
  Pd  Pd26  1  0.000000  0.151184  0.147556  1
  Pd  Pd27  1  0.000000  0.848816  0.147556  1
  Pd  Pd28  1  0.651184  0.500000  0.147556  1
  Pd  Pd29  1  0.348816  0.500000  0.147556  1
  Pd  Pd30  1  0.249616  0.749616  0.000232  1
  Pd  Pd31  1  0.249616  0.250384  0.000232  1
  Pd  Pd32  1  0.750384  0.749616  0.000232  1
  Pd  Pd33  1  0.750384  0.250384  0.000232  1
