# generated using pymatgen
data_Mn3Cd2SbO8
_symmetry_space_group_name_H-M   'P 1'
_cell_length_a   6.37477401
_cell_length_b   11.28908043
_cell_length_c   6.37473511
_cell_angle_alpha   73.60386408
_cell_angle_beta   60.01429573
_cell_angle_gamma   73.60362783
_symmetry_Int_Tables_number   1
_chemical_formula_structural   Mn3Cd2SbO8
_chemical_formula_sum   'Mn6 Cd4 Sb2 O16'
_cell_volume   375.65139001
_cell_formula_units_Z   2
loop_
 _symmetry_equiv_pos_site_id
 _symmetry_equiv_pos_as_xyz
  1  'x, y, z'
loop_
 _atom_site_type_symbol
 _atom_site_label
 _atom_site_symmetry_multiplicity
 _atom_site_fract_x
 _atom_site_fract_y
 _atom_site_fract_z
 _atom_site_occupancy
  Mn  Mn0  1  0.500034  0.999995  0.499972  1
  Mn  Mn1  1  0.499989  0.000008  0.999995  1
  Mn  Mn2  1  0.000018  0.999992  0.499998  1
  Mn  Mn3  1  0.999995  0.499990  0.000002  1
  Mn  Mn4  1  0.999988  0.499999  0.500016  1
  Mn  Mn5  1  0.499974  0.500013  0.000010  1
  Cd  Cd6  1  0.431301  0.706135  0.431301  1
  Cd  Cd7  1  0.931332  0.206062  0.931316  1
  Cd  Cd8  1  0.068683  0.793937  0.068669  1
  Cd  Cd9  1  0.568698  0.293860  0.568701  1
  Sb  Sb10  1  0.249996  0.250016  0.250000  1
  Sb  Sb11  1  0.750005  0.749987  0.750008  1
  O  O12  1  0.362772  0.911894  0.362736  1
  O  O13  1  0.862794  0.411737  0.862831  1
  O  O14  1  0.137150  0.588263  0.137198  1
  O  O15  1  0.637261  0.088102  0.637243  1
  O  O16  1  0.578766  0.131276  0.145059  1
  O  O17  1  0.078697  0.631394  0.645033  1
  O  O18  1  0.145081  0.131270  0.578756  1
  O  O19  1  0.645019  0.631398  0.078702  1
  O  O20  1  0.144990  0.131291  0.144980  1
  O  O21  1  0.644950  0.631406  0.644967  1
  O  O22  1  0.355028  0.368602  0.355053  1
  O  O23  1  0.855019  0.868712  0.855016  1
  O  O24  1  0.354966  0.368606  0.921300  1
  O  O25  1  0.854951  0.868723  0.421234  1
  O  O26  1  0.921296  0.368603  0.354979  1
  O  O27  1  0.421244  0.868730  0.854926  1
