# generated using pymatgen
data_LiV2AgO6
_symmetry_space_group_name_H-M   'P 1'
_cell_length_a   7.39923723
_cell_length_b   7.39923773
_cell_length_c   5.85032537
_cell_angle_alpha   73.50550873
_cell_angle_beta   73.50551214
_cell_angle_gamma   88.79135917
_symmetry_Int_Tables_number   1
_chemical_formula_structural   LiV2AgO6
_chemical_formula_sum   'Li2 V4 Ag2 O12'
_cell_volume   293.86011795
_cell_formula_units_Z   2
loop_
 _symmetry_equiv_pos_site_id
 _symmetry_equiv_pos_as_xyz
  1  'x, y, z'
loop_
 _atom_site_type_symbol
 _atom_site_label
 _atom_site_symmetry_multiplicity
 _atom_site_fract_x
 _atom_site_fract_y
 _atom_site_fract_z
 _atom_site_occupancy
  Li  Li0  1  0.708325  0.291675  0.750000  1
  Li  Li1  1  0.291675  0.708325  0.250000  1
  V  V2  1  0.277511  0.106534  0.793883  1
  V  V3  1  0.722489  0.893466  0.206117  1
  V  V4  1  0.893466  0.722489  0.706117  1
  V  V5  1  0.106534  0.277511  0.293883  1
  Ag  Ag6  1  0.390114  0.609886  0.750000  1
  Ag  Ag7  1  0.609886  0.390114  0.250000  1
  O  O8  1  0.824030  0.886248  0.457307  1
  O  O9  1  0.175970  0.113752  0.542693  1
  O  O10  1  0.113752  0.175970  0.042693  1
  O  O11  1  0.886248  0.824030  0.957307  1
  O  O12  1  0.466888  0.268405  0.673335  1
  O  O13  1  0.533112  0.731595  0.326665  1
  O  O14  1  0.731595  0.533112  0.826665  1
  O  O15  1  0.268405  0.466888  0.173335  1
  O  O16  1  0.343402  0.888783  0.908917  1
  O  O17  1  0.656598  0.111217  0.091083  1
  O  O18  1  0.111217  0.656598  0.591083  1
  O  O19  1  0.888783  0.343402  0.408917  1
