# generated using pymatgen
data_Cs2MnVTe4
_symmetry_space_group_name_H-M   'P 1'
_cell_length_a   15.69910644
_cell_length_b   13.94019845
_cell_length_c   8.44973035
_cell_angle_alpha   85.30929673
_cell_angle_beta   62.24994050
_cell_angle_gamma   32.44075909
_symmetry_Int_Tables_number   1
_chemical_formula_structural   Cs2MnVTe4
_chemical_formula_sum   'Cs4 Mn2 V2 Te8'
_cell_volume   662.98366629
_cell_formula_units_Z   2
loop_
 _symmetry_equiv_pos_site_id
 _symmetry_equiv_pos_as_xyz
  1  'x, y, z'
loop_
 _atom_site_type_symbol
 _atom_site_label
 _atom_site_symmetry_multiplicity
 _atom_site_fract_x
 _atom_site_fract_y
 _atom_site_fract_z
 _atom_site_occupancy
  Cs  Cs0  1  0.817677  0.817677  0.182323  1
  Cs  Cs1  1  0.182323  0.182323  0.817677  1
  Cs  Cs2  1  0.432323  0.432323  0.067677  1
  Cs  Cs3  1  0.067677  0.067677  0.432323  1
  Mn  Mn4  1  0.750000  0.750000  0.750000  1
  Mn  Mn5  1  0.500000  0.500000  0.500000  1
  V  V6  1  0.250000  0.250000  0.250000  1
  V  V7  1  0.000000  0.000000  0.000000  1
  Te  Te8  1  0.383778  0.727177  0.804828  1
  Te  Te9  1  0.084217  0.804828  0.727177  1
  Te  Te10  1  0.804828  0.084217  0.383778  1
  Te  Te11  1  0.727177  0.383778  0.084217  1
  Te  Te12  1  0.866222  0.522823  0.445172  1
  Te  Te13  1  0.165783  0.445172  0.522823  1
  Te  Te14  1  0.445172  0.165783  0.866222  1
  Te  Te15  1  0.522823  0.866222  0.165783  1
