# generated using pymatgen
data_Sm2CuSi4Pt3
_symmetry_space_group_name_H-M   'P 1'
_cell_length_a   4.21602300
_cell_length_b   4.21602300
_cell_length_c   9.87665000
_cell_angle_alpha   90.00000000
_cell_angle_beta   90.00000000
_cell_angle_gamma   90.00000000
_symmetry_Int_Tables_number   1
_chemical_formula_structural   Sm2CuSi4Pt3
_chemical_formula_sum   'Sm2 Cu1 Si4 Pt3'
_cell_volume   175.55597163
_cell_formula_units_Z   1
loop_
 _symmetry_equiv_pos_site_id
 _symmetry_equiv_pos_as_xyz
  1  'x, y, z'
loop_
 _atom_site_type_symbol
 _atom_site_label
 _atom_site_symmetry_multiplicity
 _atom_site_fract_x
 _atom_site_fract_y
 _atom_site_fract_z
 _atom_site_occupancy
  Sm  Sm0  1  0.000000  0.500000  0.751676  1
  Sm  Sm1  1  0.500000  0.000000  0.248324  1
  Cu  Cu2  1  0.000000  0.000000  0.000000  1
  Si  Si3  1  0.000000  0.500000  0.131874  1
  Si  Si4  1  0.500000  0.500000  0.500000  1
  Si  Si5  1  0.500000  0.000000  0.868126  1
  Si  Si6  1  0.000000  0.000000  0.500000  1
  Pt  Pt7  1  0.500000  0.000000  0.622129  1
  Pt  Pt8  1  0.500000  0.500000  0.000000  1
  Pt  Pt9  1  0.000000  0.500000  0.377871  1
