# generated using pymatgen
data_CaSm2ZrCr(GaO4)3
_symmetry_space_group_name_H-M   'P 1'
_cell_length_a   10.93264829
_cell_length_b   10.99740005
_cell_length_c   11.01258300
_cell_angle_alpha   109.38708177
_cell_angle_beta   109.42492271
_cell_angle_gamma   109.25490470
_symmetry_Int_Tables_number   1
_chemical_formula_structural   CaSm2ZrCr(GaO4)3
_chemical_formula_sum   'Ca4 Sm8 Zr4 Cr4 Ga12 O48'
_cell_volume   1023.59134726
_cell_formula_units_Z   4
loop_
 _symmetry_equiv_pos_site_id
 _symmetry_equiv_pos_as_xyz
  1  'x, y, z'
loop_
 _atom_site_type_symbol
 _atom_site_label
 _atom_site_symmetry_multiplicity
 _atom_site_fract_x
 _atom_site_fract_y
 _atom_site_fract_z
 _atom_site_occupancy
  Ca  Ca0  1  0.621983  0.237205  0.371788  1
  Ca  Ca1  1  0.873389  0.120162  0.242500  1
  Ca  Ca2  1  0.126611  0.879838  0.757500  1
  Ca  Ca3  1  0.378017  0.762795  0.628212  1
  Sm  Sm4  1  0.249733  0.623563  0.876745  1
  Sm  Sm5  1  0.628757  0.371119  0.749889  1
  Sm  Sm6  1  0.126519  0.252161  0.881486  1
  Sm  Sm7  1  0.249729  0.122366  0.369111  1
  Sm  Sm8  1  0.873481  0.747839  0.118514  1
  Sm  Sm9  1  0.750271  0.877634  0.630889  1
  Sm  Sm10  1  0.371243  0.628881  0.250111  1
  Sm  Sm11  1  0.750267  0.376437  0.123255  1
  Zr  Zr12  1  0.000000  0.000000  0.500000  1
  Zr  Zr13  1  0.500000  0.000000  0.000000  1
  Zr  Zr14  1  0.000000  0.500000  0.500000  1
  Zr  Zr15  1  0.500000  0.500000  0.500000  1
  Cr  Cr16  1  0.500000  0.500000  0.000000  1
  Cr  Cr17  1  0.000000  0.000000  0.000000  1
  Cr  Cr18  1  0.500000  0.000000  0.500000  1
  Cr  Cr19  1  0.000000  0.500000  0.000000  1
  Ga  Ga20  1  0.883764  0.636257  0.762020  1
  Ga  Ga21  1  0.624709  0.749082  0.873751  1
  Ga  Ga22  1  0.868771  0.252799  0.629061  1
  Ga  Ga23  1  0.246050  0.870033  0.128309  1
  Ga  Ga24  1  0.254798  0.374662  0.632955  1
  Ga  Ga25  1  0.624255  0.873606  0.249559  1
  Ga  Ga26  1  0.375745  0.126394  0.750441  1
  Ga  Ga27  1  0.753950  0.129967  0.871690  1
  Ga  Ga28  1  0.745202  0.625338  0.367045  1
  Ga  Ga29  1  0.131229  0.747201  0.370939  1
  Ga  Ga30  1  0.375291  0.250918  0.126249  1
  Ga  Ga31  1  0.116236  0.363743  0.237980  1
  O  O32  1  0.294525  0.875110  0.981750  1
  O  O33  1  0.416356  0.289831  0.319492  1
  O  O34  1  0.689179  0.485997  0.609222  1
  O  O35  1  0.029931  0.625857  0.712840  1
  O  O36  1  0.472315  0.789130  0.877637  1
  O  O37  1  0.207381  0.520646  0.626343  1
  O  O38  1  0.877839  0.295335  0.481422  1
  O  O39  1  0.024137  0.403789  0.821993  1
  O  O40  1  0.674058  0.205413  0.585500  1
  O  O41  1  0.397389  0.018377  0.320635  1
  O  O42  1  0.623759  0.022739  0.206056  1
  O  O43  1  0.620112  0.594924  0.915113  1
  O  O44  1  0.083284  0.174939  0.202875  1
  O  O45  1  0.405337  0.375368  0.587263  1
  O  O46  1  0.295808  0.417157  0.825457  1
  O  O47  1  0.105181  0.183870  0.479287  1
  O  O48  1  0.880297  0.584833  0.907835  1
  O  O49  1  0.819440  0.898346  0.019648  1
  O  O50  1  0.914486  0.099957  0.626024  1
  O  O51  1  0.202646  0.674978  0.082176  1
  O  O52  1  0.584889  0.878904  0.404171  1
  O  O53  1  0.817551  0.910758  0.289259  1
  O  O54  1  0.526649  0.321783  0.902587  1
  O  O55  1  0.093574  0.915134  0.121062  1
  O  O56  1  0.906426  0.084866  0.878938  1
  O  O57  1  0.473351  0.678217  0.097413  1
  O  O58  1  0.182449  0.089242  0.710741  1
  O  O59  1  0.415111  0.121096  0.595829  1
  O  O60  1  0.797354  0.325022  0.917824  1
  O  O61  1  0.085514  0.900043  0.373976  1
  O  O62  1  0.180560  0.101654  0.980352  1
  O  O63  1  0.119703  0.415167  0.092165  1
  O  O64  1  0.894819  0.816130  0.520713  1
  O  O65  1  0.704192  0.582843  0.174543  1
  O  O66  1  0.594663  0.624632  0.412737  1
  O  O67  1  0.916716  0.825061  0.797125  1
  O  O68  1  0.379888  0.405076  0.084887  1
  O  O69  1  0.376241  0.977261  0.793944  1
  O  O70  1  0.602611  0.981623  0.679365  1
  O  O71  1  0.325942  0.794587  0.414500  1
  O  O72  1  0.975863  0.596211  0.178007  1
  O  O73  1  0.122161  0.704665  0.518578  1
  O  O74  1  0.792619  0.479354  0.373657  1
  O  O75  1  0.527685  0.210870  0.122363  1
  O  O76  1  0.970069  0.374143  0.287160  1
  O  O77  1  0.310821  0.514003  0.390778  1
  O  O78  1  0.583644  0.710169  0.680508  1
  O  O79  1  0.705475  0.124890  0.018250  1
