# generated using pymatgen
data_La2Tb3YCoI10
_symmetry_space_group_name_H-M   'P 1'
_cell_length_a   7.83124798
_cell_length_b   9.85562157
_cell_length_c   9.78334529
_cell_angle_alpha   106.90035305
_cell_angle_beta   95.92233829
_cell_angle_gamma   105.57793014
_symmetry_Int_Tables_number   1
_chemical_formula_structural   La2Tb3YCoI10
_chemical_formula_sum   'La2 Tb3 Y1 Co1 I10'
_cell_volume   682.35553076
_cell_formula_units_Z   1
loop_
 _symmetry_equiv_pos_site_id
 _symmetry_equiv_pos_as_xyz
  1  'x, y, z'
loop_
 _atom_site_type_symbol
 _atom_site_label
 _atom_site_symmetry_multiplicity
 _atom_site_fract_x
 _atom_site_fract_y
 _atom_site_fract_z
 _atom_site_occupancy
  La  La0  1  0.887195  0.958310  0.230116  1
  La  La1  1  0.113292  0.041693  0.769964  1
  Tb  Tb2  1  0.028917  0.716593  0.914198  1
  Tb  Tb3  1  0.971673  0.283576  0.085859  1
  Tb  Tb4  1  0.654308  0.875379  0.837033  1
  Y  Y5  1  0.345794  0.124958  0.163103  1
  Co  Co6  1  0.999476  0.999747  0.999694  1
  I  I7  1  0.650360  0.551869  0.729871  1
  I  I8  1  0.349837  0.447443  0.269989  1
  I  I9  1  0.729583  0.909462  0.540449  1
  I  I10  1  0.270753  0.090689  0.459133  1
  I  I11  1  0.082806  0.378392  0.822986  1
  I  I12  1  0.917397  0.621556  0.177090  1
  I  I13  1  0.445170  0.816864  0.089584  1
  I  I14  1  0.554501  0.183638  0.911119  1
  I  I15  1  0.225395  0.736692  0.656311  1
  I  I16  1  0.773545  0.263140  0.343501  1
