# generated using pymatgen
data_Tm12CdCo4Ir
_symmetry_space_group_name_H-M   'P 1'
_cell_length_a   8.19386867
_cell_length_b   8.19386866
_cell_length_c   8.19386878
_cell_angle_alpha   111.22202346
_cell_angle_beta   110.90044017
_cell_angle_gamma   106.33612867
_symmetry_Int_Tables_number   1
_chemical_formula_structural   Tm12CdCo4Ir
_chemical_formula_sum   'Tm12 Cd1 Co4 Ir1'
_cell_volume   422.54406061
_cell_formula_units_Z   1
loop_
 _symmetry_equiv_pos_site_id
 _symmetry_equiv_pos_as_xyz
  1  'x, y, z'
loop_
 _atom_site_type_symbol
 _atom_site_label
 _atom_site_symmetry_multiplicity
 _atom_site_fract_x
 _atom_site_fract_y
 _atom_site_fract_z
 _atom_site_occupancy
  Tm  Tm0  1  0.414861  0.220407  0.194454  1
  Tm  Tm1  1  0.585139  0.779593  0.805546  1
  Tm  Tm2  1  0.025954  0.220407  0.805546  1
  Tm  Tm3  1  0.974046  0.779593  0.194454  1
  Tm  Tm4  1  0.182628  0.282555  0.465181  1
  Tm  Tm5  1  0.817372  0.717445  0.534819  1
  Tm  Tm6  1  0.182628  0.717445  0.900073  1
  Tm  Tm7  1  0.817372  0.282555  0.099927  1
  Tm  Tm8  1  0.315443  0.621812  0.306369  1
  Tm  Tm9  1  0.684557  0.378188  0.693631  1
  Tm  Tm10  1  0.315443  0.009075  0.693631  1
  Tm  Tm11  1  0.684557  0.990925  0.306369  1
  Cd  Cd12  1  0.500000  0.500000  0.000000  1
  Co  Co13  1  0.374961  0.000000  0.374961  1
  Co  Co14  1  0.625039  0.000000  0.625039  1
  Co  Co15  1  0.112468  0.612468  0.500000  1
  Co  Co16  1  0.887532  0.387532  0.500000  1
  Ir  Ir17  1  0.000000  0.000000  0.000000  1
