# generated using pymatgen
data_Er4FeSi4Rh
_symmetry_space_group_name_H-M   'P 1'
_cell_length_a   5.60690231
_cell_length_b   5.60690218
_cell_length_c   9.96047835
_cell_angle_alpha   63.38189956
_cell_angle_beta   63.38190195
_cell_angle_gamma   43.60187793
_symmetry_Int_Tables_number   1
_chemical_formula_structural   Er4FeSi4Rh
_chemical_formula_sum   'Er4 Fe1 Si4 Rh1'
_cell_volume   189.14221792
_cell_formula_units_Z   1
loop_
 _symmetry_equiv_pos_site_id
 _symmetry_equiv_pos_as_xyz
  1  'x, y, z'
loop_
 _atom_site_type_symbol
 _atom_site_label
 _atom_site_symmetry_multiplicity
 _atom_site_fract_x
 _atom_site_fract_y
 _atom_site_fract_z
 _atom_site_occupancy
  Er  Er0  1  0.813987  0.813987  0.110307  1
  Er  Er1  1  0.187297  0.187297  0.891930  1
  Er  Er2  1  0.000599  0.000599  0.326855  1
  Er  Er3  1  0.997056  0.997056  0.676082  1
  Fe  Fe4  1  0.727749  0.727749  0.622849  1
  Si  Si5  1  0.514166  0.514166  0.118424  1
  Si  Si6  1  0.498938  0.498938  0.872474  1
  Si  Si7  1  0.638615  0.638615  0.441977  1
  Si  Si8  1  0.349045  0.349045  0.569139  1
  Rh  Rh9  1  0.272549  0.272549  0.369962  1
