# generated using pymatgen
data_Tb3Er13Tl5GaRh2
_symmetry_space_group_name_H-M   'P 1'
_cell_length_a   10.27636986
_cell_length_b   10.27636791
_cell_length_c   7.12779503
_cell_angle_alpha   89.98321828
_cell_angle_beta   90.01678063
_cell_angle_gamma   119.97998725
_symmetry_Int_Tables_number   1
_chemical_formula_structural   Tb3Er13Tl5GaRh2
_chemical_formula_sum   'Tb3 Er13 Tl5 Ga1 Rh2'
_cell_volume   652.00770160
_cell_formula_units_Z   1
loop_
 _symmetry_equiv_pos_site_id
 _symmetry_equiv_pos_as_xyz
  1  'x, y, z'
loop_
 _atom_site_type_symbol
 _atom_site_label
 _atom_site_symmetry_multiplicity
 _atom_site_fract_x
 _atom_site_fract_y
 _atom_site_fract_z
 _atom_site_occupancy
  Tb  Tb0  1  0.535734  0.069667  0.795157  1
  Tb  Tb1  1  0.930333  0.464266  0.795157  1
  Tb  Tb2  1  0.534621  0.465379  0.792168  1
  Er  Er3  1  0.456341  0.924855  0.298316  1
  Er  Er4  1  0.075145  0.543659  0.298316  1
  Er  Er5  1  0.464127  0.535873  0.297756  1
  Er  Er6  1  0.832409  0.652420  0.495896  1
  Er  Er7  1  0.347580  0.167591  0.495896  1
  Er  Er8  1  0.824364  0.175636  0.489314  1
  Er  Er9  1  0.175837  0.353066  0.995586  1
  Er  Er10  1  0.646934  0.824163  0.995586  1
  Er  Er11  1  0.175283  0.824717  0.983578  1
  Er  Er12  1  0.666419  0.333581  0.179616  1
  Er  Er13  1  0.330084  0.669916  0.675026  1
  Er  Er14  1  0.001998  0.998002  0.772669  1
  Er  Er15  1  0.003343  0.996657  0.276694  1
  Tl  Tl16  1  0.836639  0.673685  0.046015  1
  Tl  Tl17  1  0.326315  0.163361  0.046015  1
  Tl  Tl18  1  0.837640  0.162360  0.046110  1
  Tl  Tl19  1  0.164124  0.326518  0.545142  1
  Tl  Tl20  1  0.673482  0.835876  0.545142  1
  Ga  Ga21  1  0.162531  0.837469  0.547565  1
  Rh  Rh22  1  0.666407  0.333593  0.560763  1
  Rh  Rh23  1  0.332312  0.667688  0.062425  1
