# generated using pymatgen
data_Ba4CrRuO8
_symmetry_space_group_name_H-M   'P 1'
_cell_length_a   7.31913800
_cell_length_b   7.31913827
_cell_length_c   5.74926600
_cell_angle_alpha   90.00000000
_cell_angle_beta   90.00000000
_cell_angle_gamma   133.74610243
_symmetry_Int_Tables_number   1
_chemical_formula_structural   Ba4CrRuO8
_chemical_formula_sum   'Ba4 Cr1 Ru1 O8'
_cell_volume   222.49314785
_cell_formula_units_Z   1
loop_
 _symmetry_equiv_pos_site_id
 _symmetry_equiv_pos_as_xyz
  1  'x, y, z'
loop_
 _atom_site_type_symbol
 _atom_site_label
 _atom_site_symmetry_multiplicity
 _atom_site_fract_x
 _atom_site_fract_y
 _atom_site_fract_z
 _atom_site_occupancy
  Ba  Ba0  1  0.354199  0.645801  0.000000  1
  Ba  Ba1  1  0.856433  0.143567  0.500000  1
  Ba  Ba2  1  0.143567  0.856433  0.500000  1
  Ba  Ba3  1  0.645801  0.354199  0.000000  1
  Cr  Cr4  1  0.000000  0.000000  0.000000  1
  Ru  Ru5  1  0.500000  0.500000  0.500000  1
  O  O6  1  0.253425  0.253425  0.744769  1
  O  O7  1  0.746575  0.746575  0.255231  1
  O  O8  1  0.746575  0.746575  0.744769  1
  O  O9  1  0.253425  0.253425  0.255231  1
  O  O10  1  0.152584  0.847416  0.000000  1
  O  O11  1  0.650510  0.349490  0.500000  1
  O  O12  1  0.349490  0.650510  0.500000  1
  O  O13  1  0.847416  0.152584  0.000000  1
