# generated using pymatgen
data_Nd3YCrMo5O24
_symmetry_space_group_name_H-M   'P 1'
_cell_length_a   7.55712532
_cell_length_b   7.55712539
_cell_length_c   10.87934153
_cell_angle_alpha   89.63248034
_cell_angle_beta   90.36752036
_cell_angle_gamma   89.62758862
_symmetry_Int_Tables_number   1
_chemical_formula_structural   Nd3YCrMo5O24
_chemical_formula_sum   'Nd3 Y1 Cr1 Mo5 O24'
_cell_volume   621.28190137
_cell_formula_units_Z   1
loop_
 _symmetry_equiv_pos_site_id
 _symmetry_equiv_pos_as_xyz
  1  'x, y, z'
loop_
 _atom_site_type_symbol
 _atom_site_label
 _atom_site_symmetry_multiplicity
 _atom_site_fract_x
 _atom_site_fract_y
 _atom_site_fract_z
 _atom_site_occupancy
  Nd  Nd0  1  0.692152  0.186971  0.263232  1
  Nd  Nd1  1  0.813874  0.686126  0.736026  1
  Nd  Nd2  1  0.313029  0.807848  0.263232  1
  Y  Y3  1  0.190632  0.309368  0.736738  1
  Cr  Cr4  1  0.791189  0.708811  0.354105  1
  Mo  Mo5  1  0.496721  0.498209  0.996902  1
  Mo  Mo6  1  0.001791  0.003279  0.996902  1
  Mo  Mo7  1  0.706767  0.210104  0.645945  1
  Mo  Mo8  1  0.289896  0.793233  0.645945  1
  Mo  Mo9  1  0.210715  0.289285  0.361234  1
  O  O10  1  0.312087  0.450374  0.898480  1
  O  O11  1  0.185717  0.961508  0.097870  1
  O  O12  1  0.687900  0.540290  0.904816  1
  O  O13  1  0.812558  0.052353  0.088868  1
  O  O14  1  0.538492  0.314283  0.097870  1
  O  O15  1  0.959710  0.812100  0.904816  1
  O  O16  1  0.447647  0.687442  0.088868  1
  O  O17  1  0.049626  0.187913  0.898480  1
  O  O18  1  0.001965  0.223217  0.300776  1
  O  O19  1  0.501638  0.728913  0.703651  1
  O  O20  1  0.986765  0.768158  0.300456  1
  O  O21  1  0.496477  0.278099  0.703859  1
  O  O22  1  0.771087  0.998362  0.703651  1
  O  O23  1  0.731842  0.513235  0.300456  1
  O  O24  1  0.221901  0.003523  0.703859  1
  O  O25  1  0.276783  0.498035  0.300776  1
  O  O26  1  0.693680  0.201201  0.482917  1
  O  O27  1  0.800285  0.699715  0.506420  1
  O  O28  1  0.298799  0.806320  0.482917  1
  O  O29  1  0.198242  0.301758  0.524537  1
  O  O30  1  0.877469  0.369428  0.690802  1
  O  O31  1  0.636221  0.863779  0.308305  1
  O  O32  1  0.130572  0.622531  0.690802  1
  O  O33  1  0.375771  0.124229  0.315486  1
