# generated using pymatgen
data_Lu10Tl2CuPPb4
_symmetry_space_group_name_H-M   'P 1'
_cell_length_a   8.92923684
_cell_length_b   8.96351236
_cell_length_c   6.62727506
_cell_angle_alpha   90.25206643
_cell_angle_beta   89.49392704
_cell_angle_gamma   119.87358333
_symmetry_Int_Tables_number   1
_chemical_formula_structural   Lu10Tl2CuPPb4
_chemical_formula_sum   'Lu10 Tl2 Cu1 P1 Pb4'
_cell_volume   459.93141267
_cell_formula_units_Z   1
loop_
 _symmetry_equiv_pos_site_id
 _symmetry_equiv_pos_as_xyz
  1  'x, y, z'
loop_
 _atom_site_type_symbol
 _atom_site_label
 _atom_site_symmetry_multiplicity
 _atom_site_fract_x
 _atom_site_fract_y
 _atom_site_fract_z
 _atom_site_occupancy
  Lu  Lu0  1  0.245950  0.000000  0.733212  1
  Lu  Lu1  1  0.754050  0.000000  0.266788  1
  Lu  Lu2  1  0.995630  0.244082  0.737430  1
  Lu  Lu3  1  0.004370  0.755918  0.262570  1
  Lu  Lu4  1  0.751548  0.755918  0.737430  1
  Lu  Lu5  1  0.248452  0.244082  0.262570  1
  Lu  Lu6  1  0.334315  0.668631  0.500000  1
  Lu  Lu7  1  0.665685  0.331369  0.500000  1
  Lu  Lu8  1  0.662168  0.324335  0.000000  1
  Lu  Lu9  1  0.337832  0.675665  0.000000  1
  Tl  Tl10  1  0.599605  0.000000  0.750595  1
  Tl  Tl11  1  0.400395  0.000000  0.249405  1
  Cu  Cu12  1  0.000000  0.000000  0.000000  1
  P  P13  1  0.000000  0.000000  0.500000  1
  Pb  Pb14  1  0.997554  0.603775  0.752964  1
  Pb  Pb15  1  0.002446  0.396225  0.247036  1
  Pb  Pb16  1  0.393779  0.396225  0.752964  1
  Pb  Pb17  1  0.606221  0.603775  0.247036  1
