# generated using pymatgen
data_Ba2Tl(SnAs)6
_symmetry_space_group_name_H-M   'P 1'
_cell_length_a   7.31314225
_cell_length_b   7.31314311
_cell_length_c   9.82447600
_cell_angle_alpha   82.82247303
_cell_angle_beta   82.82248007
_cell_angle_gamma   119.95525036
_symmetry_Int_Tables_number   1
_chemical_formula_structural   Ba2Tl(SnAs)6
_chemical_formula_sum   'Ba2 Tl1 Sn6 As6'
_cell_volume   440.82064018
_cell_formula_units_Z   1
loop_
 _symmetry_equiv_pos_site_id
 _symmetry_equiv_pos_as_xyz
  1  'x, y, z'
loop_
 _atom_site_type_symbol
 _atom_site_label
 _atom_site_symmetry_multiplicity
 _atom_site_fract_x
 _atom_site_fract_y
 _atom_site_fract_z
 _atom_site_occupancy
  Ba  Ba0  1  0.666226  0.333774  0.000000  1
  Ba  Ba1  1  0.333774  0.666226  0.000000  1
  Tl  Tl2  1  0.000000  0.000000  0.000000  1
  Sn  Sn3  1  0.538187  0.874483  0.374833  1
  Sn  Sn4  1  0.211519  0.211519  0.375599  1
  Sn  Sn5  1  0.874483  0.538187  0.374833  1
  Sn  Sn6  1  0.461813  0.125517  0.625167  1
  Sn  Sn7  1  0.125517  0.461813  0.625167  1
  Sn  Sn8  1  0.788481  0.788481  0.624401  1
  As  As9  1  0.407517  0.407517  0.766850  1
  As  As10  1  0.078453  0.746419  0.767296  1
  As  As11  1  0.746419  0.078453  0.767296  1
  As  As12  1  0.592483  0.592483  0.233150  1
  As  As13  1  0.253581  0.921547  0.232704  1
  As  As14  1  0.921547  0.253581  0.232704  1
