# generated using pymatgen
data_LaTh4Sn3Se
_symmetry_space_group_name_H-M   'P 1'
_cell_length_a   9.52957200
_cell_length_b   9.54631022
_cell_length_c   6.72835200
_cell_angle_alpha   90.00000000
_cell_angle_beta   90.00000000
_cell_angle_gamma   119.94200898
_symmetry_Int_Tables_number   1
_chemical_formula_structural   LaTh4Sn3Se
_chemical_formula_sum   'La2 Th8 Sn6 Se2'
_cell_volume   530.39785682
_cell_formula_units_Z   2
loop_
 _symmetry_equiv_pos_site_id
 _symmetry_equiv_pos_as_xyz
  1  'x, y, z'
loop_
 _atom_site_type_symbol
 _atom_site_label
 _atom_site_symmetry_multiplicity
 _atom_site_fract_x
 _atom_site_fract_y
 _atom_site_fract_z
 _atom_site_occupancy
  La  La0  1  0.000220  0.737652  0.750000  1
  La  La1  1  0.262568  0.262348  0.750000  1
  Th  Th2  1  0.334984  0.667974  0.497122  1
  Th  Th3  1  0.667011  0.332026  0.497122  1
  Th  Th4  1  0.736847  0.737523  0.250000  1
  Th  Th5  1  0.738223  0.000000  0.750000  1
  Th  Th6  1  0.999324  0.262477  0.250000  1
  Th  Th7  1  0.261846  0.000000  0.250000  1
  Th  Th8  1  0.334984  0.667974  0.002878  1
  Th  Th9  1  0.667011  0.332026  0.002878  1
  Sn  Sn10  1  0.612232  0.613691  0.750000  1
  Sn  Sn11  1  0.998542  0.386309  0.750000  1
  Sn  Sn12  1  0.390766  0.000000  0.750000  1
  Sn  Sn13  1  0.611668  0.000000  0.250000  1
  Sn  Sn14  1  0.388288  0.388376  0.250000  1
  Sn  Sn15  1  0.999912  0.611624  0.250000  1
  Se  Se16  1  0.997786  0.000000  0.003257  1
  Se  Se17  1  0.997786  0.000000  0.496743  1
