# generated using pymatgen
data_Ti2Al2VPtC
_symmetry_space_group_name_H-M   'P 1'
_cell_length_a   8.15058216
_cell_length_b   8.16912459
_cell_length_c   8.14774816
_cell_angle_alpha   59.93615362
_cell_angle_beta   60.16209721
_cell_angle_gamma   59.85838956
_symmetry_Int_Tables_number   1
_chemical_formula_structural   Ti2Al2VPtC
_chemical_formula_sum   'Ti8 Al8 V4 Pt4 C4'
_cell_volume   383.47565740
_cell_formula_units_Z   4
loop_
 _symmetry_equiv_pos_site_id
 _symmetry_equiv_pos_as_xyz
  1  'x, y, z'
loop_
 _atom_site_type_symbol
 _atom_site_label
 _atom_site_symmetry_multiplicity
 _atom_site_fract_x
 _atom_site_fract_y
 _atom_site_fract_z
 _atom_site_occupancy
  Ti  Ti0  1  0.684655  0.316684  0.680642  1
  Ti  Ti1  1  0.316684  0.684655  0.318019  1
  Ti  Ti2  1  0.565355  0.936315  0.561118  1
  Ti  Ti3  1  0.568609  0.932910  0.934044  1
  Ti  Ti4  1  0.932910  0.568609  0.564437  1
  Ti  Ti5  1  0.936315  0.565355  0.937212  1
  Ti  Ti6  1  0.316953  0.316953  0.683047  1
  Ti  Ti7  1  0.563247  0.563247  0.936753  1
  Al  Al8  1  0.913630  0.257889  0.915612  1
  Al  Al9  1  0.335460  0.340710  0.989120  1
  Al  Al10  1  0.988086  0.337901  0.334474  1
  Al  Al11  1  0.340710  0.335460  0.334709  1
  Al  Al12  1  0.257889  0.913630  0.912871  1
  Al  Al13  1  0.917217  0.913946  0.909451  1
  Al  Al14  1  0.913946  0.917217  0.259387  1
  Al  Al15  1  0.337901  0.988086  0.339539  1
  V  V16  1  0.930376  0.930376  0.569624  1
  V  V17  1  0.681627  0.320000  0.320970  1
  V  V18  1  0.320000  0.681627  0.677403  1
  V  V19  1  0.674617  0.674617  0.325383  1
  Pt  Pt20  1  0.123007  0.625868  0.127007  1
  Pt  Pt21  1  0.124610  0.127117  0.622371  1
  Pt  Pt22  1  0.625868  0.123007  0.124117  1
  Pt  Pt23  1  0.127117  0.124610  0.125902  1
  C  C24  1  0.630213  0.125051  0.619236  1
  C  C25  1  0.627134  0.620812  0.129358  1
  C  C26  1  0.125051  0.630213  0.625501  1
  C  C27  1  0.620812  0.627134  0.622695  1
