# generated using pymatgen
data_K6Li4TaCrP6
_symmetry_space_group_name_H-M   'P 1'
_cell_length_a   9.77528000
_cell_length_b   9.77527831
_cell_length_c   14.67007700
_cell_angle_alpha   90.00000000
_cell_angle_beta   90.00000000
_cell_angle_gamma   142.77183077
_symmetry_Int_Tables_number   1
_chemical_formula_structural   K6Li4TaCrP6
_chemical_formula_sum   'K12 Li8 Ta2 Cr2 P12'
_cell_volume   848.08502490
_cell_formula_units_Z   2
loop_
 _symmetry_equiv_pos_site_id
 _symmetry_equiv_pos_as_xyz
  1  'x, y, z'
loop_
 _atom_site_type_symbol
 _atom_site_label
 _atom_site_symmetry_multiplicity
 _atom_site_fract_x
 _atom_site_fract_y
 _atom_site_fract_z
 _atom_site_occupancy
  K  K0  1  0.107951  0.448531  0.673070  1
  K  K1  1  0.715717  0.712987  0.681879  1
  K  K2  1  0.212987  0.215717  0.818121  1
  K  K3  1  0.784283  0.787013  0.181879  1
  K  K4  1  0.948531  0.607951  0.826930  1
  K  K5  1  0.551469  0.892049  0.326930  1
  K  K6  1  0.392049  0.051469  0.173070  1
  K  K7  1  0.055819  0.392534  0.169785  1
  K  K8  1  0.892534  0.555819  0.330215  1
  K  K9  1  0.444181  0.107466  0.669785  1
  K  K10  1  0.607466  0.944182  0.830215  1
  K  K11  1  0.287013  0.284283  0.318121  1
  Li  Li12  1  0.917231  0.082769  0.000000  1
  Li  Li13  1  0.582769  0.417231  0.500000  1
  Li  Li14  1  0.081234  0.918766  0.000000  1
  Li  Li15  1  0.418766  0.581234  0.500000  1
  Li  Li16  1  0.751876  0.248124  0.000000  1
  Li  Li17  1  0.748124  0.251876  0.500000  1
  Li  Li18  1  0.250836  0.749164  0.000000  1
  Li  Li19  1  0.249164  0.750836  0.500000  1
  Ta  Ta20  1  0.918818  0.081182  0.500000  1
  Ta  Ta21  1  0.581182  0.418818  0.000000  1
  Cr  Cr22  1  0.083123  0.916877  0.500000  1
  Cr  Cr23  1  0.416877  0.583123  0.000000  1
  P  P24  1  0.884303  0.565711  0.090968  1
  P  P25  1  0.434289  0.115697  0.909032  1
  P  P26  1  0.615697  0.934289  0.590968  1
  P  P27  1  0.940921  0.627594  0.585549  1
  P  P28  1  0.127594  0.440921  0.914451  1
  P  P29  1  0.559079  0.872406  0.085549  1
  P  P30  1  0.372406  0.059079  0.414451  1
  P  P31  1  0.221791  0.214158  0.586300  1
  P  P32  1  0.714158  0.721791  0.913700  1
  P  P33  1  0.278209  0.285842  0.086300  1
  P  P34  1  0.065711  0.384303  0.409032  1
  P  P35  1  0.785842  0.778209  0.413700  1
