# generated using pymatgen
data_K4Ti(SeS)2
_symmetry_space_group_name_H-M   'P 1'
_cell_length_a   8.09350600
_cell_length_b   9.74237400
_cell_length_c   14.20873700
_cell_angle_alpha   90.00000000
_cell_angle_beta   90.00000000
_cell_angle_gamma   90.00000000
_symmetry_Int_Tables_number   1
_chemical_formula_structural   K4Ti(SeS)2
_chemical_formula_sum   'K16 Ti4 Se8 S8'
_cell_volume   1120.35837853
_cell_formula_units_Z   4
loop_
 _symmetry_equiv_pos_site_id
 _symmetry_equiv_pos_as_xyz
  1  'x, y, z'
loop_
 _atom_site_type_symbol
 _atom_site_label
 _atom_site_symmetry_multiplicity
 _atom_site_fract_x
 _atom_site_fract_y
 _atom_site_fract_z
 _atom_site_occupancy
  K  K0  1  0.500000  0.500000  0.500000  1
  K  K1  1  0.148190  0.451709  0.276816  1
  K  K2  1  0.148190  0.048291  0.276816  1
  K  K3  1  0.989997  0.750000  0.435599  1
  K  K4  1  0.010003  0.250000  0.564401  1
  K  K5  1  0.648190  0.951709  0.223184  1
  K  K6  1  0.351810  0.048291  0.776816  1
  K  K7  1  0.851810  0.951709  0.723184  1
  K  K8  1  0.351810  0.451709  0.776816  1
  K  K9  1  0.000000  0.500000  0.000000  1
  K  K10  1  0.489997  0.250000  0.064401  1
  K  K11  1  0.648190  0.548291  0.223184  1
  K  K12  1  0.510003  0.750000  0.935599  1
  K  K13  1  0.000000  0.000000  0.000000  1
  K  K14  1  0.851810  0.548291  0.723184  1
  K  K15  1  0.500000  0.000000  0.500000  1
  Ti  Ti16  1  0.744451  0.250000  0.835345  1
  Ti  Ti17  1  0.755549  0.250000  0.335345  1
  Ti  Ti18  1  0.244451  0.750000  0.664655  1
  Ti  Ti19  1  0.255549  0.750000  0.164655  1
  Se  Se20  1  0.543010  0.750000  0.671521  1
  Se  Se21  1  0.456990  0.250000  0.328479  1
  Se  Se22  1  0.364798  0.750000  0.324347  1
  Se  Se23  1  0.135202  0.750000  0.824347  1
  Se  Se24  1  0.043010  0.250000  0.828479  1
  Se  Se25  1  0.956990  0.750000  0.171521  1
  Se  Se26  1  0.635202  0.250000  0.675653  1
  Se  Se27  1  0.864798  0.250000  0.175653  1
  S  S28  1  0.841382  0.442207  0.408567  1
  S  S29  1  0.658618  0.057793  0.908567  1
  S  S30  1  0.341382  0.942207  0.091433  1
  S  S31  1  0.341382  0.557793  0.091433  1
  S  S32  1  0.158618  0.557793  0.591433  1
  S  S33  1  0.841382  0.057793  0.408567  1
  S  S34  1  0.158618  0.942207  0.591433  1
  S  S35  1  0.658618  0.442207  0.908567  1
