# generated using pymatgen
data_Dy3ScBe3(BRu2)5
_symmetry_space_group_name_H-M   'P 1'
_cell_length_a   3.10359900
_cell_length_b   8.77294274
_cell_length_c   10.28417147
_cell_angle_alpha   90.60355335
_cell_angle_beta   90.00000000
_cell_angle_gamma   90.00000000
_symmetry_Int_Tables_number   1
_chemical_formula_structural   Dy3ScBe3(BRu2)5
_chemical_formula_sum   'Dy3 Sc1 Be3 B5 Ru10'
_cell_volume   279.99876186
_cell_formula_units_Z   1
loop_
 _symmetry_equiv_pos_site_id
 _symmetry_equiv_pos_as_xyz
  1  'x, y, z'
loop_
 _atom_site_type_symbol
 _atom_site_label
 _atom_site_symmetry_multiplicity
 _atom_site_fract_x
 _atom_site_fract_y
 _atom_site_fract_z
 _atom_site_occupancy
  Dy  Dy0  1  0.500000  0.841793  0.185120  1
  Dy  Dy1  1  0.500000  0.160602  0.816935  1
  Dy  Dy2  1  0.500000  0.660013  0.678726  1
  Sc  Sc3  1  0.500000  0.344026  0.317018  1
  Be  Be4  1  0.500000  0.964726  0.592802  1
  Be  Be5  1  0.500000  0.040928  0.406469  1
  Be  Be6  1  0.500000  0.845366  0.903753  1
  B  B7  1  0.500000  0.149144  0.101190  1
  B  B8  1  0.500000  0.649495  0.401868  1
  B  B9  1  0.500000  0.346867  0.593185  1
  B  B10  1  0.500000  0.465857  0.911806  1
  B  B11  1  0.500000  0.529610  0.090508  1
  Ru  Ru12  1  0.000000  0.644482  0.961800  1
  Ru  Ru13  1  0.000000  0.341213  0.046588  1
  Ru  Ru14  1  0.000000  0.830769  0.446737  1
  Ru  Ru15  1  0.000000  0.169698  0.546292  1
  Ru  Ru16  1  0.000000  0.009140  0.004408  1
  Ru  Ru17  1  0.000000  0.409172  0.759996  1
  Ru  Ru18  1  0.000000  0.585889  0.240225  1
  Ru  Ru19  1  0.000000  0.494640  0.495282  1
  Ru  Ru20  1  0.000000  0.905100  0.744534  1
  Ru  Ru21  1  0.000000  0.111469  0.254752  1
