# generated using pymatgen
data_Er(FeB)4
_symmetry_space_group_name_H-M   'P 1'
_cell_length_a   6.91818000
_cell_length_b   6.91818000
_cell_length_c   3.82701200
_cell_angle_alpha   90.00000000
_cell_angle_beta   90.00000000
_cell_angle_gamma   90.00000000
_symmetry_Int_Tables_number   1
_chemical_formula_structural   Er(FeB)4
_chemical_formula_sum   'Er2 Fe8 B8'
_cell_volume   183.16544227
_cell_formula_units_Z   2
loop_
 _symmetry_equiv_pos_site_id
 _symmetry_equiv_pos_as_xyz
  1  'x, y, z'
loop_
 _atom_site_type_symbol
 _atom_site_label
 _atom_site_symmetry_multiplicity
 _atom_site_fract_x
 _atom_site_fract_y
 _atom_site_fract_z
 _atom_site_occupancy
  Er  Er0  1  0.000000  0.000000  0.000000  1
  Er  Er1  1  0.500000  0.500000  0.500000  1
  Fe  Fe2  1  0.867822  0.384229  0.109830  1
  Fe  Fe3  1  0.132178  0.615771  0.109830  1
  Fe  Fe4  1  0.884229  0.632178  0.609830  1
  Fe  Fe5  1  0.115771  0.367822  0.609830  1
  Fe  Fe6  1  0.632178  0.115771  0.390170  1
  Fe  Fe7  1  0.367822  0.884229  0.390170  1
  Fe  Fe8  1  0.615771  0.867822  0.890170  1
  Fe  Fe9  1  0.384229  0.132178  0.890170  1
  B  B10  1  0.332878  0.801612  0.892932  1
  B  B11  1  0.667122  0.198388  0.892932  1
  B  B12  1  0.301612  0.167122  0.392932  1
  B  B13  1  0.698388  0.832878  0.392932  1
  B  B14  1  0.167122  0.698388  0.607068  1
  B  B15  1  0.832878  0.301612  0.607068  1
  B  B16  1  0.198388  0.332878  0.107068  1
  B  B17  1  0.801612  0.667122  0.107068  1
