# generated using pymatgen
data_Ca4Zn5Pt9
_symmetry_space_group_name_H-M   'P 1'
_cell_length_a   5.42951140
_cell_length_b   5.42951130
_cell_length_c   12.99251900
_cell_angle_alpha   77.93931779
_cell_angle_beta   77.93931802
_cell_angle_gamma   60.00000590
_symmetry_Int_Tables_number   1
_chemical_formula_structural   Ca4Zn5Pt9
_chemical_formula_sum   'Ca4 Zn5 Pt9'
_cell_volume   321.90080502
_cell_formula_units_Z   1
loop_
 _symmetry_equiv_pos_site_id
 _symmetry_equiv_pos_as_xyz
  1  'x, y, z'
loop_
 _atom_site_type_symbol
 _atom_site_label
 _atom_site_symmetry_multiplicity
 _atom_site_fract_x
 _atom_site_fract_y
 _atom_site_fract_z
 _atom_site_occupancy
  Ca  Ca0  1  0.950982  0.950982  0.147056  1
  Ca  Ca1  1  0.049018  0.049018  0.852944  1
  Ca  Ca2  1  0.853588  0.853588  0.439236  1
  Ca  Ca3  1  0.146412  0.146412  0.560764  1
  Zn  Zn4  1  0.500000  0.500000  0.500000  1
  Zn  Zn5  1  0.722120  0.722120  0.833641  1
  Zn  Zn6  1  0.277880  0.277880  0.166359  1
  Zn  Zn7  1  0.611110  0.611110  0.166671  1
  Zn  Zn8  1  0.388890  0.388890  0.833329  1
  Pt  Pt9  1  0.000000  0.500000  0.000000  1
  Pt  Pt10  1  0.500000  0.000000  0.000000  1
  Pt  Pt11  1  0.500000  0.500000  0.000000  1
  Pt  Pt12  1  0.388454  0.388454  0.331449  1
  Pt  Pt13  1  0.891643  0.388454  0.331449  1
  Pt  Pt14  1  0.388454  0.891643  0.331449  1
  Pt  Pt15  1  0.611546  0.611546  0.668551  1
  Pt  Pt16  1  0.108357  0.611546  0.668551  1
  Pt  Pt17  1  0.611546  0.108357  0.668551  1
