# generated using pymatgen
data_CaNd2B10O19
_symmetry_space_group_name_H-M   'P 1'
_cell_length_a   6.42290462
_cell_length_b   6.42290540
_cell_length_c   9.14011834
_cell_angle_alpha   88.49366493
_cell_angle_beta   91.50633392
_cell_angle_gamma   118.38022287
_symmetry_Int_Tables_number   1
_chemical_formula_structural   CaNd2B10O19
_chemical_formula_sum   'Ca1 Nd2 B10 O19'
_cell_volume   331.59007599
_cell_formula_units_Z   1
loop_
 _symmetry_equiv_pos_site_id
 _symmetry_equiv_pos_as_xyz
  1  'x, y, z'
loop_
 _atom_site_type_symbol
 _atom_site_label
 _atom_site_symmetry_multiplicity
 _atom_site_fract_x
 _atom_site_fract_y
 _atom_site_fract_z
 _atom_site_occupancy
  Ca  Ca0  1  0.815046  0.815046  0.500000  1
  Nd  Nd1  1  0.152622  0.834318  0.144187  1
  Nd  Nd2  1  0.834319  0.152621  0.855813  1
  B  B3  1  0.280816  0.364497  0.159573  1
  B  B4  1  0.364497  0.280816  0.840427  1
  B  B5  1  0.836970  0.188927  0.205991  1
  B  B6  1  0.188927  0.836970  0.794010  1
  B  B7  1  0.671814  0.447944  0.271355  1
  B  B8  1  0.447944  0.671814  0.728645  1
  B  B9  1  0.253720  0.787801  0.528210  1
  B  B10  1  0.787801  0.253720  0.471790  1
  B  B11  1  0.621590  0.762298  0.125413  1
  B  B12  1  0.762299  0.621589  0.874587  1
  O  O13  1  0.145503  0.852574  0.637169  1
  O  O14  1  0.852574  0.145503  0.362832  1
  O  O15  1  0.361545  0.593970  0.112938  1
  O  O16  1  0.593969  0.361546  0.887063  1
  O  O17  1  0.406048  0.699258  0.571542  1
  O  O18  1  0.699258  0.406048  0.428459  1
  O  O19  1  0.193507  0.808829  0.388372  1
  O  O20  1  0.808830  0.193506  0.611628  1
  O  O21  1  0.722190  0.697111  0.254483  1
  O  O22  1  0.697110  0.722191  0.745517  1
  O  O23  1  0.422338  0.282156  0.221626  1
  O  O24  1  0.282156  0.422338  0.778374  1
  O  O25  1  0.841435  0.415803  0.181624  1
  O  O26  1  0.415803  0.841436  0.818375  1
  O  O27  1  0.048358  0.195454  0.129770  1
  O  O28  1  0.195453  0.048358  0.870230  1
  O  O29  1  0.630216  0.994688  0.132637  1
  O  O30  1  0.994689  0.630215  0.867362  1
  O  O31  1  0.765552  0.765552  0.000000  1
