# generated using pymatgen
data_Ta5Mn6B6Mo
_symmetry_space_group_name_H-M   'P 1'
_cell_length_a   6.82685832
_cell_length_b   6.83866776
_cell_length_c   6.82685692
_cell_angle_alpha   127.01165419
_cell_angle_beta   126.65808682
_cell_angle_gamma   78.47989746
_symmetry_Int_Tables_number   1
_chemical_formula_structural   Ta5Mn6B6Mo
_chemical_formula_sum   'Ta5 Mn6 B6 Mo1'
_cell_volume   197.72063770
_cell_formula_units_Z   1
loop_
 _symmetry_equiv_pos_site_id
 _symmetry_equiv_pos_as_xyz
  1  'x, y, z'
loop_
 _atom_site_type_symbol
 _atom_site_label
 _atom_site_symmetry_multiplicity
 _atom_site_fract_x
 _atom_site_fract_y
 _atom_site_fract_z
 _atom_site_occupancy
  Ta  Ta0  1  0.454720  0.497513  0.542793  1
  Ta  Ta1  1  0.955495  0.497725  0.042231  1
  Ta  Ta2  1  0.045174  0.087007  0.541832  1
  Ta  Ta3  1  0.750677  0.907127  0.656451  1
  Ta  Ta4  1  0.250288  0.907192  0.156903  1
  Mn  Mn5  1  0.126905  0.742469  0.623510  1
  Mn  Mn6  1  0.873664  0.495019  0.614418  1
  Mn  Mn7  1  0.618961  0.742469  0.115565  1
  Mn  Mn8  1  0.380601  0.495019  0.121356  1
  Mn  Mn9  1  0.501395  0.251260  0.754329  1
  Mn  Mn10  1  0.996930  0.251260  0.249865  1
  B  B11  1  0.334984  0.832179  0.501030  1
  B  B12  1  0.665845  0.163082  0.493363  1
  B  B13  1  0.831150  0.832179  0.997196  1
  B  B14  1  0.169721  0.163082  0.997238  1
  B  B15  1  0.749697  0.495774  0.246078  1
  B  B16  1  0.249096  0.495693  0.746596  1
  Mo  Mo17  1  0.544701  0.085948  0.041249  1
