# generated using pymatgen
data_Er5HgRh2
_symmetry_space_group_name_H-M   'P 1'
_cell_length_a   8.56284074
_cell_length_b   8.56284032
_cell_length_c   8.56284100
_cell_angle_alpha   126.93505442
_cell_angle_beta   126.93506069
_cell_angle_gamma   78.35666464
_symmetry_Int_Tables_number   1
_chemical_formula_structural   Er5HgRh2
_chemical_formula_sum   'Er10 Hg2 Rh4'
_cell_volume   388.47185614
_cell_formula_units_Z   2
loop_
 _symmetry_equiv_pos_site_id
 _symmetry_equiv_pos_as_xyz
  1  'x, y, z'
loop_
 _atom_site_type_symbol
 _atom_site_label
 _atom_site_symmetry_multiplicity
 _atom_site_fract_x
 _atom_site_fract_y
 _atom_site_fract_z
 _atom_site_occupancy
  Er  Er0  1  0.000000  0.000000  0.000000  1
  Er  Er1  1  0.500000  0.500000  0.000000  1
  Er  Er2  1  0.795223  0.295223  0.818086  1
  Er  Er3  1  0.204777  0.704777  0.181914  1
  Er  Er4  1  0.477136  0.977136  0.181914  1
  Er  Er5  1  0.295223  0.477136  0.500000  1
  Er  Er6  1  0.022864  0.204777  0.500000  1
  Er  Er7  1  0.522864  0.022864  0.818086  1
  Er  Er8  1  0.704777  0.522864  0.500000  1
  Er  Er9  1  0.977136  0.795223  0.500000  1
  Hg  Hg10  1  0.250000  0.250000  0.000000  1
  Hg  Hg11  1  0.750000  0.750000  0.000000  1
  Rh  Rh12  1  0.140480  0.640480  0.780960  1
  Rh  Rh13  1  0.859520  0.359520  0.219040  1
  Rh  Rh14  1  0.640480  0.859520  0.500000  1
  Rh  Rh15  1  0.359520  0.140480  0.500000  1
