# generated using pymatgen
data_La3Tb2Tm15Pt16
_symmetry_space_group_name_H-M   'P 1'
_cell_length_a   7.48379122
_cell_length_b   7.56109529
_cell_length_c   14.64445600
_cell_angle_alpha   90.03439522
_cell_angle_beta   90.09921394
_cell_angle_gamma   89.97156954
_symmetry_Int_Tables_number   1
_chemical_formula_structural   La3Tb2Tm15Pt16
_chemical_formula_sum   'La3 Tb2 Tm15 Pt16'
_cell_volume   828.66469345
_cell_formula_units_Z   1
loop_
 _symmetry_equiv_pos_site_id
 _symmetry_equiv_pos_as_xyz
  1  'x, y, z'
loop_
 _atom_site_type_symbol
 _atom_site_label
 _atom_site_symmetry_multiplicity
 _atom_site_fract_x
 _atom_site_fract_y
 _atom_site_fract_z
 _atom_site_occupancy
  La  La0  1  0.000954  0.173990  0.407061  1
  La  La1  1  0.500845  0.326268  0.408379  1
  La  La2  1  0.000526  0.175836  0.090571  1
  Tb  Tb3  1  0.500522  0.677862  0.907200  1
  Tb  Tb4  1  0.000369  0.817958  0.595795  1
  Tm  Tm5  1  0.658507  0.164844  0.625498  1
  Tm  Tm6  1  0.159592  0.335239  0.875764  1
  Tm  Tm7  1  0.345882  0.832597  0.121510  1
  Tm  Tm8  1  0.846484  0.668077  0.376862  1
  Tm  Tm9  1  0.348292  0.830454  0.377514  1
  Tm  Tm10  1  0.843034  0.667007  0.119977  1
  Tm  Tm11  1  0.655495  0.167750  0.877294  1
  Tm  Tm12  1  0.157964  0.334140  0.624525  1
  Tm  Tm13  1  0.501553  0.683658  0.596130  1
  Tm  Tm14  1  0.003175  0.816859  0.903965  1
  Tm  Tm15  1  0.498168  0.323355  0.093446  1
  Tm  Tm16  1  0.818460  0.508556  0.750553  1
  Tm  Tm17  1  0.318366  0.990625  0.750904  1
  Tm  Tm18  1  0.181397  0.493219  0.247165  1
  Tm  Tm19  1  0.679019  0.007860  0.247984  1
  Pt  Pt20  1  0.678237  0.955106  0.461814  1
  Pt  Pt21  1  0.187765  0.538680  0.039909  1
  Pt  Pt22  1  0.316472  0.030309  0.954856  1
  Pt  Pt23  1  0.814010  0.473451  0.546595  1
  Pt  Pt24  1  0.317854  0.025813  0.547158  1
  Pt  Pt25  1  0.816618  0.470376  0.955522  1
  Pt  Pt26  1  0.675597  0.963638  0.041012  1
  Pt  Pt27  1  0.179138  0.545146  0.461787  1
  Pt  Pt28  1  0.453777  0.385234  0.749546  1
  Pt  Pt29  1  0.953383  0.115166  0.751162  1
  Pt  Pt30  1  0.546195  0.621693  0.247651  1
  Pt  Pt31  1  0.048032  0.875764  0.249412  1
  Pt  Pt32  1  0.680778  0.856537  0.750324  1
  Pt  Pt33  1  0.181538  0.643233  0.750968  1
  Pt  Pt34  1  0.319659  0.141455  0.246740  1
  Pt  Pt35  1  0.812344  0.362246  0.247447  1
