# generated using pymatgen
data_TiIr4Rh2W
_symmetry_space_group_name_H-M   'P 1'
_cell_length_a   5.52378739
_cell_length_b   5.52378743
_cell_length_c   4.42701700
_cell_angle_alpha   90.00000000
_cell_angle_beta   90.00000000
_cell_angle_gamma   120.10650902
_symmetry_Int_Tables_number   1
_chemical_formula_structural   TiIr4Rh2W
_chemical_formula_sum   'Ti1 Ir4 Rh2 W1'
_cell_volume   116.85535598
_cell_formula_units_Z   1
loop_
 _symmetry_equiv_pos_site_id
 _symmetry_equiv_pos_as_xyz
  1  'x, y, z'
loop_
 _atom_site_type_symbol
 _atom_site_label
 _atom_site_symmetry_multiplicity
 _atom_site_fract_x
 _atom_site_fract_y
 _atom_site_fract_z
 _atom_site_occupancy
  Ti  Ti0  1  0.333075  0.666925  0.250000  1
  Ir  Ir1  1  0.834492  0.668379  0.250000  1
  Ir  Ir2  1  0.165418  0.834582  0.750000  1
  Ir  Ir3  1  0.331621  0.165508  0.250000  1
  Ir  Ir4  1  0.834222  0.165778  0.250000  1
  Rh  Rh5  1  0.668996  0.835039  0.750000  1
  Rh  Rh6  1  0.164961  0.331004  0.750000  1
  W  W7  1  0.667217  0.332783  0.750000  1
