# generated using pymatgen
data_Hf17Ta(Si8W)2
_symmetry_space_group_name_H-M   'P 1'
_cell_length_a   6.98707191
_cell_length_b   6.98707145
_cell_length_c   12.77021003
_cell_angle_alpha   90.04475864
_cell_angle_beta   89.95524073
_cell_angle_gamma   89.81475500
_symmetry_Int_Tables_number   1
_chemical_formula_structural   Hf17Ta(Si8W)2
_chemical_formula_sum   'Hf17 Ta1 Si16 W2'
_cell_volume   623.42742215
_cell_formula_units_Z   1
loop_
 _symmetry_equiv_pos_site_id
 _symmetry_equiv_pos_as_xyz
  1  'x, y, z'
loop_
 _atom_site_type_symbol
 _atom_site_label
 _atom_site_symmetry_multiplicity
 _atom_site_fract_x
 _atom_site_fract_y
 _atom_site_fract_z
 _atom_site_occupancy
  Hf  Hf0  1  0.174859  0.174859  0.000000  1
  Hf  Hf1  1  0.496749  0.154679  0.529892  1
  Hf  Hf2  1  0.504094  0.846231  0.031122  1
  Hf  Hf3  1  0.654414  0.001949  0.282113  1
  Hf  Hf4  1  0.346252  0.995892  0.780633  1
  Hf  Hf5  1  0.846231  0.504094  0.968878  1
  Hf  Hf6  1  0.154679  0.496749  0.470108  1
  Hf  Hf7  1  0.001949  0.654414  0.717887  1
  Hf  Hf8  1  0.995892  0.346252  0.219367  1
  Hf  Hf9  1  0.498051  0.355671  0.127086  1
  Hf  Hf10  1  0.502184  0.644365  0.626029  1
  Hf  Hf11  1  0.853523  0.001131  0.873918  1
  Hf  Hf12  1  0.146030  0.996604  0.376472  1
  Hf  Hf13  1  0.644365  0.502184  0.373971  1
  Hf  Hf14  1  0.355671  0.498051  0.872914  1
  Hf  Hf15  1  0.001131  0.853523  0.126082  1
  Hf  Hf16  1  0.996604  0.146030  0.623528  1
  Ta  Ta17  1  0.825184  0.825184  0.500000  1
  Si  Si18  1  0.795927  0.146793  0.071208  1
  Si  Si19  1  0.202825  0.853098  0.571944  1
  Si  Si20  1  0.646388  0.702332  0.821724  1
  Si  Si21  1  0.352623  0.297297  0.322618  1
  Si  Si22  1  0.853098  0.202825  0.428056  1
  Si  Si23  1  0.146793  0.795927  0.928792  1
  Si  Si24  1  0.702332  0.646388  0.178276  1
  Si  Si25  1  0.297297  0.352623  0.677382  1
  Si  Si26  1  0.550927  0.198995  0.933093  1
  Si  Si27  1  0.452928  0.802276  0.434358  1
  Si  Si28  1  0.696138  0.954675  0.683804  1
  Si  Si29  1  0.304720  0.043327  0.185896  1
  Si  Si30  1  0.802276  0.452928  0.565642  1
  Si  Si31  1  0.198995  0.550927  0.066907  1
  Si  Si32  1  0.954675  0.696138  0.316196  1
  Si  Si33  1  0.043327  0.304720  0.814104  1
  W  W34  1  0.675351  0.325516  0.748818  1
  W  W35  1  0.325516  0.675351  0.251182  1
