# generated using pymatgen
data_Dy3Ho7(Er5Bi6)2
_symmetry_space_group_name_H-M   'P 1'
_cell_length_a   8.22702031
_cell_length_b   9.48525300
_cell_length_c   11.99017800
_cell_angle_alpha   90.00000000
_cell_angle_beta   90.01666401
_cell_angle_gamma   90.00000000
_symmetry_Int_Tables_number   1
_chemical_formula_structural   Dy3Ho7(Er5Bi6)2
_chemical_formula_sum   'Dy3 Ho7 Er10 Bi12'
_cell_volume   935.65792647
_cell_formula_units_Z   1
loop_
 _symmetry_equiv_pos_site_id
 _symmetry_equiv_pos_as_xyz
  1  'x, y, z'
loop_
 _atom_site_type_symbol
 _atom_site_label
 _atom_site_symmetry_multiplicity
 _atom_site_fract_x
 _atom_site_fract_y
 _atom_site_fract_z
 _atom_site_occupancy
  Dy  Dy0  1  0.812901  0.250000  0.281702  1
  Dy  Dy1  1  0.686944  0.750000  0.781820  1
  Dy  Dy2  1  0.186771  0.750000  0.718268  1
  Ho  Ho3  1  0.353041  0.750000  0.216712  1
  Ho  Ho4  1  0.852960  0.750000  0.283243  1
  Ho  Ho5  1  0.646943  0.250000  0.783577  1
  Ho  Ho6  1  0.147164  0.250000  0.716598  1
  Ho  Ho7  1  0.476020  0.250000  0.488333  1
  Ho  Ho8  1  0.976042  0.250000  0.011780  1
  Ho  Ho9  1  0.312682  0.250000  0.217810  1
  Er  Er10  1  0.692357  0.564989  0.059094  1
  Er  Er11  1  0.192049  0.935000  0.440799  1
  Er  Er12  1  0.307813  0.065017  0.941012  1
  Er  Er13  1  0.808044  0.434975  0.559057  1
  Er  Er14  1  0.307813  0.434983  0.941012  1
  Er  Er15  1  0.808044  0.065025  0.559057  1
  Er  Er16  1  0.692357  0.935011  0.059094  1
  Er  Er17  1  0.192049  0.565000  0.440799  1
  Er  Er18  1  0.523955  0.750000  0.511422  1
  Er  Er19  1  0.024077  0.750000  0.988629  1
  Bi  Bi20  1  0.405680  0.750000  0.958069  1
  Bi  Bi21  1  0.905511  0.750000  0.541927  1
  Bi  Bi22  1  0.593791  0.250000  0.042560  1
  Bi  Bi23  1  0.094712  0.250000  0.457695  1
  Bi  Bi24  1  0.565209  0.995409  0.325613  1
  Bi  Bi25  1  0.066432  0.504657  0.174187  1
  Bi  Bi26  1  0.434303  0.495168  0.674065  1
  Bi  Bi27  1  0.934194  0.004942  0.826099  1
  Bi  Bi28  1  0.434303  0.004832  0.674065  1
  Bi  Bi29  1  0.934194  0.495058  0.826099  1
  Bi  Bi30  1  0.565209  0.504591  0.325613  1
  Bi  Bi31  1  0.066432  0.995343  0.174187  1
