# generated using pymatgen
data_Nd5(TcO6)2
_symmetry_space_group_name_H-M   'P 1'
_cell_length_a   7.07346067
_cell_length_b   7.07346210
_cell_length_c   7.83893119
_cell_angle_alpha   73.74684875
_cell_angle_beta   73.74684754
_cell_angle_gamma   48.36438033
_symmetry_Int_Tables_number   1
_chemical_formula_structural   Nd5(TcO6)2
_chemical_formula_sum   'Nd5 Tc2 O12'
_cell_volume   278.99631347
_cell_formula_units_Z   1
loop_
 _symmetry_equiv_pos_site_id
 _symmetry_equiv_pos_as_xyz
  1  'x, y, z'
loop_
 _atom_site_type_symbol
 _atom_site_label
 _atom_site_symmetry_multiplicity
 _atom_site_fract_x
 _atom_site_fract_y
 _atom_site_fract_z
 _atom_site_occupancy
  Nd  Nd0  1  0.307855  0.307855  0.355130  1
  Nd  Nd1  1  0.692145  0.692145  0.644870  1
  Nd  Nd2  1  0.684922  0.684922  0.170805  1
  Nd  Nd3  1  0.315078  0.315078  0.829195  1
  Nd  Nd4  1  0.000000  0.000000  0.500000  1
  Tc  Tc5  1  0.787210  0.212790  0.000000  1
  Tc  Tc6  1  0.212790  0.787210  0.000000  1
  O  O7  1  0.095978  0.593046  0.577304  1
  O  O8  1  0.999134  0.999134  0.198122  1
  O  O9  1  0.406954  0.904022  0.422696  1
  O  O10  1  0.498695  0.498695  0.168187  1
  O  O11  1  0.086817  0.594814  0.078221  1
  O  O12  1  0.904022  0.406954  0.422696  1
  O  O13  1  0.000866  0.000866  0.801878  1
  O  O14  1  0.593046  0.095977  0.577304  1
  O  O15  1  0.501305  0.501305  0.831813  1
  O  O16  1  0.594814  0.086817  0.078221  1
  O  O17  1  0.405186  0.913183  0.921779  1
  O  O18  1  0.913183  0.405186  0.921779  1
