# generated using pymatgen
data_Y4Sc4IrPt3
_symmetry_space_group_name_H-M   'P 1'
_cell_length_a   4.53426900
_cell_length_b   7.03685265
_cell_length_c   8.48536632
_cell_angle_alpha   89.41058957
_cell_angle_beta   90.00000000
_cell_angle_gamma   90.00000000
_symmetry_Int_Tables_number   1
_chemical_formula_structural   Y4Sc4IrPt3
_chemical_formula_sum   'Y4 Sc4 Ir1 Pt3'
_cell_volume   270.72811202
_cell_formula_units_Z   1
loop_
 _symmetry_equiv_pos_site_id
 _symmetry_equiv_pos_as_xyz
  1  'x, y, z'
loop_
 _atom_site_type_symbol
 _atom_site_label
 _atom_site_symmetry_multiplicity
 _atom_site_fract_x
 _atom_site_fract_y
 _atom_site_fract_z
 _atom_site_occupancy
  Y  Y0  1  0.250000  0.018065  0.673961  1
  Y  Y1  1  0.250000  0.518223  0.823124  1
  Y  Y2  1  0.750000  0.987012  0.325240  1
  Y  Y3  1  0.750000  0.479501  0.178274  1
  Sc  Sc4  1  0.250000  0.141842  0.072620  1
  Sc  Sc5  1  0.250000  0.639857  0.426665  1
  Sc  Sc6  1  0.750000  0.858264  0.929305  1
  Sc  Sc7  1  0.750000  0.356836  0.568641  1
  Ir  Ir8  1  0.250000  0.258820  0.400790  1
  Pt  Pt9  1  0.250000  0.756951  0.099881  1
  Pt  Pt10  1  0.750000  0.741370  0.601732  1
  Pt  Pt11  1  0.750000  0.243260  0.899766  1
