# generated using pymatgen
data_ZrZnCu3Pd
_symmetry_space_group_name_H-M   'P 1'
_cell_length_a   4.93967690
_cell_length_b   4.93967705
_cell_length_c   4.93967817
_cell_angle_alpha   60.12004603
_cell_angle_beta   60.12004473
_cell_angle_gamma   60.12004451
_symmetry_Int_Tables_number   1
_chemical_formula_structural   ZrZnCu3Pd
_chemical_formula_sum   'Zr1 Zn1 Cu3 Pd1'
_cell_volume   85.45948753
_cell_formula_units_Z   1
loop_
 _symmetry_equiv_pos_site_id
 _symmetry_equiv_pos_as_xyz
  1  'x, y, z'
loop_
 _atom_site_type_symbol
 _atom_site_label
 _atom_site_symmetry_multiplicity
 _atom_site_fract_x
 _atom_site_fract_y
 _atom_site_fract_z
 _atom_site_occupancy
  Zr  Zr0  1  0.248127  0.248127  0.248127  1
  Zn  Zn1  1  0.627192  0.627192  0.627192  1
  Cu  Cu2  1  0.625690  0.625690  0.124556  1
  Cu  Cu3  1  0.625690  0.124556  0.625690  1
  Cu  Cu4  1  0.124556  0.625690  0.625690  1
  Pd  Pd5  1  0.998746  0.998746  0.998746  1
