# generated using pymatgen
data_Dy16Cd2FeNi3Ag2
_symmetry_space_group_name_H-M   'P 1'
_cell_length_a   9.47694326
_cell_length_b   9.47694185
_cell_length_c   9.48990064
_cell_angle_alpha   59.98862543
_cell_angle_beta   59.98862851
_cell_angle_gamma   60.02624157
_symmetry_Int_Tables_number   1
_chemical_formula_structural   Dy16Cd2FeNi3Ag2
_chemical_formula_sum   'Dy16 Cd2 Fe1 Ni3 Ag2'
_cell_volume   602.69072956
_cell_formula_units_Z   1
loop_
 _symmetry_equiv_pos_site_id
 _symmetry_equiv_pos_as_xyz
  1  'x, y, z'
loop_
 _atom_site_type_symbol
 _atom_site_label
 _atom_site_symmetry_multiplicity
 _atom_site_fract_x
 _atom_site_fract_y
 _atom_site_fract_z
 _atom_site_occupancy
  Dy  Dy0  1  0.597981  0.597981  0.599425  1
  Dy  Dy1  1  0.596300  0.596300  0.207783  1
  Dy  Dy2  1  0.597866  0.205827  0.597710  1
  Dy  Dy3  1  0.205827  0.597866  0.597710  1
  Dy  Dy4  1  0.065525  0.437585  0.437867  1
  Dy  Dy5  1  0.438395  0.060853  0.060032  1
  Dy  Dy6  1  0.437585  0.065525  0.437867  1
  Dy  Dy7  1  0.060853  0.438395  0.060032  1
  Dy  Dy8  1  0.437676  0.437676  0.065906  1
  Dy  Dy9  1  0.060334  0.060334  0.436905  1
  Dy  Dy10  1  0.183867  0.813734  0.814243  1
  Dy  Dy11  1  0.810016  0.185083  0.189211  1
  Dy  Dy12  1  0.813734  0.183867  0.814243  1
  Dy  Dy13  1  0.185083  0.810016  0.189211  1
  Dy  Dy14  1  0.812424  0.812424  0.187271  1
  Dy  Dy15  1  0.186480  0.186480  0.811289  1
  Cd  Cd16  1  0.831367  0.509477  0.829414  1
  Cd  Cd17  1  0.509477  0.831367  0.829414  1
  Fe  Fe18  1  0.392452  0.392452  0.392668  1
  Ni  Ni19  1  0.392914  0.392914  0.824142  1
  Ni  Ni20  1  0.392634  0.824093  0.393060  1
  Ni  Ni21  1  0.824093  0.392634  0.393060  1
  Ag  Ag22  1  0.832798  0.832798  0.831711  1
  Ag  Ag23  1  0.834320  0.834320  0.499825  1
