# generated using pymatgen
data_Y3Co7TcNiP6
_symmetry_space_group_name_H-M   'P 1'
_cell_length_a   3.73814300
_cell_length_b   10.52898100
_cell_length_c   12.25980200
_cell_angle_alpha   90.00000000
_cell_angle_beta   90.00000000
_cell_angle_gamma   90.00000000
_symmetry_Int_Tables_number   1
_chemical_formula_structural   Y3Co7TcNiP6
_chemical_formula_sum   'Y6 Co14 Tc2 Ni2 P12'
_cell_volume   482.53154394
_cell_formula_units_Z   2
loop_
 _symmetry_equiv_pos_site_id
 _symmetry_equiv_pos_as_xyz
  1  'x, y, z'
loop_
 _atom_site_type_symbol
 _atom_site_label
 _atom_site_symmetry_multiplicity
 _atom_site_fract_x
 _atom_site_fract_y
 _atom_site_fract_z
 _atom_site_occupancy
  Y  Y0  1  0.000000  0.500000  0.522540  1
  Y  Y1  1  0.500000  0.000000  0.477460  1
  Y  Y2  1  0.500000  0.816506  0.205671  1
  Y  Y3  1  0.500000  0.183494  0.205671  1
  Y  Y4  1  0.000000  0.683494  0.794329  1
  Y  Y5  1  0.000000  0.316506  0.794329  1
  Co  Co6  1  0.000000  0.500000  0.987426  1
  Co  Co7  1  0.500000  0.000000  0.012574  1
  Co  Co8  1  0.500000  0.332146  0.990001  1
  Co  Co9  1  0.500000  0.667854  0.990001  1
  Co  Co10  1  0.000000  0.167854  0.009999  1
  Co  Co11  1  0.000000  0.832146  0.009999  1
  Co  Co12  1  0.500000  0.298179  0.431212  1
  Co  Co13  1  0.500000  0.701821  0.431212  1
  Co  Co14  1  0.000000  0.201821  0.568788  1
  Co  Co15  1  0.000000  0.798179  0.568788  1
  Co  Co16  1  0.500000  0.879300  0.708533  1
  Co  Co17  1  0.500000  0.120700  0.708533  1
  Co  Co18  1  0.000000  0.620700  0.291467  1
  Co  Co19  1  0.000000  0.379300  0.291467  1
  Tc  Tc20  1  0.500000  0.500000  0.156012  1
  Tc  Tc21  1  0.000000  0.000000  0.843988  1
  Ni  Ni22  1  0.500000  0.500000  0.702992  1
  Ni  Ni23  1  0.000000  0.000000  0.297008  1
  P  P24  1  0.500000  0.500000  0.882535  1
  P  P25  1  0.000000  0.000000  0.117465  1
  P  P26  1  0.500000  0.500000  0.347720  1
  P  P27  1  0.000000  0.000000  0.652280  1
  P  P28  1  0.500000  0.310245  0.615360  1
  P  P29  1  0.500000  0.689755  0.615360  1
  P  P30  1  0.000000  0.189755  0.384640  1
  P  P31  1  0.000000  0.810245  0.384640  1
  P  P32  1  0.500000  0.846515  0.893128  1
  P  P33  1  0.500000  0.153485  0.893128  1
  P  P34  1  0.000000  0.653485  0.106872  1
  P  P35  1  0.000000  0.346515  0.106872  1
