# generated using pymatgen
data_Dy5Co14Si12Ru5
_symmetry_space_group_name_H-M   'P 1'
_cell_length_a   12.29140238
_cell_length_b   12.24328775
_cell_length_c   3.79508200
_cell_angle_alpha   90.00000000
_cell_angle_beta   90.00000000
_cell_angle_gamma   119.99555477
_symmetry_Int_Tables_number   1
_chemical_formula_structural   Dy5Co14Si12Ru5
_chemical_formula_sum   'Dy5 Co14 Si12 Ru5'
_cell_volume   494.61893771
_cell_formula_units_Z   1
loop_
 _symmetry_equiv_pos_site_id
 _symmetry_equiv_pos_as_xyz
  1  'x, y, z'
loop_
 _atom_site_type_symbol
 _atom_site_label
 _atom_site_symmetry_multiplicity
 _atom_site_fract_x
 _atom_site_fract_y
 _atom_site_fract_z
 _atom_site_occupancy
  Dy  Dy0  1  0.664041  0.333462  0.000000  1
  Dy  Dy1  1  0.333413  0.666912  0.000000  1
  Dy  Dy2  1  0.185897  0.184731  0.500000  1
  Dy  Dy3  1  0.816546  0.000782  0.500000  1
  Dy  Dy4  1  0.998786  0.816269  0.500000  1
  Co  Co5  1  0.824938  0.197517  0.000000  1
  Co  Co6  1  0.801213  0.625964  0.000000  1
  Co  Co7  1  0.375262  0.180125  0.000000  1
  Co  Co8  1  0.194958  0.818548  0.000000  1
  Co  Co9  1  0.621901  0.803612  0.000000  1
  Co  Co10  1  0.184299  0.376995  0.000000  1
  Co  Co11  1  0.475412  0.354603  0.500000  1
  Co  Co12  1  0.128111  0.646123  0.500000  1
  Co  Co13  1  0.517830  0.871861  0.500000  1
  Co  Co14  1  0.355264  0.478334  0.500000  1
  Co  Co15  1  0.718829  0.722733  0.500000  1
  Co  Co16  1  0.277099  0.998735  0.500000  1
  Co  Co17  1  0.004975  0.279863  0.500000  1
  Co  Co18  1  0.000401  0.999929  0.000000  1
  Si  Si19  1  0.368713  0.368280  0.000000  1
  Si  Si20  1  0.628240  0.995693  0.000000  1
  Si  Si21  1  0.004182  0.633111  0.000000  1
  Si  Si22  1  0.845051  0.316871  0.500000  1
  Si  Si23  1  0.678076  0.524050  0.500000  1
  Si  Si24  1  0.472418  0.160779  0.500000  1
  Si  Si25  1  0.316045  0.839011  0.500000  1
  Si  Si26  1  0.521475  0.682832  0.500000  1
  Si  Si27  1  0.163834  0.477598  0.500000  1
  Si  Si28  1  0.814456  0.817025  0.000000  1
  Si  Si29  1  0.183637  0.998981  0.000000  1
  Si  Si30  1  0.003175  0.185310  0.000000  1
  Ru  Ru31  1  0.558797  0.560717  0.000000  1
  Ru  Ru32  1  0.434001  0.994461  0.000000  1
  Ru  Ru33  1  0.007934  0.440920  0.000000  1
  Ru  Ru34  1  0.645254  0.124175  0.500000  1
  Ru  Ru35  1  0.875538  0.523086  0.500000  1
