# generated using pymatgen
data_HoMg3As(PN2)6
_symmetry_space_group_name_H-M   'P 1'
_cell_length_a   7.35253612
_cell_length_b   7.35253552
_cell_length_c   7.35253733
_cell_angle_alpha   109.53110256
_cell_angle_beta   109.53109831
_cell_angle_gamma   109.53108674
_symmetry_Int_Tables_number   1
_chemical_formula_structural   HoMg3As(PN2)6
_chemical_formula_sum   'Ho1 Mg3 As1 P6 N12'
_cell_volume   305.29742653
_cell_formula_units_Z   1
loop_
 _symmetry_equiv_pos_site_id
 _symmetry_equiv_pos_as_xyz
  1  'x, y, z'
loop_
 _atom_site_type_symbol
 _atom_site_label
 _atom_site_symmetry_multiplicity
 _atom_site_fract_x
 _atom_site_fract_y
 _atom_site_fract_z
 _atom_site_occupancy
  Ho  Ho0  1  0.341952  0.341952  0.341952  1
  Mg  Mg1  1  0.002528  0.647166  0.002528  1
  Mg  Mg2  1  0.647166  0.002528  0.002528  1
  Mg  Mg3  1  0.002528  0.002528  0.647166  1
  As  As4  1  0.972489  0.972489  0.972489  1
  P  P5  1  0.503955  0.250823  0.755497  1
  P  P6  1  0.503955  0.755497  0.250823  1
  P  P7  1  0.755497  0.250823  0.503955  1
  P  P8  1  0.250823  0.503955  0.755497  1
  P  P9  1  0.755497  0.503955  0.250823  1
  P  P10  1  0.250823  0.755497  0.503955  1
  N  N11  1  0.002067  0.724870  0.429700  1
  N  N12  1  0.283194  0.702950  0.283194  1
  N  N13  1  0.281620  0.574279  0.574279  1
  N  N14  1  0.574279  0.574279  0.281620  1
  N  N15  1  0.574279  0.281620  0.574279  1
  N  N16  1  0.724870  0.002067  0.429700  1
  N  N17  1  0.429700  0.002067  0.724870  1
  N  N18  1  0.724870  0.429700  0.002067  1
  N  N19  1  0.283194  0.283194  0.702950  1
  N  N20  1  0.702950  0.283194  0.283194  1
  N  N21  1  0.002067  0.429700  0.724870  1
  N  N22  1  0.429700  0.724870  0.002067  1
