# generated using pymatgen
data_Ac5YIr18
_symmetry_space_group_name_H-M   'P 1'
_cell_length_a   5.47655900
_cell_length_b   5.47654732
_cell_length_c   17.84406500
_cell_angle_alpha   90.00054145
_cell_angle_beta   89.99981356
_cell_angle_gamma   119.99907103
_symmetry_Int_Tables_number   1
_chemical_formula_structural   Ac5YIr18
_chemical_formula_sum   'Ac5 Y1 Ir18'
_cell_volume   463.49292452
_cell_formula_units_Z   1
loop_
 _symmetry_equiv_pos_site_id
 _symmetry_equiv_pos_as_xyz
  1  'x, y, z'
loop_
 _atom_site_type_symbol
 _atom_site_label
 _atom_site_symmetry_multiplicity
 _atom_site_fract_x
 _atom_site_fract_y
 _atom_site_fract_z
 _atom_site_occupancy
  Ac  Ac0  1  0.333333  0.666667  0.959075  1
  Ac  Ac1  1  0.666667  0.333334  0.040466  1
  Ac  Ac2  1  0.666668  0.333334  0.461699  1
  Ac  Ac3  1  0.333333  0.666664  0.748651  1
  Ac  Ac4  1  0.666667  0.333337  0.251567  1
  Y  Y5  1  0.333335  0.666667  0.544049  1
  Ir  Ir6  1  0.166748  0.833253  0.372518  1
  Ir  Ir7  1  0.166746  0.333494  0.372520  1
  Ir  Ir8  1  0.666504  0.833254  0.372520  1
  Ir  Ir9  1  0.834485  0.165508  0.626613  1
  Ir  Ir10  1  0.834492  0.668983  0.626612  1
  Ir  Ir11  1  0.331023  0.165508  0.626612  1
  Ir  Ir12  1  0.834591  0.165402  0.868067  1
  Ir  Ir13  1  0.834594  0.669187  0.868067  1
  Ir  Ir14  1  0.330812  0.165402  0.868068  1
  Ir  Ir15  1  0.165099  0.834908  0.131293  1
  Ir  Ir16  1  0.165094  0.330191  0.131292  1
  Ir  Ir17  1  0.669809  0.834909  0.131292  1
  Ir  Ir18  1  0.333336  0.666659  0.250579  1
  Ir  Ir19  1  0.666665  0.333338  0.747823  1
  Ir  Ir20  1  0.999998  0.000008  0.252769  1
  Ir  Ir21  1  0.000000  0.999994  0.747399  1
  Ir  Ir22  1  0.999999  0.999999  0.500647  1
  Ir  Ir23  1  0.999999  0.999999  0.999803  1
