# generated using pymatgen
data_RbPr(PO3)4
_symmetry_space_group_name_H-M   'P 1'
_cell_length_a   8.61801900
_cell_length_b   7.50820532
_cell_length_c   8.20392751
_cell_angle_alpha   88.45369166
_cell_angle_beta   90.00000000
_cell_angle_gamma   90.00000000
_symmetry_Int_Tables_number   1
_chemical_formula_structural   RbPr(PO3)4
_chemical_formula_sum   'Rb2 Pr2 P8 O24'
_cell_volume   530.64884204
_cell_formula_units_Z   2
loop_
 _symmetry_equiv_pos_site_id
 _symmetry_equiv_pos_as_xyz
  1  'x, y, z'
loop_
 _atom_site_type_symbol
 _atom_site_label
 _atom_site_symmetry_multiplicity
 _atom_site_fract_x
 _atom_site_fract_y
 _atom_site_fract_z
 _atom_site_occupancy
  Rb  Rb0  1  0.044951  0.732362  0.717433  1
  Rb  Rb1  1  0.544951  0.267638  0.282567  1
  Pr  Pr2  1  0.740029  0.763073  0.241389  1
  Pr  Pr3  1  0.240029  0.236927  0.758611  1
  P  P4  1  0.994943  0.383374  0.392641  1
  P  P5  1  0.494943  0.616626  0.607359  1
  P  P6  1  0.092134  0.007221  0.376687  1
  P  P7  1  0.592134  0.992779  0.623313  1
  P  P8  1  0.317894  0.897869  0.102706  1
  P  P9  1  0.817894  0.102131  0.897294  1
  P  P10  1  0.115822  0.566889  0.097519  1
  P  P11  1  0.615822  0.433111  0.902481  1
  O  O12  1  0.054430  0.388746  0.564058  1
  O  O13  1  0.554430  0.611254  0.435942  1
  O  O14  1  0.842099  0.468509  0.351312  1
  O  O15  1  0.342099  0.531491  0.648688  1
  O  O16  1  0.986645  0.179996  0.333994  1
  O  O17  1  0.486645  0.820004  0.666006  1
  O  O18  1  0.187409  0.036112  0.527170  1
  O  O19  1  0.687409  0.963888  0.472830  1
  O  O20  1  0.987475  0.847310  0.378411  1
  O  O21  1  0.487475  0.152690  0.621589  1
  O  O22  1  0.202608  0.008519  0.219059  1
  O  O23  1  0.702608  0.991481  0.780941  1
  O  O24  1  0.471798  0.322875  0.923472  1
  O  O25  1  0.971798  0.677125  0.076528  1
  O  O26  1  0.647983  0.563619  0.033901  1
  O  O27  1  0.147983  0.436381  0.966099  1
  O  O28  1  0.766299  0.307817  0.882503  1
  O  O29  1  0.266299  0.692183  0.117497  1
  O  O30  1  0.628800  0.534177  0.726413  1
  O  O31  1  0.128800  0.465823  0.273587  1
  O  O32  1  0.787193  0.029509  0.066715  1
  O  O33  1  0.287193  0.970491  0.933285  1
  O  O34  1  0.978319  0.095019  0.827461  1
  O  O35  1  0.478319  0.904981  0.172539  1
