# generated using pymatgen
data_CaCe3Ga9Ni
_symmetry_space_group_name_H-M   'P 1'
_cell_length_a   4.26430100
_cell_length_b   4.32654900
_cell_length_c   16.25738100
_cell_angle_alpha   89.99931799
_cell_angle_beta   89.99983965
_cell_angle_gamma   90.00022667
_symmetry_Int_Tables_number   1
_chemical_formula_structural   CaCe3Ga9Ni
_chemical_formula_sum   'Ca1 Ce3 Ga9 Ni1'
_cell_volume   299.94391972
_cell_formula_units_Z   1
loop_
 _symmetry_equiv_pos_site_id
 _symmetry_equiv_pos_as_xyz
  1  'x, y, z'
loop_
 _atom_site_type_symbol
 _atom_site_label
 _atom_site_symmetry_multiplicity
 _atom_site_fract_x
 _atom_site_fract_y
 _atom_site_fract_z
 _atom_site_occupancy
  Ca  Ca0  1  0.000016  0.500007  0.081444  1
  Ce  Ce1  1  0.999995  0.500004  0.512018  1
  Ce  Ce2  1  0.000053  0.999997  0.280477  1
  Ce  Ce3  1  0.999985  0.999998  0.745878  1
  Ga  Ga4  1  0.500022  0.499991  0.200915  1
  Ga  Ga5  1  0.499977  0.499998  0.805455  1
  Ga  Ga6  1  0.499948  0.500008  0.355676  1
  Ga  Ga7  1  0.499960  0.499987  0.656674  1
  Ga  Ga8  1  0.500033  0.000008  0.431521  1
  Ga  Ga9  1  0.500027  0.999989  0.583872  1
  Ga  Ga10  1  0.500019  0.000000  0.069109  1
  Ga  Ga11  1  0.500037  0.999994  0.902145  1
  Ga  Ga12  1  0.999982  0.500010  0.900194  1
  Ni  Ni13  1  0.999947  0.000008  0.974623  1
