# generated using pymatgen
data_La9Tm11Pt16
_symmetry_space_group_name_H-M   'P 1'
_cell_length_a   7.61427553
_cell_length_b   7.71241158
_cell_length_c   14.68933500
_cell_angle_alpha   89.98055821
_cell_angle_beta   89.77728088
_cell_angle_gamma   90.10961337
_symmetry_Int_Tables_number   1
_chemical_formula_structural   La9Tm11Pt16
_chemical_formula_sum   'La9 Tm11 Pt16'
_cell_volume   862.61462919
_cell_formula_units_Z   1
loop_
 _symmetry_equiv_pos_site_id
 _symmetry_equiv_pos_as_xyz
  1  'x, y, z'
loop_
 _atom_site_type_symbol
 _atom_site_label
 _atom_site_symmetry_multiplicity
 _atom_site_fract_x
 _atom_site_fract_y
 _atom_site_fract_z
 _atom_site_occupancy
  La  La0  1  0.658268  0.834552  0.879346  1
  La  La1  1  0.999203  0.822506  0.404217  1
  La  La2  1  0.499157  0.674471  0.099828  1
  La  La3  1  0.501069  0.325002  0.593822  1
  La  La4  1  0.003218  0.180475  0.905390  1
  La  La5  1  0.000234  0.175758  0.593809  1
  La  La6  1  0.499004  0.323915  0.903712  1
  La  La7  1  0.497867  0.676432  0.402335  1
  La  La8  1  0.002010  0.822415  0.098770  1
  Tm  Tm9  1  0.678950  0.996475  0.250773  1
  Tm  Tm10  1  0.178630  0.502815  0.251067  1
  Tm  Tm11  1  0.823319  0.492380  0.747484  1
  Tm  Tm12  1  0.318650  0.006369  0.747343  1
  Tm  Tm13  1  0.656261  0.832389  0.622088  1
  Tm  Tm14  1  0.156393  0.667115  0.874831  1
  Tm  Tm15  1  0.842154  0.332813  0.375796  1
  Tm  Tm16  1  0.342251  0.168430  0.125434  1
  Tm  Tm17  1  0.342066  0.166804  0.375526  1
  Tm  Tm18  1  0.844632  0.334240  0.126547  1
  Tm  Tm19  1  0.158571  0.666338  0.622893  1
  Pt  Pt20  1  0.814639  0.636607  0.251027  1
  Pt  Pt21  1  0.312375  0.863264  0.250669  1
  Pt  Pt22  1  0.685848  0.139637  0.745719  1
  Pt  Pt23  1  0.183802  0.362165  0.748410  1
  Pt  Pt24  1  0.546134  0.373201  0.251217  1
  Pt  Pt25  1  0.046302  0.126318  0.250904  1
  Pt  Pt26  1  0.957712  0.874075  0.746117  1
  Pt  Pt27  1  0.451497  0.623064  0.747077  1
  Pt  Pt28  1  0.822961  0.538515  0.542589  1
  Pt  Pt29  1  0.312067  0.965038  0.959252  1
  Pt  Pt30  1  0.675774  0.035956  0.454404  1
  Pt  Pt31  1  0.179483  0.464908  0.045719  1
  Pt  Pt32  1  0.179105  0.463446  0.454931  1
  Pt  Pt33  1  0.678967  0.041470  0.050391  1
  Pt  Pt34  1  0.323213  0.961434  0.542954  1
  Pt  Pt35  1  0.828213  0.529210  0.957610  1
