# generated using pymatgen
data_Nd4SnB4Rh9
_symmetry_space_group_name_H-M   'P 1'
_cell_length_a   5.61534901
_cell_length_b   5.61534901
_cell_length_c   21.01507400
_cell_angle_alpha   90.00000000
_cell_angle_beta   90.00000000
_cell_angle_gamma   120.00328333
_symmetry_Int_Tables_number   1
_chemical_formula_structural   Nd4SnB4Rh9
_chemical_formula_sum   'Nd8 Sn2 B8 Rh18'
_cell_volume   573.85304956
_cell_formula_units_Z   2
loop_
 _symmetry_equiv_pos_site_id
 _symmetry_equiv_pos_as_xyz
  1  'x, y, z'
loop_
 _atom_site_type_symbol
 _atom_site_label
 _atom_site_symmetry_multiplicity
 _atom_site_fract_x
 _atom_site_fract_y
 _atom_site_fract_z
 _atom_site_occupancy
  Nd  Nd0  1  0.666677  0.333323  0.525261  1
  Nd  Nd1  1  0.333323  0.666677  0.474739  1
  Nd  Nd2  1  0.333323  0.666677  0.025261  1
  Nd  Nd3  1  0.666677  0.333323  0.974739  1
  Nd  Nd4  1  0.666642  0.333358  0.674930  1
  Nd  Nd5  1  0.333358  0.666642  0.325070  1
  Nd  Nd6  1  0.333358  0.666642  0.174930  1
  Nd  Nd7  1  0.666642  0.333358  0.825070  1
  Sn  Sn8  1  0.000000  0.000000  0.500000  1
  Sn  Sn9  1  0.000000  0.000000  0.000000  1
  B  B10  1  0.999972  0.000028  0.675829  1
  B  B11  1  0.000028  0.999972  0.324171  1
  B  B12  1  0.000028  0.999972  0.175829  1
  B  B13  1  0.999972  0.000028  0.824171  1
  B  B14  1  0.666699  0.333301  0.324689  1
  B  B15  1  0.333301  0.666699  0.675311  1
  B  B16  1  0.333301  0.666699  0.824689  1
  B  B17  1  0.666699  0.333301  0.175311  1
  Rh  Rh18  1  0.166935  0.333915  0.750000  1
  Rh  Rh19  1  0.166926  0.833074  0.750000  1
  Rh  Rh20  1  0.666085  0.833065  0.750000  1
  Rh  Rh21  1  0.833065  0.666085  0.250000  1
  Rh  Rh22  1  0.833074  0.166926  0.250000  1
  Rh  Rh23  1  0.333915  0.166935  0.250000  1
  Rh  Rh24  1  0.166657  0.333425  0.608717  1
  Rh  Rh25  1  0.166657  0.833343  0.608724  1
  Rh  Rh26  1  0.666575  0.833343  0.608717  1
  Rh  Rh27  1  0.833343  0.666575  0.391283  1
  Rh  Rh28  1  0.833343  0.166657  0.391276  1
  Rh  Rh29  1  0.333425  0.166657  0.391283  1
  Rh  Rh30  1  0.833343  0.666575  0.108717  1
  Rh  Rh31  1  0.833343  0.166657  0.108724  1
  Rh  Rh32  1  0.333425  0.166657  0.108717  1
  Rh  Rh33  1  0.166657  0.333425  0.891283  1
  Rh  Rh34  1  0.166657  0.833343  0.891276  1
  Rh  Rh35  1  0.666575  0.833343  0.891283  1
