# generated using pymatgen
data_Pr10Mg(SnRu2)3
_symmetry_space_group_name_H-M   'P 1'
_cell_length_a   8.75218781
_cell_length_b   8.75218813
_cell_length_c   8.75218778
_cell_angle_alpha   109.42205120
_cell_angle_beta   109.42205155
_cell_angle_gamma   109.42205308
_symmetry_Int_Tables_number   1
_chemical_formula_structural   Pr10Mg(SnRu2)3
_chemical_formula_sum   'Pr10 Mg1 Sn3 Ru6'
_cell_volume   517.03042102
_cell_formula_units_Z   1
loop_
 _symmetry_equiv_pos_site_id
 _symmetry_equiv_pos_as_xyz
  1  'x, y, z'
loop_
 _atom_site_type_symbol
 _atom_site_label
 _atom_site_symmetry_multiplicity
 _atom_site_fract_x
 _atom_site_fract_y
 _atom_site_fract_z
 _atom_site_occupancy
  Pr  Pr0  1  0.251790  0.685797  0.437909  1
  Pr  Pr1  1  0.746112  0.813322  0.068506  1
  Pr  Pr2  1  0.437909  0.251790  0.685797  1
  Pr  Pr3  1  0.685797  0.437909  0.251790  1
  Pr  Pr4  1  0.068506  0.746112  0.813322  1
  Pr  Pr5  1  0.813322  0.068506  0.746112  1
  Pr  Pr6  1  0.204643  0.204643  0.204643  1
  Pr  Pr7  1  0.496635  0.000664  0.286585  1
  Pr  Pr8  1  0.286585  0.496635  0.000664  1
  Pr  Pr9  1  0.000664  0.286585  0.496635  1
  Mg  Mg10  1  0.590888  0.590888  0.590888  1
  Sn  Sn11  1  0.503132  0.000846  0.903742  1
  Sn  Sn12  1  0.903742  0.503132  0.000846  1
  Sn  Sn13  1  0.000846  0.903742  0.503132  1
  Ru  Ru14  1  0.252134  0.128512  0.879521  1
  Ru  Ru15  1  0.756923  0.371336  0.621002  1
  Ru  Ru16  1  0.879520  0.252134  0.128512  1
  Ru  Ru17  1  0.128512  0.879520  0.252134  1
  Ru  Ru18  1  0.621002  0.756923  0.371336  1
  Ru  Ru19  1  0.371336  0.621002  0.756923  1
