# generated using pymatgen
data_Sm4VRe3B16
_symmetry_space_group_name_H-M   'P 1'
_cell_length_a   3.63054700
_cell_length_b   6.03770068
_cell_length_c   11.68651187
_cell_angle_alpha   90.09981965
_cell_angle_beta   90.00000000
_cell_angle_gamma   90.00000000
_symmetry_Int_Tables_number   1
_chemical_formula_structural   Sm4VRe3B16
_chemical_formula_sum   'Sm4 V1 Re3 B16'
_cell_volume   256.16977590
_cell_formula_units_Z   1
loop_
 _symmetry_equiv_pos_site_id
 _symmetry_equiv_pos_as_xyz
  1  'x, y, z'
loop_
 _atom_site_type_symbol
 _atom_site_label
 _atom_site_symmetry_multiplicity
 _atom_site_fract_x
 _atom_site_fract_y
 _atom_site_fract_z
 _atom_site_occupancy
  Sm  Sm0  1  0.000000  0.124427  0.149354  1
  Sm  Sm1  1  0.000000  0.876283  0.850424  1
  Sm  Sm2  1  0.000000  0.626839  0.349124  1
  Sm  Sm3  1  0.000000  0.373015  0.652315  1
  V  V4  1  0.000000  0.373776  0.917847  1
  Re  Re5  1  0.000000  0.132542  0.412739  1
  Re  Re6  1  0.000000  0.867673  0.585973  1
  Re  Re7  1  0.000000  0.624963  0.083121  1
  B  B8  1  0.500000  0.475782  0.190514  1
  B  B9  1  0.500000  0.523931  0.809219  1
  B  B10  1  0.500000  0.974870  0.309276  1
  B  B11  1  0.500000  0.025300  0.690957  1
  B  B12  1  0.500000  0.282540  0.315279  1
  B  B13  1  0.500000  0.717609  0.684552  1
  B  B14  1  0.500000  0.782667  0.183325  1
  B  B15  1  0.500000  0.217155  0.816304  1
  B  B16  1  0.500000  0.361734  0.468645  1
  B  B17  1  0.500000  0.638558  0.531597  1
  B  B18  1  0.500000  0.862134  0.032362  1
  B  B19  1  0.500000  0.137341  0.967217  1
  B  B20  1  0.500000  0.386877  0.046031  1
  B  B21  1  0.500000  0.613059  0.953530  1
  B  B22  1  0.500000  0.887836  0.453648  1
  B  B23  1  0.500000  0.113092  0.546649  1
