# generated using pymatgen
data_Dy2Ho3PtPb3
_symmetry_space_group_name_H-M   'P 1'
_cell_length_a   9.22227700
_cell_length_b   9.22227711
_cell_length_c   6.81930100
_cell_angle_alpha   90.00000000
_cell_angle_beta   90.00000000
_cell_angle_gamma   120.00000320
_symmetry_Int_Tables_number   1
_chemical_formula_structural   Dy2Ho3PtPb3
_chemical_formula_sum   'Dy4 Ho6 Pt2 Pb6'
_cell_volume   502.28106715
_cell_formula_units_Z   2
loop_
 _symmetry_equiv_pos_site_id
 _symmetry_equiv_pos_as_xyz
  1  'x, y, z'
loop_
 _atom_site_type_symbol
 _atom_site_label
 _atom_site_symmetry_multiplicity
 _atom_site_fract_x
 _atom_site_fract_y
 _atom_site_fract_z
 _atom_site_occupancy
  Dy  Dy0  1  0.333333  0.666667  0.500000  1
  Dy  Dy1  1  0.666667  0.333333  0.500000  1
  Dy  Dy2  1  0.666667  0.333333  0.000000  1
  Dy  Dy3  1  0.333333  0.666667  0.000000  1
  Ho  Ho4  1  0.244814  0.000000  0.750000  1
  Ho  Ho5  1  0.755186  0.000000  0.250000  1
  Ho  Ho6  1  0.000000  0.244814  0.750000  1
  Ho  Ho7  1  0.000000  0.755186  0.250000  1
  Ho  Ho8  1  0.755186  0.755186  0.750000  1
  Ho  Ho9  1  0.244814  0.244814  0.250000  1
  Pt  Pt10  1  0.000000  0.000000  0.500000  1
  Pt  Pt11  1  0.000000  0.000000  0.000000  1
  Pb  Pb12  1  0.600415  0.000000  0.750000  1
  Pb  Pb13  1  0.399585  0.000000  0.250000  1
  Pb  Pb14  1  0.000000  0.600415  0.750000  1
  Pb  Pb15  1  0.000000  0.399585  0.250000  1
  Pb  Pb16  1  0.399585  0.399585  0.750000  1
  Pb  Pb17  1  0.600415  0.600415  0.250000  1
