# generated using pymatgen
data_Y2Ho2LuRu2
_symmetry_space_group_name_H-M   'P 1'
_cell_length_a   6.32588314
_cell_length_b   7.27177896
_cell_length_c   8.43255480
_cell_angle_alpha   96.85108063
_cell_angle_beta   112.02969145
_cell_angle_gamma   89.99999781
_symmetry_Int_Tables_number   1
_chemical_formula_structural   Y2Ho2LuRu2
_chemical_formula_sum   'Y4 Ho4 Lu2 Ru4'
_cell_volume   356.59058520
_cell_formula_units_Z   2
loop_
 _symmetry_equiv_pos_site_id
 _symmetry_equiv_pos_as_xyz
  1  'x, y, z'
loop_
 _atom_site_type_symbol
 _atom_site_label
 _atom_site_symmetry_multiplicity
 _atom_site_fract_x
 _atom_site_fract_y
 _atom_site_fract_z
 _atom_site_occupancy
  Y  Y0  1  0.523476  0.082178  0.813528  1
  Y  Y1  1  0.476524  0.917822  0.186472  1
  Y  Y2  1  0.709947  0.417822  0.186472  1
  Y  Y3  1  0.290053  0.582178  0.813528  1
  Ho  Ho4  1  0.297526  0.313843  0.432224  1
  Ho  Ho5  1  0.702474  0.686157  0.567776  1
  Ho  Ho6  1  0.865304  0.186157  0.567776  1
  Ho  Ho7  1  0.134696  0.813843  0.432224  1
  Lu  Lu8  1  0.077368  0.250000  0.000000  1
  Lu  Lu9  1  0.922632  0.750000  0.000000  1
  Ru  Ru10  1  0.316327  0.574059  0.219403  1
  Ru  Ru11  1  0.683673  0.425941  0.780597  1
  Ru  Ru12  1  0.096925  0.925941  0.780597  1
  Ru  Ru13  1  0.903075  0.074059  0.219403  1
