# generated using pymatgen
data_Tb4Y5Er11Bi12
_symmetry_space_group_name_H-M   'P 1'
_cell_length_a   8.24610725
_cell_length_b   9.47361622
_cell_length_c   12.05900200
_cell_angle_alpha   90.00296091
_cell_angle_beta   90.03126715
_cell_angle_gamma   89.98737379
_symmetry_Int_Tables_number   1
_chemical_formula_structural   Tb4Y5Er11Bi12
_chemical_formula_sum   'Tb4 Y5 Er11 Bi12'
_cell_volume   942.05456355
_cell_formula_units_Z   1
loop_
 _symmetry_equiv_pos_site_id
 _symmetry_equiv_pos_as_xyz
  1  'x, y, z'
loop_
 _atom_site_type_symbol
 _atom_site_label
 _atom_site_symmetry_multiplicity
 _atom_site_fract_x
 _atom_site_fract_y
 _atom_site_fract_z
 _atom_site_occupancy
  Tb  Tb0  1  0.186278  0.749994  0.718812  1
  Tb  Tb1  1  0.686320  0.749997  0.781226  1
  Tb  Tb2  1  0.813732  0.249791  0.281021  1
  Tb  Tb3  1  0.313617  0.249968  0.218730  1
  Y  Y4  1  0.806687  0.436938  0.559827  1
  Y  Y5  1  0.353923  0.749946  0.215536  1
  Y  Y6  1  0.853801  0.749830  0.284451  1
  Y  Y7  1  0.645626  0.249600  0.784704  1
  Y  Y8  1  0.146346  0.249653  0.715696  1
  Er  Er9  1  0.025698  0.749931  0.988871  1
  Er  Er10  1  0.525468  0.750033  0.511149  1
  Er  Er11  1  0.974354  0.249945  0.011148  1
  Er  Er12  1  0.473812  0.249635  0.488830  1
  Er  Er13  1  0.306541  0.435544  0.940236  1
  Er  Er14  1  0.806490  0.064268  0.559908  1
  Er  Er15  1  0.693489  0.935503  0.059789  1
  Er  Er16  1  0.193464  0.564609  0.440100  1
  Er  Er17  1  0.693426  0.564528  0.059809  1
  Er  Er18  1  0.193721  0.935569  0.440042  1
  Er  Er19  1  0.306504  0.064428  0.940278  1
  Bi  Bi20  1  0.433796  0.003803  0.673117  1
  Bi  Bi21  1  0.934030  0.495944  0.827169  1
  Bi  Bi22  1  0.566105  0.503810  0.326814  1
  Bi  Bi23  1  0.066185  0.995915  0.172993  1
  Bi  Bi24  1  0.566129  0.995982  0.326952  1
  Bi  Bi25  1  0.066255  0.503938  0.172922  1
  Bi  Bi26  1  0.433520  0.495883  0.673146  1
  Bi  Bi27  1  0.933892  0.003885  0.827057  1
  Bi  Bi28  1  0.408086  0.750013  0.958059  1
  Bi  Bi29  1  0.908649  0.751425  0.541679  1
  Bi  Bi30  1  0.591981  0.250033  0.042047  1
  Bi  Bi31  1  0.092076  0.249656  0.457884  1
