# generated using pymatgen
data_Sm3Er17GaBi11
_symmetry_space_group_name_H-M   'P 1'
_cell_length_a   8.16418177
_cell_length_b   9.43094100
_cell_length_c   11.94722100
_cell_angle_alpha   90.00000000
_cell_angle_beta   90.29439707
_cell_angle_gamma   90.00000000
_symmetry_Int_Tables_number   1
_chemical_formula_structural   Sm3Er17GaBi11
_chemical_formula_sum   'Sm3 Er17 Ga1 Bi11'
_cell_volume   919.87508873
_cell_formula_units_Z   1
loop_
 _symmetry_equiv_pos_site_id
 _symmetry_equiv_pos_as_xyz
  1  'x, y, z'
loop_
 _atom_site_type_symbol
 _atom_site_label
 _atom_site_symmetry_multiplicity
 _atom_site_fract_x
 _atom_site_fract_y
 _atom_site_fract_z
 _atom_site_occupancy
  Sm  Sm0  1  0.314933  0.250000  0.219964  1
  Sm  Sm1  1  0.812353  0.250000  0.280403  1
  Sm  Sm2  1  0.190407  0.750000  0.722803  1
  Er  Er3  1  0.355004  0.750000  0.206123  1
  Er  Er4  1  0.851554  0.750000  0.283960  1
  Er  Er5  1  0.649670  0.250000  0.783693  1
  Er  Er6  1  0.148962  0.250000  0.717687  1
  Er  Er7  1  0.683873  0.570934  0.054891  1
  Er  Er8  1  0.192968  0.935072  0.439049  1
  Er  Er9  1  0.309296  0.050123  0.940827  1
  Er  Er10  1  0.807348  0.435651  0.560062  1
  Er  Er11  1  0.309296  0.449877  0.940827  1
  Er  Er12  1  0.807348  0.064349  0.560062  1
  Er  Er13  1  0.683873  0.929066  0.054891  1
  Er  Er14  1  0.192968  0.564928  0.439049  1
  Er  Er15  1  0.475935  0.250000  0.489212  1
  Er  Er16  1  0.979130  0.250000  0.009543  1
  Er  Er17  1  0.525785  0.750000  0.511628  1
  Er  Er18  1  0.035249  0.750000  0.989771  1
  Er  Er19  1  0.673309  0.750000  0.789298  1
  Ga  Ga20  1  0.408221  0.750000  0.962010  1
  Bi  Bi21  1  0.905863  0.750000  0.542700  1
  Bi  Bi22  1  0.594901  0.250000  0.039145  1
  Bi  Bi23  1  0.094669  0.250000  0.460610  1
  Bi  Bi24  1  0.563965  0.992429  0.326494  1
  Bi  Bi25  1  0.062985  0.506134  0.174201  1
  Bi  Bi26  1  0.437741  0.494130  0.674531  1
  Bi  Bi27  1  0.933851  0.003497  0.825668  1
  Bi  Bi28  1  0.437741  0.005870  0.674531  1
  Bi  Bi29  1  0.933851  0.496503  0.825668  1
  Bi  Bi30  1  0.563965  0.507571  0.326494  1
  Bi  Bi31  1  0.062985  0.993866  0.174201  1
