# generated using pymatgen
data_RbZr(RhSe2)4
_symmetry_space_group_name_H-M   'P 1'
_cell_length_a   9.61656961
_cell_length_b   9.61656963
_cell_length_c   9.00129421
_cell_angle_alpha   76.36298568
_cell_angle_beta   76.36298526
_cell_angle_gamma   22.61777053
_symmetry_Int_Tables_number   1
_chemical_formula_structural   RbZr(RhSe2)4
_chemical_formula_sum   'Rb1 Zr1 Rh4 Se8'
_cell_volume   310.74416524
_cell_formula_units_Z   1
loop_
 _symmetry_equiv_pos_site_id
 _symmetry_equiv_pos_as_xyz
  1  'x, y, z'
loop_
 _atom_site_type_symbol
 _atom_site_label
 _atom_site_symmetry_multiplicity
 _atom_site_fract_x
 _atom_site_fract_y
 _atom_site_fract_z
 _atom_site_occupancy
  Rb  Rb0  1  0.483346  0.483346  0.510254  1
  Zr  Zr1  1  0.641214  0.641214  0.015504  1
  Rh  Rh2  1  0.011730  0.011730  0.997278  1
  Rh  Rh3  1  0.342997  0.342997  0.983481  1
  Rh  Rh4  1  0.300377  0.300377  0.323906  1
  Rh  Rh5  1  0.708226  0.708226  0.673659  1
  Se  Se6  1  0.433390  0.433390  0.145059  1
  Se  Se7  1  0.915122  0.915122  0.846145  1
  Se  Se8  1  0.827990  0.827990  0.481269  1
  Se  Se9  1  0.764640  0.764640  0.150878  1
  Se  Se10  1  0.239546  0.239546  0.841978  1
  Se  Se11  1  0.179143  0.179143  0.513450  1
  Se  Se12  1  0.082789  0.082789  0.210745  1
  Se  Se13  1  0.569490  0.569490  0.806394  1
