# generated using pymatgen
data_SrDy2Al7Zn2
_symmetry_space_group_name_H-M   'P 1'
_cell_length_a   9.22288859
_cell_length_b   9.22288938
_cell_length_c   9.22288800
_cell_angle_alpha   35.54449404
_cell_angle_beta   35.54448714
_cell_angle_gamma   35.54448267
_symmetry_Int_Tables_number   1
_chemical_formula_structural   SrDy2Al7Zn2
_chemical_formula_sum   'Sr1 Dy2 Al7 Zn2'
_cell_volume   236.94851463
_cell_formula_units_Z   1
loop_
 _symmetry_equiv_pos_site_id
 _symmetry_equiv_pos_as_xyz
  1  'x, y, z'
loop_
 _atom_site_type_symbol
 _atom_site_label
 _atom_site_symmetry_multiplicity
 _atom_site_fract_x
 _atom_site_fract_y
 _atom_site_fract_z
 _atom_site_occupancy
  Sr  Sr0  1  0.000000  0.000000  0.000000  1
  Dy  Dy1  1  0.858123  0.858123  0.858123  1
  Dy  Dy2  1  0.141877  0.141877  0.141877  1
  Al  Al3  1  0.412164  0.412164  0.924584  1
  Al  Al4  1  0.924584  0.412164  0.412164  1
  Al  Al5  1  0.412164  0.924584  0.412164  1
  Al  Al6  1  0.500000  0.500000  0.500000  1
  Al  Al7  1  0.587836  0.075416  0.587836  1
  Al  Al8  1  0.075416  0.587836  0.587836  1
  Al  Al9  1  0.587836  0.587836  0.075416  1
  Zn  Zn10  1  0.664504  0.664504  0.664504  1
  Zn  Zn11  1  0.335496  0.335496  0.335496  1
