# generated using pymatgen
data_Be8NbVRh2
_symmetry_space_group_name_H-M   'P 1'
_cell_length_a   4.41278600
_cell_length_b   4.41279990
_cell_length_c   7.20036600
_cell_angle_alpha   89.99946613
_cell_angle_beta   90.00061190
_cell_angle_gamma   119.99985234
_symmetry_Int_Tables_number   1
_chemical_formula_structural   Be8NbVRh2
_chemical_formula_sum   'Be8 Nb1 V1 Rh2'
_cell_volume   121.42635307
_cell_formula_units_Z   1
loop_
 _symmetry_equiv_pos_site_id
 _symmetry_equiv_pos_as_xyz
  1  'x, y, z'
loop_
 _atom_site_type_symbol
 _atom_site_label
 _atom_site_symmetry_multiplicity
 _atom_site_fract_x
 _atom_site_fract_y
 _atom_site_fract_z
 _atom_site_occupancy
  Be  Be0  1  0.000000  0.999999  0.493856  1
  Be  Be1  1  0.999996  0.000007  0.002800  1
  Be  Be2  1  0.168811  0.337619  0.758641  1
  Be  Be3  1  0.168825  0.831178  0.758642  1
  Be  Be4  1  0.662381  0.831187  0.758638  1
  Be  Be5  1  0.831735  0.663490  0.242897  1
  Be  Be6  1  0.831742  0.168258  0.242900  1
  Be  Be7  1  0.336510  0.168263  0.242896  1
  Nb  Nb8  1  0.666668  0.333339  0.565762  1
  V  V9  1  0.666670  0.333331  0.934787  1
  Rh  Rh10  1  0.333323  0.666679  0.444579  1
  Rh  Rh11  1  0.333337  0.666653  0.053603  1
