# generated using pymatgen
data_DyYNp3O10
_symmetry_space_group_name_H-M   'P 1'
_cell_length_a   6.54646675
_cell_length_b   6.54646521
_cell_length_c   6.57168860
_cell_angle_alpha   99.85461642
_cell_angle_beta   99.34310031
_cell_angle_gamma   131.69922891
_symmetry_Int_Tables_number   1
_chemical_formula_structural   DyYNp3O10
_chemical_formula_sum   'Dy1 Y1 Np3 O10'
_cell_volume   192.02385585
_cell_formula_units_Z   1
loop_
 _symmetry_equiv_pos_site_id
 _symmetry_equiv_pos_as_xyz
  1  'x, y, z'
loop_
 _atom_site_type_symbol
 _atom_site_label
 _atom_site_symmetry_multiplicity
 _atom_site_fract_x
 _atom_site_fract_y
 _atom_site_fract_z
 _atom_site_occupancy
  Dy  Dy0  1  0.398857  0.200741  0.599597  1
  Y  Y1  1  0.001291  0.998941  0.000233  1
  Np  Np2  1  0.798148  0.400526  0.198674  1
  Np  Np3  1  0.199626  0.600166  0.799793  1
  Np  Np4  1  0.602176  0.799629  0.401806  1
  O  O5  1  0.755056  0.250505  0.494954  1
  O  O6  1  0.155946  0.461089  0.105995  1
  O  O7  1  0.542192  0.654411  0.696593  1
  O  O8  1  0.938791  0.837941  0.300197  1
  O  O9  1  0.357712  0.045802  0.902210  1
  O  O10  1  0.856408  0.544497  0.902210  1
  O  O11  1  0.244450  0.739898  0.494954  1
  O  O12  1  0.644907  0.950049  0.105995  1
  O  O13  1  0.042183  0.154401  0.696593  1
  O  O14  1  0.462256  0.361405  0.300197  1
