# generated using pymatgen
data_Hf9CrRe3P
_symmetry_space_group_name_H-M   'P 1'
_cell_length_a   8.52371000
_cell_length_b   8.52371052
_cell_length_c   8.51798100
_cell_angle_alpha   90.00000000
_cell_angle_beta   90.00000000
_cell_angle_gamma   119.99999796
_symmetry_Int_Tables_number   1
_chemical_formula_structural   Hf9CrRe3P
_chemical_formula_sum   'Hf18 Cr2 Re6 P2'
_cell_volume   535.95048114
_cell_formula_units_Z   2
loop_
 _symmetry_equiv_pos_site_id
 _symmetry_equiv_pos_as_xyz
  1  'x, y, z'
loop_
 _atom_site_type_symbol
 _atom_site_label
 _atom_site_symmetry_multiplicity
 _atom_site_fract_x
 _atom_site_fract_y
 _atom_site_fract_z
 _atom_site_occupancy
  Hf  Hf0  1  0.194680  0.805320  0.451649  1
  Hf  Hf1  1  0.194680  0.389358  0.451649  1
  Hf  Hf2  1  0.610642  0.805320  0.451649  1
  Hf  Hf3  1  0.805320  0.194680  0.548351  1
  Hf  Hf4  1  0.805320  0.610642  0.548351  1
  Hf  Hf5  1  0.389358  0.194680  0.548351  1
  Hf  Hf6  1  0.805320  0.194680  0.951649  1
  Hf  Hf7  1  0.805320  0.610642  0.951649  1
  Hf  Hf8  1  0.389358  0.194680  0.951649  1
  Hf  Hf9  1  0.194680  0.805320  0.048351  1
  Hf  Hf10  1  0.194680  0.389358  0.048351  1
  Hf  Hf11  1  0.610642  0.805320  0.048351  1
  Hf  Hf12  1  0.539688  0.460312  0.250000  1
  Hf  Hf13  1  0.539688  0.079376  0.250000  1
  Hf  Hf14  1  0.920624  0.460312  0.250000  1
  Hf  Hf15  1  0.460312  0.539688  0.750000  1
  Hf  Hf16  1  0.460312  0.920624  0.750000  1
  Hf  Hf17  1  0.079376  0.539688  0.750000  1
  Cr  Cr18  1  0.000000  0.000000  0.500000  1
  Cr  Cr19  1  0.000000  0.000000  0.000000  1
  Re  Re20  1  0.892779  0.107221  0.250000  1
  Re  Re21  1  0.892779  0.785557  0.250000  1
  Re  Re22  1  0.214443  0.107221  0.250000  1
  Re  Re23  1  0.107221  0.892779  0.750000  1
  Re  Re24  1  0.107221  0.214443  0.750000  1
  Re  Re25  1  0.785557  0.892779  0.750000  1
  P  P26  1  0.333333  0.666667  0.250000  1
  P  P27  1  0.666667  0.333333  0.750000  1
