# generated using pymatgen
data_PdNF10
_symmetry_space_group_name_H-M   'P 1'
_cell_length_a   5.68886276
_cell_length_b   7.65251106
_cell_length_c   9.09116784
_cell_angle_alpha   88.55550186
_cell_angle_beta   109.46688205
_cell_angle_gamma   96.77987691
_symmetry_Int_Tables_number   1
_chemical_formula_structural   PdNF10
_chemical_formula_sum   'Pd2 N2 F20'
_cell_volume   370.49921061
_cell_formula_units_Z   2
loop_
 _symmetry_equiv_pos_site_id
 _symmetry_equiv_pos_as_xyz
  1  'x, y, z'
loop_
 _atom_site_type_symbol
 _atom_site_label
 _atom_site_symmetry_multiplicity
 _atom_site_fract_x
 _atom_site_fract_y
 _atom_site_fract_z
 _atom_site_occupancy
  Pd  Pd0  1  0.996726  0.753683  0.295036  1
  Pd  Pd1  1  0.003274  0.246317  0.704964  1
  N  N2  1  0.295321  0.274332  0.214494  1
  N  N3  1  0.704679  0.725668  0.785506  1
  F  F4  1  0.060021  0.232837  0.213307  1
  F  F5  1  0.939979  0.767163  0.786693  1
  F  F6  1  0.369594  0.140111  0.155401  1
  F  F7  1  0.630406  0.859889  0.844599  1
  F  F8  1  0.929312  0.192465  0.894154  1
  F  F9  1  0.070688  0.807535  0.105846  1
  F  F10  1  0.076016  0.300780  0.517620  1
  F  F11  1  0.923984  0.699220  0.482380  1
  F  F12  1  0.782571  0.043293  0.604583  1
  F  F13  1  0.217429  0.956707  0.395417  1
  F  F14  1  0.278827  0.108417  0.776935  1
  F  F15  1  0.721173  0.891583  0.223065  1
  F  F16  1  0.215772  0.454090  0.806416  1
  F  F17  1  0.784228  0.545910  0.193584  1
  F  F18  1  0.725521  0.382573  0.637036  1
  F  F19  1  0.274479  0.617427  0.362964  1
  F  F20  1  0.695560  0.583910  0.873814  1
  F  F21  1  0.304440  0.416090  0.126186  1
  F  F22  1  0.550384  0.692413  0.639218  1
  F  F23  1  0.449616  0.307587  0.360782  1
