# generated using pymatgen
data_AcLaP4
_symmetry_space_group_name_H-M   'P 1'
_cell_length_a   9.57334256
_cell_length_b   9.57334282
_cell_length_c   9.00489683
_cell_angle_alpha   61.97925669
_cell_angle_beta   61.97925820
_cell_angle_gamma   96.60192341
_symmetry_Int_Tables_number   1
_chemical_formula_structural   AcLaP4
_chemical_formula_sum   'Ac4 La4 P16'
_cell_volume   580.42241268
_cell_formula_units_Z   4
loop_
 _symmetry_equiv_pos_site_id
 _symmetry_equiv_pos_as_xyz
  1  'x, y, z'
loop_
 _atom_site_type_symbol
 _atom_site_label
 _atom_site_symmetry_multiplicity
 _atom_site_fract_x
 _atom_site_fract_y
 _atom_site_fract_z
 _atom_site_occupancy
  Ac  Ac0  1  0.590444  0.666336  0.444116  1
  Ac  Ac1  1  0.666336  0.590444  0.944116  1
  Ac  Ac2  1  0.440529  0.060196  0.500613  1
  Ac  Ac3  1  0.060196  0.440529  0.000613  1
  La  La4  1  0.069412  0.981759  0.352832  1
  La  La5  1  0.981759  0.069412  0.852832  1
  La  La6  1  0.680890  0.225841  0.696837  1
  La  La7  1  0.225841  0.680890  0.196837  1
  P  P8  1  0.274193  0.044080  0.912669  1
  P  P9  1  0.044080  0.274193  0.412669  1
  P  P10  1  0.350941  0.276113  0.900307  1
  P  P11  1  0.276113  0.350941  0.400307  1
  P  P12  1  0.202454  0.463102  0.588642  1
  P  P13  1  0.463102  0.202454  0.088642  1
  P  P14  1  0.409569  0.920891  0.247713  1
  P  P15  1  0.920891  0.409569  0.747713  1
  P  P16  1  0.432191  0.703703  0.801384  1
  P  P17  1  0.703703  0.432191  0.301384  1
  P  P18  1  0.686093  0.938574  0.596111  1
  P  P19  1  0.938574  0.686093  0.096111  1
  P  P20  1  0.044706  0.810258  0.760160  1
  P  P21  1  0.810258  0.044706  0.260160  1
  P  P22  1  0.871101  0.603823  0.540318  1
  P  P23  1  0.603823  0.871101  0.040318  1
