# generated using pymatgen
data_Y2Al20RuRh3
_symmetry_space_group_name_H-M   'P 1'
_cell_length_a   6.85153176
_cell_length_b   6.84986634
_cell_length_c   9.15925242
_cell_angle_alpha   90.09387543
_cell_angle_beta   90.09940439
_cell_angle_gamma   97.11840556
_symmetry_Int_Tables_number   1
_chemical_formula_structural   Y2Al20RuRh3
_chemical_formula_sum   'Y2 Al20 Ru1 Rh3'
_cell_volume   426.54804788
_cell_formula_units_Z   1
loop_
 _symmetry_equiv_pos_site_id
 _symmetry_equiv_pos_as_xyz
  1  'x, y, z'
loop_
 _atom_site_type_symbol
 _atom_site_label
 _atom_site_symmetry_multiplicity
 _atom_site_fract_x
 _atom_site_fract_y
 _atom_site_fract_z
 _atom_site_occupancy
  Y  Y0  1  0.869779  0.127675  0.749986  1
  Y  Y1  1  0.130221  0.872325  0.250014  1
  Al  Al2  1  0.621512  0.375744  0.548171  1
  Al  Al3  1  0.378488  0.624256  0.451829  1
  Al  Al4  1  0.377856  0.622700  0.049548  1
  Al  Al5  1  0.622144  0.377300  0.950452  1
  Al  Al6  1  0.222745  0.221389  0.499261  1
  Al  Al7  1  0.777255  0.778611  0.500739  1
  Al  Al8  1  0.776535  0.776851  0.000044  1
  Al  Al9  1  0.223465  0.223149  0.999956  1
  Al  Al10  1  0.845455  0.155058  0.103286  1
  Al  Al11  1  0.154545  0.844942  0.896714  1
  Al  Al12  1  0.155521  0.846092  0.602051  1
  Al  Al13  1  0.844479  0.153908  0.397949  1
  Al  Al14  1  0.857364  0.589486  0.749454  1
  Al  Al15  1  0.142636  0.410514  0.250546  1
  Al  Al16  1  0.410798  0.141981  0.749096  1
  Al  Al17  1  0.589202  0.858019  0.250904  1
  Al  Al18  1  0.225512  0.480557  0.749941  1
  Al  Al19  1  0.774488  0.519443  0.250059  1
  Al  Al20  1  0.518984  0.775879  0.747112  1
  Al  Al21  1  0.481016  0.224121  0.252888  1
  Ru  Ru22  1  0.500000  0.000000  0.500000  1
  Rh  Rh23  1  0.000000  0.500000  0.500000  1
  Rh  Rh24  1  0.000000  0.500000  0.000000  1
  Rh  Rh25  1  0.500000  0.000000  0.000000  1
