# generated using pymatgen
data_Ho16In6TcAg
_symmetry_space_group_name_H-M   'P 1'
_cell_length_a   10.49295400
_cell_length_b   10.49236679
_cell_length_c   6.96118800
_cell_angle_alpha   90.00364042
_cell_angle_beta   89.99787919
_cell_angle_gamma   119.99898634
_symmetry_Int_Tables_number   1
_chemical_formula_structural   Ho16In6TcAg
_chemical_formula_sum   'Ho16 In6 Tc1 Ag1'
_cell_volume   663.72727225
_cell_formula_units_Z   1
loop_
 _symmetry_equiv_pos_site_id
 _symmetry_equiv_pos_as_xyz
  1  'x, y, z'
loop_
 _atom_site_type_symbol
 _atom_site_label
 _atom_site_symmetry_multiplicity
 _atom_site_fract_x
 _atom_site_fract_y
 _atom_site_fract_z
 _atom_site_occupancy
  Ho  Ho0  1  0.533680  0.067355  0.509090  1
  Ho  Ho1  1  0.932656  0.466330  0.509072  1
  Ho  Ho2  1  0.533674  0.466320  0.509098  1
  Ho  Ho3  1  0.477516  0.955047  0.014277  1
  Ho  Ho4  1  0.044948  0.522475  0.014265  1
  Ho  Ho5  1  0.477522  0.522477  0.014285  1
  Ho  Ho6  1  0.173177  0.346303  0.715092  1
  Ho  Ho7  1  0.653719  0.826864  0.715079  1
  Ho  Ho8  1  0.173160  0.826849  0.715063  1
  Ho  Ho9  1  0.824746  0.649523  0.217222  1
  Ho  Ho10  1  0.350442  0.175219  0.217257  1
  Ho  Ho11  1  0.824766  0.175227  0.217225  1
  Ho  Ho12  1  0.666664  0.333335  0.877088  1
  Ho  Ho13  1  0.333335  0.666683  0.369741  1
  Ho  Ho14  1  0.999998  0.000004  0.492771  1
  Ho  Ho15  1  0.999989  0.999999  0.988702  1
  In  In16  1  0.837858  0.675628  0.751453  1
  In  In17  1  0.324372  0.162153  0.751570  1
  In  In18  1  0.837857  0.162246  0.751416  1
  In  In19  1  0.164299  0.328631  0.248618  1
  In  In20  1  0.671392  0.835686  0.248595  1
  In  In21  1  0.164233  0.835648  0.248551  1
  Tc  Tc22  1  0.666659  0.333328  0.275004  1
  Ag  Ag23  1  0.333337  0.666671  0.787509  1
