# generated using pymatgen
data_Tb10Y6MgCo4Ag3
_symmetry_space_group_name_H-M   'P 1'
_cell_length_a   9.45415697
_cell_length_b   9.46278860
_cell_length_c   9.46278900
_cell_angle_alpha   60.00000209
_cell_angle_beta   59.96979575
_cell_angle_gamma   59.96979252
_symmetry_Int_Tables_number   1
_chemical_formula_structural   Tb10Y6MgCo4Ag3
_chemical_formula_sum   'Tb10 Y6 Mg1 Co4 Ag3'
_cell_volume   598.33950623
_cell_formula_units_Z   1
loop_
 _symmetry_equiv_pos_site_id
 _symmetry_equiv_pos_as_xyz
  1  'x, y, z'
loop_
 _atom_site_type_symbol
 _atom_site_label
 _atom_site_symmetry_multiplicity
 _atom_site_fract_x
 _atom_site_fract_y
 _atom_site_fract_z
 _atom_site_occupancy
  Tb  Tb0  1  0.347271  0.346721  0.346721  1
  Tb  Tb1  1  0.347271  0.346721  0.959288  1
  Tb  Tb2  1  0.347271  0.959288  0.346721  1
  Tb  Tb3  1  0.948918  0.350361  0.350361  1
  Tb  Tb4  1  0.810531  0.188473  0.188473  1
  Tb  Tb5  1  0.186264  0.813438  0.813438  1
  Tb  Tb6  1  0.186264  0.813438  0.186860  1
  Tb  Tb7  1  0.810531  0.188473  0.812523  1
  Tb  Tb8  1  0.186264  0.186860  0.813438  1
  Tb  Tb9  1  0.810531  0.812523  0.188473  1
  Y  Y10  1  0.934875  0.563224  0.563224  1
  Y  Y11  1  0.562171  0.936725  0.936725  1
  Y  Y12  1  0.562171  0.936725  0.564379  1
  Y  Y13  1  0.934875  0.563224  0.938677  1
  Y  Y14  1  0.562171  0.564379  0.936725  1
  Y  Y15  1  0.934875  0.938677  0.563224  1
  Mg  Mg16  1  0.286705  0.571098  0.571098  1
  Co  Co17  1  0.139473  0.142174  0.142174  1
  Co  Co18  1  0.139473  0.142174  0.576179  1
  Co  Co19  1  0.139473  0.576179  0.142174  1
  Co  Co20  1  0.575185  0.141605  0.141605  1
  Ag  Ag21  1  0.582479  0.582544  0.582544  1
  Ag  Ag22  1  0.582479  0.582544  0.252433  1
  Ag  Ag23  1  0.582479  0.252433  0.582544  1
