# generated using pymatgen
data_DyPRu2C
_symmetry_space_group_name_H-M   'P 1'
_cell_length_a   5.84557932
_cell_length_b   5.84557929
_cell_length_c   7.06569000
_cell_angle_alpha   90.00000000
_cell_angle_beta   90.00000000
_cell_angle_gamma   142.18420846
_symmetry_Int_Tables_number   1
_chemical_formula_structural   DyPRu2C
_chemical_formula_sum   'Dy2 P2 Ru4 C2'
_cell_volume   148.03301401
_cell_formula_units_Z   2
loop_
 _symmetry_equiv_pos_site_id
 _symmetry_equiv_pos_as_xyz
  1  'x, y, z'
loop_
 _atom_site_type_symbol
 _atom_site_label
 _atom_site_symmetry_multiplicity
 _atom_site_fract_x
 _atom_site_fract_y
 _atom_site_fract_z
 _atom_site_occupancy
  Dy  Dy0  1  0.544254  0.455746  0.250000  1
  Dy  Dy1  1  0.455746  0.544254  0.750000  1
  P  P2  1  0.268395  0.731605  0.250000  1
  P  P3  1  0.731605  0.268395  0.750000  1
  Ru  Ru4  1  0.834352  0.165648  0.053410  1
  Ru  Ru5  1  0.165648  0.834352  0.946590  1
  Ru  Ru6  1  0.165648  0.834352  0.553410  1
  Ru  Ru7  1  0.834352  0.165648  0.446590  1
  C  C8  1  0.000000  0.000000  0.000000  1
  C  C9  1  0.000000  0.000000  0.500000  1
