# generated using pymatgen
data_Er4TcRu3F28
_symmetry_space_group_name_H-M   'P 1'
_cell_length_a   5.54116907
_cell_length_b   8.84071737
_cell_length_c   11.89958885
_cell_angle_alpha   63.45421491
_cell_angle_beta   90.01434977
_cell_angle_gamma   89.99612024
_symmetry_Int_Tables_number   1
_chemical_formula_structural   Er4TcRu3F28
_chemical_formula_sum   'Er4 Tc1 Ru3 F28'
_cell_volume   521.48139925
_cell_formula_units_Z   1
loop_
 _symmetry_equiv_pos_site_id
 _symmetry_equiv_pos_as_xyz
  1  'x, y, z'
loop_
 _atom_site_type_symbol
 _atom_site_label
 _atom_site_symmetry_multiplicity
 _atom_site_fract_x
 _atom_site_fract_y
 _atom_site_fract_z
 _atom_site_occupancy
  Er  Er0  1  0.758153  0.808909  0.769993  1
  Er  Er1  1  0.258216  0.188051  0.729349  1
  Er  Er2  1  0.241475  0.188263  0.232674  1
  Er  Er3  1  0.741770  0.812788  0.267288  1
  Tc  Tc4  1  0.755233  0.272362  0.955434  1
  Ru  Ru5  1  0.255545  0.727413  0.544650  1
  Ru  Ru6  1  0.244635  0.727607  0.045150  1
  Ru  Ru7  1  0.744816  0.272652  0.455001  1
  F  F8  1  0.449356  0.705171  0.918708  1
  F  F9  1  0.949955  0.295366  0.581696  1
  F  F10  1  0.549067  0.295722  0.080238  1
  F  F11  1  0.049930  0.704977  0.418400  1
  F  F12  1  0.450310  0.281176  0.546651  1
  F  F13  1  0.950865  0.719887  0.953737  1
  F  F14  1  0.549539  0.719294  0.452806  1
  F  F15  1  0.049691  0.281136  0.046179  1
  F  F16  1  0.769444  0.519145  0.857222  1
  F  F17  1  0.269047  0.486534  0.640925  1
  F  F18  1  0.231127  0.486226  0.141057  1
  F  F19  1  0.731392  0.513288  0.359389  1
  F  F20  1  0.754056  0.027216  0.051538  1
  F  F21  1  0.253637  0.966969  0.451796  1
  F  F22  1  0.245783  0.967032  0.951486  1
  F  F23  1  0.746167  0.033525  0.547732  1
  F  F24  1  0.969443  0.731699  0.641097  1
  F  F25  1  0.470175  0.268853  0.857890  1
  F  F26  1  0.031240  0.269308  0.357903  1
  F  F27  1  0.530299  0.728869  0.142628  1
  F  F28  1  0.043398  0.749015  0.174268  1
  F  F29  1  0.543090  0.249311  0.326277  1
  F  F30  1  0.957910  0.249647  0.827410  1
  F  F31  1  0.456908  0.751074  0.673037  1
  F  F32  1  0.425146  0.974418  0.233993  1
  F  F33  1  0.926050  0.027265  0.266546  1
  F  F34  1  0.573815  0.026338  0.766296  1
  F  F35  1  0.073317  0.973494  0.733557  1
