# generated using pymatgen
data_Dy5Ho7Al2TcNi3
_symmetry_space_group_name_H-M   'P 1'
_cell_length_a   8.35799792
_cell_length_b   8.35869915
_cell_length_c   8.35538997
_cell_angle_alpha   112.93134589
_cell_angle_beta   110.12048394
_cell_angle_gamma   105.47393544
_symmetry_Int_Tables_number   1
_chemical_formula_structural   Dy5Ho7Al2TcNi3
_chemical_formula_sum   'Dy5 Ho7 Al2 Tc1 Ni3'
_cell_volume   447.28530653
_cell_formula_units_Z   1
loop_
 _symmetry_equiv_pos_site_id
 _symmetry_equiv_pos_as_xyz
  1  'x, y, z'
loop_
 _atom_site_type_symbol
 _atom_site_label
 _atom_site_symmetry_multiplicity
 _atom_site_fract_x
 _atom_site_fract_y
 _atom_site_fract_z
 _atom_site_occupancy
  Dy  Dy0  1  0.443354  0.247528  0.195631  1
  Dy  Dy1  1  0.572358  0.768271  0.804466  1
  Dy  Dy2  1  0.036105  0.231953  0.804540  1
  Dy  Dy3  1  0.948175  0.752394  0.195601  1
  Dy  Dy4  1  0.187050  0.283242  0.470398  1
  Ho  Ho5  1  0.823290  0.718957  0.542149  1
  Ho  Ho6  1  0.186679  0.716490  0.903277  1
  Ho  Ho7  1  0.823291  0.280772  0.103981  1
  Ho  Ho8  1  0.323987  0.636722  0.307200  1
  Ho  Ho9  1  0.671127  0.363757  0.687533  1
  Ho  Ho10  1  0.323822  0.016352  0.687518  1
  Ho  Ho11  1  0.670511  0.983412  0.307278  1
  Al  Al12  1  0.494103  0.500137  0.994218  1
  Al  Al13  1  0.018094  0.999392  0.017502  1
  Tc  Tc14  1  0.322293  0.999898  0.322164  1
  Ni  Ni15  1  0.657517  0.000655  0.658453  1
  Ni  Ni16  1  0.117533  0.617981  0.499295  1
  Ni  Ni17  1  0.880712  0.382089  0.498794  1
