# generated using pymatgen
data_Hf18GaRe8Ir
_symmetry_space_group_name_H-M   'P 1'
_cell_length_a   8.61456900
_cell_length_b   8.62918486
_cell_length_c   8.62918400
_cell_angle_alpha   119.99848347
_cell_angle_beta   90.00000000
_cell_angle_gamma   90.00000000
_symmetry_Int_Tables_number   1
_chemical_formula_structural   Hf18GaRe8Ir
_chemical_formula_sum   'Hf18 Ga1 Re8 Ir1'
_cell_volume   555.53359134
_cell_formula_units_Z   1
loop_
 _symmetry_equiv_pos_site_id
 _symmetry_equiv_pos_as_xyz
  1  'x, y, z'
loop_
 _atom_site_type_symbol
 _atom_site_label
 _atom_site_symmetry_multiplicity
 _atom_site_fract_x
 _atom_site_fract_y
 _atom_site_fract_z
 _atom_site_occupancy
  Hf  Hf0  1  0.548184  0.807220  0.614443  1
  Hf  Hf1  1  0.548171  0.807223  0.192777  1
  Hf  Hf2  1  0.548184  0.385557  0.192780  1
  Hf  Hf3  1  0.447108  0.196142  0.392280  1
  Hf  Hf4  1  0.447118  0.196140  0.803860  1
  Hf  Hf5  1  0.447108  0.607720  0.803858  1
  Hf  Hf6  1  0.052892  0.196142  0.392280  1
  Hf  Hf7  1  0.052882  0.196140  0.803860  1
  Hf  Hf8  1  0.052892  0.607720  0.803858  1
  Hf  Hf9  1  0.951816  0.807220  0.614443  1
  Hf  Hf10  1  0.951829  0.807223  0.192777  1
  Hf  Hf11  1  0.951816  0.385557  0.192780  1
  Hf  Hf12  1  0.750000  0.459582  0.919147  1
  Hf  Hf13  1  0.750000  0.459574  0.540426  1
  Hf  Hf14  1  0.750000  0.080853  0.540418  1
  Hf  Hf15  1  0.250000  0.541300  0.082610  1
  Hf  Hf16  1  0.250000  0.541303  0.458697  1
  Hf  Hf17  1  0.250000  0.917390  0.458700  1
  Ga  Ga18  1  0.750000  0.666667  0.333333  1
  Re  Re19  1  0.750000  0.109729  0.219457  1
  Re  Re20  1  0.750000  0.109734  0.890266  1
  Re  Re21  1  0.750000  0.780543  0.890271  1
  Re  Re22  1  0.250000  0.889517  0.779037  1
  Re  Re23  1  0.250000  0.889514  0.110486  1
  Re  Re24  1  0.250000  0.220963  0.110483  1
  Re  Re25  1  0.498711  0.000001  0.999999  1
  Re  Re26  1  0.001289  0.000001  0.999999  1
  Ir  Ir27  1  0.250000  0.333329  0.666671  1
