# generated using pymatgen
data_CaGd4InAu4
_symmetry_space_group_name_H-M   'P 1'
_cell_length_a   8.16928400
_cell_length_b   8.16928400
_cell_length_c   3.83442300
_cell_angle_alpha   90.00000000
_cell_angle_beta   90.00000000
_cell_angle_gamma   90.00000000
_symmetry_Int_Tables_number   1
_chemical_formula_structural   CaGd4InAu4
_chemical_formula_sum   'Ca1 Gd4 In1 Au4'
_cell_volume   255.89865875
_cell_formula_units_Z   1
loop_
 _symmetry_equiv_pos_site_id
 _symmetry_equiv_pos_as_xyz
  1  'x, y, z'
loop_
 _atom_site_type_symbol
 _atom_site_label
 _atom_site_symmetry_multiplicity
 _atom_site_fract_x
 _atom_site_fract_y
 _atom_site_fract_z
 _atom_site_occupancy
  Ca  Ca0  1  0.000000  0.000000  0.000000  1
  Gd  Gd1  1  0.642770  0.188267  0.500000  1
  Gd  Gd2  1  0.357230  0.811733  0.500000  1
  Gd  Gd3  1  0.188267  0.357230  0.500000  1
  Gd  Gd4  1  0.811733  0.642770  0.500000  1
  In  In5  1  0.500000  0.500000  0.000000  1
  Au  Au6  1  0.119264  0.641459  0.000000  1
  Au  Au7  1  0.880736  0.358541  0.000000  1
  Au  Au8  1  0.641459  0.880736  0.000000  1
  Au  Au9  1  0.358541  0.119264  0.000000  1
