# generated using pymatgen
data_ZnNi(OsO3)4
_symmetry_space_group_name_H-M   'P 1'
_cell_length_a   4.60418845
_cell_length_b   4.60418845
_cell_length_c   9.36443800
_cell_angle_alpha   90.00000000
_cell_angle_beta   90.00000000
_cell_angle_gamma   89.78050777
_symmetry_Int_Tables_number   1
_chemical_formula_structural   ZnNi(OsO3)4
_chemical_formula_sum   'Zn1 Ni1 Os4 O12'
_cell_volume   198.51106221
_cell_formula_units_Z   1
loop_
 _symmetry_equiv_pos_site_id
 _symmetry_equiv_pos_as_xyz
  1  'x, y, z'
loop_
 _atom_site_type_symbol
 _atom_site_label
 _atom_site_symmetry_multiplicity
 _atom_site_fract_x
 _atom_site_fract_y
 _atom_site_fract_z
 _atom_site_occupancy
  Zn  Zn0  1  0.500000  0.500000  0.500000  1
  Ni  Ni1  1  0.000000  0.000000  0.000000  1
  Os  Os2  1  0.500000  0.500000  0.168193  1
  Os  Os3  1  0.000000  0.000000  0.670485  1
  Os  Os4  1  0.500000  0.500000  0.831807  1
  Os  Os5  1  0.000000  0.000000  0.329515  1
  O  O6  1  0.183966  0.816034  0.500000  1
  O  O7  1  0.816034  0.183966  0.500000  1
  O  O8  1  0.317359  0.317359  0.000000  1
  O  O9  1  0.682641  0.682641  0.000000  1
  O  O10  1  0.202247  0.797753  0.172824  1
  O  O11  1  0.797753  0.202247  0.172824  1
  O  O12  1  0.294069  0.294069  0.679459  1
  O  O13  1  0.705931  0.705931  0.679459  1
  O  O14  1  0.797753  0.202247  0.827176  1
  O  O15  1  0.202247  0.797753  0.827176  1
  O  O16  1  0.705931  0.705931  0.320541  1
  O  O17  1  0.294069  0.294069  0.320541  1
