# generated using pymatgen
data_YTm2U5(ReB6)4
_symmetry_space_group_name_H-M   'P 1'
_cell_length_a   3.63010200
_cell_length_b   9.28828228
_cell_length_c   11.39631758
_cell_angle_alpha   89.94152966
_cell_angle_beta   90.00000000
_cell_angle_gamma   90.00000000
_symmetry_Int_Tables_number   1
_chemical_formula_structural   YTm2U5(ReB6)4
_chemical_formula_sum   'Y1 Tm2 U5 Re4 B24'
_cell_volume   384.25413613
_cell_formula_units_Z   1
loop_
 _symmetry_equiv_pos_site_id
 _symmetry_equiv_pos_as_xyz
  1  'x, y, z'
loop_
 _atom_site_type_symbol
 _atom_site_label
 _atom_site_symmetry_multiplicity
 _atom_site_fract_x
 _atom_site_fract_y
 _atom_site_fract_z
 _atom_site_occupancy
  Y  Y0  1  0.000000  0.835452  0.093085  1
  Tm  Tm1  1  0.000000  0.336856  0.407818  1
  Tm  Tm2  1  0.000000  0.663450  0.591685  1
  U  U3  1  0.000000  0.163573  0.907052  1
  U  U4  1  0.000000  0.956113  0.397022  1
  U  U5  1  0.000000  0.042905  0.603135  1
  U  U6  1  0.000000  0.457469  0.103997  1
  U  U7  1  0.000000  0.543622  0.896939  1
  Re  Re8  1  0.000000  0.644747  0.319577  1
  Re  Re9  1  0.000000  0.353106  0.683272  1
  Re  Re10  1  0.000000  0.146329  0.178324  1
  Re  Re11  1  0.000000  0.857163  0.819179  1
  B  B12  1  0.500000  0.550684  0.431957  1
  B  B13  1  0.500000  0.448599  0.569118  1
  B  B14  1  0.500000  0.052589  0.067542  1
  B  B15  1  0.500000  0.950365  0.930262  1
  B  B16  1  0.500000  0.742333  0.423783  1
  B  B17  1  0.500000  0.257705  0.576276  1
  B  B18  1  0.500000  0.242890  0.075924  1
  B  B19  1  0.500000  0.756448  0.922485  1
  B  B20  1  0.500000  0.801867  0.275480  1
  B  B21  1  0.500000  0.196872  0.726192  1
  B  B22  1  0.500000  0.302474  0.225376  1
  B  B23  1  0.500000  0.697853  0.774341  1
  B  B24  1  0.500000  0.643284  0.189039  1
  B  B25  1  0.500000  0.355201  0.811918  1
  B  B26  1  0.500000  0.144596  0.311263  1
  B  B27  1  0.500000  0.854991  0.688062  1
  B  B28  1  0.500000  0.989166  0.219694  1
  B  B29  1  0.500000  0.013363  0.780895  1
  B  B30  1  0.500000  0.487633  0.281414  1
  B  B31  1  0.500000  0.512222  0.719060  1
  B  B32  1  0.500000  0.640429  0.038803  1
  B  B33  1  0.500000  0.357424  0.960423  1
  B  B34  1  0.500000  0.141362  0.460525  1
  B  B35  1  0.500000  0.858867  0.539077  1
