# generated using pymatgen
data_Ce6Th2MnSe17
_symmetry_space_group_name_H-M   'P 1'
_cell_length_a   8.38438207
_cell_length_b   8.38438123
_cell_length_c   11.10834900
_cell_angle_alpha   80.46671346
_cell_angle_beta   80.46671443
_cell_angle_gamma   65.30049287
_symmetry_Int_Tables_number   1
_chemical_formula_structural   Ce6Th2MnSe17
_chemical_formula_sum   'Ce6 Th2 Mn1 Se17'
_cell_volume   695.59002641
_cell_formula_units_Z   1
loop_
 _symmetry_equiv_pos_site_id
 _symmetry_equiv_pos_as_xyz
  1  'x, y, z'
loop_
 _atom_site_type_symbol
 _atom_site_label
 _atom_site_symmetry_multiplicity
 _atom_site_fract_x
 _atom_site_fract_y
 _atom_site_fract_z
 _atom_site_occupancy
  Ce  Ce0  1  0.817315  0.303347  0.297857  1
  Ce  Ce1  1  0.303286  0.817338  0.297687  1
  Ce  Ce2  1  0.182685  0.696653  0.702143  1
  Ce  Ce3  1  0.696714  0.182662  0.702313  1
  Ce  Ce4  1  0.795530  0.795608  0.455354  1
  Ce  Ce5  1  0.204470  0.204392  0.544646  1
  Th  Th6  1  0.319825  0.319841  0.019800  1
  Th  Th7  1  0.680175  0.680159  0.980200  1
  Mn  Mn8  1  0.000000  0.000000  0.000000  1
  Se  Se9  1  0.177335  0.569542  0.466333  1
  Se  Se10  1  0.569609  0.177329  0.466500  1
  Se  Se11  1  0.822665  0.430458  0.533667  1
  Se  Se12  1  0.430391  0.822671  0.533500  1
  Se  Se13  1  0.947291  0.320648  0.028861  1
  Se  Se14  1  0.320622  0.947270  0.029016  1
  Se  Se15  1  0.052709  0.679352  0.971139  1
  Se  Se16  1  0.679378  0.052730  0.970984  1
  Se  Se17  1  0.944945  0.944534  0.226452  1
  Se  Se18  1  0.055055  0.055466  0.773548  1
  Se  Se19  1  0.788544  0.788885  0.719521  1
  Se  Se20  1  0.211456  0.211115  0.280479  1
  Se  Se21  1  0.698279  0.698645  0.243502  1
  Se  Se22  1  0.301721  0.301355  0.756498  1
  Se  Se23  1  0.480357  0.480722  0.168293  1
  Se  Se24  1  0.519643  0.519278  0.831707  1
  Se  Se25  1  0.000000  0.000000  0.500000  1
