# generated using pymatgen
data_Cd7BiAsO12
_symmetry_space_group_name_H-M   'P 1'
_cell_length_a   11.64958390
_cell_length_b   11.64958410
_cell_length_c   11.64958400
_cell_angle_alpha   147.44298436
_cell_angle_beta   132.35902487
_cell_angle_gamma   58.89350232
_symmetry_Int_Tables_number   1
_chemical_formula_structural   Cd7BiAsO12
_chemical_formula_sum   'Cd14 Bi2 As2 O24'
_cell_volume   623.43869777
_cell_formula_units_Z   2
loop_
 _symmetry_equiv_pos_site_id
 _symmetry_equiv_pos_as_xyz
  1  'x, y, z'
loop_
 _atom_site_type_symbol
 _atom_site_label
 _atom_site_symmetry_multiplicity
 _atom_site_fract_x
 _atom_site_fract_y
 _atom_site_fract_z
 _atom_site_occupancy
  Cd  Cd0  1  0.793088  0.924477  0.868611  1
  Cd  Cd1  1  0.157546  0.157546  0.500000  1
  Cd  Cd2  1  0.800823  0.331544  0.469278  1
  Cd  Cd3  1  0.157546  0.657546  0.000000  1
  Cd  Cd4  1  0.637734  0.168456  0.469278  1
  Cd  Cd5  1  0.842454  0.342454  0.000000  1
  Cd  Cd6  1  0.555866  0.424477  0.131389  1
  Cd  Cd7  1  0.000000  0.000000  0.500000  1
  Cd  Cd8  1  0.362266  0.831544  0.530722  1
  Cd  Cd9  1  0.842454  0.842454  0.500000  1
  Cd  Cd10  1  0.199177  0.668456  0.530722  1
  Cd  Cd11  1  0.206912  0.075523  0.131389  1
  Cd  Cd12  1  0.444134  0.575523  0.868611  1
  Cd  Cd13  1  0.000000  0.500000  0.000000  1
  Bi  Bi14  1  0.500000  0.000000  0.500000  1
  Bi  Bi15  1  0.000000  0.500000  0.500000  1
  As  As16  1  0.370866  0.250000  0.120866  1
  As  As17  1  0.629134  0.750000  0.879134  1
  O  O18  1  0.263175  0.990235  0.272938  1
  O  O19  1  0.117337  0.827729  0.289608  1
  O  O20  1  0.734036  0.530832  0.764867  1
  O  O21  1  0.782703  0.509765  0.272938  1
  O  O22  1  0.734036  0.969168  0.203203  1
  O  O23  1  0.406288  0.179848  0.226440  1
  O  O24  1  0.453410  0.679848  0.773560  1
  O  O25  1  0.546590  0.320152  0.226440  1
  O  O26  1  0.736825  0.009765  0.727062  1
  O  O27  1  0.919290  0.199011  0.275632  1
  O  O28  1  0.265964  0.469168  0.235133  1
  O  O29  1  0.961879  0.672271  0.289608  1
  O  O30  1  0.593712  0.820152  0.773560  1
  O  O31  1  0.576622  0.300989  0.720280  1
  O  O32  1  0.080710  0.356342  0.279720  1
  O  O33  1  0.882663  0.172271  0.710392  1
  O  O34  1  0.217297  0.490235  0.727062  1
  O  O35  1  0.919290  0.643658  0.720280  1
  O  O36  1  0.038121  0.327729  0.710392  1
  O  O37  1  0.423378  0.699011  0.279720  1
  O  O38  1  0.576622  0.856342  0.275632  1
  O  O39  1  0.265964  0.030832  0.796797  1
  O  O40  1  0.423378  0.143658  0.724368  1
  O  O41  1  0.080710  0.800989  0.724368  1
