# generated using pymatgen
data_NdDyCo9P6Ru
_symmetry_space_group_name_H-M   'P 1'
_cell_length_a   3.69708800
_cell_length_b   10.40821200
_cell_length_c   11.83163000
_cell_angle_alpha   90.00000000
_cell_angle_beta   90.00000000
_cell_angle_gamma   90.00000000
_symmetry_Int_Tables_number   1
_chemical_formula_structural   NdDyCo9P6Ru
_chemical_formula_sum   'Nd2 Dy2 Co18 P12 Ru2'
_cell_volume   455.28201790
_cell_formula_units_Z   2
loop_
 _symmetry_equiv_pos_site_id
 _symmetry_equiv_pos_as_xyz
  1  'x, y, z'
loop_
 _atom_site_type_symbol
 _atom_site_label
 _atom_site_symmetry_multiplicity
 _atom_site_fract_x
 _atom_site_fract_y
 _atom_site_fract_z
 _atom_site_occupancy
  Nd  Nd0  1  0.250000  0.582595  0.702381  1
  Nd  Nd1  1  0.250000  0.917405  0.202381  1
  Dy  Dy2  1  0.750000  0.413744  0.296004  1
  Dy  Dy3  1  0.750000  0.086256  0.796004  1
  Co  Co4  1  0.750000  0.284728  0.008346  1
  Co  Co5  1  0.750000  0.215272  0.508346  1
  Co  Co6  1  0.250000  0.404929  0.486781  1
  Co  Co7  1  0.250000  0.095071  0.986781  1
  Co  Co8  1  0.750000  0.590638  0.506972  1
  Co  Co9  1  0.750000  0.909362  0.006972  1
  Co  Co10  1  0.250000  0.221762  0.176084  1
  Co  Co11  1  0.250000  0.278238  0.676084  1
  Co  Co12  1  0.750000  0.779810  0.823672  1
  Co  Co13  1  0.750000  0.720190  0.323672  1
  Co  Co14  1  0.250000  0.888207  0.701615  1
  Co  Co15  1  0.250000  0.611793  0.201615  1
  Co  Co16  1  0.750000  0.119063  0.302554  1
  Co  Co17  1  0.750000  0.380937  0.802554  1
  Co  Co18  1  0.250000  0.463109  0.934260  1
  Co  Co19  1  0.250000  0.036891  0.434260  1
  Co  Co20  1  0.750000  0.530745  0.069575  1
  Co  Co21  1  0.750000  0.969255  0.569575  1
  P  P22  1  0.250000  0.416999  0.112794  1
  P  P23  1  0.250000  0.083001  0.612794  1
  P  P24  1  0.750000  0.578352  0.889995  1
  P  P25  1  0.750000  0.921648  0.389995  1
  P  P26  1  0.250000  0.270745  0.868465  1
  P  P27  1  0.250000  0.229255  0.368465  1
  P  P28  1  0.750000  0.724481  0.132185  1
  P  P29  1  0.750000  0.775519  0.632185  1
  P  P30  1  0.250000  0.595089  0.390455  1
  P  P31  1  0.250000  0.904911  0.890455  1
  P  P32  1  0.750000  0.393819  0.607205  1
  P  P33  1  0.750000  0.106181  0.107205  1
  Ru  Ru34  1  0.250000  0.714233  0.990656  1
  Ru  Ru35  1  0.250000  0.785767  0.490656  1
