# generated using pymatgen
data_Tm5Ga4P8Ir19
_symmetry_space_group_name_H-M   'P 1'
_cell_length_a   12.89077647
_cell_length_b   12.87620803
_cell_length_c   3.94694000
_cell_angle_alpha   90.00000000
_cell_angle_beta   90.00000000
_cell_angle_gamma   120.06839729
_symmetry_Int_Tables_number   1
_chemical_formula_structural   Tm5Ga4P8Ir19
_chemical_formula_sum   'Tm5 Ga4 P8 Ir19'
_cell_volume   566.96791525
_cell_formula_units_Z   1
loop_
 _symmetry_equiv_pos_site_id
 _symmetry_equiv_pos_as_xyz
  1  'x, y, z'
loop_
 _atom_site_type_symbol
 _atom_site_label
 _atom_site_symmetry_multiplicity
 _atom_site_fract_x
 _atom_site_fract_y
 _atom_site_fract_z
 _atom_site_occupancy
  Tm  Tm0  1  0.334852  0.668623  0.500000  1
  Tm  Tm1  1  0.665990  0.331956  0.500000  1
  Tm  Tm2  1  0.180262  0.180109  0.000000  1
  Tm  Tm3  1  0.818618  0.999330  0.000000  1
  Tm  Tm4  1  0.002542  0.817480  0.000000  1
  Ga  Ga5  1  0.318137  0.833995  0.000000  1
  Ga  Ga6  1  0.356174  0.357185  0.500000  1
  Ga  Ga7  1  0.642252  0.000920  0.500000  1
  Ga  Ga8  1  0.997021  0.639150  0.500000  1
  P  P9  1  0.173472  0.484573  0.000000  1
  P  P10  1  0.520449  0.690301  0.000000  1
  P  P11  1  0.824508  0.307138  0.000000  1
  P  P12  1  0.482633  0.174605  0.000000  1
  P  P13  1  0.691111  0.515106  0.000000  1
  P  P14  1  0.823024  0.819588  0.500000  1
  P  P15  1  0.177994  0.000904  0.500000  1
  P  P16  1  0.000039  0.179355  0.500000  1
  Ir  Ir17  1  0.190621  0.825335  0.500000  1
  Ir  Ir18  1  0.174584  0.381527  0.500000  1
  Ir  Ir19  1  0.625805  0.795359  0.500000  1
  Ir  Ir20  1  0.825595  0.204678  0.500000  1
  Ir  Ir21  1  0.384876  0.178350  0.500000  1
  Ir  Ir22  1  0.791602  0.615868  0.500000  1
  Ir  Ir23  1  0.128940  0.633319  0.000000  1
  Ir  Ir24  1  0.362707  0.497837  0.000000  1
  Ir  Ir25  1  0.521605  0.870866  0.000000  1
  Ir  Ir26  1  0.634700  0.133286  0.000000  1
  Ir  Ir27  1  0.497219  0.365396  0.000000  1
  Ir  Ir28  1  0.865202  0.500743  0.000000  1
  Ir  Ir29  1  0.547691  0.549809  0.500000  1
  Ir  Ir30  1  0.444310  0.993700  0.500000  1
  Ir  Ir31  1  0.997339  0.447348  0.500000  1
  Ir  Ir32  1  0.719765  0.716598  0.000000  1
  Ir  Ir33  1  0.279369  0.007805  0.000000  1
  Ir  Ir34  1  0.000136  0.281218  0.000000  1
  Ir  Ir35  1  0.998856  0.000640  0.500000  1
