# generated using pymatgen
data_Yb4(Pd3Au)3
_symmetry_space_group_name_H-M   'P 1'
_cell_length_a   7.15053680
_cell_length_b   7.15053598
_cell_length_c   7.15053700
_cell_angle_alpha   107.89251623
_cell_angle_beta   107.89251051
_cell_angle_gamma   112.67697917
_symmetry_Int_Tables_number   1
_chemical_formula_structural   Yb4(Pd3Au)3
_chemical_formula_sum   'Yb4 Pd9 Au3'
_cell_volume   280.78053584
_cell_formula_units_Z   1
loop_
 _symmetry_equiv_pos_site_id
 _symmetry_equiv_pos_as_xyz
  1  'x, y, z'
loop_
 _atom_site_type_symbol
 _atom_site_label
 _atom_site_symmetry_multiplicity
 _atom_site_fract_x
 _atom_site_fract_y
 _atom_site_fract_z
 _atom_site_occupancy
  Yb  Yb0  1  0.245454  0.245454  0.490909  1
  Yb  Yb1  1  0.754546  0.754546  0.509091  1
  Yb  Yb2  1  0.245454  0.754546  0.000000  1
  Yb  Yb3  1  0.754546  0.245454  0.000000  1
  Pd  Pd4  1  0.500483  0.251208  0.249274  1
  Pd  Pd5  1  0.499517  0.748792  0.750726  1
  Pd  Pd6  1  0.001933  0.251208  0.750726  1
  Pd  Pd7  1  0.251208  0.001933  0.750726  1
  Pd  Pd8  1  0.998067  0.748792  0.249274  1
  Pd  Pd9  1  0.748792  0.998067  0.249274  1
  Pd  Pd10  1  0.251208  0.500483  0.249274  1
  Pd  Pd11  1  0.748792  0.499517  0.750726  1
  Pd  Pd12  1  0.000000  0.000000  0.000000  1
  Au  Au13  1  0.500000  0.000000  0.500000  1
  Au  Au14  1  0.000000  0.500000  0.500000  1
  Au  Au15  1  0.500000  0.500000  0.000000  1
