# generated using pymatgen
data_Yb2Pr6PPd24
_symmetry_space_group_name_H-M   'P 1'
_cell_length_a   8.45370811
_cell_length_b   8.45370814
_cell_length_c   8.45370800
_cell_angle_alpha   89.87502112
_cell_angle_beta   89.87502112
_cell_angle_gamma   89.87501990
_symmetry_Int_Tables_number   1
_chemical_formula_structural   Yb2Pr6PPd24
_chemical_formula_sum   'Yb2 Pr6 P1 Pd24'
_cell_volume   604.14146710
_cell_formula_units_Z   1
loop_
 _symmetry_equiv_pos_site_id
 _symmetry_equiv_pos_as_xyz
  1  'x, y, z'
loop_
 _atom_site_type_symbol
 _atom_site_label
 _atom_site_symmetry_multiplicity
 _atom_site_fract_x
 _atom_site_fract_y
 _atom_site_fract_z
 _atom_site_occupancy
  Yb  Yb0  1  0.253231  0.253231  0.253231  1
  Yb  Yb1  1  0.746769  0.746769  0.746769  1
  Pr  Pr2  1  0.744977  0.744977  0.253959  1
  Pr  Pr3  1  0.744977  0.253959  0.744977  1
  Pr  Pr4  1  0.255023  0.255023  0.746041  1
  Pr  Pr5  1  0.255023  0.746041  0.255023  1
  Pr  Pr6  1  0.253959  0.744977  0.744977  1
  Pr  Pr7  1  0.746041  0.255023  0.255023  1
  P  P8  1  0.000000  0.000000  0.000000  1
  Pd  Pd9  1  0.255478  0.498068  0.003614  1
  Pd  Pd10  1  0.744522  0.501932  0.996386  1
  Pd  Pd11  1  0.003614  0.255478  0.498068  1
  Pd  Pd12  1  0.498068  0.255478  0.003614  1
  Pd  Pd13  1  0.996386  0.744522  0.501932  1
  Pd  Pd14  1  0.501932  0.744522  0.996386  1
  Pd  Pd15  1  0.498068  0.003614  0.255478  1
  Pd  Pd16  1  0.255478  0.003614  0.498068  1
  Pd  Pd17  1  0.501932  0.996386  0.744522  1
  Pd  Pd18  1  0.744522  0.996386  0.501932  1
  Pd  Pd19  1  0.003614  0.498068  0.255478  1
  Pd  Pd20  1  0.996386  0.501932  0.744522  1
  Pd  Pd21  1  0.251401  0.496462  0.496462  1
  Pd  Pd22  1  0.748599  0.503538  0.503538  1
  Pd  Pd23  1  0.496462  0.251401  0.496462  1
  Pd  Pd24  1  0.503538  0.748599  0.503538  1
  Pd  Pd25  1  0.496462  0.496462  0.251401  1
  Pd  Pd26  1  0.503538  0.503538  0.748599  1
  Pd  Pd27  1  0.275132  0.003396  0.003396  1
  Pd  Pd28  1  0.724868  0.996604  0.996604  1
  Pd  Pd29  1  0.003396  0.275132  0.003396  1
  Pd  Pd30  1  0.996604  0.724868  0.996604  1
  Pd  Pd31  1  0.003396  0.003396  0.275132  1
  Pd  Pd32  1  0.996604  0.996604  0.724868  1
