# generated using pymatgen
data_LaNdGa12Ir
_symmetry_space_group_name_H-M   'P 1'
_cell_length_a   6.16360800
_cell_length_b   6.16360800
_cell_length_c   15.75490200
_cell_angle_alpha   90.00000000
_cell_angle_beta   90.00000000
_cell_angle_gamma   90.00000000
_symmetry_Int_Tables_number   1
_chemical_formula_structural   LaNdGa12Ir
_chemical_formula_sum   'La2 Nd2 Ga24 Ir2'
_cell_volume   598.52972864
_cell_formula_units_Z   2
loop_
 _symmetry_equiv_pos_site_id
 _symmetry_equiv_pos_as_xyz
  1  'x, y, z'
loop_
 _atom_site_type_symbol
 _atom_site_label
 _atom_site_symmetry_multiplicity
 _atom_site_fract_x
 _atom_site_fract_y
 _atom_site_fract_z
 _atom_site_occupancy
  La  La0  1  0.750000  0.250000  0.242534  1
  La  La1  1  0.250000  0.750000  0.242534  1
  Nd  Nd2  1  0.250000  0.750000  0.758644  1
  Nd  Nd3  1  0.750000  0.250000  0.758644  1
  Ga  Ga4  1  0.250000  0.250000  0.188687  1
  Ga  Ga5  1  0.750000  0.750000  0.188687  1
  Ga  Ga6  1  0.750000  0.750000  0.809885  1
  Ga  Ga7  1  0.250000  0.250000  0.809885  1
  Ga  Ga8  1  0.250000  0.250000  0.347998  1
  Ga  Ga9  1  0.750000  0.750000  0.347998  1
  Ga  Ga10  1  0.750000  0.750000  0.652740  1
  Ga  Ga11  1  0.250000  0.250000  0.652740  1
  Ga  Ga12  1  0.500025  0.000025  0.913234  1
  Ga  Ga13  1  0.000025  0.999975  0.913234  1
  Ga  Ga14  1  0.499975  0.500025  0.913234  1
  Ga  Ga15  1  0.999975  0.499975  0.913234  1
  Ga  Ga16  1  0.499946  0.999946  0.086227  1
  Ga  Ga17  1  0.999946  0.000054  0.086227  1
  Ga  Ga18  1  0.500054  0.499946  0.086227  1
  Ga  Ga19  1  0.000054  0.500054  0.086227  1
  Ga  Ga20  1  0.581573  0.081573  0.432344  1
  Ga  Ga21  1  0.081573  0.918427  0.432344  1
  Ga  Ga22  1  0.418427  0.581573  0.432344  1
  Ga  Ga23  1  0.918427  0.418427  0.432344  1
  Ga  Ga24  1  0.417193  0.917193  0.568319  1
  Ga  Ga25  1  0.917193  0.082807  0.568319  1
  Ga  Ga26  1  0.582807  0.417193  0.568319  1
  Ga  Ga27  1  0.082807  0.582807  0.568319  1
  Ir  Ir28  1  0.750000  0.250000  0.999263  1
  Ir  Ir29  1  0.250000  0.750000  0.999263  1
