# generated using pymatgen
data_Th3Al3Ru2Pt
_symmetry_space_group_name_H-M   'P 1'
_cell_length_a   7.20388600
_cell_length_b   7.20388576
_cell_length_c   4.15047600
_cell_angle_alpha   90.00000000
_cell_angle_beta   90.00000000
_cell_angle_gamma   120.00000112
_symmetry_Int_Tables_number   1
_chemical_formula_structural   Th3Al3Ru2Pt
_chemical_formula_sum   'Th3 Al3 Ru2 Pt1'
_cell_volume   186.53579488
_cell_formula_units_Z   1
loop_
 _symmetry_equiv_pos_site_id
 _symmetry_equiv_pos_as_xyz
  1  'x, y, z'
loop_
 _atom_site_type_symbol
 _atom_site_label
 _atom_site_symmetry_multiplicity
 _atom_site_fract_x
 _atom_site_fract_y
 _atom_site_fract_z
 _atom_site_occupancy
  Th  Th0  1  0.424312  0.424312  0.500000  1
  Th  Th1  1  0.575688  0.000000  0.500000  1
  Th  Th2  1  0.000000  0.575688  0.500000  1
  Al  Al3  1  0.766131  0.766131  0.000000  1
  Al  Al4  1  0.233869  0.000000  0.000000  1
  Al  Al5  1  0.000000  0.233869  0.000000  1
  Ru  Ru6  1  0.666667  0.333333  0.000000  1
  Ru  Ru7  1  0.333333  0.666667  0.000000  1
  Pt  Pt8  1  0.000000  0.000000  0.500000  1
