# generated using pymatgen
data_Li3Pr3InGeSb
_symmetry_space_group_name_H-M   'P 1'
_cell_length_a   7.60255700
_cell_length_b   7.60255769
_cell_length_c   4.52843700
_cell_angle_alpha   90.00000000
_cell_angle_beta   90.00000000
_cell_angle_gamma   120.00000136
_symmetry_Int_Tables_number   1
_chemical_formula_structural   Li3Pr3InGeSb
_chemical_formula_sum   'Li3 Pr3 In1 Ge1 Sb1'
_cell_volume   226.67225494
_cell_formula_units_Z   1
loop_
 _symmetry_equiv_pos_site_id
 _symmetry_equiv_pos_as_xyz
  1  'x, y, z'
loop_
 _atom_site_type_symbol
 _atom_site_label
 _atom_site_symmetry_multiplicity
 _atom_site_fract_x
 _atom_site_fract_y
 _atom_site_fract_z
 _atom_site_occupancy
  Li  Li0  1  0.246710  0.004467  0.500000  1
  Li  Li1  1  0.757757  0.753290  0.500000  1
  Li  Li2  1  0.995533  0.242243  0.500000  1
  Pr  Pr3  1  0.985987  0.561101  0.000000  1
  Pr  Pr4  1  0.575114  0.014013  0.000000  1
  Pr  Pr5  1  0.438899  0.424886  0.000000  1
  In  In6  1  0.000000  0.000000  0.000000  1
  Ge  Ge7  1  0.666667  0.333333  0.500000  1
  Sb  Sb8  1  0.333333  0.666667  0.500000  1
