# generated using pymatgen
data_Tm7Lu5Ni4SnHg
_symmetry_space_group_name_H-M   'P 1'
_cell_length_a   8.26710678
_cell_length_b   8.26990063
_cell_length_c   8.26797057
_cell_angle_alpha   106.42390374
_cell_angle_beta   109.38708136
_cell_angle_gamma   112.70358244
_symmetry_Int_Tables_number   1
_chemical_formula_structural   Tm7Lu5Ni4SnHg
_chemical_formula_sum   'Tm7 Lu5 Ni4 Sn1 Hg1'
_cell_volume   433.61810484
_cell_formula_units_Z   1
loop_
 _symmetry_equiv_pos_site_id
 _symmetry_equiv_pos_as_xyz
  1  'x, y, z'
loop_
 _atom_site_type_symbol
 _atom_site_label
 _atom_site_symmetry_multiplicity
 _atom_site_fract_x
 _atom_site_fract_y
 _atom_site_fract_z
 _atom_site_occupancy
  Tm  Tm0  1  0.807117  0.481353  0.674126  1
  Tm  Tm1  1  0.192764  0.866955  0.674177  1
  Tm  Tm2  1  0.192660  0.518320  0.325781  1
  Tm  Tm3  1  0.612249  0.793433  0.819147  1
  Tm  Tm4  1  0.974440  0.793489  0.181174  1
  Tm  Tm5  1  0.025416  0.206598  0.818638  1
  Tm  Tm6  1  0.387984  0.206663  0.181025  1
  Lu  Lu7  1  0.704018  0.270733  0.974821  1
  Lu  Lu8  1  0.296260  0.729379  0.025563  1
  Lu  Lu9  1  0.703916  0.729463  0.433130  1
  Lu  Lu10  1  0.295778  0.270526  0.566594  1
  Lu  Lu11  1  0.807665  0.133574  0.325948  1
  Ni  Ni12  1  0.853753  0.499737  0.353857  1
  Ni  Ni13  1  0.146063  0.499696  0.645975  1
  Ni  Ni14  1  0.999711  0.126665  0.126800  1
  Ni  Ni15  1  0.000095  0.873392  0.873428  1
  Sn  Sn16  1  0.500188  0.000074  0.499912  1
  Hg  Hg17  1  0.499924  0.499949  0.999903  1
