# generated using pymatgen
data_TbY3Ho4(SiPd)8
_symmetry_space_group_name_H-M   'P 1'
_cell_length_a   4.34308900
_cell_length_b   7.50340900
_cell_length_c   13.91815100
_cell_angle_alpha   90.00000000
_cell_angle_beta   90.00000000
_cell_angle_gamma   90.00000000
_symmetry_Int_Tables_number   1
_chemical_formula_structural   TbY3Ho4(SiPd)8
_chemical_formula_sum   'Tb1 Y3 Ho4 Si8 Pd8'
_cell_volume   453.56433026
_cell_formula_units_Z   1
loop_
 _symmetry_equiv_pos_site_id
 _symmetry_equiv_pos_as_xyz
  1  'x, y, z'
loop_
 _atom_site_type_symbol
 _atom_site_label
 _atom_site_symmetry_multiplicity
 _atom_site_fract_x
 _atom_site_fract_y
 _atom_site_fract_z
 _atom_site_occupancy
  Tb  Tb0  1  0.500000  0.700921  0.500000  1
  Y  Y1  1  0.500000  0.709648  0.000000  1
  Y  Y2  1  0.000000  0.290320  0.500000  1
  Y  Y3  1  0.000000  0.299072  0.000000  1
  Ho  Ho4  1  0.500000  0.789544  0.748885  1
  Ho  Ho5  1  0.000000  0.210461  0.751110  1
  Ho  Ho6  1  0.500000  0.789544  0.251115  1
  Ho  Ho7  1  0.000000  0.210461  0.248890  1
  Si  Si8  1  0.500000  0.408956  0.645144  1
  Si  Si9  1  0.000000  0.591012  0.854876  1
  Si  Si10  1  0.500000  0.408956  0.354856  1
  Si  Si11  1  0.000000  0.591012  0.145124  1
  Si  Si12  1  0.500000  0.090005  0.094036  1
  Si  Si13  1  0.000000  0.910042  0.405964  1
  Si  Si14  1  0.500000  0.090005  0.905964  1
  Si  Si15  1  0.000000  0.910042  0.594036  1
  Pd  Pd16  1  0.500000  0.076191  0.609636  1
  Pd  Pd17  1  0.000000  0.923829  0.890382  1
  Pd  Pd18  1  0.500000  0.076191  0.390364  1
  Pd  Pd19  1  0.000000  0.923829  0.109618  1
  Pd  Pd20  1  0.500000  0.420301  0.157017  1
  Pd  Pd21  1  0.000000  0.579678  0.342952  1
  Pd  Pd22  1  0.500000  0.420301  0.842983  1
  Pd  Pd23  1  0.000000  0.579678  0.657048  1
