# generated using pymatgen
data_Hf6Ta3Nb(GaSn3)2
_symmetry_space_group_name_H-M   'P 1'
_cell_length_a   8.53051600
_cell_length_b   8.53051551
_cell_length_c   5.71407100
_cell_angle_alpha   90.00000000
_cell_angle_beta   90.00000000
_cell_angle_gamma   120.00000189
_symmetry_Int_Tables_number   1
_chemical_formula_structural   Hf6Ta3Nb(GaSn3)2
_chemical_formula_sum   'Hf6 Ta3 Nb1 Ga2 Sn6'
_cell_volume   360.10307898
_cell_formula_units_Z   1
loop_
 _symmetry_equiv_pos_site_id
 _symmetry_equiv_pos_as_xyz
  1  'x, y, z'
loop_
 _atom_site_type_symbol
 _atom_site_label
 _atom_site_symmetry_multiplicity
 _atom_site_fract_x
 _atom_site_fract_y
 _atom_site_fract_z
 _atom_site_occupancy
  Hf  Hf0  1  0.729971  0.730027  0.749958  1
  Hf  Hf1  1  0.269973  0.999945  0.749958  1
  Hf  Hf2  1  0.000055  0.270029  0.749958  1
  Hf  Hf3  1  0.269973  0.270029  0.250042  1
  Hf  Hf4  1  0.729971  0.999945  0.250042  1
  Hf  Hf5  1  0.000055  0.730027  0.250042  1
  Ta  Ta6  1  0.333333  0.666667  0.000000  1
  Ta  Ta7  1  0.333333  0.666667  0.500000  1
  Ta  Ta8  1  0.666667  0.333333  0.500000  1
  Nb  Nb9  1  0.666667  0.333333  0.000000  1
  Ga  Ga10  1  0.000000  0.000000  0.000000  1
  Ga  Ga11  1  0.000000  0.000000  0.500000  1
  Sn  Sn12  1  0.390269  0.390255  0.749983  1
  Sn  Sn13  1  0.609745  0.000014  0.749983  1
  Sn  Sn14  1  0.999986  0.609731  0.749983  1
  Sn  Sn15  1  0.609745  0.609731  0.250017  1
  Sn  Sn16  1  0.390269  0.000014  0.250017  1
  Sn  Sn17  1  0.999986  0.390255  0.250017  1
