# generated using pymatgen
data_YbSm(Be12Cu)2
_symmetry_space_group_name_H-M   'P 1'
_cell_length_a   7.28618810
_cell_length_b   7.31383982
_cell_length_c   7.28674552
_cell_angle_alpha   60.61229523
_cell_angle_beta   60.24869371
_cell_angle_gamma   59.87942231
_symmetry_Int_Tables_number   1
_chemical_formula_structural   YbSm(Be12Cu)2
_chemical_formula_sum   'Yb1 Sm1 Be24 Cu2'
_cell_volume   276.08878399
_cell_formula_units_Z   1
loop_
 _symmetry_equiv_pos_site_id
 _symmetry_equiv_pos_as_xyz
  1  'x, y, z'
loop_
 _atom_site_type_symbol
 _atom_site_label
 _atom_site_symmetry_multiplicity
 _atom_site_fract_x
 _atom_site_fract_y
 _atom_site_fract_z
 _atom_site_occupancy
  Yb  Yb0  1  0.250085  0.249915  0.249915  1
  Sm  Sm1  1  0.753354  0.746646  0.746646  1
  Be  Be2  1  0.000016  0.999984  0.999984  1
  Be  Be3  1  0.499992  0.500008  0.500008  1
  Be  Be4  1  0.065631  0.291630  0.709216  1
  Be  Be5  1  0.933523  0.709216  0.291630  1
  Be  Be6  1  0.931706  0.292059  0.065380  1
  Be  Be7  1  0.210786  0.439200  0.784942  1
  Be  Be8  1  0.067254  0.709302  0.933744  1
  Be  Be9  1  0.787953  0.561956  0.213663  1
  Be  Be10  1  0.710856  0.065380  0.292059  1
  Be  Be11  1  0.436428  0.213663  0.561956  1
  Be  Be12  1  0.289700  0.933744  0.709302  1
  Be  Be13  1  0.565072  0.784942  0.439200  1
  Be  Be14  1  0.059527  0.932520  0.297869  1
  Be  Be15  1  0.570640  0.221478  0.777234  1
  Be  Be16  1  0.940307  0.066248  0.703027  1
  Be  Be17  1  0.430649  0.777234  0.221478  1
  Be  Be18  1  0.710084  0.297869  0.932520  1
  Be  Be19  1  0.210414  0.565824  0.435383  1
  Be  Be20  1  0.290418  0.703027  0.066248  1
  Be  Be21  1  0.788379  0.435383  0.565824  1
  Be  Be22  1  0.787114  0.214612  0.432896  1
  Be  Be23  1  0.211956  0.783441  0.568593  1
  Be  Be24  1  0.565376  0.432896  0.214612  1
  Be  Be25  1  0.436012  0.568593  0.783441  1
  Cu  Cu26  1  0.301765  0.059992  0.943237  1
  Cu  Cu27  1  0.695006  0.943237  0.059992  1
