# generated using pymatgen
data_HfMg(NbSe2)8
_symmetry_space_group_name_H-M   'P 1'
_cell_length_a   7.00785600
_cell_length_b   7.00785572
_cell_length_c   13.47949800
_cell_angle_alpha   90.00000000
_cell_angle_beta   90.00000000
_cell_angle_gamma   120.00000132
_symmetry_Int_Tables_number   1
_chemical_formula_structural   HfMg(NbSe2)8
_chemical_formula_sum   'Hf1 Mg1 Nb8 Se16'
_cell_volume   573.29039512
_cell_formula_units_Z   1
loop_
 _symmetry_equiv_pos_site_id
 _symmetry_equiv_pos_as_xyz
  1  'x, y, z'
loop_
 _atom_site_type_symbol
 _atom_site_label
 _atom_site_symmetry_multiplicity
 _atom_site_fract_x
 _atom_site_fract_y
 _atom_site_fract_z
 _atom_site_occupancy
  Hf  Hf0  1  0.000000  0.000000  0.500000  1
  Mg  Mg1  1  0.000000  0.000000  0.000000  1
  Nb  Nb2  1  0.000000  0.000000  0.250576  1
  Nb  Nb3  1  0.000000  0.000000  0.749424  1
  Nb  Nb4  1  0.506476  0.012951  0.249324  1
  Nb  Nb5  1  0.987049  0.493524  0.249324  1
  Nb  Nb6  1  0.506476  0.493524  0.249324  1
  Nb  Nb7  1  0.493524  0.987049  0.750676  1
  Nb  Nb8  1  0.012951  0.506476  0.750676  1
  Nb  Nb9  1  0.493524  0.506476  0.750676  1
  Se  Se10  1  0.333333  0.666667  0.878260  1
  Se  Se11  1  0.666667  0.333333  0.121740  1
  Se  Se12  1  0.666667  0.333333  0.376931  1
  Se  Se13  1  0.333333  0.666667  0.623069  1
  Se  Se14  1  0.169116  0.830884  0.374254  1
  Se  Se15  1  0.169116  0.338232  0.374254  1
  Se  Se16  1  0.661768  0.830884  0.374254  1
  Se  Se17  1  0.830884  0.169116  0.625746  1
  Se  Se18  1  0.830884  0.661768  0.625746  1
  Se  Se19  1  0.338232  0.169116  0.625746  1
  Se  Se20  1  0.830975  0.169025  0.873070  1
  Se  Se21  1  0.830975  0.661951  0.873070  1
  Se  Se22  1  0.338049  0.169025  0.873070  1
  Se  Se23  1  0.169025  0.830975  0.126930  1
  Se  Se24  1  0.169025  0.338049  0.126930  1
  Se  Se25  1  0.661951  0.830975  0.126930  1
