# generated using pymatgen
data_KYb2Zn2Sb3
_symmetry_space_group_name_H-M   'P 1'
_cell_length_a   4.64092400
_cell_length_b   12.18552300
_cell_length_c   15.60022700
_cell_angle_alpha   90.00000000
_cell_angle_beta   90.00000000
_cell_angle_gamma   90.00000000
_symmetry_Int_Tables_number   1
_chemical_formula_structural   KYb2Zn2Sb3
_chemical_formula_sum   'K4 Yb8 Zn8 Sb12'
_cell_volume   882.22538116
_cell_formula_units_Z   4
loop_
 _symmetry_equiv_pos_site_id
 _symmetry_equiv_pos_as_xyz
  1  'x, y, z'
loop_
 _atom_site_type_symbol
 _atom_site_label
 _atom_site_symmetry_multiplicity
 _atom_site_fract_x
 _atom_site_fract_y
 _atom_site_fract_z
 _atom_site_occupancy
  K  K0  1  0.250000  0.407538  0.447001  1
  K  K1  1  0.250000  0.907538  0.052999  1
  K  K2  1  0.750000  0.592462  0.552999  1
  K  K3  1  0.750000  0.092462  0.947001  1
  Yb  Yb4  1  0.250000  0.101168  0.574468  1
  Yb  Yb5  1  0.250000  0.601168  0.925532  1
  Yb  Yb6  1  0.750000  0.898832  0.425532  1
  Yb  Yb7  1  0.750000  0.398832  0.074468  1
  Yb  Yb8  1  0.250000  0.362603  0.715886  1
  Yb  Yb9  1  0.250000  0.862603  0.784114  1
  Yb  Yb10  1  0.750000  0.637397  0.284114  1
  Yb  Yb11  1  0.750000  0.137397  0.215886  1
  Zn  Zn12  1  0.250000  0.306458  0.917144  1
  Zn  Zn13  1  0.250000  0.806458  0.582856  1
  Zn  Zn14  1  0.750000  0.693542  0.082856  1
  Zn  Zn15  1  0.750000  0.193542  0.417144  1
  Zn  Zn16  1  0.250000  0.366885  0.207661  1
  Zn  Zn17  1  0.250000  0.866885  0.292339  1
  Zn  Zn18  1  0.750000  0.633115  0.792339  1
  Zn  Zn19  1  0.750000  0.133115  0.707661  1
  Sb  Sb20  1  0.250000  0.079219  0.368212  1
  Sb  Sb21  1  0.250000  0.579219  0.131788  1
  Sb  Sb22  1  0.750000  0.920781  0.631788  1
  Sb  Sb23  1  0.750000  0.420781  0.868212  1
  Sb  Sb24  1  0.250000  0.125169  0.797237  1
  Sb  Sb25  1  0.250000  0.625169  0.702763  1
  Sb  Sb26  1  0.750000  0.874831  0.202763  1
  Sb  Sb27  1  0.750000  0.374831  0.297237  1
  Sb  Sb28  1  0.250000  0.712784  0.420303  1
  Sb  Sb29  1  0.250000  0.212784  0.079697  1
  Sb  Sb30  1  0.750000  0.287216  0.579697  1
  Sb  Sb31  1  0.750000  0.787216  0.920303  1
