# generated using pymatgen
data_Li8Tc(PdCl8)3
_symmetry_space_group_name_H-M   'P 1'
_cell_length_a   6.27211800
_cell_length_b   6.27211755
_cell_length_c   25.46639800
_cell_angle_alpha   90.00000000
_cell_angle_beta   90.00000000
_cell_angle_gamma   120.00000239
_symmetry_Int_Tables_number   1
_chemical_formula_structural   Li8Tc(PdCl8)3
_chemical_formula_sum   'Li8 Tc1 Pd3 Cl24'
_cell_volume   867.61400269
_cell_formula_units_Z   1
loop_
 _symmetry_equiv_pos_site_id
 _symmetry_equiv_pos_as_xyz
  1  'x, y, z'
loop_
 _atom_site_type_symbol
 _atom_site_label
 _atom_site_symmetry_multiplicity
 _atom_site_fract_x
 _atom_site_fract_y
 _atom_site_fract_z
 _atom_site_occupancy
  Li  Li0  1  0.000000  0.000000  0.250000  1
  Li  Li1  1  0.000000  0.000000  0.750000  1
  Li  Li2  1  0.333333  0.666667  0.999897  1
  Li  Li3  1  0.333333  0.666667  0.500103  1
  Li  Li4  1  0.333333  0.666667  0.250000  1
  Li  Li5  1  0.666667  0.333333  0.750000  1
  Li  Li6  1  0.666667  0.333333  0.000072  1
  Li  Li7  1  0.666667  0.333333  0.499928  1
  Tc  Tc8  1  0.666667  0.333333  0.250000  1
  Pd  Pd9  1  0.000000  0.000000  0.999964  1
  Pd  Pd10  1  0.000000  0.000000  0.500036  1
  Pd  Pd11  1  0.333333  0.666667  0.750000  1
  Cl  Cl12  1  0.356277  0.022705  0.303803  1
  Cl  Cl13  1  0.333512  0.973947  0.803062  1
  Cl  Cl14  1  0.000656  0.307716  0.053028  1
  Cl  Cl15  1  0.999315  0.306822  0.553059  1
  Cl  Cl16  1  0.977295  0.333572  0.303803  1
  Cl  Cl17  1  0.026053  0.359565  0.803062  1
  Cl  Cl18  1  0.356277  0.333572  0.196197  1
  Cl  Cl19  1  0.333512  0.359565  0.696938  1
  Cl  Cl20  1  0.307060  0.307716  0.446972  1
  Cl  Cl21  1  0.307507  0.306822  0.946941  1
  Cl  Cl22  1  0.692284  0.999344  0.446972  1
  Cl  Cl23  1  0.307060  0.999344  0.053028  1
  Cl  Cl24  1  0.307507  0.000685  0.553059  1
  Cl  Cl25  1  0.692284  0.692940  0.053028  1
  Cl  Cl26  1  0.693178  0.692493  0.553059  1
  Cl  Cl27  1  0.666428  0.643723  0.303803  1
  Cl  Cl28  1  0.640435  0.666488  0.803062  1
  Cl  Cl29  1  0.977295  0.643723  0.196197  1
  Cl  Cl30  1  0.026053  0.666488  0.696938  1
  Cl  Cl31  1  0.000656  0.692940  0.446972  1
  Cl  Cl32  1  0.999315  0.692493  0.946941  1
  Cl  Cl33  1  0.693178  0.000685  0.946941  1
  Cl  Cl34  1  0.666428  0.022705  0.196197  1
  Cl  Cl35  1  0.640435  0.973947  0.696938  1
