# generated using pymatgen
data_Pr17Pa2InRh16
_symmetry_space_group_name_H-M   'P 1'
_cell_length_a   7.69642803
_cell_length_b   7.68880167
_cell_length_c   14.98825400
_cell_angle_alpha   90.29464736
_cell_angle_beta   89.99465488
_cell_angle_gamma   89.99954312
_symmetry_Int_Tables_number   1
_chemical_formula_structural   Pr17Pa2InRh16
_chemical_formula_sum   'Pr17 Pa2 In1 Rh16'
_cell_volume   886.93781373
_cell_formula_units_Z   1
loop_
 _symmetry_equiv_pos_site_id
 _symmetry_equiv_pos_as_xyz
  1  'x, y, z'
loop_
 _atom_site_type_symbol
 _atom_site_label
 _atom_site_symmetry_multiplicity
 _atom_site_fract_x
 _atom_site_fract_y
 _atom_site_fract_z
 _atom_site_occupancy
  Pr  Pr0  1  0.345063  0.837822  0.123013  1
  Pr  Pr1  1  0.831175  0.674872  0.376112  1
  Pr  Pr2  1  0.344575  0.838304  0.377166  1
  Pr  Pr3  1  0.831782  0.674847  0.124725  1
  Pr  Pr4  1  0.663224  0.169663  0.881367  1
  Pr  Pr5  1  0.158210  0.331777  0.615883  1
  Pr  Pr6  1  0.514815  0.682369  0.593067  1
  Pr  Pr7  1  0.015091  0.819770  0.908834  1
  Pr  Pr8  1  0.496630  0.311329  0.104429  1
  Pr  Pr9  1  0.980833  0.175136  0.393697  1
  Pr  Pr10  1  0.491001  0.313118  0.399878  1
  Pr  Pr11  1  0.982117  0.173298  0.101076  1
  Pr  Pr12  1  0.510853  0.678665  0.910873  1
  Pr  Pr13  1  0.010079  0.823160  0.590637  1
  Pr  Pr14  1  0.822612  0.522560  0.749342  1
  Pr  Pr15  1  0.321539  0.979003  0.752142  1
  Pr  Pr16  1  0.169370  0.493668  0.250929  1
  Pa  Pa17  1  0.654360  0.164084  0.624787  1
  Pa  Pa18  1  0.157070  0.340887  0.877538  1
  In  In19  1  0.669875  0.005602  0.247981  1
  Rh  Rh20  1  0.695395  0.976997  0.482910  1
  Rh  Rh21  1  0.191455  0.515210  0.024952  1
  Rh  Rh22  1  0.295780  0.074971  0.958748  1
  Rh  Rh23  1  0.797049  0.429477  0.540200  1
  Rh  Rh24  1  0.340043  0.031481  0.548995  1
  Rh  Rh25  1  0.841236  0.468809  0.953335  1
  Rh  Rh26  1  0.670824  0.961339  0.037146  1
  Rh  Rh27  1  0.163724  0.532095  0.453444  1
  Rh  Rh28  1  0.471507  0.361250  0.739037  1
  Rh  Rh29  1  0.972061  0.140700  0.758540  1
  Rh  Rh30  1  0.533162  0.604748  0.251146  1
  Rh  Rh31  1  0.034786  0.899653  0.248642  1
  Rh  Rh32  1  0.711907  0.893277  0.736981  1
  Rh  Rh33  1  0.211555  0.606194  0.763675  1
  Rh  Rh34  1  0.307069  0.140343  0.249796  1
  Rh  Rh35  1  0.792174  0.353525  0.248976  1
