# generated using pymatgen
data_LiLa5GaRu3
_symmetry_space_group_name_H-M   'P 1'
_cell_length_a   8.66644536
_cell_length_b   8.66644546
_cell_length_c   8.55878300
_cell_angle_alpha   109.57256439
_cell_angle_beta   109.36074419
_cell_angle_gamma   109.98443727
_symmetry_Int_Tables_number   1
_chemical_formula_structural   LiLa5GaRu3
_chemical_formula_sum   'Li2 La10 Ga2 Ru6'
_cell_volume   491.73450184
_cell_formula_units_Z   2
loop_
 _symmetry_equiv_pos_site_id
 _symmetry_equiv_pos_as_xyz
  1  'x, y, z'
loop_
 _atom_site_type_symbol
 _atom_site_label
 _atom_site_symmetry_multiplicity
 _atom_site_fract_x
 _atom_site_fract_y
 _atom_site_fract_z
 _atom_site_occupancy
  Li  Li0  1  0.500071  0.001142  0.914198  1
  Li  Li1  1  0.586943  0.585871  0.585802  1
  La  La2  1  0.247140  0.684416  0.440893  1
  La  La3  1  0.743524  0.806248  0.059108  1
  La  La4  1  0.436017  0.248805  0.690811  1
  La  La5  1  0.691488  0.441489  0.250000  1
  La  La6  1  0.057994  0.745205  0.809189  1
  La  La7  1  0.813291  0.063291  0.750000  1
  La  La8  1  0.214868  0.215053  0.213774  1
  La  La9  1  0.501280  0.001094  0.286226  1
  La  La10  1  0.281805  0.501146  0.999336  1
  La  La11  1  0.001808  0.282468  0.500665  1
  Ga  Ga12  1  0.912910  0.501417  0.002851  1
  Ga  Ga13  1  0.998565  0.910058  0.497150  1
  Ru  Ru14  1  0.241064  0.126080  0.865388  1
  Ru  Ru15  1  0.760692  0.375674  0.634611  1
  Ru  Ru16  1  0.890899  0.261434  0.126814  1
  Ru  Ru17  1  0.119068  0.869068  0.250001  1
  Ru  Ru18  1  0.634617  0.764084  0.373185  1
  Ru  Ru19  1  0.365959  0.615959  0.750000  1
