# generated using pymatgen
data_Ho5V2Fe16CoP12
_symmetry_space_group_name_H-M   'P 1'
_cell_length_a   12.01312190
_cell_length_b   12.08103333
_cell_length_c   3.68953600
_cell_angle_alpha   90.00000000
_cell_angle_beta   90.00000000
_cell_angle_gamma   120.18718098
_symmetry_Int_Tables_number   1
_chemical_formula_structural   Ho5V2Fe16CoP12
_chemical_formula_sum   'Ho5 V2 Fe16 Co1 P12'
_cell_volume   462.84982917
_cell_formula_units_Z   1
loop_
 _symmetry_equiv_pos_site_id
 _symmetry_equiv_pos_as_xyz
  1  'x, y, z'
loop_
 _atom_site_type_symbol
 _atom_site_label
 _atom_site_symmetry_multiplicity
 _atom_site_fract_x
 _atom_site_fract_y
 _atom_site_fract_z
 _atom_site_occupancy
  Ho  Ho0  1  0.668535  0.333130  0.000000  1
  Ho  Ho1  1  0.331465  0.664596  0.000000  1
  Ho  Ho2  1  0.819686  0.820044  0.500000  1
  Ho  Ho3  1  0.180314  0.000359  0.500000  1
  Ho  Ho4  1  0.000000  0.186262  0.500000  1
  V  V5  1  0.439494  0.439789  0.000000  1
  V  V6  1  0.560506  0.000295  0.000000  1
  Fe  Fe7  1  0.878731  0.359203  0.500000  1
  Fe  Fe8  1  0.648031  0.524241  0.500000  1
  Fe  Fe9  1  0.477426  0.121565  0.500000  1
  Fe  Fe10  1  0.351969  0.876210  0.500000  1
  Fe  Fe11  1  0.522574  0.644138  0.500000  1
  Fe  Fe12  1  0.121269  0.480472  0.500000  1
  Fe  Fe13  1  0.000000  0.555982  0.000000  1
  Fe  Fe14  1  0.801289  0.180744  0.000000  1
  Fe  Fe15  1  0.819483  0.618163  0.000000  1
  Fe  Fe16  1  0.381507  0.198976  0.000000  1
  Fe  Fe17  1  0.180517  0.798680  0.000000  1
  Fe  Fe18  1  0.618493  0.817469  0.000000  1
  Fe  Fe19  1  0.198711  0.379456  0.000000  1
  Fe  Fe20  1  0.283611  0.282655  0.500000  1
  Fe  Fe21  1  0.716389  0.999043  0.500000  1
  Fe  Fe22  1  0.000000  0.714791  0.500000  1
  Co  Co23  1  0.000000  0.999911  0.000000  1
  P  P24  1  0.689655  0.166583  0.500000  1
  P  P25  1  0.840209  0.519541  0.500000  1
  P  P26  1  0.480217  0.315620  0.500000  1
  P  P27  1  0.159791  0.679333  0.500000  1
  P  P28  1  0.519783  0.835403  0.500000  1
  P  P29  1  0.310345  0.476928  0.500000  1
  P  P30  1  0.183022  0.184544  0.000000  1
  P  P31  1  0.816978  0.001521  0.000000  1
  P  P32  1  0.000000  0.816357  0.000000  1
  P  P33  1  0.640219  0.639433  0.000000  1
  P  P34  1  0.359781  0.999214  0.000000  1
  P  P35  1  0.000000  0.369350  0.000000  1
