# generated using pymatgen
data_Rb12Na8Nb3InP12
_symmetry_space_group_name_H-M   'P 1'
_cell_length_a   10.54308217
_cell_length_b   10.54308396
_cell_length_c   15.70013923
_cell_angle_alpha   90.00323718
_cell_angle_beta   90.00323995
_cell_angle_gamma   142.36979443
_symmetry_Int_Tables_number   1
_chemical_formula_structural   Rb12Na8Nb3InP12
_chemical_formula_sum   'Rb12 Na8 Nb3 In1 P12'
_cell_volume   1065.53830753
_cell_formula_units_Z   1
loop_
 _symmetry_equiv_pos_site_id
 _symmetry_equiv_pos_as_xyz
  1  'x, y, z'
loop_
 _atom_site_type_symbol
 _atom_site_label
 _atom_site_symmetry_multiplicity
 _atom_site_fract_x
 _atom_site_fract_y
 _atom_site_fract_z
 _atom_site_occupancy
  Rb  Rb0  1  0.109989  0.440104  0.674964  1
  Rb  Rb1  1  0.723529  0.724072  0.685210  1
  Rb  Rb2  1  0.230847  0.225237  0.815113  1
  Rb  Rb3  1  0.774763  0.769153  0.184887  1
  Rb  Rb4  1  0.935882  0.603464  0.824409  1
  Rb  Rb5  1  0.559896  0.890011  0.325036  1
  Rb  Rb6  1  0.396536  0.064118  0.175591  1
  Rb  Rb7  1  0.053651  0.394339  0.176491  1
  Rb  Rb8  1  0.890237  0.559368  0.326049  1
  Rb  Rb9  1  0.440632  0.109763  0.673951  1
  Rb  Rb10  1  0.605661  0.946350  0.823509  1
  Rb  Rb11  1  0.275928  0.276471  0.314790  1
  Na  Na12  1  0.919482  0.080518  0.000000  1
  Na  Na13  1  0.578948  0.421052  0.500000  1
  Na  Na14  1  0.081122  0.918878  0.000000  1
  Na  Na15  1  0.421186  0.578814  0.500000  1
  Na  Na16  1  0.752550  0.247450  0.000000  1
  Na  Na17  1  0.744913  0.255087  0.500000  1
  Na  Na18  1  0.243787  0.756213  0.000000  1
  Na  Na19  1  0.254828  0.745172  0.500000  1
  Nb  Nb20  1  0.081381  0.918619  0.500000  1
  Nb  Nb21  1  0.418881  0.581119  0.000000  1
  Nb  Nb22  1  0.918569  0.081431  0.500000  1
  In  In23  1  0.586982  0.413018  0.000000  1
  P  P24  1  0.881559  0.564324  0.101720  1
  P  P25  1  0.435676  0.118441  0.898280  1
  P  P26  1  0.641974  0.946195  0.592259  1
  P  P27  1  0.946201  0.642333  0.592312  1
  P  P28  1  0.146659  0.449718  0.908923  1
  P  P29  1  0.550282  0.853341  0.091077  1
  P  P30  1  0.357667  0.053799  0.407688  1
  P  P31  1  0.196883  0.197176  0.585858  1
  P  P32  1  0.695958  0.709671  0.910823  1
  P  P33  1  0.290329  0.304042  0.089177  1
  P  P34  1  0.053805  0.358026  0.407741  1
  P  P35  1  0.802824  0.803117  0.414142  1
