# generated using pymatgen
data_Zr9Sc9Re8AsP
_symmetry_space_group_name_H-M   'P 1'
_cell_length_a   8.67308500
_cell_length_b   8.67308567
_cell_length_c   8.64960100
_cell_angle_alpha   90.00000000
_cell_angle_beta   90.00000000
_cell_angle_gamma   119.99999364
_symmetry_Int_Tables_number   1
_chemical_formula_structural   Zr9Sc9Re8AsP
_chemical_formula_sum   'Zr9 Sc9 Re8 As1 P1'
_cell_volume   563.47411826
_cell_formula_units_Z   1
loop_
 _symmetry_equiv_pos_site_id
 _symmetry_equiv_pos_as_xyz
  1  'x, y, z'
loop_
 _atom_site_type_symbol
 _atom_site_label
 _atom_site_symmetry_multiplicity
 _atom_site_fract_x
 _atom_site_fract_y
 _atom_site_fract_z
 _atom_site_occupancy
  Zr  Zr0  1  0.803988  0.196012  0.546195  1
  Zr  Zr1  1  0.803988  0.607975  0.546195  1
  Zr  Zr2  1  0.392025  0.196012  0.546195  1
  Zr  Zr3  1  0.802841  0.197159  0.953657  1
  Zr  Zr4  1  0.802841  0.605681  0.953657  1
  Zr  Zr5  1  0.394319  0.197159  0.953657  1
  Zr  Zr6  1  0.194556  0.805444  0.044649  1
  Zr  Zr7  1  0.194556  0.389113  0.044649  1
  Zr  Zr8  1  0.610887  0.805444  0.044649  1
  Sc  Sc9  1  0.194483  0.805517  0.454951  1
  Sc  Sc10  1  0.194483  0.388966  0.454951  1
  Sc  Sc11  1  0.611034  0.805517  0.454951  1
  Sc  Sc12  1  0.540601  0.459399  0.251577  1
  Sc  Sc13  1  0.540601  0.081203  0.251577  1
  Sc  Sc14  1  0.918797  0.459399  0.251577  1
  Sc  Sc15  1  0.461243  0.538757  0.750912  1
  Sc  Sc16  1  0.461243  0.922485  0.750912  1
  Sc  Sc17  1  0.077515  0.538757  0.750912  1
  Re  Re18  1  0.892094  0.107906  0.249153  1
  Re  Re19  1  0.892094  0.784188  0.249153  1
  Re  Re20  1  0.215812  0.107906  0.249153  1
  Re  Re21  1  0.107259  0.892741  0.749636  1
  Re  Re22  1  0.107259  0.214520  0.749636  1
  Re  Re23  1  0.785480  0.892741  0.749636  1
  Re  Re24  1  0.000000  0.000000  0.496910  1
  Re  Re25  1  0.000000  0.000000  0.999006  1
  As  As26  1  0.333333  0.666667  0.253325  1
  P  P27  1  0.666667  0.333333  0.748566  1
