# generated using pymatgen
data_La8Lu12Si15Hg
_symmetry_space_group_name_H-M   'P 1'
_cell_length_a   7.51307724
_cell_length_b   7.78291702
_cell_length_c   14.78387570
_cell_angle_alpha   89.99691375
_cell_angle_beta   89.65087493
_cell_angle_gamma   90.24177321
_symmetry_Int_Tables_number   1
_chemical_formula_structural   La8Lu12Si15Hg
_chemical_formula_sum   'La8 Lu12 Si15 Hg1'
_cell_volume   864.44352524
_cell_formula_units_Z   1
loop_
 _symmetry_equiv_pos_site_id
 _symmetry_equiv_pos_as_xyz
  1  'x, y, z'
loop_
 _atom_site_type_symbol
 _atom_site_label
 _atom_site_symmetry_multiplicity
 _atom_site_fract_x
 _atom_site_fract_y
 _atom_site_fract_z
 _atom_site_occupancy
  La  La0  1  0.010873  0.170412  0.397838  1
  La  La1  1  0.515436  0.324417  0.397268  1
  La  La2  1  0.483802  0.673923  0.902452  1
  La  La3  1  0.492736  0.681242  0.601190  1
  La  La4  1  0.985669  0.831671  0.599610  1
  La  La5  1  0.983879  0.826063  0.903034  1
  La  La6  1  0.515153  0.325159  0.097622  1
  La  La7  1  0.016034  0.174590  0.098421  1
  Lu  Lu8  1  0.334326  0.169060  0.628222  1
  Lu  Lu9  1  0.670114  0.824748  0.374089  1
  Lu  Lu10  1  0.661883  0.995172  0.752373  1
  Lu  Lu11  1  0.172862  0.676112  0.372324  1
  Lu  Lu12  1  0.823687  0.323616  0.877523  1
  Lu  Lu13  1  0.821990  0.327290  0.625081  1
  Lu  Lu14  1  0.840263  0.496391  0.250030  1
  Lu  Lu15  1  0.341384  0.002930  0.248106  1
  Lu  Lu16  1  0.324764  0.174293  0.876798  1
  Lu  Lu17  1  0.173784  0.675577  0.123829  1
  Lu  Lu18  1  0.675051  0.824509  0.123162  1
  Lu  Lu19  1  0.159047  0.503681  0.753918  1
  Si  Si20  1  0.283554  0.877083  0.752003  1
  Si  Si21  1  0.469198  0.622142  0.247767  1
  Si  Si22  1  0.030082  0.125292  0.752188  1
  Si  Si23  1  0.531203  0.379817  0.752017  1
  Si  Si24  1  0.968660  0.878399  0.248648  1
  Si  Si25  1  0.714307  0.121492  0.247451  1
  Si  Si26  1  0.851395  0.533445  0.039361  1
  Si  Si27  1  0.350623  0.966157  0.039834  1
  Si  Si28  1  0.147788  0.465438  0.961674  1
  Si  Si29  1  0.650152  0.037685  0.537473  1
  Si  Si30  1  0.348979  0.964123  0.460196  1
  Si  Si31  1  0.840031  0.538790  0.457644  1
  Si  Si32  1  0.786472  0.621943  0.752265  1
  Si  Si33  1  0.214850  0.376882  0.248310  1
  Si  Si34  1  0.647633  0.032664  0.960382  1
  Hg  Hg35  1  0.162335  0.457790  0.539898  1
