# generated using pymatgen
data_Sr10Sc4Fe(MoO6)5
_symmetry_space_group_name_H-M   'P 1'
_cell_length_a   9.87999126
_cell_length_b   9.87999116
_cell_length_c   9.87999142
_cell_angle_alpha   99.93252932
_cell_angle_beta   99.93252467
_cell_angle_gamma   130.92142059
_symmetry_Int_Tables_number   1
_chemical_formula_structural   Sr10Sc4Fe(MoO6)5
_chemical_formula_sum   'Sr10 Sc4 Fe1 Mo5 O30'
_cell_volume   662.90861446
_cell_formula_units_Z   1
loop_
 _symmetry_equiv_pos_site_id
 _symmetry_equiv_pos_as_xyz
  1  'x, y, z'
loop_
 _atom_site_type_symbol
 _atom_site_label
 _atom_site_symmetry_multiplicity
 _atom_site_fract_x
 _atom_site_fract_y
 _atom_site_fract_z
 _atom_site_occupancy
  Sr  Sr0  1  0.346790  0.049648  0.898981  1
  Sr  Sr1  1  0.750000  0.250000  0.500000  1
  Sr  Sr2  1  0.552191  0.653210  0.702858  1
  Sr  Sr3  1  0.950352  0.849333  0.297142  1
  Sr  Sr4  1  0.150667  0.447809  0.101019  1
  Sr  Sr5  1  0.250000  0.750000  0.500000  1
  Sr  Sr6  1  0.653210  0.950352  0.101019  1
  Sr  Sr7  1  0.447809  0.346790  0.297142  1
  Sr  Sr8  1  0.849333  0.552191  0.898981  1
  Sr  Sr9  1  0.049648  0.150667  0.702858  1
  Sc  Sc10  1  0.797716  0.401372  0.199087  1
  Sc  Sc11  1  0.598628  0.797716  0.396343  1
  Sc  Sc12  1  0.401372  0.202284  0.603657  1
  Sc  Sc13  1  0.202284  0.598628  0.800913  1
  Fe  Fe14  1  0.000000  0.000000  0.000000  1
  Mo  Mo15  1  0.899346  0.701693  0.601041  1
  Mo  Mo16  1  0.298307  0.899346  0.197653  1
  Mo  Mo17  1  0.100654  0.298307  0.398959  1
  Mo  Mo18  1  0.500000  0.500000  0.000000  1
  Mo  Mo19  1  0.701693  0.100654  0.802347  1
  O  O20  1  0.454112  0.855178  0.802932  1
  O  O21  1  0.855178  0.052246  0.401067  1
  O  O22  1  0.651180  0.454112  0.598934  1
  O  O23  1  0.052246  0.651180  0.197068  1
  O  O24  1  0.260984  0.260984  0.000000  1
  O  O25  1  0.144822  0.947754  0.598934  1
  O  O26  1  0.545888  0.144822  0.197068  1
  O  O27  1  0.348820  0.545888  0.401067  1
  O  O28  1  0.739016  0.739016  0.000000  1
  O  O29  1  0.947754  0.348820  0.802932  1
  O  O30  1  0.842836  0.021883  0.864720  1
  O  O31  1  0.636565  0.418617  0.055182  1
  O  O32  1  0.438979  0.825776  0.264755  1
  O  O33  1  0.233078  0.223382  0.456459  1
  O  O34  1  0.034737  0.628557  0.663294  1
  O  O35  1  0.363435  0.581383  0.944818  1
  O  O36  1  0.157164  0.978117  0.135280  1
  O  O37  1  0.965263  0.371443  0.336706  1
  O  O38  1  0.766922  0.776618  0.543541  1
  O  O39  1  0.561021  0.174224  0.735245  1
  O  O40  1  0.776618  0.233078  0.009695  1
  O  O41  1  0.581383  0.636565  0.217949  1
  O  O42  1  0.371443  0.034737  0.406179  1
  O  O43  1  0.174224  0.438979  0.613201  1
  O  O44  1  0.978117  0.842836  0.820952  1
  O  O45  1  0.628557  0.965263  0.593821  1
  O  O46  1  0.418617  0.363435  0.782051  1
  O  O47  1  0.223382  0.766922  0.990305  1
  O  O48  1  0.021883  0.157164  0.179048  1
  O  O49  1  0.825776  0.561021  0.386799  1
