# generated using pymatgen
data_Ce8ReSi6Mo
_symmetry_space_group_name_H-M   'P 1'
_cell_length_a   5.46064196
_cell_length_b   8.37222945
_cell_length_c   8.37222906
_cell_angle_alpha   83.87974824
_cell_angle_beta   70.94123451
_cell_angle_gamma   70.94124683
_symmetry_Int_Tables_number   1
_chemical_formula_structural   Ce8ReSi6Mo
_chemical_formula_sum   'Ce8 Re1 Si6 Mo1'
_cell_volume   341.94702273
_cell_formula_units_Z   1
loop_
 _symmetry_equiv_pos_site_id
 _symmetry_equiv_pos_as_xyz
  1  'x, y, z'
loop_
 _atom_site_type_symbol
 _atom_site_label
 _atom_site_symmetry_multiplicity
 _atom_site_fract_x
 _atom_site_fract_y
 _atom_site_fract_z
 _atom_site_occupancy
  Ce  Ce0  1  0.092015  0.135381  0.677880  1
  Ce  Ce1  1  0.905238  0.864774  0.322404  1
  Ce  Ce2  1  0.772256  0.322495  0.135031  1
  Ce  Ce3  1  0.407985  0.322120  0.864619  1
  Ce  Ce4  1  0.230466  0.677304  0.864752  1
  Ce  Ce5  1  0.594762  0.677596  0.135226  1
  Ce  Ce6  1  0.727744  0.864969  0.677505  1
  Ce  Ce7  1  0.269534  0.135248  0.322696  1
  Re  Re8  1  0.250000  0.500067  0.499933  1
  Si  Si9  1  0.144260  0.499889  0.221126  1
  Si  Si10  1  0.865748  0.499979  0.778862  1
  Si  Si11  1  0.355740  0.778874  0.500111  1
  Si  Si12  1  0.634252  0.221138  0.500021  1
  Si  Si13  1  0.250000  0.000113  0.999887  1
  Si  Si14  1  0.750000  0.000123  0.999877  1
  Mo  Mo15  1  0.750000  0.499929  0.500071  1
