# generated using pymatgen
data_Pr5DyU4O20
_symmetry_space_group_name_H-M   'P 1'
_cell_length_a   6.78145219
_cell_length_b   7.73068626
_cell_length_c   8.64479003
_cell_angle_alpha   101.64134085
_cell_angle_beta   97.71980140
_cell_angle_gamma   107.16283628
_symmetry_Int_Tables_number   1
_chemical_formula_structural   Pr5DyU4O20
_chemical_formula_sum   'Pr5 Dy1 U4 O20'
_cell_volume   414.91569185
_cell_formula_units_Z   1
loop_
 _symmetry_equiv_pos_site_id
 _symmetry_equiv_pos_as_xyz
  1  'x, y, z'
loop_
 _atom_site_type_symbol
 _atom_site_label
 _atom_site_symmetry_multiplicity
 _atom_site_fract_x
 _atom_site_fract_y
 _atom_site_fract_z
 _atom_site_occupancy
  Pr  Pr0  1  0.612283  0.703857  0.699524  1
  Pr  Pr1  1  0.387717  0.296143  0.300476  1
  Pr  Pr2  1  0.198896  0.897890  0.892807  1
  Pr  Pr3  1  0.000000  0.500000  0.500000  1
  Pr  Pr4  1  0.801104  0.102110  0.107193  1
  Dy  Dy5  1  0.000000  0.000000  0.500000  1
  U  U6  1  0.402214  0.804469  0.302521  1
  U  U7  1  0.198327  0.401009  0.900774  1
  U  U8  1  0.801673  0.598991  0.099226  1
  U  U9  1  0.597786  0.195531  0.697479  1
  O  O10  1  0.438897  0.534684  0.132728  1
  O  O11  1  0.557368  0.994531  0.836444  1
  O  O12  1  0.272673  0.151671  0.741955  1
  O  O13  1  0.360298  0.600196  0.437290  1
  O  O14  1  0.055400  0.734489  0.326755  1
  O  O15  1  0.442632  0.005469  0.163556  1
  O  O16  1  0.150236  0.190422  0.028477  1
  O  O17  1  0.561103  0.465316  0.867272  1
  O  O18  1  0.855254  0.342378  0.948388  1
  O  O19  1  0.254278  0.600736  0.764010  1
  O  O20  1  0.955001  0.780173  0.646210  1
  O  O21  1  0.353559  0.057183  0.456726  1
  O  O22  1  0.646441  0.942817  0.543274  1
  O  O23  1  0.044999  0.219827  0.353790  1
  O  O24  1  0.745722  0.399264  0.235990  1
  O  O25  1  0.144746  0.657622  0.051612  1
  O  O26  1  0.849764  0.809578  0.971523  1
  O  O27  1  0.944600  0.265511  0.673245  1
  O  O28  1  0.639702  0.399804  0.562710  1
  O  O29  1  0.727327  0.848329  0.258045  1
