# generated using pymatgen
data_Ta6Be15Cu3Ni5
_symmetry_space_group_name_H-M   'P 1'
_cell_length_a   7.57933165
_cell_length_b   7.57933162
_cell_length_c   7.57026219
_cell_angle_alpha   119.97116994
_cell_angle_beta   90.01299525
_cell_angle_gamma   120.05341418
_symmetry_Int_Tables_number   1
_chemical_formula_structural   Ta6Be15Cu3Ni5
_chemical_formula_sum   'Ta6 Be15 Cu3 Ni5'
_cell_volume   307.35954825
_cell_formula_units_Z   1
loop_
 _symmetry_equiv_pos_site_id
 _symmetry_equiv_pos_as_xyz
  1  'x, y, z'
loop_
 _atom_site_type_symbol
 _atom_site_label
 _atom_site_symmetry_multiplicity
 _atom_site_fract_x
 _atom_site_fract_y
 _atom_site_fract_z
 _atom_site_occupancy
  Ta  Ta0  1  0.205078  0.999885  0.204962  1
  Ta  Ta1  1  0.201726  0.403441  0.197203  1
  Ta  Ta2  1  0.793762  0.995477  0.197203  1
  Ta  Ta3  1  0.193931  0.999807  0.797355  1
  Ta  Ta4  1  0.805208  0.995898  0.801106  1
  Ta  Ta5  1  0.797548  0.603424  0.797355  1
  Be  Be6  1  0.500472  0.000981  0.003466  1
  Be  Be7  1  0.002485  0.502996  0.003466  1
  Be  Be8  1  0.500329  0.501549  0.001875  1
  Be  Be9  1  0.518788  0.347744  0.176127  1
  Be  Be10  1  0.828185  0.347784  0.175970  1
  Be  Be11  1  0.828382  0.657338  0.176127  1
  Be  Be12  1  0.825075  0.650643  0.475719  1
  Be  Be13  1  0.495391  0.997120  0.492511  1
  Be  Be14  1  0.001013  0.998889  0.498914  1
  Be  Be15  1  0.999312  0.500008  0.499320  1
  Be  Be16  1  0.500025  0.497901  0.498914  1
  Be  Be17  1  0.174332  0.343442  0.517772  1
  Be  Be18  1  0.177165  0.349648  0.826929  1
  Be  Be19  1  0.174174  0.655632  0.829805  1
  Be  Be20  1  0.477281  0.649764  0.826929  1
  Cu  Cu21  1  0.866170  0.244079  0.622487  1
  Cu  Cu22  1  0.378408  0.756318  0.622487  1
  Cu  Cu23  1  0.621991  0.243901  0.865893  1
  Ni  Ni24  1  0.377211  0.754025  0.131235  1
  Ni  Ni25  1  0.623672  0.246261  0.378142  1
  Ni  Ni26  1  0.131880  0.754470  0.378142  1
  Ni  Ni27  1  0.622906  0.755892  0.378798  1
  Ni  Ni28  1  0.378103  0.245687  0.623790  1
