# generated using pymatgen
data_SrNd7(GePt)8
_symmetry_space_group_name_H-M   'P 1'
_cell_length_a   4.48617500
_cell_length_b   7.69816900
_cell_length_c   14.79009000
_cell_angle_alpha   90.00000000
_cell_angle_beta   90.00000000
_cell_angle_gamma   90.00000000
_symmetry_Int_Tables_number   1
_chemical_formula_structural   SrNd7(GePt)8
_chemical_formula_sum   'Sr1 Nd7 Ge8 Pt8'
_cell_volume   510.78068789
_cell_formula_units_Z   1
loop_
 _symmetry_equiv_pos_site_id
 _symmetry_equiv_pos_as_xyz
  1  'x, y, z'
loop_
 _atom_site_type_symbol
 _atom_site_label
 _atom_site_symmetry_multiplicity
 _atom_site_fract_x
 _atom_site_fract_y
 _atom_site_fract_z
 _atom_site_occupancy
  Sr  Sr0  1  0.000000  0.291618  0.500000  1
  Nd  Nd1  1  0.500000  0.789797  0.749007  1
  Nd  Nd2  1  0.000000  0.208491  0.751697  1
  Nd  Nd3  1  0.500000  0.789797  0.250993  1
  Nd  Nd4  1  0.000000  0.208491  0.248303  1
  Nd  Nd5  1  0.500000  0.707442  0.000000  1
  Nd  Nd6  1  0.500000  0.703634  0.500000  1
  Nd  Nd7  1  0.000000  0.295493  0.000000  1
  Ge  Ge8  1  0.500000  0.413992  0.655560  1
  Ge  Ge9  1  0.000000  0.587800  0.853472  1
  Ge  Ge10  1  0.500000  0.413992  0.344440  1
  Ge  Ge11  1  0.000000  0.587800  0.146528  1
  Ge  Ge12  1  0.500000  0.089180  0.094153  1
  Ge  Ge13  1  0.000000  0.910243  0.405112  1
  Ge  Ge14  1  0.500000  0.089180  0.905847  1
  Ge  Ge15  1  0.000000  0.910243  0.594888  1
  Pt  Pt16  1  0.500000  0.075468  0.614643  1
  Pt  Pt17  1  0.000000  0.921205  0.891814  1
  Pt  Pt18  1  0.500000  0.075468  0.385357  1
  Pt  Pt19  1  0.000000  0.921205  0.108186  1
  Pt  Pt20  1  0.500000  0.419374  0.151034  1
  Pt  Pt21  1  0.000000  0.585356  0.347782  1
  Pt  Pt22  1  0.500000  0.419374  0.848966  1
  Pt  Pt23  1  0.000000  0.585356  0.652218  1
