# generated using pymatgen
data_Tb5Dy7Ni5Sn
_symmetry_space_group_name_H-M   'P 1'
_cell_length_a   8.35649068
_cell_length_b   8.35925858
_cell_length_c   8.35648899
_cell_angle_alpha   107.31232967
_cell_angle_beta   109.63366018
_cell_angle_gamma   111.48113091
_symmetry_Int_Tables_number   1
_chemical_formula_structural   Tb5Dy7Ni5Sn
_chemical_formula_sum   'Tb5 Dy7 Ni5 Sn1'
_cell_volume   448.83753907
_cell_formula_units_Z   1
loop_
 _symmetry_equiv_pos_site_id
 _symmetry_equiv_pos_as_xyz
  1  'x, y, z'
loop_
 _atom_site_type_symbol
 _atom_site_label
 _atom_site_symmetry_multiplicity
 _atom_site_fract_x
 _atom_site_fract_y
 _atom_site_fract_z
 _atom_site_occupancy
  Tb  Tb0  1  0.477770  0.295751  0.181681  1
  Tb  Tb1  1  0.114070  0.295751  0.817981  1
  Tb  Tb2  1  0.885687  0.704136  0.181791  1
  Tb  Tb3  1  0.522345  0.704136  0.818449  1
  Tb  Tb4  1  0.306566  0.628014  0.321449  1
  Dy  Dy5  1  0.306950  0.985436  0.678485  1
  Dy  Dy6  1  0.693107  0.371393  0.678285  1
  Dy  Dy7  1  0.693162  0.014793  0.321632  1
  Dy  Dy8  1  0.190685  0.209680  0.400675  1
  Dy  Dy9  1  0.809307  0.790170  0.599368  1
  Dy  Dy10  1  0.190803  0.790170  0.980862  1
  Dy  Dy11  1  0.809005  0.209680  0.018996  1
  Ni  Ni12  1  0.500234  0.625049  0.124816  1
  Ni  Ni13  1  0.499985  0.374882  0.874897  1
  Ni  Ni14  1  0.366194  0.000400  0.366135  1
  Ni  Ni15  1  0.634266  0.000400  0.634207  1
  Ni  Ni16  1  0.999977  0.999954  0.999977  1
  Sn  Sn17  1  0.999888  0.500204  0.500316  1
