# generated using pymatgen
data_Li3Pt3O8
_symmetry_space_group_name_H-M   'P 1'
_cell_length_a   6.19504876
_cell_length_b   6.19508346
_cell_length_c   10.23222984
_cell_angle_alpha   89.99993787
_cell_angle_beta   72.36200197
_cell_angle_gamma   120.00006975
_symmetry_Int_Tables_number   1
_chemical_formula_structural   Li3Pt3O8
_chemical_formula_sum   'Li6 Pt6 O16'
_cell_volume   318.59378281
_cell_formula_units_Z   2
loop_
 _symmetry_equiv_pos_site_id
 _symmetry_equiv_pos_as_xyz
  1  'x, y, z'
loop_
 _atom_site_type_symbol
 _atom_site_label
 _atom_site_symmetry_multiplicity
 _atom_site_fract_x
 _atom_site_fract_y
 _atom_site_fract_z
 _atom_site_occupancy
  Li  Li0  1  0.985373  0.992689  0.021871  1
  Li  Li1  1  0.985488  0.492738  0.522019  1
  Li  Li2  1  0.764503  0.882261  0.353287  1
  Li  Li3  1  0.764398  0.382194  0.853166  1
  Li  Li4  1  0.375537  0.687771  0.937308  1
  Li  Li5  1  0.374463  0.187222  0.437637  1
  Pt  Pt6  1  0.375048  0.437511  0.187466  1
  Pt  Pt7  1  0.375047  0.937551  0.187465  1
  Pt  Pt8  1  0.875001  0.437507  0.187458  1
  Pt  Pt9  1  0.374987  0.937464  0.687532  1
  Pt  Pt10  1  0.374977  0.437510  0.687536  1
  Pt  Pt11  1  0.874979  0.937480  0.687534  1
  O  O12  1  0.612463  0.806227  0.581429  1
  O  O13  1  0.612493  0.306253  0.081350  1
  O  O14  1  0.137530  0.568773  0.293637  1
  O  O15  1  0.137522  0.068758  0.793607  1
  O  O16  1  0.160468  0.580224  0.799132  1
  O  O17  1  0.160502  0.080258  0.299093  1
  O  O18  1  0.620522  0.580166  0.799151  1
  O  O19  1  0.620642  0.080265  0.299023  1
  O  O20  1  0.620526  0.040350  0.799153  1
  O  O21  1  0.620640  0.540390  0.299022  1
  O  O22  1  0.129366  0.334627  0.075928  1
  O  O23  1  0.129483  0.834604  0.575806  1
  O  O24  1  0.129368  0.794754  0.075927  1
  O  O25  1  0.129486  0.294867  0.575803  1
  O  O26  1  0.589551  0.794782  0.075849  1
  O  O27  1  0.589636  0.294809  0.575817  1
