# generated using pymatgen
data_Tb6Y2Be3Si12Pd
_symmetry_space_group_name_H-M   'P 1'
_cell_length_a   7.95421500
_cell_length_b   7.95150972
_cell_length_c   8.12940600
_cell_angle_alpha   90.00085234
_cell_angle_beta   90.00000000
_cell_angle_gamma   120.01125927
_symmetry_Int_Tables_number   1
_chemical_formula_structural   Tb6Y2Be3Si12Pd
_chemical_formula_sum   'Tb6 Y2 Be3 Si12 Pd1'
_cell_volume   445.23272781
_cell_formula_units_Z   1
loop_
 _symmetry_equiv_pos_site_id
 _symmetry_equiv_pos_as_xyz
  1  'x, y, z'
loop_
 _atom_site_type_symbol
 _atom_site_label
 _atom_site_symmetry_multiplicity
 _atom_site_fract_x
 _atom_site_fract_y
 _atom_site_fract_z
 _atom_site_occupancy
  Tb  Tb0  1  0.997629  0.498783  0.247902  1
  Tb  Tb1  1  0.996255  0.498098  0.752146  1
  Tb  Tb2  1  0.501154  0.498783  0.247902  1
  Tb  Tb3  1  0.501841  0.498098  0.752146  1
  Tb  Tb4  1  0.999993  0.999986  0.248985  1
  Tb  Tb5  1  0.999995  0.999989  0.750640  1
  Y  Y6  1  0.501229  0.002459  0.247818  1
  Y  Y7  1  0.501956  0.003913  0.752232  1
  Be  Be8  1  0.333344  0.666689  0.001258  1
  Be  Be9  1  0.666597  0.333193  0.001058  1
  Be  Be10  1  0.666601  0.333201  0.497921  1
  Si  Si11  1  0.172130  0.344259  0.999325  1
  Si  Si12  1  0.826870  0.653740  0.000296  1
  Si  Si13  1  0.655714  0.827887  0.999329  1
  Si  Si14  1  0.828234  0.656468  0.500076  1
  Si  Si15  1  0.346308  0.173111  0.000289  1
  Si  Si16  1  0.166065  0.332130  0.499542  1
  Si  Si17  1  0.172174  0.827887  0.999329  1
  Si  Si18  1  0.343590  0.171761  0.500084  1
  Si  Si19  1  0.826802  0.173111  0.000289  1
  Si  Si20  1  0.667820  0.833907  0.499540  1
  Si  Si21  1  0.828171  0.171761  0.500084  1
  Si  Si22  1  0.166088  0.833907  0.499540  1
  Pd  Pd23  1  0.333440  0.666880  0.502268  1
