# generated using pymatgen
data_V12Ga3Ir
_symmetry_space_group_name_H-M   'P 1'
_cell_length_a   4.77061100
_cell_length_b   4.78548800
_cell_length_c   9.61431200
_cell_angle_alpha   90.00000000
_cell_angle_beta   90.00000000
_cell_angle_gamma   90.00000000
_symmetry_Int_Tables_number   1
_chemical_formula_structural   V12Ga3Ir
_chemical_formula_sum   'V12 Ga3 Ir1'
_cell_volume   219.49187495
_cell_formula_units_Z   1
loop_
 _symmetry_equiv_pos_site_id
 _symmetry_equiv_pos_as_xyz
  1  'x, y, z'
loop_
 _atom_site_type_symbol
 _atom_site_label
 _atom_site_symmetry_multiplicity
 _atom_site_fract_x
 _atom_site_fract_y
 _atom_site_fract_z
 _atom_site_occupancy
  V  V0  1  0.000000  0.500000  0.120059  1
  V  V1  1  0.000000  0.500000  0.630342  1
  V  V2  1  0.500000  0.255053  0.751915  1
  V  V3  1  0.500000  0.255053  0.248085  1
  V  V4  1  0.747262  0.000000  0.000000  1
  V  V5  1  0.752253  0.000000  0.500000  1
  V  V6  1  0.000000  0.500000  0.879941  1
  V  V7  1  0.000000  0.500000  0.369658  1
  V  V8  1  0.500000  0.744947  0.751915  1
  V  V9  1  0.500000  0.744947  0.248085  1
  V  V10  1  0.252738  0.000000  0.000000  1
  V  V11  1  0.247747  0.000000  0.500000  1
  Ga  Ga12  1  0.500000  0.500000  0.500000  1
  Ga  Ga13  1  0.000000  0.000000  0.749119  1
  Ga  Ga14  1  0.000000  0.000000  0.250881  1
  Ir  Ir15  1  0.500000  0.500000  0.000000  1
