# generated using pymatgen
data_Tb6Dy2Tc(B8Ru)3
_symmetry_space_group_name_H-M   'P 1'
_cell_length_a   3.68473500
_cell_length_b   9.17214489
_cell_length_c   11.55529520
_cell_angle_alpha   89.92233712
_cell_angle_beta   90.00000000
_cell_angle_gamma   90.00000000
_symmetry_Int_Tables_number   1
_chemical_formula_structural   Tb6Dy2Tc(B8Ru)3
_chemical_formula_sum   'Tb6 Dy2 Tc1 B24 Ru3'
_cell_volume   390.53306694
_cell_formula_units_Z   1
loop_
 _symmetry_equiv_pos_site_id
 _symmetry_equiv_pos_as_xyz
  1  'x, y, z'
loop_
 _atom_site_type_symbol
 _atom_site_label
 _atom_site_symmetry_multiplicity
 _atom_site_fract_x
 _atom_site_fract_y
 _atom_site_fract_z
 _atom_site_occupancy
  Tb  Tb0  1  0.000000  0.324838  0.413201  1
  Tb  Tb1  1  0.000000  0.676103  0.583714  1
  Tb  Tb2  1  0.000000  0.821257  0.087889  1
  Tb  Tb3  1  0.000000  0.176347  0.914953  1
  Tb  Tb4  1  0.000000  0.943520  0.372149  1
  Tb  Tb5  1  0.000000  0.057078  0.628568  1
  Dy  Dy6  1  0.000000  0.444226  0.128165  1
  Dy  Dy7  1  0.000000  0.556630  0.871207  1
  Tc  Tc8  1  0.000000  0.637640  0.321052  1
  B  B9  1  0.500000  0.553153  0.432829  1
  B  B10  1  0.500000  0.446148  0.567738  1
  B  B11  1  0.500000  0.054075  0.067433  1
  B  B12  1  0.500000  0.945788  0.932866  1
  B  B13  1  0.500000  0.747721  0.419264  1
  B  B14  1  0.500000  0.252557  0.580754  1
  B  B15  1  0.500000  0.248018  0.080465  1
  B  B16  1  0.500000  0.751849  0.919403  1
  B  B17  1  0.500000  0.791211  0.266316  1
  B  B18  1  0.500000  0.209455  0.733676  1
  B  B19  1  0.500000  0.291031  0.232808  1
  B  B20  1  0.500000  0.709430  0.766481  1
  B  B21  1  0.500000  0.631834  0.185693  1
  B  B22  1  0.500000  0.367851  0.814653  1
  B  B23  1  0.500000  0.132423  0.313853  1
  B  B24  1  0.500000  0.868076  0.685753  1
  B  B25  1  0.500000  0.984315  0.212518  1
  B  B26  1  0.500000  0.015619  0.787978  1
  B  B27  1  0.500000  0.483257  0.287216  1
  B  B28  1  0.500000  0.515644  0.712716  1
  B  B29  1  0.500000  0.607903  0.029267  1
  B  B30  1  0.500000  0.391581  0.969669  1
  B  B31  1  0.500000  0.109515  0.470098  1
  B  B32  1  0.500000  0.891959  0.530562  1
  Ru  Ru33  1  0.000000  0.361933  0.679499  1
  Ru  Ru34  1  0.000000  0.138206  0.178206  1
  Ru  Ru35  1  0.000000  0.861809  0.821386  1
