# generated using pymatgen
data_Ho4ErPt4
_symmetry_space_group_name_H-M   'P 1'
_cell_length_a   7.44044900
_cell_length_b   7.54024000
_cell_length_c   14.69196800
_cell_angle_alpha   90.00000000
_cell_angle_beta   90.00000000
_cell_angle_gamma   90.00000000
_symmetry_Int_Tables_number   1
_chemical_formula_structural   Ho4ErPt4
_chemical_formula_sum   'Ho16 Er4 Pt16'
_cell_volume   824.26011871
_cell_formula_units_Z   4
loop_
 _symmetry_equiv_pos_site_id
 _symmetry_equiv_pos_as_xyz
  1  'x, y, z'
loop_
 _atom_site_type_symbol
 _atom_site_label
 _atom_site_symmetry_multiplicity
 _atom_site_fract_x
 _atom_site_fract_y
 _atom_site_fract_z
 _atom_site_occupancy
  Ho  Ho0  1  0.656655  0.167969  0.622435  1
  Ho  Ho1  1  0.156655  0.332031  0.877565  1
  Ho  Ho2  1  0.343345  0.832031  0.122435  1
  Ho  Ho3  1  0.843345  0.667969  0.377565  1
  Ho  Ho4  1  0.343345  0.832031  0.377565  1
  Ho  Ho5  1  0.843345  0.667969  0.122435  1
  Ho  Ho6  1  0.656655  0.167969  0.877565  1
  Ho  Ho7  1  0.156655  0.332031  0.622435  1
  Ho  Ho8  1  0.501862  0.679823  0.593051  1
  Ho  Ho9  1  0.001862  0.820177  0.906949  1
  Ho  Ho10  1  0.498138  0.320177  0.093051  1
  Ho  Ho11  1  0.998138  0.179823  0.406949  1
  Ho  Ho12  1  0.498138  0.320177  0.406949  1
  Ho  Ho13  1  0.998138  0.179823  0.093051  1
  Ho  Ho14  1  0.501862  0.679823  0.906949  1
  Ho  Ho15  1  0.001862  0.820177  0.593051  1
  Er  Er16  1  0.819038  0.512179  0.750000  1
  Er  Er17  1  0.319038  0.987821  0.750000  1
  Er  Er18  1  0.180962  0.487821  0.250000  1
  Er  Er19  1  0.680962  0.012179  0.250000  1
  Pt  Pt20  1  0.683869  0.968257  0.458060  1
  Pt  Pt21  1  0.183869  0.531743  0.041940  1
  Pt  Pt22  1  0.316131  0.031743  0.958060  1
  Pt  Pt23  1  0.816131  0.468257  0.541940  1
  Pt  Pt24  1  0.316131  0.031743  0.541940  1
  Pt  Pt25  1  0.816131  0.468257  0.958060  1
  Pt  Pt26  1  0.683869  0.968257  0.041940  1
  Pt  Pt27  1  0.183869  0.531743  0.458060  1
  Pt  Pt28  1  0.453598  0.388341  0.750000  1
  Pt  Pt29  1  0.953598  0.111659  0.750000  1
  Pt  Pt30  1  0.546402  0.611659  0.250000  1
  Pt  Pt31  1  0.046402  0.888341  0.250000  1
  Pt  Pt32  1  0.681668  0.855864  0.750000  1
  Pt  Pt33  1  0.181668  0.644136  0.750000  1
  Pt  Pt34  1  0.318332  0.144136  0.250000  1
  Pt  Pt35  1  0.818332  0.355864  0.250000  1
