# generated using pymatgen
data_Ho7TmMg2(SiB4)4
_symmetry_space_group_name_H-M   'P 1'
_cell_length_a   7.14661700
_cell_length_b   7.14661700
_cell_length_c   7.78698600
_cell_angle_alpha   89.99841898
_cell_angle_beta   89.99841898
_cell_angle_gamma   89.99636019
_symmetry_Int_Tables_number   1
_chemical_formula_structural   Ho7TmMg2(SiB4)4
_chemical_formula_sum   'Ho7 Tm1 Mg2 Si4 B16'
_cell_volume   397.71357011
_cell_formula_units_Z   1
loop_
 _symmetry_equiv_pos_site_id
 _symmetry_equiv_pos_as_xyz
  1  'x, y, z'
loop_
 _atom_site_type_symbol
 _atom_site_label
 _atom_site_symmetry_multiplicity
 _atom_site_fract_x
 _atom_site_fract_y
 _atom_site_fract_z
 _atom_site_occupancy
  Ho  Ho0  1  0.317504  0.817504  0.767216  1
  Ho  Ho1  1  0.317527  0.817527  0.232770  1
  Ho  Ho2  1  0.817378  0.682568  0.232726  1
  Ho  Ho3  1  0.817383  0.682537  0.767180  1
  Ho  Ho4  1  0.682591  0.182591  0.767302  1
  Ho  Ho5  1  0.182537  0.317383  0.767180  1
  Ho  Ho6  1  0.182568  0.317378  0.232726  1
  Tm  Tm7  1  0.682448  0.182448  0.231217  1
  Mg  Mg8  1  0.999807  0.000107  0.499835  1
  Mg  Mg9  1  0.500107  0.499807  0.499835  1
  Si  Si10  1  0.114883  0.614883  0.499866  1
  Si  Si11  1  0.884311  0.384311  0.499224  1
  Si  Si12  1  0.385482  0.115536  0.499400  1
  Si  Si13  1  0.615536  0.885482  0.499400  1
  B  B14  1  0.173612  0.039603  0.000212  1
  B  B15  1  0.826120  0.960796  0.000332  1
  B  B16  1  0.960210  0.173836  0.000235  1
  B  B17  1  0.326406  0.539391  0.000177  1
  B  B18  1  0.039391  0.826406  0.000177  1
  B  B19  1  0.673836  0.460210  0.000235  1
  B  B20  1  0.539603  0.673612  0.000212  1
  B  B21  1  0.460796  0.326120  0.000332  1
  B  B22  1  0.088900  0.588900  0.000140  1
  B  B23  1  0.911045  0.411045  0.000113  1
  B  B24  1  0.411253  0.088933  0.000481  1
  B  B25  1  0.588933  0.911253  0.000481  1
  B  B26  1  0.999496  0.000282  0.164317  1
  B  B27  1  0.999965  0.000091  0.836181  1
  B  B28  1  0.500091  0.499965  0.836181  1
  B  B29  1  0.500282  0.499496  0.164317  1
