# generated using pymatgen
data_Li2Pr3Nd5(Zn3Rh4)2
_symmetry_space_group_name_H-M   'P 1'
_cell_length_a   4.11072200
_cell_length_b   7.27034402
_cell_length_c   16.45629104
_cell_angle_alpha   90.00774806
_cell_angle_beta   90.00000000
_cell_angle_gamma   90.00000000
_symmetry_Int_Tables_number   1
_chemical_formula_structural   Li2Pr3Nd5(Zn3Rh4)2
_chemical_formula_sum   'Li2 Pr3 Nd5 Zn6 Rh8'
_cell_volume   491.81868468
_cell_formula_units_Z   1
loop_
 _symmetry_equiv_pos_site_id
 _symmetry_equiv_pos_as_xyz
  1  'x, y, z'
loop_
 _atom_site_type_symbol
 _atom_site_label
 _atom_site_symmetry_multiplicity
 _atom_site_fract_x
 _atom_site_fract_y
 _atom_site_fract_z
 _atom_site_occupancy
  Li  Li0  1  0.250000  0.992582  0.439017  1
  Li  Li1  1  0.750000  0.507134  0.939346  1
  Pr  Pr2  1  0.250000  0.544417  0.782283  1
  Pr  Pr3  1  0.750000  0.335262  0.439837  1
  Pr  Pr4  1  0.250000  0.667910  0.560677  1
  Nd  Nd5  1  0.750000  0.455202  0.217310  1
  Nd  Nd6  1  0.750000  0.954700  0.281852  1
  Nd  Nd7  1  0.750000  0.833026  0.060773  1
  Nd  Nd8  1  0.250000  0.045159  0.717670  1
  Nd  Nd9  1  0.250000  0.163005  0.940292  1
  Zn  Zn10  1  0.750000  0.003036  0.559807  1
  Zn  Zn11  1  0.250000  0.629737  0.350475  1
  Zn  Zn12  1  0.750000  0.372533  0.649549  1
  Zn  Zn13  1  0.750000  0.871856  0.851266  1
  Zn  Zn14  1  0.250000  0.497342  0.059674  1
  Zn  Zn15  1  0.250000  0.126193  0.149432  1
  Rh  Rh16  1  0.250000  0.243324  0.566109  1
  Rh  Rh17  1  0.750000  0.255241  0.065579  1
  Rh  Rh18  1  0.250000  0.249909  0.311134  1
  Rh  Rh19  1  0.750000  0.248088  0.812117  1
  Rh  Rh20  1  0.250000  0.751607  0.936821  1
  Rh  Rh21  1  0.750000  0.753175  0.686845  1
  Rh  Rh22  1  0.750000  0.750866  0.435512  1
  Rh  Rh23  1  0.250000  0.748698  0.186620  1
