# generated using pymatgen
data_Zr4Ta3Ti3Si8
_symmetry_space_group_name_H-M   'P 1'
_cell_length_a   6.85967836
_cell_length_b   6.85824816
_cell_length_c   12.64574496
_cell_angle_alpha   90.02444144
_cell_angle_beta   90.03724009
_cell_angle_gamma   89.99902704
_symmetry_Int_Tables_number   1
_chemical_formula_structural   Zr4Ta3Ti3Si8
_chemical_formula_sum   'Zr8 Ta6 Ti6 Si16'
_cell_volume   594.92365245
_cell_formula_units_Z   2
loop_
 _symmetry_equiv_pos_site_id
 _symmetry_equiv_pos_as_xyz
  1  'x, y, z'
loop_
 _atom_site_type_symbol
 _atom_site_label
 _atom_site_symmetry_multiplicity
 _atom_site_fract_x
 _atom_site_fract_y
 _atom_site_fract_z
 _atom_site_occupancy
  Zr  Zr0  1  0.000742  0.660191  0.029904  1
  Zr  Zr1  1  0.998793  0.342054  0.530453  1
  Zr  Zr2  1  0.657382  0.000229  0.969986  1
  Zr  Zr3  1  0.159081  0.499188  0.780134  1
  Zr  Zr4  1  0.840945  0.501891  0.279852  1
  Zr  Zr5  1  0.497000  0.157655  0.220645  1
  Zr  Zr6  1  0.500227  0.842293  0.719799  1
  Zr  Zr7  1  0.341913  0.997441  0.470149  1
  Ta  Ta8  1  0.494756  0.652945  0.123902  1
  Ta  Ta9  1  0.153971  0.004587  0.872967  1
  Ta  Ta10  1  0.670436  0.669876  0.500054  1
  Ta  Ta11  1  0.830501  0.170985  0.749347  1
  Ta  Ta12  1  0.170106  0.830053  0.250314  1
  Ta  Ta13  1  0.329564  0.330158  0.999477  1
  Ti  Ti14  1  0.347225  0.504943  0.376631  1
  Ti  Ti15  1  0.846529  0.994804  0.373261  1
  Ti  Ti16  1  0.005128  0.153011  0.127259  1
  Ti  Ti17  1  0.995613  0.844950  0.626931  1
  Ti  Ti18  1  0.654910  0.494955  0.876851  1
  Ti  Ti19  1  0.504914  0.345303  0.622685  1
  Si  Si20  1  0.045869  0.705119  0.437098  1
  Si  Si21  1  0.953183  0.298632  0.936913  1
  Si  Si22  1  0.705950  0.044731  0.562811  1
  Si  Si23  1  0.200932  0.452409  0.187817  1
  Si  Si24  1  0.794518  0.545366  0.686062  1
  Si  Si25  1  0.456922  0.208131  0.811506  1
  Si  Si26  1  0.545781  0.796948  0.315344  1
  Si  Si27  1  0.294436  0.956715  0.064191  1
  Si  Si28  1  0.862587  0.792008  0.821892  1
  Si  Si29  1  0.132947  0.206985  0.324239  1
  Si  Si30  1  0.794564  0.868920  0.178010  1
  Si  Si31  1  0.293567  0.632773  0.572948  1
  Si  Si32  1  0.708300  0.362310  0.073152  1
  Si  Si33  1  0.633560  0.292298  0.426821  1
  Si  Si34  1  0.368713  0.705757  0.925868  1
  Si  Si35  1  0.208436  0.133386  0.674730  1
