# generated using pymatgen
data_Er8Sc2Ga3NiBi2
_symmetry_space_group_name_H-M   'P 1'
_cell_length_a   8.45228042
_cell_length_b   8.45228095
_cell_length_c   8.63367635
_cell_angle_alpha   125.04274028
_cell_angle_beta   125.04274038
_cell_angle_gamma   80.03653540
_symmetry_Int_Tables_number   1
_chemical_formula_structural   Er8Sc2Ga3NiBi2
_chemical_formula_sum   'Er8 Sc2 Ga3 Ni1 Bi2'
_cell_volume   401.99403762
_cell_formula_units_Z   1
loop_
 _symmetry_equiv_pos_site_id
 _symmetry_equiv_pos_as_xyz
  1  'x, y, z'
loop_
 _atom_site_type_symbol
 _atom_site_label
 _atom_site_symmetry_multiplicity
 _atom_site_fract_x
 _atom_site_fract_y
 _atom_site_fract_z
 _atom_site_occupancy
  Er  Er0  1  0.778876  0.296646  0.798077  1
  Er  Er1  1  0.203354  0.721124  0.201923  1
  Er  Er2  1  0.480797  0.998567  0.201923  1
  Er  Er3  1  0.303990  0.457134  0.500000  1
  Er  Er4  1  0.042866  0.196010  0.500000  1
  Er  Er5  1  0.501433  0.019203  0.798077  1
  Er  Er6  1  0.705889  0.514921  0.500000  1
  Er  Er7  1  0.985079  0.794111  0.500000  1
  Sc  Sc8  1  0.992483  0.995582  0.988065  1
  Sc  Sc9  1  0.504418  0.507517  0.011935  1
  Ga  Ga10  1  0.149693  0.647071  0.796766  1
  Ga  Ga11  1  0.852929  0.350307  0.203234  1
  Ga  Ga12  1  0.637239  0.862761  0.500000  1
  Ni  Ni13  1  0.373538  0.126462  0.500000  1
  Bi  Bi14  1  0.243707  0.256293  0.000000  1
  Bi  Bi15  1  0.743707  0.756293  0.000000  1
