# generated using pymatgen
data_Zr6Ti4Al12Pd5Ru2
_symmetry_space_group_name_H-M   'P 1'
_cell_length_a   8.84238252
_cell_length_b   8.81980555
_cell_length_c   8.84238400
_cell_angle_alpha   60.08442639
_cell_angle_beta   60.02641018
_cell_angle_gamma   60.08443021
_symmetry_Int_Tables_number   1
_chemical_formula_structural   Zr6Ti4Al12Pd5Ru2
_chemical_formula_sum   'Zr6 Ti4 Al12 Pd5 Ru2'
_cell_volume   488.34028384
_cell_formula_units_Z   1
loop_
 _symmetry_equiv_pos_site_id
 _symmetry_equiv_pos_as_xyz
  1  'x, y, z'
loop_
 _atom_site_type_symbol
 _atom_site_label
 _atom_site_symmetry_multiplicity
 _atom_site_fract_x
 _atom_site_fract_y
 _atom_site_fract_z
 _atom_site_occupancy
  Zr  Zr0  1  0.692338  0.687089  0.308660  1
  Zr  Zr1  1  0.305159  0.694849  0.305159  1
  Zr  Zr2  1  0.692374  0.311943  0.308565  1
  Zr  Zr3  1  0.308565  0.311943  0.692374  1
  Zr  Zr4  1  0.692930  0.307134  0.692930  1
  Zr  Zr5  1  0.308660  0.687089  0.692338  1
  Ti  Ti6  1  0.882440  0.881996  0.353612  1
  Ti  Ti7  1  0.885671  0.356102  0.885671  1
  Ti  Ti8  1  0.353612  0.881996  0.882440  1
  Ti  Ti9  1  0.885659  0.872603  0.885659  1
  Al  Al10  1  0.116098  0.119400  0.645194  1
  Al  Al11  1  0.116690  0.642155  0.116690  1
  Al  Al12  1  0.645194  0.119400  0.116098  1
  Al  Al13  1  0.116624  0.124534  0.116624  1
  Al  Al14  1  0.664975  0.666163  0.002597  1
  Al  Al15  1  0.666000  0.002637  0.666000  1
  Al  Al16  1  0.002597  0.666163  0.664975  1
  Al  Al17  1  0.666050  0.665304  0.666050  1
  Al  Al18  1  0.330807  0.335408  0.998406  1
  Al  Al19  1  0.334542  0.997067  0.334542  1
  Al  Al20  1  0.998406  0.335408  0.330807  1
  Al  Al21  1  0.334539  0.333870  0.334539  1
  Pd  Pd22  1  0.999818  0.999617  0.500881  1
  Pd  Pd23  1  0.500539  0.999418  0.500539  1
  Pd  Pd24  1  0.999889  0.499682  0.500635  1
  Pd  Pd25  1  0.500635  0.499682  0.999889  1
  Pd  Pd26  1  0.500881  0.999617  0.999818  1
  Ru  Ru27  1  0.001373  0.998706  0.001373  1
  Ru  Ru28  1  0.996936  0.503020  0.996936  1
