# generated using pymatgen
data_CeTh3(Cu5Sn)4
_symmetry_space_group_name_H-M   'P 1'
_cell_length_a   5.09081300
_cell_length_b   8.34560001
_cell_length_c   10.60385101
_cell_angle_alpha   90.00567900
_cell_angle_beta   90.00000000
_cell_angle_gamma   90.00000000
_symmetry_Int_Tables_number   1
_chemical_formula_structural   CeTh3(Cu5Sn)4
_chemical_formula_sum   'Ce1 Th3 Cu20 Sn4'
_cell_volume   450.51403516
_cell_formula_units_Z   1
loop_
 _symmetry_equiv_pos_site_id
 _symmetry_equiv_pos_as_xyz
  1  'x, y, z'
loop_
 _atom_site_type_symbol
 _atom_site_label
 _atom_site_symmetry_multiplicity
 _atom_site_fract_x
 _atom_site_fract_y
 _atom_site_fract_z
 _atom_site_occupancy
  Ce  Ce0  1  0.750000  0.248987  0.943109  1
  Th  Th1  1  0.250000  0.749880  0.056780  1
  Th  Th2  1  0.750000  0.749739  0.557481  1
  Th  Th3  1  0.250000  0.250105  0.442865  1
  Cu  Cu4  1  0.001462  0.428170  0.187059  1
  Cu  Cu5  1  0.501396  0.572008  0.813134  1
  Cu  Cu6  1  0.498522  0.928217  0.312793  1
  Cu  Cu7  1  0.998974  0.071906  0.686939  1
  Cu  Cu8  1  0.998604  0.572008  0.813134  1
  Cu  Cu9  1  0.498538  0.428170  0.187059  1
  Cu  Cu10  1  0.501026  0.071906  0.686939  1
  Cu  Cu11  1  0.001478  0.928217  0.312793  1
  Cu  Cu12  1  0.750000  0.432889  0.394953  1
  Cu  Cu13  1  0.250000  0.567293  0.605388  1
  Cu  Cu14  1  0.750000  0.932933  0.105373  1
  Cu  Cu15  1  0.250000  0.068023  0.894596  1
  Cu  Cu16  1  0.750000  0.179946  0.255223  1
  Cu  Cu17  1  0.250000  0.820363  0.744978  1
  Cu  Cu18  1  0.750000  0.679709  0.244713  1
  Cu  Cu19  1  0.250000  0.320434  0.755043  1
  Cu  Cu20  1  0.750000  0.080804  0.481915  1
  Cu  Cu21  1  0.250000  0.919015  0.518165  1
  Cu  Cu22  1  0.750000  0.578959  0.017676  1
  Cu  Cu23  1  0.250000  0.418123  0.981527  1
  Sn  Sn24  1  0.750000  0.364194  0.642586  1
  Sn  Sn25  1  0.250000  0.635570  0.358694  1
  Sn  Sn26  1  0.750000  0.865989  0.859222  1
  Sn  Sn27  1  0.250000  0.136441  0.139864  1
