# generated using pymatgen
data_La5Ge2Ir
_symmetry_space_group_name_H-M   'P 1'
_cell_length_a   8.22831600
_cell_length_b   9.01196000
_cell_length_c   12.61174900
_cell_angle_alpha   90.00000000
_cell_angle_beta   90.00000000
_cell_angle_gamma   90.00000000
_symmetry_Int_Tables_number   1
_chemical_formula_structural   La5Ge2Ir
_chemical_formula_sum   'La20 Ge8 Ir4'
_cell_volume   935.20223530
_cell_formula_units_Z   4
loop_
 _symmetry_equiv_pos_site_id
 _symmetry_equiv_pos_as_xyz
  1  'x, y, z'
loop_
 _atom_site_type_symbol
 _atom_site_label
 _atom_site_symmetry_multiplicity
 _atom_site_fract_x
 _atom_site_fract_y
 _atom_site_fract_z
 _atom_site_occupancy
  La  La0  1  0.671957  0.750000  0.714320  1
  La  La1  1  0.328043  0.250000  0.285680  1
  La  La2  1  0.171957  0.250000  0.785680  1
  La  La3  1  0.828043  0.750000  0.214320  1
  La  La4  1  0.147631  0.750000  0.797421  1
  La  La5  1  0.852369  0.250000  0.202579  1
  La  La6  1  0.647631  0.250000  0.702579  1
  La  La7  1  0.352369  0.750000  0.297421  1
  La  La8  1  0.543460  0.750000  0.999923  1
  La  La9  1  0.456540  0.250000  0.000077  1
  La  La10  1  0.043460  0.250000  0.500077  1
  La  La11  1  0.956540  0.750000  0.499923  1
  La  La12  1  0.819563  0.464679  0.925883  1
  La  La13  1  0.180437  0.535321  0.074117  1
  La  La14  1  0.319563  0.535321  0.574117  1
  La  La15  1  0.180437  0.964679  0.074117  1
  La  La16  1  0.680437  0.464679  0.425883  1
  La  La17  1  0.819563  0.035321  0.925883  1
  La  La18  1  0.680437  0.035321  0.425883  1
  La  La19  1  0.319563  0.964679  0.574117  1
  Ge  Ge20  1  0.942271  0.005425  0.672556  1
  Ge  Ge21  1  0.057729  0.994575  0.327444  1
  Ge  Ge22  1  0.442271  0.994575  0.827444  1
  Ge  Ge23  1  0.057729  0.505425  0.327444  1
  Ge  Ge24  1  0.557729  0.005425  0.172556  1
  Ge  Ge25  1  0.942271  0.494575  0.672556  1
  Ge  Ge26  1  0.557729  0.494575  0.172556  1
  Ge  Ge27  1  0.442271  0.505425  0.827444  1
  Ir  Ir28  1  0.920920  0.750000  0.985127  1
  Ir  Ir29  1  0.079080  0.250000  0.014873  1
  Ir  Ir30  1  0.420920  0.250000  0.514873  1
  Ir  Ir31  1  0.579080  0.750000  0.485127  1
