# generated using pymatgen
data_Li4AcY3Si8
_symmetry_space_group_name_H-M   'P 1'
_cell_length_a   3.85874000
_cell_length_b   7.72546294
_cell_length_c   10.42166041
_cell_angle_alpha   89.55947026
_cell_angle_beta   90.00000000
_cell_angle_gamma   90.00000000
_symmetry_Int_Tables_number   1
_chemical_formula_structural   Li4AcY3Si8
_chemical_formula_sum   'Li4 Ac1 Y3 Si8'
_cell_volume   310.66627567
_cell_formula_units_Z   1
loop_
 _symmetry_equiv_pos_site_id
 _symmetry_equiv_pos_as_xyz
  1  'x, y, z'
loop_
 _atom_site_type_symbol
 _atom_site_label
 _atom_site_symmetry_multiplicity
 _atom_site_fract_x
 _atom_site_fract_y
 _atom_site_fract_z
 _atom_site_occupancy
  Li  Li0  1  0.250000  0.996982  0.391909  1
  Li  Li1  1  0.750000  0.008945  0.612731  1
  Li  Li2  1  0.250000  0.489892  0.104438  1
  Li  Li3  1  0.750000  0.509267  0.893687  1
  Ac  Ac4  1  0.750000  0.357465  0.363660  1
  Y  Y5  1  0.250000  0.130963  0.864059  1
  Y  Y6  1  0.750000  0.862264  0.132242  1
  Y  Y7  1  0.250000  0.638685  0.638247  1
  Si  Si8  1  0.750000  0.259085  0.059014  1
  Si  Si9  1  0.250000  0.730989  0.930099  1
  Si  Si10  1  0.750000  0.782341  0.430651  1
  Si  Si11  1  0.250000  0.227295  0.583517  1
  Si  Si12  1  0.750000  0.839688  0.820217  1
  Si  Si13  1  0.250000  0.149934  0.167890  1
  Si  Si14  1  0.750000  0.341334  0.688331  1
  Si  Si15  1  0.250000  0.674868  0.319306  1
