# generated using pymatgen
data_Er4Sc3Ti3(Si5Ir2)4
_symmetry_space_group_name_H-M   'P 1'
_cell_length_a   12.39896262
_cell_length_b   12.39896262
_cell_length_c   4.10465000
_cell_angle_alpha   90.00000000
_cell_angle_beta   90.00000000
_cell_angle_gamma   89.96370193
_symmetry_Int_Tables_number   1
_chemical_formula_structural   Er4Sc3Ti3(Si5Ir2)4
_chemical_formula_sum   'Er4 Sc3 Ti3 Si20 Ir8'
_cell_volume   631.02526157
_cell_formula_units_Z   1
loop_
 _symmetry_equiv_pos_site_id
 _symmetry_equiv_pos_as_xyz
  1  'x, y, z'
loop_
 _atom_site_type_symbol
 _atom_site_label
 _atom_site_symmetry_multiplicity
 _atom_site_fract_x
 _atom_site_fract_y
 _atom_site_fract_z
 _atom_site_occupancy
  Er  Er0  1  0.884849  0.381733  0.500000  1
  Er  Er1  1  0.118267  0.615151  0.500000  1
  Er  Er2  1  0.382109  0.117891  0.500000  1
  Er  Er3  1  0.612981  0.887019  0.500000  1
  Sc  Sc4  1  0.498897  0.501493  0.000000  1
  Sc  Sc5  1  0.998507  0.001103  0.000000  1
  Sc  Sc6  1  0.826795  0.673205  0.500000  1
  Ti  Ti7  1  0.671737  0.174553  0.500000  1
  Ti  Ti8  1  0.325447  0.828263  0.500000  1
  Ti  Ti9  1  0.174441  0.325559  0.500000  1
  Si  Si10  1  0.566790  0.068944  0.000000  1
  Si  Si11  1  0.431056  0.933210  0.000000  1
  Si  Si12  1  0.068900  0.431100  0.000000  1
  Si  Si13  1  0.933832  0.566168  0.000000  1
  Si  Si14  1  0.665236  0.699347  0.000000  1
  Si  Si15  1  0.331471  0.302907  0.000000  1
  Si  Si16  1  0.168375  0.803054  0.000000  1
  Si  Si17  1  0.832183  0.197885  0.000000  1
  Si  Si18  1  0.302115  0.667817  0.000000  1
  Si  Si19  1  0.696946  0.331625  0.000000  1
  Si  Si20  1  0.197093  0.168529  0.000000  1
  Si  Si21  1  0.800653  0.834764  0.000000  1
  Si  Si22  1  0.651435  0.502234  0.500000  1
  Si  Si23  1  0.346999  0.477740  0.500000  1
  Si  Si24  1  0.151567  0.986426  0.500000  1
  Si  Si25  1  0.845665  0.010893  0.500000  1
  Si  Si26  1  0.489107  0.654335  0.500000  1
  Si  Si27  1  0.513574  0.348433  0.500000  1
  Si  Si28  1  0.022260  0.153001  0.500000  1
  Si  Si29  1  0.997766  0.848565  0.500000  1
  Ir  Ir30  1  0.744408  0.518452  0.000000  1
  Ir  Ir31  1  0.254225  0.482058  0.000000  1
  Ir  Ir32  1  0.245231  0.982220  0.000000  1
  Ir  Ir33  1  0.752956  0.021146  0.000000  1
  Ir  Ir34  1  0.478854  0.747044  0.000000  1
  Ir  Ir35  1  0.517780  0.254769  0.000000  1
  Ir  Ir36  1  0.017942  0.245775  0.000000  1
  Ir  Ir37  1  0.981548  0.755592  0.000000  1
