# generated using pymatgen
data_LaTh3Sc4(ReB6)4
_symmetry_space_group_name_H-M   'P 1'
_cell_length_a   3.68859400
_cell_length_b   9.11162609
_cell_length_c   11.57543911
_cell_angle_alpha   89.98390772
_cell_angle_beta   90.00000000
_cell_angle_gamma   90.00000000
_symmetry_Int_Tables_number   1
_chemical_formula_structural   LaTh3Sc4(ReB6)4
_chemical_formula_sum   'La1 Th3 Sc4 Re4 B24'
_cell_volume   389.03995182
_cell_formula_units_Z   1
loop_
 _symmetry_equiv_pos_site_id
 _symmetry_equiv_pos_as_xyz
  1  'x, y, z'
loop_
 _atom_site_type_symbol
 _atom_site_label
 _atom_site_symmetry_multiplicity
 _atom_site_fract_x
 _atom_site_fract_y
 _atom_site_fract_z
 _atom_site_occupancy
  La  La0  1  0.000000  0.321352  0.414295  1
  Th  Th1  1  0.000000  0.677256  0.585149  1
  Th  Th2  1  0.000000  0.821140  0.085436  1
  Th  Th3  1  0.000000  0.179038  0.914901  1
  Sc  Sc4  1  0.000000  0.945277  0.371347  1
  Sc  Sc5  1  0.000000  0.055622  0.628075  1
  Sc  Sc6  1  0.000000  0.444873  0.128068  1
  Sc  Sc7  1  0.000000  0.554251  0.872805  1
  Re  Re8  1  0.000000  0.643367  0.316499  1
  Re  Re9  1  0.000000  0.358377  0.684323  1
  Re  Re10  1  0.000000  0.140263  0.181601  1
  Re  Re11  1  0.000000  0.858805  0.817215  1
  B  B12  1  0.500000  0.558239  0.428690  1
  B  B13  1  0.500000  0.442841  0.571747  1
  B  B14  1  0.500000  0.056791  0.070949  1
  B  B15  1  0.500000  0.942693  0.928625  1
  B  B16  1  0.500000  0.754205  0.415875  1
  B  B17  1  0.500000  0.246185  0.584937  1
  B  B18  1  0.500000  0.254093  0.084164  1
  B  B19  1  0.500000  0.745737  0.915846  1
  B  B20  1  0.500000  0.794066  0.265737  1
  B  B21  1  0.500000  0.206247  0.734641  1
  B  B22  1  0.500000  0.293791  0.233721  1
  B  B23  1  0.500000  0.706116  0.765844  1
  B  B24  1  0.500000  0.628765  0.184106  1
  B  B25  1  0.500000  0.371505  0.816144  1
  B  B26  1  0.500000  0.128043  0.315392  1
  B  B27  1  0.500000  0.871380  0.683990  1
  B  B28  1  0.500000  0.983496  0.215418  1
  B  B29  1  0.500000  0.016294  0.784278  1
  B  B30  1  0.500000  0.484209  0.283787  1
  B  B31  1  0.500000  0.516323  0.715880  1
  B  B32  1  0.500000  0.596384  0.025658  1
  B  B33  1  0.500000  0.403744  0.974565  1
  B  B34  1  0.500000  0.094299  0.474651  1
  B  B35  1  0.500000  0.904933  0.525643  1
