# generated using pymatgen
data_Sr2Ca4YbNi4Sn13
_symmetry_space_group_name_H-M   'P 1'
_cell_length_a   11.31566600
_cell_length_b   11.31566600
_cell_length_c   4.65716000
_cell_angle_alpha   90.00000000
_cell_angle_beta   90.00000000
_cell_angle_gamma   90.00000000
_symmetry_Int_Tables_number   1
_chemical_formula_structural   Sr2Ca4YbNi4Sn13
_chemical_formula_sum   'Sr2 Ca4 Yb1 Ni4 Sn13'
_cell_volume   596.32277833
_cell_formula_units_Z   1
loop_
 _symmetry_equiv_pos_site_id
 _symmetry_equiv_pos_as_xyz
  1  'x, y, z'
loop_
 _atom_site_type_symbol
 _atom_site_label
 _atom_site_symmetry_multiplicity
 _atom_site_fract_x
 _atom_site_fract_y
 _atom_site_fract_z
 _atom_site_occupancy
  Sr  Sr0  1  0.500000  0.000000  0.500000  1
  Sr  Sr1  1  0.000000  0.500000  0.500000  1
  Ca  Ca2  1  0.338457  0.670545  0.500000  1
  Ca  Ca3  1  0.661543  0.329455  0.500000  1
  Ca  Ca4  1  0.329455  0.338457  0.500000  1
  Ca  Ca5  1  0.670545  0.661543  0.500000  1
  Yb  Yb6  1  0.000000  0.000000  0.000000  1
  Ni  Ni7  1  0.119083  0.724620  0.000000  1
  Ni  Ni8  1  0.880917  0.275380  0.000000  1
  Ni  Ni9  1  0.275380  0.119083  0.000000  1
  Ni  Ni10  1  0.724620  0.880917  0.000000  1
  Sn  Sn11  1  0.281819  0.888668  0.000000  1
  Sn  Sn12  1  0.718181  0.111332  0.000000  1
  Sn  Sn13  1  0.111332  0.281819  0.000000  1
  Sn  Sn14  1  0.888668  0.718181  0.000000  1
  Sn  Sn15  1  0.078531  0.811580  0.500000  1
  Sn  Sn16  1  0.921469  0.188420  0.500000  1
  Sn  Sn17  1  0.188420  0.078531  0.500000  1
  Sn  Sn18  1  0.811580  0.921469  0.500000  1
  Sn  Sn19  1  0.518968  0.780302  0.000000  1
  Sn  Sn20  1  0.481032  0.219698  0.000000  1
  Sn  Sn21  1  0.219698  0.518968  0.000000  1
  Sn  Sn22  1  0.780302  0.481032  0.000000  1
  Sn  Sn23  1  0.500000  0.500000  0.000000  1
