# generated using pymatgen
data_Lu3In3NiSnRu
_symmetry_space_group_name_H-M   'P 1'
_cell_length_a   7.84389100
_cell_length_b   7.84389173
_cell_length_c   3.65279200
_cell_angle_alpha   90.00000000
_cell_angle_beta   90.00000000
_cell_angle_gamma   119.99999271
_symmetry_Int_Tables_number   1
_chemical_formula_structural   Lu3In3NiSnRu
_chemical_formula_sum   'Lu3 In3 Ni1 Sn1 Ru1'
_cell_volume   194.63401740
_cell_formula_units_Z   1
loop_
 _symmetry_equiv_pos_site_id
 _symmetry_equiv_pos_as_xyz
  1  'x, y, z'
loop_
 _atom_site_type_symbol
 _atom_site_label
 _atom_site_symmetry_multiplicity
 _atom_site_fract_x
 _atom_site_fract_y
 _atom_site_fract_z
 _atom_site_occupancy
  Lu  Lu0  1  0.578792  0.963242  0.000000  1
  Lu  Lu1  1  0.036758  0.615550  0.000000  1
  Lu  Lu2  1  0.384450  0.421208  0.000000  1
  In  In3  1  0.245418  0.992691  0.500000  1
  In  In4  1  0.007309  0.252727  0.500000  1
  In  In5  1  0.747273  0.754582  0.500000  1
  Ni  Ni6  1  0.000000  0.000000  0.000000  1
  Sn  Sn7  1  0.666667  0.333333  0.500000  1
  Ru  Ru8  1  0.333333  0.666667  0.500000  1
