# generated using pymatgen
data_K4P2PdSe8
_symmetry_space_group_name_H-M   'P 1'
_cell_length_a   6.71225064
_cell_length_b   7.29040694
_cell_length_c   9.97048330
_cell_angle_alpha   86.93084282
_cell_angle_beta   85.51613652
_cell_angle_gamma   87.98351675
_symmetry_Int_Tables_number   1
_chemical_formula_structural   K4P2PdSe8
_chemical_formula_sum   'K4 P2 Pd1 Se8'
_cell_volume   485.47943160
_cell_formula_units_Z   1
loop_
 _symmetry_equiv_pos_site_id
 _symmetry_equiv_pos_as_xyz
  1  'x, y, z'
loop_
 _atom_site_type_symbol
 _atom_site_label
 _atom_site_symmetry_multiplicity
 _atom_site_fract_x
 _atom_site_fract_y
 _atom_site_fract_z
 _atom_site_occupancy
  K  K0  1  0.263525  0.357121  0.129014  1
  K  K1  1  0.747030  0.220971  0.478909  1
  K  K2  1  0.252970  0.779029  0.521091  1
  K  K3  1  0.736475  0.642879  0.870986  1
  P  P4  1  0.820729  0.731597  0.257239  1
  P  P5  1  0.179271  0.268403  0.742761  1
  Pd  Pd6  1  0.000000  0.000000  0.000000  1
  Se  Se7  1  0.671964  0.956208  0.129207  1
  Se  Se8  1  0.762381  0.457215  0.188795  1
  Se  Se9  1  0.137902  0.813380  0.188308  1
  Se  Se10  1  0.755356  0.749019  0.476043  1
  Se  Se11  1  0.244644  0.250981  0.523957  1
  Se  Se12  1  0.862098  0.186620  0.811692  1
  Se  Se13  1  0.237619  0.542785  0.811205  1
  Se  Se14  1  0.328036  0.043792  0.870793  1
