# generated using pymatgen
data_Ta2Nb4Co6Si
_symmetry_space_group_name_H-M   'P 1'
_cell_length_a   9.03718907
_cell_length_b   9.03718938
_cell_length_c   9.03718862
_cell_angle_alpha   31.57901072
_cell_angle_beta   31.57900655
_cell_angle_gamma   31.57901413
_symmetry_Int_Tables_number   1
_chemical_formula_structural   Ta2Nb4Co6Si
_chemical_formula_sum   'Ta2 Nb4 Co6 Si1'
_cell_volume   179.71744510
_cell_formula_units_Z   1
loop_
 _symmetry_equiv_pos_site_id
 _symmetry_equiv_pos_as_xyz
  1  'x, y, z'
loop_
 _atom_site_type_symbol
 _atom_site_label
 _atom_site_symmetry_multiplicity
 _atom_site_fract_x
 _atom_site_fract_y
 _atom_site_fract_z
 _atom_site_occupancy
  Ta  Ta0  1  0.830381  0.830381  0.830381  1
  Ta  Ta1  1  0.169619  0.169619  0.169619  1
  Nb  Nb2  1  0.652427  0.652427  0.652427  1
  Nb  Nb3  1  0.347573  0.347573  0.347573  1
  Nb  Nb4  1  0.549743  0.549743  0.549743  1
  Nb  Nb5  1  0.450257  0.450257  0.450257  1
  Co  Co6  1  0.909192  0.408713  0.909192  1
  Co  Co7  1  0.909192  0.909192  0.408713  1
  Co  Co8  1  0.408713  0.909192  0.909192  1
  Co  Co9  1  0.090808  0.591287  0.090808  1
  Co  Co10  1  0.090808  0.090808  0.591287  1
  Co  Co11  1  0.591287  0.090808  0.090808  1
  Si  Si12  1  0.000000  0.000000  0.000000  1
