# generated using pymatgen
data_Ho2ErNp7O20
_symmetry_space_group_name_H-M   'P 1'
_cell_length_a   6.58677370
_cell_length_b   7.59561599
_cell_length_c   8.49429900
_cell_angle_alpha   102.71427183
_cell_angle_beta   97.32557471
_cell_angle_gamma   106.85876165
_symmetry_Int_Tables_number   1
_chemical_formula_structural   Ho2ErNp7O20
_chemical_formula_sum   'Ho2 Er1 Np7 O20'
_cell_volume   388.31581418
_cell_formula_units_Z   1
loop_
 _symmetry_equiv_pos_site_id
 _symmetry_equiv_pos_as_xyz
  1  'x, y, z'
loop_
 _atom_site_type_symbol
 _atom_site_label
 _atom_site_symmetry_multiplicity
 _atom_site_fract_x
 _atom_site_fract_y
 _atom_site_fract_z
 _atom_site_occupancy
  Ho  Ho0  1  0.799896  0.599917  0.599920  1
  Ho  Ho1  1  0.600758  0.200471  0.200467  1
  Er  Er2  1  0.999377  0.999750  0.999753  1
  Np  Np3  1  0.998954  0.499594  0.999501  1
  Np  Np4  1  0.799662  0.100154  0.600211  1
  Np  Np5  1  0.400407  0.801194  0.802032  1
  Np  Np6  1  0.199314  0.398726  0.397899  1
  Np  Np7  1  0.601644  0.700330  0.200355  1
  Np  Np8  1  0.399468  0.298484  0.800942  1
  Np  Np9  1  0.200262  0.901438  0.398858  1
  O  O10  1  0.857562  0.320577  0.454192  1
  O  O11  1  0.644954  0.915463  0.050882  1
  O  O12  1  0.951031  0.769752  0.152338  1
  O  O13  1  0.441561  0.521342  0.654488  1
  O  O14  1  0.855686  0.832112  0.447999  1
  O  O15  1  0.650375  0.430662  0.047234  1
  O  O16  1  0.744190  0.368072  0.752192  1
  O  O17  1  0.246634  0.124193  0.256487  1
  O  O18  1  0.956187  0.284230  0.149189  1
  O  O19  1  0.447277  0.026639  0.647073  1
  O  O20  1  0.549479  0.970300  0.355010  1
  O  O21  1  0.055733  0.719246  0.851272  1
  O  O22  1  0.741520  0.879482  0.746856  1
  O  O23  1  0.349324  0.571675  0.952788  1
  O  O24  1  0.251562  0.628414  0.246876  1
  O  O25  1  0.545730  0.481488  0.348832  1
  O  O26  1  0.151359  0.173052  0.552718  1
  O  O27  1  0.049907  0.229459  0.845700  1
  O  O28  1  0.352449  0.075142  0.943049  1
  O  O29  1  0.157736  0.678641  0.544887  1
