# generated using pymatgen
data_Y4ErCuPd14
_symmetry_space_group_name_H-M   'P 1'
_cell_length_a   4.15229400
_cell_length_b   4.08212800
_cell_length_c   20.65809600
_cell_angle_alpha   90.00000000
_cell_angle_beta   90.00000000
_cell_angle_gamma   90.00000000
_symmetry_Int_Tables_number   1
_chemical_formula_structural   Y4ErCuPd14
_chemical_formula_sum   'Y4 Er1 Cu1 Pd14'
_cell_volume   350.15876796
_cell_formula_units_Z   1
loop_
 _symmetry_equiv_pos_site_id
 _symmetry_equiv_pos_as_xyz
  1  'x, y, z'
loop_
 _atom_site_type_symbol
 _atom_site_label
 _atom_site_symmetry_multiplicity
 _atom_site_fract_x
 _atom_site_fract_y
 _atom_site_fract_z
 _atom_site_occupancy
  Y  Y0  1  0.000000  0.000000  0.200433  1
  Y  Y1  1  0.000000  0.000000  0.399172  1
  Y  Y2  1  0.000000  0.000000  0.600182  1
  Y  Y3  1  0.000000  0.000000  0.801470  1
  Er  Er4  1  0.000000  0.000000  0.998664  1
  Cu  Cu5  1  0.500000  0.000000  0.098942  1
  Pd  Pd6  1  0.500000  0.500000  0.003959  1
  Pd  Pd7  1  0.500000  0.500000  0.195414  1
  Pd  Pd8  1  0.500000  0.500000  0.398669  1
  Pd  Pd9  1  0.500000  0.500000  0.600161  1
  Pd  Pd10  1  0.500000  0.500000  0.801617  1
  Pd  Pd11  1  0.500000  0.000000  0.297777  1
  Pd  Pd12  1  0.500000  0.000000  0.499447  1
  Pd  Pd13  1  0.500000  0.000000  0.700902  1
  Pd  Pd14  1  0.500000  0.000000  0.903062  1
  Pd  Pd15  1  0.000000  0.500000  0.098814  1
  Pd  Pd16  1  0.000000  0.500000  0.298035  1
  Pd  Pd17  1  0.000000  0.500000  0.499375  1
  Pd  Pd18  1  0.000000  0.500000  0.700993  1
  Pd  Pd19  1  0.000000  0.500000  0.902913  1
