# generated using pymatgen
data_Nd5Sm(RuCl3)2
_symmetry_space_group_name_H-M   'P 1'
_cell_length_a   4.15423300
_cell_length_b   8.72319685
_cell_length_c   11.87122333
_cell_angle_alpha   87.82321537
_cell_angle_beta   90.00000000
_cell_angle_gamma   90.00000000
_symmetry_Int_Tables_number   1
_chemical_formula_structural   Nd5Sm(RuCl3)2
_chemical_formula_sum   'Nd5 Sm1 Ru2 Cl6'
_cell_volume   429.88124179
_cell_formula_units_Z   1
loop_
 _symmetry_equiv_pos_site_id
 _symmetry_equiv_pos_as_xyz
  1  'x, y, z'
loop_
 _atom_site_type_symbol
 _atom_site_label
 _atom_site_symmetry_multiplicity
 _atom_site_fract_x
 _atom_site_fract_y
 _atom_site_fract_z
 _atom_site_occupancy
  Nd  Nd0  1  0.250000  0.321380  0.381062  1
  Nd  Nd1  1  0.750000  0.679230  0.617130  1
  Nd  Nd2  1  0.250000  0.886024  0.375643  1
  Nd  Nd3  1  0.750000  0.115718  0.624150  1
  Nd  Nd4  1  0.250000  0.876661  0.843703  1
  Sm  Sm5  1  0.750000  0.122702  0.158194  1
  Ru  Ru6  1  0.250000  0.897871  0.617456  1
  Ru  Ru7  1  0.750000  0.103026  0.382675  1
  Cl  Cl8  1  0.250000  0.405197  0.624309  1
  Cl  Cl9  1  0.750000  0.595977  0.373941  1
  Cl  Cl10  1  0.250000  0.901766  0.111078  1
  Cl  Cl11  1  0.750000  0.101601  0.892928  1
  Cl  Cl12  1  0.250000  0.339471  0.132169  1
  Cl  Cl13  1  0.750000  0.653374  0.865563  1
