# generated using pymatgen
data_TbCO3F
_symmetry_space_group_name_H-M   'P 1'
_cell_length_a   4.40417513
_cell_length_b   6.38772960
_cell_length_c   6.85174001
_cell_angle_alpha   90.36699354
_cell_angle_beta   91.55621438
_cell_angle_gamma   93.75228742
_symmetry_Int_Tables_number   1
_chemical_formula_structural   TbCO3F
_chemical_formula_sum   'Tb2 C2 O6 F2'
_cell_volume   192.26718193
_cell_formula_units_Z   2
loop_
 _symmetry_equiv_pos_site_id
 _symmetry_equiv_pos_as_xyz
  1  'x, y, z'
loop_
 _atom_site_type_symbol
 _atom_site_label
 _atom_site_symmetry_multiplicity
 _atom_site_fract_x
 _atom_site_fract_y
 _atom_site_fract_z
 _atom_site_occupancy
  Tb  Tb0  1  0.502640  0.338777  0.249411  1
  Tb  Tb1  1  0.497360  0.661223  0.750589  1
  C  C2  1  0.501290  0.792417  0.251434  1
  C  C3  1  0.498711  0.207583  0.748566  1
  O  O4  1  0.521314  0.680958  0.091730  1
  O  O5  1  0.480222  0.988073  0.251734  1
  O  O6  1  0.502349  0.680010  0.410781  1
  O  O7  1  0.497652  0.319990  0.589219  1
  O  O8  1  0.519778  0.011927  0.748266  1
  O  O9  1  0.478687  0.319042  0.908271  1
  F  F10  1  0.002216  0.344544  0.244810  1
  F  F11  1  0.997783  0.655456  0.755191  1
