# generated using pymatgen
data_Ca3(GaNi)2
_symmetry_space_group_name_H-M   'P 1'
_cell_length_a   5.74215900
_cell_length_b   7.83821200
_cell_length_c   13.24574100
_cell_angle_alpha   90.00000000
_cell_angle_beta   90.00000000
_cell_angle_gamma   90.00000000
_symmetry_Int_Tables_number   1
_chemical_formula_structural   Ca3(GaNi)2
_chemical_formula_sum   'Ca12 Ga8 Ni8'
_cell_volume   596.16774925
_cell_formula_units_Z   4
loop_
 _symmetry_equiv_pos_site_id
 _symmetry_equiv_pos_as_xyz
  1  'x, y, z'
loop_
 _atom_site_type_symbol
 _atom_site_label
 _atom_site_symmetry_multiplicity
 _atom_site_fract_x
 _atom_site_fract_y
 _atom_site_fract_z
 _atom_site_occupancy
  Ca  Ca0  1  0.142376  0.894573  0.598392  1
  Ca  Ca1  1  0.857624  0.105427  0.098392  1
  Ca  Ca2  1  0.142376  0.605427  0.401608  1
  Ca  Ca3  1  0.857624  0.394573  0.901608  1
  Ca  Ca4  1  0.857624  0.105427  0.401608  1
  Ca  Ca5  1  0.142376  0.894573  0.901608  1
  Ca  Ca6  1  0.857624  0.394573  0.598392  1
  Ca  Ca7  1  0.142376  0.605427  0.098392  1
  Ca  Ca8  1  0.357835  0.240628  0.750000  1
  Ca  Ca9  1  0.642165  0.759372  0.250000  1
  Ca  Ca10  1  0.357835  0.259372  0.250000  1
  Ca  Ca11  1  0.642165  0.740628  0.750000  1
  Ga  Ga12  1  0.833607  0.089775  0.750000  1
  Ga  Ga13  1  0.166393  0.910225  0.250000  1
  Ga  Ga14  1  0.833607  0.410225  0.250000  1
  Ga  Ga15  1  0.166393  0.589775  0.750000  1
  Ga  Ga16  1  0.382012  0.250000  0.500000  1
  Ga  Ga17  1  0.617988  0.750000  0.000000  1
  Ga  Ga18  1  0.617988  0.750000  0.500000  1
  Ga  Ga19  1  0.382012  0.250000  0.000000  1
  Ni  Ni20  1  0.625627  0.028826  0.589181  1
  Ni  Ni21  1  0.374373  0.971174  0.089181  1
  Ni  Ni22  1  0.625627  0.471174  0.410819  1
  Ni  Ni23  1  0.374373  0.528826  0.910819  1
  Ni  Ni24  1  0.374373  0.971174  0.410819  1
  Ni  Ni25  1  0.625627  0.028826  0.910819  1
  Ni  Ni26  1  0.374373  0.528826  0.589181  1
  Ni  Ni27  1  0.625627  0.471174  0.089181  1
