# generated using pymatgen
data_YHfCo4P3
_symmetry_space_group_name_H-M   'P 1'
_cell_length_a   3.69636800
_cell_length_b   10.66081900
_cell_length_c   12.11743700
_cell_angle_alpha   90.00000000
_cell_angle_beta   90.00000000
_cell_angle_gamma   90.00000000
_symmetry_Int_Tables_number   1
_chemical_formula_structural   YHfCo4P3
_chemical_formula_sum   'Y4 Hf4 Co16 P12'
_cell_volume   477.50348132
_cell_formula_units_Z   4
loop_
 _symmetry_equiv_pos_site_id
 _symmetry_equiv_pos_as_xyz
  1  'x, y, z'
loop_
 _atom_site_type_symbol
 _atom_site_label
 _atom_site_symmetry_multiplicity
 _atom_site_fract_x
 _atom_site_fract_y
 _atom_site_fract_z
 _atom_site_occupancy
  Y  Y0  1  0.250000  0.916704  0.207161  1
  Y  Y1  1  0.750000  0.083296  0.792839  1
  Y  Y2  1  0.750000  0.416704  0.292839  1
  Y  Y3  1  0.250000  0.583296  0.707161  1
  Hf  Hf4  1  0.250000  0.795805  0.489772  1
  Hf  Hf5  1  0.750000  0.204195  0.510228  1
  Hf  Hf6  1  0.750000  0.295805  0.010228  1
  Hf  Hf7  1  0.250000  0.704195  0.989772  1
  Co  Co8  1  0.250000  0.092365  0.991772  1
  Co  Co9  1  0.750000  0.907635  0.008228  1
  Co  Co10  1  0.750000  0.592365  0.508228  1
  Co  Co11  1  0.250000  0.407635  0.491772  1
  Co  Co12  1  0.250000  0.276655  0.674829  1
  Co  Co13  1  0.750000  0.723345  0.325171  1
  Co  Co14  1  0.750000  0.776655  0.825171  1
  Co  Co15  1  0.250000  0.223345  0.174829  1
  Co  Co16  1  0.250000  0.613846  0.203131  1
  Co  Co17  1  0.750000  0.386154  0.796869  1
  Co  Co18  1  0.750000  0.113846  0.296869  1
  Co  Co19  1  0.250000  0.886154  0.703131  1
  Co  Co20  1  0.250000  0.036603  0.431805  1
  Co  Co21  1  0.750000  0.963397  0.568195  1
  Co  Co22  1  0.750000  0.536603  0.068195  1
  Co  Co23  1  0.250000  0.463397  0.931805  1
  P  P24  1  0.250000  0.074233  0.616843  1
  P  P25  1  0.750000  0.925767  0.383157  1
  P  P26  1  0.750000  0.574233  0.883157  1
  P  P27  1  0.250000  0.425767  0.116843  1
  P  P28  1  0.250000  0.229018  0.356703  1
  P  P29  1  0.750000  0.770982  0.643297  1
  P  P30  1  0.750000  0.729018  0.143297  1
  P  P31  1  0.250000  0.270982  0.856703  1
  P  P32  1  0.250000  0.914391  0.889057  1
  P  P33  1  0.750000  0.085609  0.110943  1
  P  P34  1  0.750000  0.414391  0.610943  1
  P  P35  1  0.250000  0.585609  0.389057  1
