# generated using pymatgen
data_Ho3Er3(Sc2Sn3)2
_symmetry_space_group_name_H-M   'P 1'
_cell_length_a   8.76097910
_cell_length_b   8.75654961
_cell_length_c   6.25692000
_cell_angle_alpha   90.00000000
_cell_angle_beta   90.00000000
_cell_angle_gamma   119.99981893
_symmetry_Int_Tables_number   1
_chemical_formula_structural   Ho3Er3(Sc2Sn3)2
_chemical_formula_sum   'Ho3 Er3 Sc4 Sn6'
_cell_volume   415.69775883
_cell_formula_units_Z   1
loop_
 _symmetry_equiv_pos_site_id
 _symmetry_equiv_pos_as_xyz
  1  'x, y, z'
loop_
 _atom_site_type_symbol
 _atom_site_label
 _atom_site_symmetry_multiplicity
 _atom_site_fract_x
 _atom_site_fract_y
 _atom_site_fract_z
 _atom_site_occupancy
  Ho  Ho0  1  0.000069  0.761259  0.750000  1
  Ho  Ho1  1  0.000027  0.238786  0.250000  1
  Ho  Ho2  1  0.761096  0.761138  0.250000  1
  Er  Er3  1  0.761009  0.000040  0.750000  1
  Er  Er4  1  0.238908  0.238854  0.750000  1
  Er  Er5  1  0.238995  0.000028  0.250000  1
  Sc  Sc6  1  0.333326  0.666658  0.500017  1
  Sc  Sc7  1  0.666650  0.333310  0.999983  1
  Sc  Sc8  1  0.666650  0.333310  0.500017  1
  Sc  Sc9  1  0.333326  0.666658  0.999983  1
  Sn  Sn10  1  0.399573  0.000130  0.750000  1
  Sn  Sn11  1  0.399451  0.399335  0.250000  1
  Sn  Sn12  1  0.000120  0.600672  0.250000  1
  Sn  Sn13  1  0.000008  0.399266  0.750000  1
  Sn  Sn14  1  0.600418  0.600539  0.750000  1
  Sn  Sn15  1  0.600375  0.000017  0.250000  1
