# generated using pymatgen
data_PrNd5RuI10
_symmetry_space_group_name_H-M   'P 1'
_cell_length_a   8.02814924
_cell_length_b   9.89024429
_cell_length_c   10.20731766
_cell_angle_alpha   108.17188842
_cell_angle_beta   96.99084372
_cell_angle_gamma   105.06197031
_symmetry_Int_Tables_number   1
_chemical_formula_structural   PrNd5RuI10
_chemical_formula_sum   'Pr1 Nd5 Ru1 I10'
_cell_volume   725.20402285
_cell_formula_units_Z   1
loop_
 _symmetry_equiv_pos_site_id
 _symmetry_equiv_pos_as_xyz
  1  'x, y, z'
loop_
 _atom_site_type_symbol
 _atom_site_label
 _atom_site_symmetry_multiplicity
 _atom_site_fract_x
 _atom_site_fract_y
 _atom_site_fract_z
 _atom_site_occupancy
  Pr  Pr0  1  0.969900  0.274102  0.083226  1
  Nd  Nd1  1  0.121935  0.046039  0.756459  1
  Nd  Nd2  1  0.640118  0.866211  0.824414  1
  Nd  Nd3  1  0.877358  0.953795  0.243153  1
  Nd  Nd4  1  0.030229  0.726991  0.917226  1
  Nd  Nd5  1  0.359976  0.133292  0.175584  1
  Ru  Ru6  1  0.999937  0.999782  0.999930  1
  I  I7  1  0.208120  0.739354  0.650635  1
  I  I8  1  0.646480  0.540586  0.726055  1
  I  I9  1  0.256370  0.084554  0.457001  1
  I  I10  1  0.790909  0.261061  0.350193  1
  I  I11  1  0.550638  0.184369  0.915821  1
  I  I12  1  0.742391  0.914106  0.542427  1
  I  I13  1  0.910144  0.628935  0.172351  1
  I  I14  1  0.356502  0.460132  0.274737  1
  I  I15  1  0.090730  0.372032  0.827068  1
  I  I16  1  0.448262  0.814659  0.083719  1
