# generated using pymatgen
data_Zr2Co7Ni3Mo2P7
_symmetry_space_group_name_H-M   'P 1'
_cell_length_a   8.98029271
_cell_length_b   8.96581194
_cell_length_c   3.65717700
_cell_angle_alpha   90.00000000
_cell_angle_beta   90.00000000
_cell_angle_gamma   119.61396008
_symmetry_Int_Tables_number   1
_chemical_formula_structural   Zr2Co7Ni3Mo2P7
_chemical_formula_sum   'Zr2 Co7 Ni3 Mo2 P7'
_cell_volume   255.99590769
_cell_formula_units_Z   1
loop_
 _symmetry_equiv_pos_site_id
 _symmetry_equiv_pos_as_xyz
  1  'x, y, z'
loop_
 _atom_site_type_symbol
 _atom_site_label
 _atom_site_symmetry_multiplicity
 _atom_site_fract_x
 _atom_site_fract_y
 _atom_site_fract_z
 _atom_site_occupancy
  Zr  Zr0  1  0.000273  0.004843  0.000000  1
  Zr  Zr1  1  0.328690  0.663878  0.500000  1
  Co  Co2  1  0.293501  0.397041  0.000000  1
  Co  Co3  1  0.101468  0.703060  0.000000  1
  Co  Co4  1  0.379922  0.167238  0.000000  1
  Co  Co5  1  0.793326  0.624436  0.000000  1
  Co  Co6  1  0.832809  0.210924  0.000000  1
  Co  Co7  1  0.228524  0.942256  0.500000  1
  Co  Co8  1  0.055906  0.281131  0.500000  1
  Ni  Ni9  1  0.720092  0.778375  0.500000  1
  Ni  Ni10  1  0.571169  0.110580  0.500000  1
  Ni  Ni11  1  0.597732  0.894081  0.000000  1
  Mo  Mo12  1  0.885778  0.459197  0.500000  1
  Mo  Mo13  1  0.547514  0.430882  0.500000  1
  P  P14  1  0.662204  0.325266  0.000000  1
  P  P15  1  0.082416  0.448043  0.000000  1
  P  P16  1  0.257575  0.210012  0.500000  1
  P  P17  1  0.787802  0.052612  0.500000  1
  P  P18  1  0.959457  0.748306  0.500000  1
  P  P19  1  0.547784  0.628574  0.000000  1
  P  P20  1  0.366056  0.919268  0.000000  1
