# generated using pymatgen
data_Ta4Co3Si4Ru
_symmetry_space_group_name_H-M   'P 1'
_cell_length_a   6.27833052
_cell_length_b   3.70127500
_cell_length_c   7.11969540
_cell_angle_alpha   90.00000000
_cell_angle_beta   89.82328919
_cell_angle_gamma   90.00000000
_symmetry_Int_Tables_number   1
_chemical_formula_structural   Ta4Co3Si4Ru
_chemical_formula_sum   'Ta4 Co3 Si4 Ru1'
_cell_volume   165.44546886
_cell_formula_units_Z   1
loop_
 _symmetry_equiv_pos_site_id
 _symmetry_equiv_pos_as_xyz
  1  'x, y, z'
loop_
 _atom_site_type_symbol
 _atom_site_label
 _atom_site_symmetry_multiplicity
 _atom_site_fract_x
 _atom_site_fract_y
 _atom_site_fract_z
 _atom_site_occupancy
  Ta  Ta0  1  0.017786  0.250000  0.821037  1
  Ta  Ta1  1  0.525441  0.250000  0.681079  1
  Ta  Ta2  1  0.979278  0.750000  0.175651  1
  Ta  Ta3  1  0.478672  0.750000  0.320438  1
  Co  Co4  1  0.643079  0.250000  0.061852  1
  Co  Co5  1  0.850713  0.750000  0.565607  1
  Co  Co6  1  0.360196  0.750000  0.937295  1
  Si  Si7  1  0.768821  0.250000  0.379396  1
  Si  Si8  1  0.279298  0.250000  0.110475  1
  Si  Si9  1  0.228910  0.750000  0.629197  1
  Si  Si10  1  0.724165  0.750000  0.882229  1
  Ru  Ru11  1  0.143641  0.250000  0.435745  1
