# generated using pymatgen
data_Er8Be2ZnSi12Rh
_symmetry_space_group_name_H-M   'P 1'
_cell_length_a   7.95677400
_cell_length_b   7.95677451
_cell_length_c   7.98512300
_cell_angle_alpha   90.00000000
_cell_angle_beta   90.00000000
_cell_angle_gamma   119.99999790
_symmetry_Int_Tables_number   1
_chemical_formula_structural   Er8Be2ZnSi12Rh
_chemical_formula_sum   'Er8 Be2 Zn1 Si12 Rh1'
_cell_volume   437.81065246
_cell_formula_units_Z   1
loop_
 _symmetry_equiv_pos_site_id
 _symmetry_equiv_pos_as_xyz
  1  'x, y, z'
loop_
 _atom_site_type_symbol
 _atom_site_label
 _atom_site_symmetry_multiplicity
 _atom_site_fract_x
 _atom_site_fract_y
 _atom_site_fract_z
 _atom_site_occupancy
  Er  Er0  1  0.000000  0.000000  0.245572  1
  Er  Er1  1  0.000000  0.000000  0.754675  1
  Er  Er2  1  0.497534  0.502466  0.246226  1
  Er  Er3  1  0.497534  0.995068  0.246226  1
  Er  Er4  1  0.004932  0.502466  0.246226  1
  Er  Er5  1  0.499654  0.500346  0.753926  1
  Er  Er6  1  0.000693  0.500346  0.753926  1
  Er  Er7  1  0.499654  0.999307  0.753926  1
  Be  Be8  1  0.666667  0.333333  0.002052  1
  Be  Be9  1  0.333333  0.666667  0.995190  1
  Zn  Zn10  1  0.666667  0.333333  0.497619  1
  Si  Si11  1  0.836765  0.163235  0.498854  1
  Si  Si12  1  0.836765  0.673530  0.498854  1
  Si  Si13  1  0.326470  0.163235  0.498854  1
  Si  Si14  1  0.826937  0.173063  0.000864  1
  Si  Si15  1  0.826937  0.653876  0.000864  1
  Si  Si16  1  0.346124  0.173063  0.000864  1
  Si  Si17  1  0.172705  0.827295  0.999711  1
  Si  Si18  1  0.654591  0.827295  0.999711  1
  Si  Si19  1  0.172705  0.345409  0.999711  1
  Si  Si20  1  0.169636  0.830364  0.500818  1
  Si  Si21  1  0.660730  0.830364  0.500818  1
  Si  Si22  1  0.169636  0.339270  0.500818  1
  Rh  Rh23  1  0.333333  0.666667  0.503694  1
