# generated using pymatgen
data_Li7Ho8GaPt8
_symmetry_space_group_name_H-M   'P 1'
_cell_length_a   9.35345049
_cell_length_b   7.96354254
_cell_length_c   7.02980200
_cell_angle_alpha   90.08779050
_cell_angle_beta   89.90268819
_cell_angle_gamma   115.40654405
_symmetry_Int_Tables_number   1
_chemical_formula_structural   Li7Ho8GaPt8
_chemical_formula_sum   'Li7 Ho8 Ga1 Pt8'
_cell_volume   472.98337126
_cell_formula_units_Z   1
loop_
 _symmetry_equiv_pos_site_id
 _symmetry_equiv_pos_as_xyz
  1  'x, y, z'
loop_
 _atom_site_type_symbol
 _atom_site_label
 _atom_site_symmetry_multiplicity
 _atom_site_fract_x
 _atom_site_fract_y
 _atom_site_fract_z
 _atom_site_occupancy
  Li  Li0  1  0.194785  0.847335  0.374139  1
  Li  Li1  1  0.693783  0.846783  0.121837  1
  Li  Li2  1  0.806834  0.654065  0.874944  1
  Li  Li3  1  0.807933  0.153902  0.874024  1
  Li  Li4  1  0.304422  0.153449  0.621228  1
  Li  Li5  1  0.304842  0.651865  0.618619  1
  Li  Li6  1  0.693186  0.346045  0.120679  1
  Ho  Ho7  1  0.569472  0.035815  0.443064  1
  Ho  Ho8  1  0.568797  0.534311  0.447071  1
  Ho  Ho9  1  0.929613  0.464883  0.545950  1
  Ho  Ho10  1  0.431328  0.964608  0.946361  1
  Ho  Ho11  1  0.428894  0.464214  0.947675  1
  Ho  Ho12  1  0.072356  0.535299  0.051917  1
  Ho  Ho13  1  0.930612  0.964419  0.547115  1
  Ho  Ho14  1  0.072831  0.037744  0.052207  1
  Ga  Ga15  1  0.190702  0.344603  0.375910  1
  Pt  Pt16  1  0.126021  0.314583  0.751908  1
  Pt  Pt17  1  0.121126  0.810600  0.757372  1
  Pt  Pt18  1  0.622526  0.810741  0.737255  1
  Pt  Pt19  1  0.878371  0.689260  0.255525  1
  Pt  Pt20  1  0.878754  0.189366  0.254717  1
  Pt  Pt21  1  0.374476  0.189907  0.241868  1
  Pt  Pt22  1  0.375582  0.683301  0.242441  1
  Pt  Pt23  1  0.622756  0.312904  0.738145  1
