# generated using pymatgen
data_Sm6Mg3Re6WN24
_symmetry_space_group_name_H-M   'P 1'
_cell_length_a   11.23100347
_cell_length_b   11.14457700
_cell_length_c   11.23100353
_cell_angle_alpha   109.31540887
_cell_angle_beta   109.62658469
_cell_angle_gamma   109.31540794
_symmetry_Int_Tables_number   1
_chemical_formula_structural   Sm6Mg3Re6WN24
_chemical_formula_sum   'Sm12 Mg6 Re12 W2 N48'
_cell_volume   1084.20228756
_cell_formula_units_Z   2
loop_
 _symmetry_equiv_pos_site_id
 _symmetry_equiv_pos_as_xyz
  1  'x, y, z'
loop_
 _atom_site_type_symbol
 _atom_site_label
 _atom_site_symmetry_multiplicity
 _atom_site_fract_x
 _atom_site_fract_y
 _atom_site_fract_z
 _atom_site_occupancy
  Sm  Sm0  1  0.252052  0.376026  0.126026  1
  Sm  Sm1  1  0.373974  0.750000  0.126026  1
  Sm  Sm2  1  0.373974  0.123974  0.247948  1
  Sm  Sm3  1  0.873666  0.623666  0.247332  1
  Sm  Sm4  1  0.747332  0.123666  0.373666  1
  Sm  Sm5  1  0.126334  0.250000  0.373666  1
  Sm  Sm6  1  0.873666  0.750000  0.626335  1
  Sm  Sm7  1  0.252668  0.876334  0.626334  1
  Sm  Sm8  1  0.126334  0.376334  0.752668  1
  Sm  Sm9  1  0.626027  0.876026  0.752052  1
  Sm  Sm10  1  0.626026  0.250000  0.873974  1
  Sm  Sm11  1  0.747948  0.623975  0.873974  1
  Mg  Mg12  1  0.000000  0.000000  0.000000  1
  Mg  Mg13  1  0.500000  0.000000  0.000000  1
  Mg  Mg14  1  0.000000  0.500000  0.000000  1
  Mg  Mg15  1  0.500000  0.500000  0.000000  1
  Mg  Mg16  1  0.500000  0.000000  0.500000  1
  Mg  Mg17  1  0.500000  0.500000  0.500000  1
  Re  Re18  1  0.873603  0.252180  0.126070  1
  Re  Re19  1  0.752467  0.873890  0.126070  1
  Re  Re20  1  0.626071  0.373890  0.252467  1
  Re  Re21  1  0.126397  0.878578  0.252466  1
  Re  Re22  1  0.247533  0.621423  0.373603  1
  Re  Re23  1  0.626070  0.752181  0.373603  1
  Re  Re24  1  0.373930  0.247819  0.626398  1
  Re  Re25  1  0.752467  0.378578  0.626397  1
  Re  Re26  1  0.873603  0.121422  0.747533  1
  Re  Re27  1  0.373930  0.626110  0.747533  1
  Re  Re28  1  0.247532  0.126110  0.873930  1
  Re  Re29  1  0.126397  0.747819  0.873930  1
  W  W30  1  0.000000  0.000000  0.500000  1
  W  W31  1  0.000000  0.500000  0.500000  1
  N  N32  1  0.212328  0.121521  0.018803  1
  N  N33  1  0.306476  0.897283  0.018803  1
  N  N34  1  0.880774  0.400449  0.090543  1
  N  N35  1  0.709769  0.690096  0.090544  1
  N  N36  1  0.622062  0.410062  0.105607  1
  N  N37  1  0.983546  0.695546  0.105608  1
  N  N38  1  0.016455  0.212001  0.122062  1
  N  N39  1  0.605608  0.910062  0.122063  1
  N  N40  1  0.212329  0.590807  0.193524  1
  N  N41  1  0.481197  0.602717  0.193524  1
  N  N42  1  0.119225  0.019674  0.209769  1
  N  N43  1  0.590544  0.190095  0.209770  1
  N  N44  1  0.481197  0.378478  0.287672  1
  N  N45  1  0.306476  0.909193  0.287672  1
  N  N46  1  0.904608  0.017917  0.321427  1
  N  N47  1  0.916819  0.303510  0.321427  1
  N  N48  1  0.290231  0.480326  0.380774  1
  N  N49  1  0.590544  0.900449  0.380775  1
  N  N50  1  0.821427  0.517917  0.404607  1
  N  N51  1  0.083180  0.886690  0.404607  1
  N  N52  1  0.095392  0.613309  0.416819  1
  N  N53  1  0.821427  0.803510  0.416819  1
  N  N54  1  0.605607  0.195545  0.483545  1
  N  N55  1  0.377937  0.287999  0.483545  1
  N  N56  1  0.622062  0.712001  0.516455  1
  N  N57  1  0.394392  0.804455  0.516455  1
  N  N58  1  0.178573  0.196491  0.583181  1
  N  N59  1  0.904607  0.386691  0.583181  1
  N  N60  1  0.916819  0.113310  0.595393  1
  N  N61  1  0.178573  0.482083  0.595392  1
  N  N62  1  0.409456  0.099550  0.619225  1
  N  N63  1  0.709769  0.519674  0.619225  1
  N  N64  1  0.095393  0.982084  0.678574  1
  N  N65  1  0.083181  0.696490  0.678574  1
  N  N66  1  0.693525  0.090807  0.712328  1
  N  N67  1  0.518803  0.621521  0.712328  1
  N  N68  1  0.409456  0.809905  0.790231  1
  N  N69  1  0.880774  0.980326  0.790230  1
  N  N70  1  0.518803  0.397282  0.806476  1
  N  N71  1  0.787672  0.409193  0.806476  1
  N  N72  1  0.983545  0.787998  0.877937  1
  N  N73  1  0.394392  0.089937  0.877937  1
  N  N74  1  0.016455  0.304455  0.894393  1
  N  N75  1  0.377938  0.589938  0.894392  1
  N  N76  1  0.290231  0.309905  0.909456  1
  N  N77  1  0.119226  0.599551  0.909456  1
  N  N78  1  0.693525  0.102718  0.981198  1
  N  N79  1  0.787671  0.878478  0.981197  1
