# generated using pymatgen
data_Tb3MnCoP6Ir7
_symmetry_space_group_name_H-M   'P 1'
_cell_length_a   3.91660500
_cell_length_b   11.12529800
_cell_length_c   12.75621200
_cell_angle_alpha   90.00000000
_cell_angle_beta   90.00000000
_cell_angle_gamma   90.00000000
_symmetry_Int_Tables_number   1
_chemical_formula_structural   Tb3MnCoP6Ir7
_chemical_formula_sum   'Tb6 Mn2 Co2 P12 Ir14'
_cell_volume   555.83149956
_cell_formula_units_Z   2
loop_
 _symmetry_equiv_pos_site_id
 _symmetry_equiv_pos_as_xyz
  1  'x, y, z'
loop_
 _atom_site_type_symbol
 _atom_site_label
 _atom_site_symmetry_multiplicity
 _atom_site_fract_x
 _atom_site_fract_y
 _atom_site_fract_z
 _atom_site_occupancy
  Tb  Tb0  1  0.000000  0.500000  0.519638  1
  Tb  Tb1  1  0.500000  0.000000  0.480362  1
  Tb  Tb2  1  0.500000  0.817917  0.200661  1
  Tb  Tb3  1  0.500000  0.182083  0.200661  1
  Tb  Tb4  1  0.000000  0.682083  0.799339  1
  Tb  Tb5  1  0.000000  0.317917  0.799339  1
  Mn  Mn6  1  0.500000  0.500000  0.170013  1
  Mn  Mn7  1  0.000000  0.000000  0.829987  1
  Co  Co8  1  0.000000  0.500000  0.983349  1
  Co  Co9  1  0.500000  0.000000  0.016651  1
  P  P10  1  0.500000  0.500000  0.882975  1
  P  P11  1  0.000000  0.000000  0.117025  1
  P  P12  1  0.500000  0.500000  0.348250  1
  P  P13  1  0.000000  0.000000  0.651750  1
  P  P14  1  0.500000  0.314447  0.619187  1
  P  P15  1  0.500000  0.685553  0.619187  1
  P  P16  1  0.000000  0.185553  0.380813  1
  P  P17  1  0.000000  0.814447  0.380813  1
  P  P18  1  0.500000  0.851654  0.895383  1
  P  P19  1  0.500000  0.148346  0.895383  1
  P  P20  1  0.000000  0.648346  0.104617  1
  P  P21  1  0.000000  0.351654  0.104617  1
  Ir  Ir22  1  0.500000  0.500000  0.702844  1
  Ir  Ir23  1  0.000000  0.000000  0.297156  1
  Ir  Ir24  1  0.500000  0.337534  0.998775  1
  Ir  Ir25  1  0.500000  0.662466  0.998775  1
  Ir  Ir26  1  0.000000  0.162466  0.001225  1
  Ir  Ir27  1  0.000000  0.837534  0.001225  1
  Ir  Ir28  1  0.500000  0.293222  0.429402  1
  Ir  Ir29  1  0.500000  0.706778  0.429402  1
  Ir  Ir30  1  0.000000  0.206778  0.570598  1
  Ir  Ir31  1  0.000000  0.793222  0.570598  1
  Ir  Ir32  1  0.500000  0.872919  0.715653  1
  Ir  Ir33  1  0.500000  0.127081  0.715653  1
  Ir  Ir34  1  0.000000  0.627081  0.284347  1
  Ir  Ir35  1  0.000000  0.372919  0.284347  1
