# generated using pymatgen
data_Tm18Zr2Ir11Pt
_symmetry_space_group_name_H-M   'P 1'
_cell_length_a   10.76849918
_cell_length_b   10.76849918
_cell_length_c   6.25753306
_cell_angle_alpha   89.98911134
_cell_angle_beta   89.98911134
_cell_angle_gamma   89.70313693
_symmetry_Int_Tables_number   1
_chemical_formula_structural   Tm18Zr2Ir11Pt
_chemical_formula_sum   'Tm18 Zr2 Ir11 Pt1'
_cell_volume   725.61736337
_cell_formula_units_Z   1
loop_
 _symmetry_equiv_pos_site_id
 _symmetry_equiv_pos_as_xyz
  1  'x, y, z'
loop_
 _atom_site_type_symbol
 _atom_site_label
 _atom_site_symmetry_multiplicity
 _atom_site_fract_x
 _atom_site_fract_y
 _atom_site_fract_z
 _atom_site_occupancy
  Tm  Tm0  1  0.289767  0.086103  0.375160  1
  Tm  Tm1  1  0.289682  0.913529  0.874634  1
  Tm  Tm2  1  0.710676  0.083013  0.875186  1
  Tm  Tm3  1  0.710258  0.913529  0.374915  1
  Tm  Tm4  1  0.587482  0.792449  0.874701  1
  Tm  Tm5  1  0.586010  0.205050  0.371455  1
  Tm  Tm6  1  0.412339  0.793393  0.374142  1
  Tm  Tm7  1  0.409474  0.205688  0.875939  1
  Tm  Tm8  1  0.207551  0.412518  0.625299  1
  Tm  Tm9  1  0.206607  0.587661  0.125858  1
  Tm  Tm10  1  0.794950  0.413990  0.128545  1
  Tm  Tm11  1  0.794312  0.590526  0.624061  1
  Tm  Tm12  1  0.913897  0.710233  0.124840  1
  Tm  Tm13  1  0.916987  0.289324  0.624814  1
  Tm  Tm14  1  0.086471  0.710318  0.625366  1
  Tm  Tm15  1  0.086471  0.289742  0.125085  1
  Tm  Tm16  1  0.498407  0.501377  0.000816  1
  Tm  Tm17  1  0.498623  0.501593  0.499184  1
  Zr  Zr18  1  0.000045  0.999965  0.499752  1
  Zr  Zr19  1  0.000035  0.999955  0.000248  1
  Ir  Ir20  1  0.853098  0.146902  0.250000  1
  Ir  Ir21  1  0.853755  0.854025  0.750059  1
  Ir  Ir22  1  0.145975  0.146245  0.749941  1
  Ir  Ir23  1  0.146082  0.853918  0.250000  1
  Ir  Ir24  1  0.654537  0.653493  0.250002  1
  Ir  Ir25  1  0.346507  0.345463  0.249998  1
  Ir  Ir26  1  0.345202  0.654798  0.750000  1
  Ir  Ir27  1  0.500189  0.000208  0.120738  1
  Ir  Ir28  1  0.500036  0.000292  0.622254  1
  Ir  Ir29  1  0.999708  0.499964  0.877746  1
  Ir  Ir30  1  0.999792  0.499811  0.379262  1
  Pt  Pt31  1  0.655072  0.344928  0.750000  1
