# generated using pymatgen
data_KRb(SnSe2)4
_symmetry_space_group_name_H-M   'P 1'
_cell_length_a   10.27605162
_cell_length_b   10.30928007
_cell_length_c   7.64776499
_cell_angle_alpha   87.51575041
_cell_angle_beta   89.00566683
_cell_angle_gamma   141.98499694
_symmetry_Int_Tables_number   1
_chemical_formula_structural   KRb(SnSe2)4
_chemical_formula_sum   'K1 Rb1 Sn4 Se8'
_cell_volume   496.75413998
_cell_formula_units_Z   1
loop_
 _symmetry_equiv_pos_site_id
 _symmetry_equiv_pos_as_xyz
  1  'x, y, z'
loop_
 _atom_site_type_symbol
 _atom_site_label
 _atom_site_symmetry_multiplicity
 _atom_site_fract_x
 _atom_site_fract_y
 _atom_site_fract_z
 _atom_site_occupancy
  K  K0  1  0.032826  0.347520  0.964078  1
  Rb  Rb1  1  0.343744  0.029753  0.968207  1
  Sn  Sn2  1  0.588056  0.589767  0.376165  1
  Sn  Sn3  1  0.482776  0.858727  0.555448  1
  Sn  Sn4  1  0.858557  0.481139  0.556042  1
  Sn  Sn5  1  0.685273  0.686511  0.868921  1
  Se  Se6  1  0.495048  0.113392  0.462240  1
  Se  Se7  1  0.114257  0.495808  0.462634  1
  Se  Se8  1  0.368647  0.372174  0.121816  1
  Se  Se9  1  0.758009  0.953815  0.352057  1
  Se  Se10  1  0.375194  0.376354  0.667091  1
  Se  Se11  1  0.858661  0.529288  0.873850  1
  Se  Se12  1  0.534655  0.855357  0.874890  1
  Se  Se13  1  0.951295  0.757392  0.353162  1
