# generated using pymatgen
data_Y5Th(Si2Ni)2
_symmetry_space_group_name_H-M   'P 1'
_cell_length_a   4.16667100
_cell_length_b   11.40484000
_cell_length_c   11.28244400
_cell_angle_alpha   90.00000000
_cell_angle_beta   90.00000000
_cell_angle_gamma   90.00000000
_symmetry_Int_Tables_number   1
_chemical_formula_structural   Y5Th(Si2Ni)2
_chemical_formula_sum   'Y10 Th2 Si8 Ni4'
_cell_volume   536.14417688
_cell_formula_units_Z   2
loop_
 _symmetry_equiv_pos_site_id
 _symmetry_equiv_pos_as_xyz
  1  'x, y, z'
loop_
 _atom_site_type_symbol
 _atom_site_label
 _atom_site_symmetry_multiplicity
 _atom_site_fract_x
 _atom_site_fract_y
 _atom_site_fract_z
 _atom_site_occupancy
  Y  Y0  1  0.750000  0.939329  0.118051  1
  Y  Y1  1  0.750000  0.560671  0.618051  1
  Y  Y2  1  0.250000  0.120517  0.558934  1
  Y  Y3  1  0.250000  0.379483  0.058934  1
  Y  Y4  1  0.750000  0.875740  0.438948  1
  Y  Y5  1  0.750000  0.624260  0.938948  1
  Y  Y6  1  0.250000  0.804334  0.711730  1
  Y  Y7  1  0.250000  0.695666  0.211730  1
  Y  Y8  1  0.750000  0.192868  0.289550  1
  Y  Y9  1  0.750000  0.307132  0.789550  1
  Th  Th10  1  0.250000  0.060777  0.884937  1
  Th  Th11  1  0.250000  0.439223  0.384937  1
  Si  Si12  1  0.250000  0.809460  0.974019  1
  Si  Si13  1  0.250000  0.690540  0.474019  1
  Si  Si14  1  0.750000  0.191469  0.029966  1
  Si  Si15  1  0.750000  0.308531  0.529966  1
  Si  Si16  1  0.250000  0.492576  0.802686  1
  Si  Si17  1  0.250000  0.007424  0.302686  1
  Si  Si18  1  0.750000  0.510127  0.192660  1
  Si  Si19  1  0.750000  0.989873  0.692660  1
  Ni  Ni20  1  0.250000  0.363764  0.628338  1
  Ni  Ni21  1  0.250000  0.136236  0.128338  1
  Ni  Ni22  1  0.750000  0.632135  0.370180  1
  Ni  Ni23  1  0.750000  0.867865  0.870180  1
