# generated using pymatgen
data_Nd2Er2ReTcB12
_symmetry_space_group_name_H-M   'P 1'
_cell_length_a   3.72276100
_cell_length_b   9.22048866
_cell_length_c   11.67763719
_cell_angle_alpha   90.03331620
_cell_angle_beta   90.00000000
_cell_angle_gamma   90.00000000
_symmetry_Int_Tables_number   1
_chemical_formula_structural   Nd2Er2ReTcB12
_chemical_formula_sum   'Nd4 Er4 Re2 Tc2 B24'
_cell_volume   400.84271798
_cell_formula_units_Z   2
loop_
 _symmetry_equiv_pos_site_id
 _symmetry_equiv_pos_as_xyz
  1  'x, y, z'
loop_
 _atom_site_type_symbol
 _atom_site_label
 _atom_site_symmetry_multiplicity
 _atom_site_fract_x
 _atom_site_fract_y
 _atom_site_fract_z
 _atom_site_occupancy
  Nd  Nd0  1  0.000000  0.323083  0.414522  1
  Nd  Nd1  1  0.000000  0.676917  0.585478  1
  Nd  Nd2  1  0.000000  0.822700  0.085685  1
  Nd  Nd3  1  0.000000  0.177300  0.914315  1
  Er  Er4  1  0.000000  0.942062  0.369146  1
  Er  Er5  1  0.000000  0.057938  0.630854  1
  Er  Er6  1  0.000000  0.443575  0.131328  1
  Er  Er7  1  0.000000  0.556425  0.868672  1
  Re  Re8  1  0.000000  0.139548  0.181066  1
  Re  Re9  1  0.000000  0.860452  0.818934  1
  Tc  Tc10  1  0.000000  0.640010  0.318969  1
  Tc  Tc11  1  0.000000  0.359990  0.681031  1
  B  B12  1  0.500000  0.555218  0.430343  1
  B  B13  1  0.500000  0.444782  0.569657  1
  B  B14  1  0.500000  0.055190  0.069514  1
  B  B15  1  0.500000  0.944810  0.930486  1
  B  B16  1  0.500000  0.749985  0.415864  1
  B  B17  1  0.500000  0.250015  0.584136  1
  B  B18  1  0.500000  0.250580  0.084113  1
  B  B19  1  0.500000  0.749420  0.915887  1
  B  B20  1  0.500000  0.791592  0.266005  1
  B  B21  1  0.500000  0.208408  0.733995  1
  B  B22  1  0.500000  0.291757  0.234163  1
  B  B23  1  0.500000  0.708243  0.765837  1
  B  B24  1  0.500000  0.629416  0.186331  1
  B  B25  1  0.500000  0.370584  0.813669  1
  B  B26  1  0.500000  0.129305  0.314074  1
  B  B27  1  0.500000  0.870695  0.685926  1
  B  B28  1  0.500000  0.983619  0.213191  1
  B  B29  1  0.500000  0.016381  0.786809  1
  B  B30  1  0.500000  0.483977  0.286969  1
  B  B31  1  0.500000  0.516023  0.713031  1
  B  B32  1  0.500000  0.595816  0.026268  1
  B  B33  1  0.500000  0.404184  0.973732  1
  B  B34  1  0.500000  0.095676  0.473401  1
  B  B35  1  0.500000  0.904324  0.526599  1
