# generated using pymatgen
data_Er4Tc7Mo
_symmetry_space_group_name_H-M   'P 1'
_cell_length_a   5.40607000
_cell_length_b   5.40607004
_cell_length_c   8.74825000
_cell_angle_alpha   90.00000000
_cell_angle_beta   90.00000000
_cell_angle_gamma   119.99999976
_symmetry_Int_Tables_number   1
_chemical_formula_structural   Er4Tc7Mo
_chemical_formula_sum   'Er4 Tc7 Mo1'
_cell_volume   221.41913560
_cell_formula_units_Z   1
loop_
 _symmetry_equiv_pos_site_id
 _symmetry_equiv_pos_as_xyz
  1  'x, y, z'
loop_
 _atom_site_type_symbol
 _atom_site_label
 _atom_site_symmetry_multiplicity
 _atom_site_fract_x
 _atom_site_fract_y
 _atom_site_fract_z
 _atom_site_occupancy
  Er  Er0  1  0.333333  0.666667  0.435738  1
  Er  Er1  1  0.666667  0.333333  0.564262  1
  Er  Er2  1  0.666667  0.333333  0.937899  1
  Er  Er3  1  0.333333  0.666667  0.062101  1
  Tc  Tc4  1  0.000000  0.000000  0.000000  1
  Tc  Tc5  1  0.828410  0.171590  0.250257  1
  Tc  Tc6  1  0.828410  0.656822  0.250257  1
  Tc  Tc7  1  0.343178  0.171590  0.250257  1
  Tc  Tc8  1  0.171590  0.828410  0.749743  1
  Tc  Tc9  1  0.171590  0.343178  0.749743  1
  Tc  Tc10  1  0.656822  0.828410  0.749743  1
  Mo  Mo11  1  0.000000  0.000000  0.500000  1
