# generated using pymatgen
data_Dy2Ta3Nb(B2Ru5)2
_symmetry_space_group_name_H-M   'P 1'
_cell_length_a   9.57039051
_cell_length_b   9.57039054
_cell_length_c   3.08800300
_cell_angle_alpha   90.00000000
_cell_angle_beta   90.00000000
_cell_angle_gamma   90.61599583
_symmetry_Int_Tables_number   1
_chemical_formula_structural   Dy2Ta3Nb(B2Ru5)2
_chemical_formula_sum   'Dy2 Ta3 Nb1 B4 Ru10'
_cell_volume   282.82118222
_cell_formula_units_Z   1
loop_
 _symmetry_equiv_pos_site_id
 _symmetry_equiv_pos_as_xyz
  1  'x, y, z'
loop_
 _atom_site_type_symbol
 _atom_site_label
 _atom_site_symmetry_multiplicity
 _atom_site_fract_x
 _atom_site_fract_y
 _atom_site_fract_z
 _atom_site_occupancy
  Dy  Dy0  1  0.823839  0.676106  0.000000  1
  Dy  Dy1  1  0.176106  0.323839  0.000000  1
  Ta  Ta2  1  0.324228  0.824228  0.000000  1
  Ta  Ta3  1  0.500136  0.499964  0.000000  1
  Ta  Ta4  1  0.999964  0.000136  0.000000  1
  Nb  Nb5  1  0.675504  0.175504  0.000000  1
  B  B6  1  0.620533  0.879662  0.000000  1
  B  B7  1  0.379662  0.120533  0.000000  1
  B  B8  1  0.121132  0.621132  0.000000  1
  B  B9  1  0.878807  0.378807  0.000000  1
  Ru  Ru10  1  0.559095  0.722871  0.500000  1
  Ru  Ru11  1  0.439825  0.277083  0.500000  1
  Ru  Ru12  1  0.082370  0.785721  0.500000  1
  Ru  Ru13  1  0.919108  0.214691  0.500000  1
  Ru  Ru14  1  0.285721  0.582370  0.500000  1
  Ru  Ru15  1  0.714691  0.419108  0.500000  1
  Ru  Ru16  1  0.222871  0.059095  0.500000  1
  Ru  Ru17  1  0.777083  0.939825  0.500000  1
  Ru  Ru18  1  0.499015  0.999015  0.500000  1
  Ru  Ru19  1  0.000310  0.500310  0.500000  1
