# generated using pymatgen
data_Tb5PrAl18(Si3Ru4)2
_symmetry_space_group_name_H-M   'P 1'
_cell_length_a   8.69173100
_cell_length_b   8.66898900
_cell_length_c   9.55507800
_cell_angle_alpha   90.00000000
_cell_angle_beta   90.00000000
_cell_angle_gamma   120.07480782
_symmetry_Int_Tables_number   1
_chemical_formula_structural   Tb5PrAl18(Si3Ru4)2
_chemical_formula_sum   'Tb5 Pr1 Al18 Si6 Ru8'
_cell_volume   623.03396972
_cell_formula_units_Z   1
loop_
 _symmetry_equiv_pos_site_id
 _symmetry_equiv_pos_as_xyz
  1  'x, y, z'
loop_
 _atom_site_type_symbol
 _atom_site_label
 _atom_site_symmetry_multiplicity
 _atom_site_fract_x
 _atom_site_fract_y
 _atom_site_fract_z
 _atom_site_occupancy
  Tb  Tb0  1  0.192602  0.385290  0.250000  1
  Tb  Tb1  1  0.807388  0.615691  0.750000  1
  Tb  Tb2  1  0.611101  0.808525  0.250000  1
  Tb  Tb3  1  0.387997  0.191310  0.750000  1
  Tb  Tb4  1  0.197014  0.808878  0.250000  1
  Pr  Pr5  1  0.805503  0.189443  0.750000  1
  Al  Al6  1  0.166633  0.330923  0.578199  1
  Al  Al7  1  0.835434  0.670456  0.420171  1
  Al  Al8  1  0.669249  0.832883  0.576515  1
  Al  Al9  1  0.835434  0.670456  0.079829  1
  Al  Al10  1  0.329572  0.165178  0.421800  1
  Al  Al11  1  0.166633  0.330923  0.921801  1
  Al  Al12  1  0.164185  0.834512  0.577224  1
  Al  Al13  1  0.329572  0.165178  0.078200  1
  Al  Al14  1  0.835836  0.165376  0.420282  1
  Al  Al15  1  0.669249  0.832883  0.923485  1
  Al  Al16  1  0.835836  0.165376  0.079718  1
  Al  Al17  1  0.164185  0.834512  0.922776  1
  Al  Al18  1  0.873062  0.433745  0.250000  1
  Al  Al19  1  0.128886  0.568964  0.750000  1
  Al  Al20  1  0.560241  0.433350  0.250000  1
  Al  Al21  1  0.440036  0.566362  0.750000  1
  Al  Al22  1  0.999209  0.998495  0.250000  1
  Al  Al23  1  0.003362  0.999066  0.750000  1
  Si  Si24  1  0.331440  0.664059  0.039229  1
  Si  Si25  1  0.667010  0.337751  0.963783  1
  Si  Si26  1  0.667010  0.337751  0.536217  1
  Si  Si27  1  0.331440  0.664059  0.460771  1
  Si  Si28  1  0.562927  0.126430  0.250000  1
  Si  Si29  1  0.433699  0.871453  0.750000  1
  Ru  Ru30  1  0.498982  0.999127  0.001983  1
  Ru  Ru31  1  0.000443  0.500976  0.001292  1
  Ru  Ru32  1  0.498982  0.999127  0.498017  1
  Ru  Ru33  1  0.499508  0.500407  0.000932  1
  Ru  Ru34  1  0.000443  0.500976  0.498708  1
  Ru  Ru35  1  0.499508  0.500407  0.499068  1
  Ru  Ru36  1  0.000193  0.999852  0.000459  1
  Ru  Ru37  1  0.000193  0.999852  0.499541  1
