# generated using pymatgen
data_Sm2ErTm7Bi6
_symmetry_space_group_name_H-M   'P 1'
_cell_length_a   8.20416200
_cell_length_b   9.44498400
_cell_length_c   11.94338600
_cell_angle_alpha   90.00000000
_cell_angle_beta   90.00000000
_cell_angle_gamma   90.00000000
_symmetry_Int_Tables_number   1
_chemical_formula_structural   Sm2ErTm7Bi6
_chemical_formula_sum   'Sm4 Er2 Tm14 Bi12'
_cell_volume   925.47123012
_cell_formula_units_Z   2
loop_
 _symmetry_equiv_pos_site_id
 _symmetry_equiv_pos_as_xyz
  1  'x, y, z'
loop_
 _atom_site_type_symbol
 _atom_site_label
 _atom_site_symmetry_multiplicity
 _atom_site_fract_x
 _atom_site_fract_y
 _atom_site_fract_z
 _atom_site_occupancy
  Sm  Sm0  1  0.313374  0.250000  0.218670  1
  Sm  Sm1  1  0.813374  0.250000  0.281330  1
  Sm  Sm2  1  0.686714  0.750000  0.781260  1
  Sm  Sm3  1  0.186714  0.750000  0.718740  1
  Er  Er4  1  0.352567  0.750000  0.217212  1
  Er  Er5  1  0.852567  0.750000  0.282788  1
  Tm  Tm6  1  0.647253  0.250000  0.782573  1
  Tm  Tm7  1  0.147253  0.250000  0.717427  1
  Tm  Tm8  1  0.692148  0.566105  0.059665  1
  Tm  Tm9  1  0.192148  0.933895  0.440335  1
  Tm  Tm10  1  0.307817  0.066178  0.940067  1
  Tm  Tm11  1  0.807817  0.433822  0.559933  1
  Tm  Tm12  1  0.307817  0.433822  0.940067  1
  Tm  Tm13  1  0.807817  0.066178  0.559933  1
  Tm  Tm14  1  0.692148  0.933895  0.059665  1
  Tm  Tm15  1  0.192148  0.566105  0.440335  1
  Tm  Tm16  1  0.476271  0.250000  0.489122  1
  Tm  Tm17  1  0.976271  0.250000  0.010878  1
  Tm  Tm18  1  0.523891  0.750000  0.511190  1
  Tm  Tm19  1  0.023891  0.750000  0.988810  1
  Bi  Bi20  1  0.404197  0.750000  0.959776  1
  Bi  Bi21  1  0.904197  0.750000  0.540224  1
  Bi  Bi22  1  0.595976  0.250000  0.039818  1
  Bi  Bi23  1  0.095976  0.250000  0.460182  1
  Bi  Bi24  1  0.564850  0.993170  0.326655  1
  Bi  Bi25  1  0.064850  0.506830  0.173345  1
  Bi  Bi26  1  0.435063  0.492859  0.673497  1
  Bi  Bi27  1  0.935063  0.007141  0.826503  1
  Bi  Bi28  1  0.435063  0.007141  0.673497  1
  Bi  Bi29  1  0.935063  0.492859  0.826503  1
  Bi  Bi30  1  0.564850  0.506830  0.326655  1
  Bi  Bi31  1  0.064850  0.993170  0.173345  1
