# generated using pymatgen
data_Dy4ErCoSb2
_symmetry_space_group_name_H-M   'P 1'
_cell_length_a   7.87442300
_cell_length_b   8.75112000
_cell_length_c   12.18364400
_cell_angle_alpha   90.00000000
_cell_angle_beta   90.00000000
_cell_angle_gamma   90.00000000
_symmetry_Int_Tables_number   1
_chemical_formula_structural   Dy4ErCoSb2
_chemical_formula_sum   'Dy16 Er4 Co4 Sb8'
_cell_volume   839.57515907
_cell_formula_units_Z   4
loop_
 _symmetry_equiv_pos_site_id
 _symmetry_equiv_pos_as_xyz
  1  'x, y, z'
loop_
 _atom_site_type_symbol
 _atom_site_label
 _atom_site_symmetry_multiplicity
 _atom_site_fract_x
 _atom_site_fract_y
 _atom_site_fract_z
 _atom_site_occupancy
  Dy  Dy0  1  0.155036  0.749886  0.203216  1
  Dy  Dy1  1  0.344964  0.750114  0.703216  1
  Dy  Dy2  1  0.844964  0.249886  0.796784  1
  Dy  Dy3  1  0.655036  0.250114  0.296784  1
  Dy  Dy4  1  0.453446  0.750099  0.998224  1
  Dy  Dy5  1  0.046554  0.749901  0.498224  1
  Dy  Dy6  1  0.546554  0.250099  0.001776  1
  Dy  Dy7  1  0.953446  0.249901  0.501776  1
  Dy  Dy8  1  0.620972  0.750167  0.307086  1
  Dy  Dy9  1  0.879028  0.749833  0.807086  1
  Dy  Dy10  1  0.379028  0.250167  0.692914  1
  Dy  Dy11  1  0.120972  0.249833  0.192914  1
  Dy  Dy12  1  0.178535  0.464039  0.934867  1
  Dy  Dy13  1  0.321465  0.035961  0.434867  1
  Dy  Dy14  1  0.821465  0.964039  0.065133  1
  Dy  Dy15  1  0.678535  0.535961  0.565133  1
  Er  Er16  1  0.822520  0.536024  0.065163  1
  Er  Er17  1  0.677480  0.963976  0.565163  1
  Er  Er18  1  0.177480  0.036024  0.934837  1
  Er  Er19  1  0.322520  0.463976  0.434837  1
  Co  Co20  1  0.433789  0.750161  0.490824  1
  Co  Co21  1  0.066211  0.749839  0.990824  1
  Co  Co22  1  0.566211  0.250161  0.509176  1
  Co  Co23  1  0.933789  0.249839  0.009176  1
  Sb  Sb24  1  0.928828  0.508800  0.326797  1
  Sb  Sb25  1  0.571172  0.991200  0.826797  1
  Sb  Sb26  1  0.071172  0.008800  0.673203  1
  Sb  Sb27  1  0.428828  0.491200  0.173203  1
  Sb  Sb28  1  0.071564  0.491084  0.673055  1
  Sb  Sb29  1  0.428436  0.008916  0.173055  1
  Sb  Sb30  1  0.928436  0.991084  0.326945  1
  Sb  Sb31  1  0.571564  0.508916  0.826945  1
