# generated using pymatgen
data_LiEu(S2O7)2
_symmetry_space_group_name_H-M   'P 1'
_cell_length_a   6.13849119
_cell_length_b   5.71935209
_cell_length_c   9.99665304
_cell_angle_alpha   119.48183218
_cell_angle_beta   72.31707970
_cell_angle_gamma   106.17823972
_symmetry_Int_Tables_number   1
_chemical_formula_structural   LiEu(S2O7)2
_chemical_formula_sum   'Li1 Eu1 S4 O14'
_cell_volume   287.53347439
_cell_formula_units_Z   1
loop_
 _symmetry_equiv_pos_site_id
 _symmetry_equiv_pos_as_xyz
  1  'x, y, z'
loop_
 _atom_site_type_symbol
 _atom_site_label
 _atom_site_symmetry_multiplicity
 _atom_site_fract_x
 _atom_site_fract_y
 _atom_site_fract_z
 _atom_site_occupancy
  Li  Li0  1  0.500000  0.000000  0.000000  1
  Eu  Eu1  1  0.500000  0.500000  0.500000  1
  S  S2  1  0.930849  0.704575  0.742051  1
  S  S3  1  0.069151  0.295425  0.257949  1
  S  S4  1  0.585009  0.239458  0.741438  1
  S  S5  1  0.414991  0.760542  0.258562  1
  O  O6  1  0.847943  0.662022  0.607679  1
  O  O7  1  0.152057  0.337978  0.392321  1
  O  O8  1  0.453218  0.408427  0.732796  1
  O  O9  1  0.546782  0.591573  0.267204  1
  O  O10  1  0.181676  0.726633  0.711997  1
  O  O11  1  0.818324  0.273367  0.288003  1
  O  O12  1  0.831378  0.909969  0.889600  1
  O  O13  1  0.168622  0.090031  0.110400  1
  O  O14  1  0.510754  0.201204  0.881260  1
  O  O15  1  0.489246  0.798796  0.118740  1
  O  O16  1  0.850969  0.411450  0.752496  1
  O  O17  1  0.149031  0.588550  0.247504  1
  O  O18  1  0.622270  0.992148  0.594715  1
  O  O19  1  0.377730  0.007852  0.405285  1
