# generated using pymatgen
data_Tb3Er5Te12
_symmetry_space_group_name_H-M   'P 1'
_cell_length_a   14.38893335
_cell_length_b   13.72062404
_cell_length_c   7.54499727
_cell_angle_alpha   79.38450015
_cell_angle_beta   69.59217921
_cell_angle_gamma   31.11078210
_symmetry_Int_Tables_number   1
_chemical_formula_structural   Tb3Er5Te12
_chemical_formula_sum   'Tb3 Er5 Te12'
_cell_volume   700.95456804
_cell_formula_units_Z   1
loop_
 _symmetry_equiv_pos_site_id
 _symmetry_equiv_pos_as_xyz
  1  'x, y, z'
loop_
 _atom_site_type_symbol
 _atom_site_label
 _atom_site_symmetry_multiplicity
 _atom_site_fract_x
 _atom_site_fract_y
 _atom_site_fract_z
 _atom_site_occupancy
  Tb  Tb0  1  0.000689  0.000689  0.499311  1
  Tb  Tb1  1  0.499286  0.499286  0.000714  1
  Tb  Tb2  1  0.249300  0.249300  0.750700  1
  Er  Er3  1  0.750625  0.750625  0.249375  1
  Er  Er4  1  0.667331  0.667331  0.832669  1
  Er  Er5  1  0.832621  0.832621  0.667379  1
  Er  Er6  1  0.582784  0.582784  0.417216  1
  Er  Er7  1  0.416992  0.416992  0.583008  1
  Te  Te8  1  0.667214  0.165094  0.829909  1
  Te  Te9  1  0.337781  0.829874  0.164952  1
  Te  Te10  1  0.829874  0.337781  0.667393  1
  Te  Te11  1  0.165094  0.667214  0.337782  1
  Te  Te12  1  0.583888  0.082531  0.418747  1
  Te  Te13  1  0.910923  0.423084  0.086622  1
  Te  Te14  1  0.423084  0.910923  0.579371  1
  Te  Te15  1  0.082531  0.583888  0.914834  1
  Te  Te16  1  0.749173  0.250765  0.250829  1
  Te  Te17  1  0.250765  0.749173  0.749233  1
  Te  Te18  1  0.502381  0.997662  0.001066  1
  Te  Te19  1  0.997662  0.502381  0.498891  1
