# generated using pymatgen
data_Ho4Ga16CoIr2
_symmetry_space_group_name_H-M   'P 1'
_cell_length_a   6.10213900
_cell_length_b   6.12056800
_cell_length_c   11.13498300
_cell_angle_alpha   90.00000000
_cell_angle_beta   90.00000000
_cell_angle_gamma   90.00000000
_symmetry_Int_Tables_number   1
_chemical_formula_structural   Ho4Ga16CoIr2
_chemical_formula_sum   'Ho4 Ga16 Co1 Ir2'
_cell_volume   415.87554387
_cell_formula_units_Z   1
loop_
 _symmetry_equiv_pos_site_id
 _symmetry_equiv_pos_as_xyz
  1  'x, y, z'
loop_
 _atom_site_type_symbol
 _atom_site_label
 _atom_site_symmetry_multiplicity
 _atom_site_fract_x
 _atom_site_fract_y
 _atom_site_fract_z
 _atom_site_occupancy
  Ho  Ho0  1  0.000000  0.500000  0.197151  1
  Ho  Ho1  1  0.000000  0.500000  0.802849  1
  Ho  Ho2  1  0.500000  0.000000  0.806573  1
  Ho  Ho3  1  0.500000  0.000000  0.193427  1
  Ga  Ga4  1  0.000000  0.000000  0.226316  1
  Ga  Ga5  1  0.000000  0.000000  0.773684  1
  Ga  Ga6  1  0.500000  0.500000  0.197466  1
  Ga  Ga7  1  0.500000  0.500000  0.802534  1
  Ga  Ga8  1  0.288411  0.288242  0.000000  1
  Ga  Ga9  1  0.711589  0.711758  0.000000  1
  Ga  Ga10  1  0.288411  0.711758  0.000000  1
  Ga  Ga11  1  0.711589  0.288242  0.000000  1
  Ga  Ga12  1  0.256766  0.242047  0.382798  1
  Ga  Ga13  1  0.743234  0.757953  0.382798  1
  Ga  Ga14  1  0.256766  0.757953  0.617202  1
  Ga  Ga15  1  0.743234  0.242047  0.617202  1
  Ga  Ga16  1  0.743234  0.757953  0.617202  1
  Ga  Ga17  1  0.256766  0.242047  0.617202  1
  Ga  Ga18  1  0.256766  0.757953  0.382798  1
  Ga  Ga19  1  0.743234  0.242047  0.382798  1
  Co  Co20  1  0.500000  0.000000  0.500000  1
  Ir  Ir21  1  0.000000  0.500000  0.500000  1
  Ir  Ir22  1  0.000000  0.000000  0.000000  1
