# generated using pymatgen
data_Nd4MoOsC4
_symmetry_space_group_name_H-M   'P 1'
_cell_length_a   5.35270300
_cell_length_b   6.74567200
_cell_length_c   10.24271300
_cell_angle_alpha   90.00000000
_cell_angle_beta   90.00000000
_cell_angle_gamma   90.00000000
_symmetry_Int_Tables_number   1
_chemical_formula_structural   Nd4MoOsC4
_chemical_formula_sum   'Nd8 Mo2 Os2 C8'
_cell_volume   369.83956628
_cell_formula_units_Z   2
loop_
 _symmetry_equiv_pos_site_id
 _symmetry_equiv_pos_as_xyz
  1  'x, y, z'
loop_
 _atom_site_type_symbol
 _atom_site_label
 _atom_site_symmetry_multiplicity
 _atom_site_fract_x
 _atom_site_fract_y
 _atom_site_fract_z
 _atom_site_occupancy
  Nd  Nd0  1  0.250000  0.471151  0.783116  1
  Nd  Nd1  1  0.750000  0.028849  0.283116  1
  Nd  Nd2  1  0.250000  0.974727  0.712764  1
  Nd  Nd3  1  0.750000  0.525273  0.212764  1
  Nd  Nd4  1  0.250000  0.814155  0.052195  1
  Nd  Nd5  1  0.750000  0.685845  0.552195  1
  Nd  Nd6  1  0.250000  0.311827  0.447192  1
  Nd  Nd7  1  0.750000  0.188173  0.947192  1
  Mo  Mo8  1  0.250000  0.770243  0.358848  1
  Mo  Mo9  1  0.750000  0.729757  0.858848  1
  Os  Os10  1  0.250000  0.270409  0.141633  1
  Os  Os11  1  0.750000  0.229591  0.641633  1
  C  C12  1  0.250000  0.685121  0.541223  1
  C  C13  1  0.750000  0.814879  0.041223  1
  C  C14  1  0.250000  0.186746  0.964058  1
  C  C15  1  0.750000  0.313254  0.464058  1
  C  C16  1  0.250000  0.038542  0.257351  1
  C  C17  1  0.750000  0.461458  0.757351  1
  C  C18  1  0.250000  0.529963  0.241621  1
  C  C19  1  0.750000  0.970037  0.741621  1
