# generated using pymatgen
data_BaAcAgSe3
_symmetry_space_group_name_H-M   'P 1'
_cell_length_a   11.32870100
_cell_length_b   4.44356400
_cell_length_c   14.61347100
_cell_angle_alpha   90.00000000
_cell_angle_beta   90.00000000
_cell_angle_gamma   90.00000000
_symmetry_Int_Tables_number   1
_chemical_formula_structural   BaAcAgSe3
_chemical_formula_sum   'Ba4 Ac4 Ag4 Se12'
_cell_volume   735.63932334
_cell_formula_units_Z   4
loop_
 _symmetry_equiv_pos_site_id
 _symmetry_equiv_pos_as_xyz
  1  'x, y, z'
loop_
 _atom_site_type_symbol
 _atom_site_label
 _atom_site_symmetry_multiplicity
 _atom_site_fract_x
 _atom_site_fract_y
 _atom_site_fract_z
 _atom_site_occupancy
  Ba  Ba0  1  0.727486  0.750000  0.999614  1
  Ba  Ba1  1  0.227486  0.750000  0.500386  1
  Ba  Ba2  1  0.772514  0.250001  0.499613  1
  Ba  Ba3  1  0.272514  0.250001  0.000386  1
  Ac  Ac4  1  0.016033  0.250001  0.242623  1
  Ac  Ac5  1  0.516033  0.250001  0.257378  1
  Ac  Ac6  1  0.483967  0.750000  0.742622  1
  Ac  Ac7  1  0.983967  0.750000  0.757378  1
  Ag  Ag8  1  0.265318  0.750000  0.224383  1
  Ag  Ag9  1  0.765318  0.750000  0.275616  1
  Ag  Ag10  1  0.234682  0.250001  0.724383  1
  Ag  Ag11  1  0.734682  0.250001  0.775617  1
  Se  Se12  1  0.087778  0.750000  0.104829  1
  Se  Se13  1  0.453090  0.750000  0.112961  1
  Se  Se14  1  0.762230  0.250001  0.164908  1
  Se  Se15  1  0.262230  0.250001  0.335092  1
  Se  Se16  1  0.953090  0.750000  0.387038  1
  Se  Se17  1  0.587778  0.750000  0.395171  1
  Se  Se18  1  0.412222  0.250001  0.604829  1
  Se  Se19  1  0.046910  0.250001  0.612961  1
  Se  Se20  1  0.737770  0.750000  0.664909  1
  Se  Se21  1  0.237770  0.750000  0.835091  1
  Se  Se22  1  0.546910  0.250001  0.887039  1
  Se  Se23  1  0.912222  0.250001  0.895171  1
