# generated using pymatgen
data_Tm2Lu14MgCo4Ag3
_symmetry_space_group_name_H-M   'P 1'
_cell_length_a   9.24800005
_cell_length_b   9.25308815
_cell_length_c   9.25432300
_cell_angle_alpha   59.99558889
_cell_angle_beta   59.97738406
_cell_angle_gamma   59.97047213
_symmetry_Int_Tables_number   1
_chemical_formula_structural   Tm2Lu14MgCo4Ag3
_chemical_formula_sum   'Tm2 Lu14 Mg1 Co4 Ag3'
_cell_volume   559.72982504
_cell_formula_units_Z   1
loop_
 _symmetry_equiv_pos_site_id
 _symmetry_equiv_pos_as_xyz
  1  'x, y, z'
loop_
 _atom_site_type_symbol
 _atom_site_label
 _atom_site_symmetry_multiplicity
 _atom_site_fract_x
 _atom_site_fract_y
 _atom_site_fract_z
 _atom_site_occupancy
  Tm  Tm0  1  0.561993  0.563623  0.937192  1
  Tm  Tm1  1  0.935153  0.939349  0.562749  1
  Lu  Lu2  1  0.346303  0.345093  0.345291  1
  Lu  Lu3  1  0.346303  0.345093  0.963314  1
  Lu  Lu4  1  0.346514  0.963295  0.345096  1
  Lu  Lu5  1  0.953199  0.349066  0.348868  1
  Lu  Lu6  1  0.809927  0.188927  0.188945  1
  Lu  Lu7  1  0.185615  0.813852  0.813914  1
  Lu  Lu8  1  0.185615  0.813852  0.186621  1
  Lu  Lu9  1  0.809927  0.188927  0.812201  1
  Lu  Lu10  1  0.185708  0.186639  0.813827  1
  Lu  Lu11  1  0.809835  0.812141  0.189012  1
  Lu  Lu12  1  0.935240  0.562650  0.562667  1
  Lu  Lu13  1  0.561725  0.937402  0.937442  1
  Lu  Lu14  1  0.561725  0.937402  0.563432  1
  Lu  Lu15  1  0.935240  0.562650  0.939442  1
  Mg  Mg16  1  0.286291  0.571221  0.571243  1
  Co  Co17  1  0.138710  0.142570  0.142491  1
  Co  Co18  1  0.138710  0.142570  0.576229  1
  Co  Co19  1  0.138657  0.576202  0.142570  1
  Co  Co20  1  0.576247  0.141198  0.141278  1
  Ag  Ag21  1  0.583847  0.583023  0.582870  1
  Ag  Ag22  1  0.583847  0.583023  0.250259  1
  Ag  Ag23  1  0.583670  0.250233  0.583048  1
