# generated using pymatgen
data_CaYbDyUN4
_symmetry_space_group_name_H-M   'P 1'
_cell_length_a   6.89779768
_cell_length_b   9.17636344
_cell_length_c   6.05194457
_cell_angle_alpha   29.10820010
_cell_angle_beta   55.25794662
_cell_angle_gamma   41.26285625
_symmetry_Int_Tables_number   1
_chemical_formula_structural   CaYbDyUN4
_chemical_formula_sum   'Ca1 Yb1 Dy1 U1 N4'
_cell_volume   118.30766700
_cell_formula_units_Z   1
loop_
 _symmetry_equiv_pos_site_id
 _symmetry_equiv_pos_as_xyz
  1  'x, y, z'
loop_
 _atom_site_type_symbol
 _atom_site_label
 _atom_site_symmetry_multiplicity
 _atom_site_fract_x
 _atom_site_fract_y
 _atom_site_fract_z
 _atom_site_occupancy
  Ca  Ca0  1  0.500000  0.000000  0.000000  1
  Yb  Yb1  1  0.250000  0.500000  0.000000  1
  Dy  Dy2  1  0.750000  0.500000  0.000000  1
  U  U3  1  0.000000  0.000000  0.000000  1
  N  N4  1  0.507360  0.500000  0.485280  1
  N  N5  1  0.213612  0.000000  0.572775  1
  N  N6  1  0.992640  0.500000  0.514720  1
  N  N7  1  0.786388  0.000000  0.427225  1
