# generated using pymatgen
data_Sr2NdB18
_symmetry_space_group_name_H-M   'P 1'
_cell_length_a   4.17241600
_cell_length_b   4.17241600
_cell_length_c   12.53382100
_cell_angle_alpha   90.00000000
_cell_angle_beta   90.00000000
_cell_angle_gamma   90.00000000
_symmetry_Int_Tables_number   1
_chemical_formula_structural   Sr2NdB18
_chemical_formula_sum   'Sr2 Nd1 B18'
_cell_volume   218.20198262
_cell_formula_units_Z   1
loop_
 _symmetry_equiv_pos_site_id
 _symmetry_equiv_pos_as_xyz
  1  'x, y, z'
loop_
 _atom_site_type_symbol
 _atom_site_label
 _atom_site_symmetry_multiplicity
 _atom_site_fract_x
 _atom_site_fract_y
 _atom_site_fract_z
 _atom_site_occupancy
  Sr  Sr0  1  0.000000  0.000000  0.333362  1
  Sr  Sr1  1  0.000000  0.000000  0.666638  1
  Nd  Nd2  1  0.000000  0.000000  0.000000  1
  B  B3  1  0.201316  0.500000  0.165231  1
  B  B4  1  0.202304  0.500000  0.500000  1
  B  B5  1  0.201316  0.500000  0.834769  1
  B  B6  1  0.500000  0.500000  0.265119  1
  B  B7  1  0.500000  0.500000  0.599459  1
  B  B8  1  0.500000  0.500000  0.933779  1
  B  B9  1  0.500000  0.201316  0.165231  1
  B  B10  1  0.500000  0.202304  0.500000  1
  B  B11  1  0.500000  0.201316  0.834769  1
  B  B12  1  0.500000  0.500000  0.066221  1
  B  B13  1  0.500000  0.500000  0.400541  1
  B  B14  1  0.500000  0.500000  0.734881  1
  B  B15  1  0.500000  0.798684  0.165231  1
  B  B16  1  0.500000  0.797696  0.500000  1
  B  B17  1  0.500000  0.798684  0.834769  1
  B  B18  1  0.798684  0.500000  0.165231  1
  B  B19  1  0.797696  0.500000  0.500000  1
  B  B20  1  0.798684  0.500000  0.834769  1
