# generated using pymatgen
data_YbSb12(RuPt)2
_symmetry_space_group_name_H-M   'P 1'
_cell_length_a   8.20696627
_cell_length_b   8.22363530
_cell_length_c   8.20666822
_cell_angle_alpha   109.43300744
_cell_angle_beta   109.41825666
_cell_angle_gamma   109.47550578
_symmetry_Int_Tables_number   1
_chemical_formula_structural   YbSb12(RuPt)2
_chemical_formula_sum   'Yb1 Sb12 Ru2 Pt2'
_cell_volume   426.83127870
_cell_formula_units_Z   1
loop_
 _symmetry_equiv_pos_site_id
 _symmetry_equiv_pos_as_xyz
  1  'x, y, z'
loop_
 _atom_site_type_symbol
 _atom_site_label
 _atom_site_symmetry_multiplicity
 _atom_site_fract_x
 _atom_site_fract_y
 _atom_site_fract_z
 _atom_site_occupancy
  Yb  Yb0  1  0.000000  0.000000  0.000000  1
  Sb  Sb1  1  0.841356  0.656892  0.506904  1
  Sb  Sb2  1  0.158644  0.343108  0.493096  1
  Sb  Sb3  1  0.150002  0.656914  0.815564  1
  Sb  Sb4  1  0.849998  0.343086  0.184436  1
  Sb  Sb5  1  0.664681  0.507274  0.842592  1
  Sb  Sb6  1  0.335319  0.492726  0.157408  1
  Sb  Sb7  1  0.658683  0.810171  0.151491  1
  Sb  Sb8  1  0.341317  0.189829  0.848509  1
  Sb  Sb9  1  0.506860  0.841012  0.656873  1
  Sb  Sb10  1  0.493140  0.158988  0.343127  1
  Sb  Sb11  1  0.184088  0.840992  0.334099  1
  Sb  Sb12  1  0.815912  0.159008  0.665901  1
  Ru  Ru13  1  0.500000  0.500000  0.500000  1
  Ru  Ru14  1  0.000000  0.500000  0.000000  1
  Pt  Pt15  1  0.500000  0.000000  0.000000  1
  Pt  Pt16  1  0.000000  0.000000  0.500000  1
