# generated using pymatgen
data_Tb7Ce(Nb3Si4)4
_symmetry_space_group_name_H-M   'P 1'
_cell_length_a   6.89399206
_cell_length_b   7.09832932
_cell_length_c   13.44882411
_cell_angle_alpha   90.06654436
_cell_angle_beta   90.06014044
_cell_angle_gamma   90.02084097
_symmetry_Int_Tables_number   1
_chemical_formula_structural   Tb7Ce(Nb3Si4)4
_chemical_formula_sum   'Tb7 Ce1 Nb12 Si16'
_cell_volume   658.12846630
_cell_formula_units_Z   1
loop_
 _symmetry_equiv_pos_site_id
 _symmetry_equiv_pos_as_xyz
  1  'x, y, z'
loop_
 _atom_site_type_symbol
 _atom_site_label
 _atom_site_symmetry_multiplicity
 _atom_site_fract_x
 _atom_site_fract_y
 _atom_site_fract_z
 _atom_site_occupancy
  Tb  Tb0  1  0.005282  0.828541  0.904705  1
  Tb  Tb1  1  0.494092  0.329008  0.096410  1
  Tb  Tb2  1  0.994874  0.171580  0.402777  1
  Tb  Tb3  1  0.494395  0.329703  0.403019  1
  Tb  Tb4  1  0.994499  0.171547  0.096295  1
  Tb  Tb5  1  0.505628  0.671240  0.903779  1
  Tb  Tb6  1  0.004457  0.828727  0.596176  1
  Ce  Ce7  1  0.507286  0.670552  0.595728  1
  Nb  Nb8  1  0.664254  0.173899  0.626218  1
  Nb  Nb9  1  0.163120  0.324020  0.874248  1
  Nb  Nb10  1  0.336437  0.824995  0.125964  1
  Nb  Nb11  1  0.835878  0.674961  0.374241  1
  Nb  Nb12  1  0.335633  0.825137  0.374291  1
  Nb  Nb13  1  0.835642  0.674876  0.126027  1
  Nb  Nb14  1  0.664904  0.174103  0.874525  1
  Nb  Nb15  1  0.165104  0.325603  0.626084  1
  Nb  Nb16  1  0.838962  0.492230  0.749906  1
  Nb  Nb17  1  0.340379  0.006301  0.749464  1
  Nb  Nb18  1  0.159769  0.508124  0.249484  1
  Nb  Nb19  1  0.659772  0.992195  0.250097  1
  Si  Si20  1  0.660504  0.964284  0.457461  1
  Si  Si21  1  0.160516  0.537378  0.041757  1
  Si  Si22  1  0.339792  0.037180  0.958729  1
  Si  Si23  1  0.842010  0.460231  0.541276  1
  Si  Si24  1  0.337399  0.040157  0.540646  1
  Si  Si25  1  0.839005  0.462701  0.958741  1
  Si  Si26  1  0.660510  0.962545  0.041590  1
  Si  Si27  1  0.160668  0.537974  0.457773  1
  Si  Si28  1  0.461062  0.374622  0.751085  1
  Si  Si29  1  0.961325  0.124987  0.750190  1
  Si  Si30  1  0.538629  0.624244  0.250071  1
  Si  Si31  1  0.039176  0.875580  0.249853  1
  Si  Si32  1  0.706992  0.876358  0.751005  1
  Si  Si33  1  0.205813  0.624083  0.750957  1
  Si  Si34  1  0.293346  0.124619  0.249763  1
  Si  Si35  1  0.792886  0.375714  0.249663  1
