# generated using pymatgen
data_LaHoTeO6
_symmetry_space_group_name_H-M   'P 1'
_cell_length_a   5.45391300
_cell_length_b   9.32284600
_cell_length_c   10.18356700
_cell_angle_alpha   90.00000000
_cell_angle_beta   90.00000000
_cell_angle_gamma   90.00000000
_symmetry_Int_Tables_number   1
_chemical_formula_structural   LaHoTeO6
_chemical_formula_sum   'La4 Ho4 Te4 O24'
_cell_volume   517.79355599
_cell_formula_units_Z   4
loop_
 _symmetry_equiv_pos_site_id
 _symmetry_equiv_pos_as_xyz
  1  'x, y, z'
loop_
 _atom_site_type_symbol
 _atom_site_label
 _atom_site_symmetry_multiplicity
 _atom_site_fract_x
 _atom_site_fract_y
 _atom_site_fract_z
 _atom_site_occupancy
  La  La0  1  0.530797  0.220302  0.357324  1
  La  La1  1  0.030797  0.279698  0.642676  1
  La  La2  1  0.469203  0.720302  0.142676  1
  La  La3  1  0.969203  0.779698  0.857324  1
  Ho  Ho4  1  0.521434  0.103813  0.956036  1
  Ho  Ho5  1  0.021434  0.396187  0.043964  1
  Ho  Ho6  1  0.478566  0.603813  0.543964  1
  Ho  Ho7  1  0.978566  0.896187  0.456036  1
  Te  Te8  1  0.464792  0.989883  0.641849  1
  Te  Te9  1  0.964792  0.510117  0.358151  1
  Te  Te10  1  0.535208  0.489883  0.858151  1
  Te  Te11  1  0.035208  0.010117  0.141849  1
  O  O12  1  0.307753  0.143158  0.167500  1
  O  O13  1  0.807753  0.356842  0.832500  1
  O  O14  1  0.692247  0.643158  0.332500  1
  O  O15  1  0.192247  0.856842  0.667500  1
  O  O16  1  0.725804  0.106482  0.562444  1
  O  O17  1  0.225804  0.393518  0.437556  1
  O  O18  1  0.274196  0.606482  0.937556  1
  O  O19  1  0.774196  0.893518  0.062444  1
  O  O20  1  0.673292  0.633924  0.742056  1
  O  O21  1  0.173292  0.866076  0.257944  1
  O  O22  1  0.326708  0.133924  0.757944  1
  O  O23  1  0.826708  0.366076  0.242056  1
  O  O24  1  0.664544  0.950420  0.794049  1
  O  O25  1  0.164544  0.549580  0.205951  1
  O  O26  1  0.335456  0.450420  0.705951  1
  O  O27  1  0.835456  0.049580  0.294049  1
  O  O28  1  0.253780  0.074369  0.503361  1
  O  O29  1  0.753780  0.425631  0.496639  1
  O  O30  1  0.746220  0.574369  0.996639  1
  O  O31  1  0.246220  0.925631  0.003361  1
  O  O32  1  0.102390  0.661385  0.468324  1
  O  O33  1  0.602390  0.838615  0.531676  1
  O  O34  1  0.897610  0.161385  0.031676  1
  O  O35  1  0.397610  0.338615  0.968324  1
