# generated using pymatgen
data_Gd3ErPd3RhPb2
_symmetry_space_group_name_H-M   'P 1'
_cell_length_a   7.90449296
_cell_length_b   7.90669081
_cell_length_c   3.66726100
_cell_angle_alpha   90.00000000
_cell_angle_beta   90.00000000
_cell_angle_gamma   90.21912501
_symmetry_Int_Tables_number   1
_chemical_formula_structural   Gd3ErPd3RhPb2
_chemical_formula_sum   'Gd3 Er1 Pd3 Rh1 Pb2'
_cell_volume   229.19620228
_cell_formula_units_Z   1
loop_
 _symmetry_equiv_pos_site_id
 _symmetry_equiv_pos_as_xyz
  1  'x, y, z'
loop_
 _atom_site_type_symbol
 _atom_site_label
 _atom_site_symmetry_multiplicity
 _atom_site_fract_x
 _atom_site_fract_y
 _atom_site_fract_z
 _atom_site_occupancy
  Gd  Gd0  1  0.658976  0.173403  0.500000  1
  Gd  Gd1  1  0.180367  0.319695  0.500000  1
  Gd  Gd2  1  0.831072  0.669578  0.500000  1
  Er  Er3  1  0.326854  0.841639  0.500000  1
  Pd  Pd4  1  0.130829  0.627137  0.000000  1
  Pd  Pd5  1  0.625415  0.869204  0.000000  1
  Pd  Pd6  1  0.876672  0.372685  0.000000  1
  Rh  Rh7  1  0.373098  0.123395  0.000000  1
  Pb  Pb8  1  0.998743  0.999837  0.000000  1
  Pb  Pb9  1  0.497974  0.503429  0.000000  1
