# generated using pymatgen
data_Tm7Sn22Ru6Se
_symmetry_space_group_name_H-M   'P 1'
_cell_length_a   9.86463300
_cell_length_b   9.86463431
_cell_length_c   9.99530500
_cell_angle_alpha   90.00000000
_cell_angle_beta   90.00000000
_cell_angle_gamma   119.99999896
_symmetry_Int_Tables_number   1
_chemical_formula_structural   Tm7Sn22Ru6Se
_chemical_formula_sum   'Tm7 Sn22 Ru6 Se1'
_cell_volume   842.34229923
_cell_formula_units_Z   1
loop_
 _symmetry_equiv_pos_site_id
 _symmetry_equiv_pos_as_xyz
  1  'x, y, z'
loop_
 _atom_site_type_symbol
 _atom_site_label
 _atom_site_symmetry_multiplicity
 _atom_site_fract_x
 _atom_site_fract_y
 _atom_site_fract_z
 _atom_site_occupancy
  Tm  Tm0  1  0.000000  0.000000  0.000000  1
  Tm  Tm1  1  0.485849  0.514151  0.299378  1
  Tm  Tm2  1  0.514151  0.485849  0.700622  1
  Tm  Tm3  1  0.485849  0.971697  0.299378  1
  Tm  Tm4  1  0.514151  0.028303  0.700622  1
  Tm  Tm5  1  0.028303  0.514151  0.299378  1
  Tm  Tm6  1  0.971697  0.485849  0.700622  1
  Sn  Sn7  1  0.348962  0.000000  0.000000  1
  Sn  Sn8  1  0.651038  0.000000  0.000000  1
  Sn  Sn9  1  0.000000  0.348962  0.000000  1
  Sn  Sn10  1  0.000000  0.651038  0.000000  1
  Sn  Sn11  1  0.651038  0.651038  0.000000  1
  Sn  Sn12  1  0.348962  0.348962  0.000000  1
  Sn  Sn13  1  0.333333  0.666667  0.827486  1
  Sn  Sn14  1  0.666667  0.333333  0.172514  1
  Sn  Sn15  1  0.775774  0.224226  0.463115  1
  Sn  Sn16  1  0.224226  0.775774  0.536885  1
  Sn  Sn17  1  0.775774  0.551551  0.463115  1
  Sn  Sn18  1  0.224226  0.448449  0.536885  1
  Sn  Sn19  1  0.448449  0.224226  0.463115  1
  Sn  Sn20  1  0.551551  0.775774  0.536885  1
  Sn  Sn21  1  0.333333  0.666667  0.129772  1
  Sn  Sn22  1  0.666667  0.333333  0.870228  1
  Sn  Sn23  1  0.116793  0.883207  0.282212  1
  Sn  Sn24  1  0.883207  0.116793  0.717788  1
  Sn  Sn25  1  0.116793  0.233586  0.282212  1
  Sn  Sn26  1  0.883207  0.766414  0.717788  1
  Sn  Sn27  1  0.766414  0.883207  0.282212  1
  Sn  Sn28  1  0.233586  0.116793  0.717788  1
  Ru  Ru29  1  0.831344  0.168656  0.205343  1
  Ru  Ru30  1  0.168656  0.831344  0.794657  1
  Ru  Ru31  1  0.831344  0.662687  0.205343  1
  Ru  Ru32  1  0.168656  0.337313  0.794657  1
  Ru  Ru33  1  0.337313  0.168656  0.205343  1
  Ru  Ru34  1  0.662687  0.831344  0.794657  1
  Se  Se35  1  0.000000  0.000000  0.500000  1
