# generated using pymatgen
data_Th3Co2Si2Rh
_symmetry_space_group_name_H-M   'P 1'
_cell_length_a   6.14287400
_cell_length_b   7.51795600
_cell_length_c   13.65992200
_cell_angle_alpha   90.00000000
_cell_angle_beta   90.00000000
_cell_angle_gamma   90.00000000
_symmetry_Int_Tables_number   1
_chemical_formula_structural   Th3Co2Si2Rh
_chemical_formula_sum   'Th12 Co8 Si8 Rh4'
_cell_volume   630.84055686
_cell_formula_units_Z   4
loop_
 _symmetry_equiv_pos_site_id
 _symmetry_equiv_pos_as_xyz
  1  'x, y, z'
loop_
 _atom_site_type_symbol
 _atom_site_label
 _atom_site_symmetry_multiplicity
 _atom_site_fract_x
 _atom_site_fract_y
 _atom_site_fract_z
 _atom_site_occupancy
  Th  Th0  1  0.878809  0.891542  0.750000  1
  Th  Th1  1  0.856108  0.453734  0.398370  1
  Th  Th2  1  0.356108  0.046266  0.601630  1
  Th  Th3  1  0.143892  0.546266  0.898370  1
  Th  Th4  1  0.643892  0.953735  0.101630  1
  Th  Th5  1  0.121191  0.108458  0.250000  1
  Th  Th6  1  0.143892  0.546266  0.601630  1
  Th  Th7  1  0.643892  0.953735  0.398370  1
  Th  Th8  1  0.378809  0.608458  0.250000  1
  Th  Th9  1  0.356108  0.046266  0.898370  1
  Th  Th10  1  0.621191  0.391542  0.750000  1
  Th  Th11  1  0.856108  0.453734  0.101630  1
  Co  Co12  1  0.609418  0.384248  0.947514  1
  Co  Co13  1  0.109418  0.115752  0.447514  1
  Co  Co14  1  0.109418  0.115752  0.052486  1
  Co  Co15  1  0.890582  0.884248  0.947514  1
  Co  Co16  1  0.890582  0.884248  0.552486  1
  Co  Co17  1  0.609418  0.384248  0.552486  1
  Co  Co18  1  0.390582  0.615752  0.447514  1
  Co  Co19  1  0.390582  0.615752  0.052486  1
  Si  Si20  1  0.619517  0.685678  0.917944  1
  Si  Si21  1  0.880483  0.185678  0.582056  1
  Si  Si22  1  0.119517  0.814322  0.082056  1
  Si  Si23  1  0.119517  0.814322  0.417944  1
  Si  Si24  1  0.619517  0.685678  0.582056  1
  Si  Si25  1  0.880483  0.185678  0.917944  1
  Si  Si26  1  0.380483  0.314322  0.082056  1
  Si  Si27  1  0.380483  0.314322  0.417944  1
  Rh  Rh28  1  0.413163  0.736780  0.750000  1
  Rh  Rh29  1  0.586837  0.263220  0.250000  1
  Rh  Rh30  1  0.913163  0.763220  0.250000  1
  Rh  Rh31  1  0.086837  0.236780  0.750000  1
