# generated using pymatgen
data_Hf4Ti2Re5Mo
_symmetry_space_group_name_H-M   'P 1'
_cell_length_a   5.31236600
_cell_length_b   5.29854895
_cell_length_c   8.72280700
_cell_angle_alpha   90.00000000
_cell_angle_beta   90.00000000
_cell_angle_gamma   120.08628720
_symmetry_Int_Tables_number   1
_chemical_formula_structural   Hf4Ti2Re5Mo
_chemical_formula_sum   'Hf4 Ti2 Re5 Mo1'
_cell_volume   212.44844879
_cell_formula_units_Z   1
loop_
 _symmetry_equiv_pos_site_id
 _symmetry_equiv_pos_as_xyz
  1  'x, y, z'
loop_
 _atom_site_type_symbol
 _atom_site_label
 _atom_site_symmetry_multiplicity
 _atom_site_fract_x
 _atom_site_fract_y
 _atom_site_fract_z
 _atom_site_occupancy
  Hf  Hf0  1  0.333531  0.667062  0.061161  1
  Hf  Hf1  1  0.666228  0.332455  0.565278  1
  Hf  Hf2  1  0.666228  0.332455  0.934722  1
  Hf  Hf3  1  0.333531  0.667062  0.438839  1
  Ti  Ti4  1  0.000729  0.001458  0.998995  1
  Ti  Ti5  1  0.000729  0.001458  0.501005  1
  Re  Re6  1  0.169341  0.830436  0.750000  1
  Re  Re7  1  0.661096  0.830436  0.750000  1
  Re  Re8  1  0.338574  0.169170  0.250000  1
  Re  Re9  1  0.830595  0.169170  0.250000  1
  Re  Re10  1  0.169306  0.338611  0.750000  1
  Mo  Mo11  1  0.830114  0.660229  0.250000  1
