# generated using pymatgen
data_SmY5Tc2
_symmetry_space_group_name_H-M   'P 1'
_cell_length_a   6.30599600
_cell_length_b   7.42920700
_cell_length_c   9.25406900
_cell_angle_alpha   90.00000000
_cell_angle_beta   90.00000000
_cell_angle_gamma   90.00000000
_symmetry_Int_Tables_number   1
_chemical_formula_structural   SmY5Tc2
_chemical_formula_sum   'Sm2 Y10 Tc4'
_cell_volume   433.53971078
_cell_formula_units_Z   2
loop_
 _symmetry_equiv_pos_site_id
 _symmetry_equiv_pos_as_xyz
  1  'x, y, z'
loop_
 _atom_site_type_symbol
 _atom_site_label
 _atom_site_symmetry_multiplicity
 _atom_site_fract_x
 _atom_site_fract_y
 _atom_site_fract_z
 _atom_site_occupancy
  Sm  Sm0  1  0.126882  0.457472  0.750000  1
  Sm  Sm1  1  0.373118  0.957472  0.750000  1
  Y  Y2  1  0.338176  0.675042  0.064535  1
  Y  Y3  1  0.161824  0.175042  0.435465  1
  Y  Y4  1  0.662006  0.324265  0.562988  1
  Y  Y5  1  0.837994  0.824265  0.937012  1
  Y  Y6  1  0.662006  0.324265  0.937012  1
  Y  Y7  1  0.837994  0.824265  0.562988  1
  Y  Y8  1  0.338176  0.675042  0.435465  1
  Y  Y9  1  0.161824  0.175042  0.064535  1
  Y  Y10  1  0.871542  0.541666  0.250000  1
  Y  Y11  1  0.628458  0.041666  0.250000  1
  Tc  Tc12  1  0.041848  0.885616  0.250000  1
  Tc  Tc13  1  0.458152  0.385616  0.250000  1
  Tc  Tc14  1  0.964028  0.116633  0.750000  1
  Tc  Tc15  1  0.535972  0.616633  0.750000  1
