# generated using pymatgen
data_LiHo16Cd3Co3Ni
_symmetry_space_group_name_H-M   'P 1'
_cell_length_a   9.45150492
_cell_length_b   9.45287691
_cell_length_c   9.46287007
_cell_angle_alpha   60.03492440
_cell_angle_beta   60.08158365
_cell_angle_gamma   59.99519538
_symmetry_Int_Tables_number   1
_chemical_formula_structural   LiHo16Cd3Co3Ni
_chemical_formula_sum   'Li1 Ho16 Cd3 Co3 Ni1'
_cell_volume   598.32719520
_cell_formula_units_Z   1
loop_
 _symmetry_equiv_pos_site_id
 _symmetry_equiv_pos_as_xyz
  1  'x, y, z'
loop_
 _atom_site_type_symbol
 _atom_site_label
 _atom_site_symmetry_multiplicity
 _atom_site_fract_x
 _atom_site_fract_y
 _atom_site_fract_z
 _atom_site_occupancy
  Li  Li0  1  0.571331  0.571541  0.285588  1
  Ho  Ho1  1  0.937106  0.936117  0.563178  1
  Ho  Ho2  1  0.815594  0.187671  0.185511  1
  Ho  Ho3  1  0.937106  0.563600  0.563178  1
  Ho  Ho4  1  0.938110  0.561286  0.939319  1
  Ho  Ho5  1  0.815594  0.811223  0.185511  1
  Ho  Ho6  1  0.342762  0.344461  0.348790  1
  Ho  Ho7  1  0.560568  0.938206  0.938505  1
  Ho  Ho8  1  0.562696  0.936759  0.563786  1
  Ho  Ho9  1  0.187949  0.812990  0.809379  1
  Ho  Ho10  1  0.187949  0.189683  0.809379  1
  Ho  Ho11  1  0.346244  0.349242  0.955274  1
  Ho  Ho12  1  0.342762  0.963987  0.348790  1
  Ho  Ho13  1  0.814830  0.189388  0.806396  1
  Ho  Ho14  1  0.560568  0.562721  0.938505  1
  Ho  Ho15  1  0.186828  0.813549  0.186073  1
  Ho  Ho16  1  0.965196  0.343965  0.346875  1
  Cd  Cd17  1  0.256931  0.582464  0.578143  1
  Cd  Cd18  1  0.581568  0.582490  0.577462  1
  Cd  Cd19  1  0.581568  0.258482  0.577462  1
  Co  Co20  1  0.143927  0.142188  0.138658  1
  Co  Co21  1  0.143927  0.575228  0.138658  1
  Co  Co22  1  0.143008  0.140559  0.575875  1
  Ni  Ni23  1  0.575880  0.142204  0.139713  1
