# generated using pymatgen
data_NdB2OsRh
_symmetry_space_group_name_H-M   'P 1'
_cell_length_a   6.90910085
_cell_length_b   6.05123914
_cell_length_c   5.62710900
_cell_angle_alpha   72.44042759
_cell_angle_beta   56.61849037
_cell_angle_gamma   50.94108909
_symmetry_Int_Tables_number   1
_chemical_formula_structural   NdB2OsRh
_chemical_formula_sum   'Nd2 B4 Os2 Rh2'
_cell_volume   152.17489165
_cell_formula_units_Z   2
loop_
 _symmetry_equiv_pos_site_id
 _symmetry_equiv_pos_as_xyz
  1  'x, y, z'
loop_
 _atom_site_type_symbol
 _atom_site_label
 _atom_site_symmetry_multiplicity
 _atom_site_fract_x
 _atom_site_fract_y
 _atom_site_fract_z
 _atom_site_occupancy
  Nd  Nd0  1  0.000000  0.000000  0.000000  1
  Nd  Nd1  1  0.250000  0.250000  0.250000  1
  B  B2  1  0.309680  0.690320  0.309680  1
  B  B3  1  0.690320  0.309680  0.690320  1
  B  B4  1  0.576683  0.923317  0.576683  1
  B  B5  1  0.923317  0.576683  0.923317  1
  Os  Os6  1  0.614264  0.614264  0.885736  1
  Os  Os7  1  0.885736  0.885736  0.614264  1
  Rh  Rh8  1  0.633828  0.633828  0.366172  1
  Rh  Rh9  1  0.366172  0.366172  0.633828  1
