# generated using pymatgen
data_CsGaSnSe4
_symmetry_space_group_name_H-M   'P 1'
_cell_length_a   7.66904888
_cell_length_b   9.05083779
_cell_length_c   16.29235281
_cell_angle_alpha   85.38538827
_cell_angle_beta   85.84749704
_cell_angle_gamma   65.09067693
_symmetry_Int_Tables_number   1
_chemical_formula_structural   CsGaSnSe4
_chemical_formula_sum   'Cs4 Ga4 Sn4 Se16'
_cell_volume   1021.42111519
_cell_formula_units_Z   4
loop_
 _symmetry_equiv_pos_site_id
 _symmetry_equiv_pos_as_xyz
  1  'x, y, z'
loop_
 _atom_site_type_symbol
 _atom_site_label
 _atom_site_symmetry_multiplicity
 _atom_site_fract_x
 _atom_site_fract_y
 _atom_site_fract_z
 _atom_site_occupancy
  Cs  Cs0  1  0.084167  0.779678  0.139643  1
  Cs  Cs1  1  0.353181  0.812186  0.482798  1
  Cs  Cs2  1  0.646832  0.187816  0.517202  1
  Cs  Cs3  1  0.915826  0.220324  0.860351  1
  Ga  Ga4  1  0.006937  0.237056  0.242545  1
  Ga  Ga5  1  0.508942  0.250382  0.261940  1
  Ga  Ga6  1  0.491058  0.749620  0.738060  1
  Ga  Ga7  1  0.993062  0.762936  0.757457  1
  Sn  Sn8  1  0.367595  0.158399  0.064654  1
  Sn  Sn9  1  0.066953  0.491875  0.392856  1
  Sn  Sn10  1  0.933048  0.508126  0.607143  1
  Sn  Sn11  1  0.632400  0.841602  0.935349  1
  Se  Se12  1  0.008253  0.236598  0.091007  1
  Se  Se13  1  0.568490  0.846906  0.095181  1
  Se  Se14  1  0.489759  0.354105  0.118286  1
  Se  Se15  1  0.849321  0.526233  0.276105  1
  Se  Se16  1  0.327754  0.087803  0.295357  1
  Se  Se17  1  0.834335  0.079842  0.302985  1
  Se  Se18  1  0.388240  0.497706  0.345234  1
  Se  Se19  1  0.896584  0.733810  0.491178  1
  Se  Se20  1  0.103418  0.266194  0.508820  1
  Se  Se21  1  0.611757  0.502298  0.654766  1
  Se  Se22  1  0.165662  0.920151  0.697013  1
  Se  Se23  1  0.672246  0.912193  0.704642  1
  Se  Se24  1  0.150682  0.473762  0.723894  1
  Se  Se25  1  0.510249  0.645890  0.881713  1
  Se  Se26  1  0.431503  0.153095  0.904822  1
  Se  Se27  1  0.991742  0.763409  0.908994  1
