# generated using pymatgen
data_Tb2Fe2CuSi2Au
_symmetry_space_group_name_H-M   'P 1'
_cell_length_a   8.88465726
_cell_length_b   8.88465693
_cell_length_c   4.01752500
_cell_angle_alpha   90.00000000
_cell_angle_beta   90.00000000
_cell_angle_gamma   154.13238430
_symmetry_Int_Tables_number   1
_chemical_formula_structural   Tb2Fe2CuSi2Au
_chemical_formula_sum   'Tb2 Fe2 Cu1 Si2 Au1'
_cell_volume   138.36251590
_cell_formula_units_Z   1
loop_
 _symmetry_equiv_pos_site_id
 _symmetry_equiv_pos_as_xyz
  1  'x, y, z'
loop_
 _atom_site_type_symbol
 _atom_site_label
 _atom_site_symmetry_multiplicity
 _atom_site_fract_x
 _atom_site_fract_y
 _atom_site_fract_z
 _atom_site_occupancy
  Tb  Tb0  1  0.616705  0.383295  0.250000  1
  Tb  Tb1  1  0.380829  0.619171  0.750000  1
  Fe  Fe2  1  0.248820  0.751180  0.250000  1
  Fe  Fe3  1  0.748812  0.251188  0.750000  1
  Cu  Cu4  1  0.049286  0.950714  0.750000  1
  Si  Si5  1  0.810783  0.189217  0.250000  1
  Si  Si6  1  0.186020  0.813980  0.750000  1
  Au  Au7  1  0.958745  0.041255  0.250000  1
