# generated using pymatgen
data_Tb3DyTmPb3
_symmetry_space_group_name_H-M   'P 1'
_cell_length_a   6.63584600
_cell_length_b   9.06427151
_cell_length_c   9.06648300
_cell_angle_alpha   119.99193158
_cell_angle_beta   90.00091895
_cell_angle_gamma   89.99816671
_symmetry_Int_Tables_number   1
_chemical_formula_structural   Tb3DyTmPb3
_chemical_formula_sum   'Tb6 Dy2 Tm2 Pb6'
_cell_volume   472.31745041
_cell_formula_units_Z   2
loop_
 _symmetry_equiv_pos_site_id
 _symmetry_equiv_pos_as_xyz
  1  'x, y, z'
loop_
 _atom_site_type_symbol
 _atom_site_label
 _atom_site_symmetry_multiplicity
 _atom_site_fract_x
 _atom_site_fract_y
 _atom_site_fract_z
 _atom_site_occupancy
  Tb  Tb0  1  0.750349  0.238677  0.000000  1
  Tb  Tb1  1  0.750343  0.761225  0.761288  1
  Tb  Tb2  1  0.750343  0.999936  0.238712  1
  Tb  Tb3  1  0.249659  0.761323  0.000000  1
  Tb  Tb4  1  0.249655  0.238772  0.238712  1
  Tb  Tb5  1  0.249655  0.000062  0.761288  1
  Dy  Dy6  1  0.500001  0.333334  0.666703  1
  Dy  Dy7  1  0.500001  0.666631  0.333297  1
  Tm  Tm8  1  0.000001  0.666659  0.333283  1
  Tm  Tm9  1  0.000001  0.333377  0.666717  1
  Pb  Pb10  1  0.750912  0.604716  0.000000  1
  Pb  Pb11  1  0.750926  0.395229  0.395202  1
  Pb  Pb12  1  0.750926  0.000027  0.604798  1
  Pb  Pb13  1  0.249064  0.395291  0.000000  1
  Pb  Pb14  1  0.249082  0.604769  0.604796  1
  Pb  Pb15  1  0.249082  0.999973  0.395204  1
