# generated using pymatgen
data_TbHo(ZrSb)2
_symmetry_space_group_name_H-M   'P 1'
_cell_length_a   4.35691600
_cell_length_b   4.35691600
_cell_length_c   8.13842100
_cell_angle_alpha   90.00000000
_cell_angle_beta   90.00000000
_cell_angle_gamma   90.00000000
_symmetry_Int_Tables_number   1
_chemical_formula_structural   TbHo(ZrSb)2
_chemical_formula_sum   'Tb1 Ho1 Zr2 Sb2'
_cell_volume   154.48934292
_cell_formula_units_Z   1
loop_
 _symmetry_equiv_pos_site_id
 _symmetry_equiv_pos_as_xyz
  1  'x, y, z'
loop_
 _atom_site_type_symbol
 _atom_site_label
 _atom_site_symmetry_multiplicity
 _atom_site_fract_x
 _atom_site_fract_y
 _atom_site_fract_z
 _atom_site_occupancy
  Tb  Tb0  1  0.500000  0.000000  0.652486  1
  Ho  Ho1  1  0.000000  0.500000  0.346623  1
  Zr  Zr2  1  0.000000  0.000000  0.000470  1
  Zr  Zr3  1  0.500000  0.500000  0.000470  1
  Sb  Sb4  1  0.000000  0.500000  0.735124  1
  Sb  Sb5  1  0.500000  0.000000  0.264826  1
