# generated using pymatgen
data_Er5TcOsO12
_symmetry_space_group_name_H-M   'P 1'
_cell_length_a   6.79968910
_cell_length_b   6.79968982
_cell_length_c   7.44601600
_cell_angle_alpha   73.88717234
_cell_angle_beta   73.88716880
_cell_angle_gamma   49.08398896
_symmetry_Int_Tables_number   1
_chemical_formula_structural   Er5TcOsO12
_chemical_formula_sum   'Er5 Tc1 Os1 O12'
_cell_volume   247.75286639
_cell_formula_units_Z   1
loop_
 _symmetry_equiv_pos_site_id
 _symmetry_equiv_pos_as_xyz
  1  'x, y, z'
loop_
 _atom_site_type_symbol
 _atom_site_label
 _atom_site_symmetry_multiplicity
 _atom_site_fract_x
 _atom_site_fract_y
 _atom_site_fract_z
 _atom_site_occupancy
  Er  Er0  1  0.697925  0.698178  0.640849  1
  Er  Er1  1  0.301822  0.302075  0.359151  1
  Er  Er2  1  0.687811  0.685495  0.174670  1
  Er  Er3  1  0.314505  0.312189  0.825330  1
  Er  Er4  1  0.999813  0.000187  0.500000  1
  Tc  Tc5  1  0.215431  0.784569  0.000000  1
  Os  Os6  1  0.779534  0.220466  0.000000  1
  O  O7  1  0.998284  0.004232  0.205451  1
  O  O8  1  0.995768  0.001716  0.794549  1
  O  O9  1  0.579610  0.087155  0.085939  1
  O  O10  1  0.421117  0.911537  0.914068  1
  O  O11  1  0.912845  0.420390  0.914061  1
  O  O12  1  0.088463  0.578883  0.085932  1
  O  O13  1  0.502154  0.495963  0.178323  1
  O  O14  1  0.504037  0.497846  0.821677  1
  O  O15  1  0.405268  0.900823  0.427082  1
  O  O16  1  0.594669  0.098234  0.573144  1
  O  O17  1  0.099177  0.594732  0.572918  1
  O  O18  1  0.901766  0.405331  0.426856  1
