# generated using pymatgen
data_BaV2(OF4)2
_symmetry_space_group_name_H-M   'P 1'
_cell_length_a   5.32104723
_cell_length_b   5.78074587
_cell_length_c   7.67293652
_cell_angle_alpha   72.60726030
_cell_angle_beta   72.34267063
_cell_angle_gamma   91.06178233
_symmetry_Int_Tables_number   1
_chemical_formula_structural   BaV2(OF4)2
_chemical_formula_sum   'Ba1 V2 O2 F8'
_cell_volume   213.06146247
_cell_formula_units_Z   1
loop_
 _symmetry_equiv_pos_site_id
 _symmetry_equiv_pos_as_xyz
  1  'x, y, z'
loop_
 _atom_site_type_symbol
 _atom_site_label
 _atom_site_symmetry_multiplicity
 _atom_site_fract_x
 _atom_site_fract_y
 _atom_site_fract_z
 _atom_site_occupancy
  Ba  Ba0  1  0.000000  0.000000  0.000000  1
  V  V1  1  0.656598  0.649029  0.740607  1
  V  V2  1  0.343402  0.350971  0.259393  1
  O  O3  1  0.642034  0.709707  0.527213  1
  O  O4  1  0.357966  0.290293  0.472787  1
  F  F5  1  0.484379  0.892692  0.824243  1
  F  F6  1  0.515621  0.107308  0.175757  1
  F  F7  1  0.965314  0.822484  0.714810  1
  F  F8  1  0.034686  0.177516  0.285190  1
  F  F9  1  0.830046  0.374555  0.769796  1
  F  F10  1  0.169954  0.625445  0.230204  1
  F  F11  1  0.342579  0.440034  0.900095  1
  F  F12  1  0.657421  0.559966  0.099905  1
