# generated using pymatgen
data_Mn2RuI9
_symmetry_space_group_name_H-M   'P 1'
_cell_length_a   7.06383685
_cell_length_b   7.04762600
_cell_length_c   20.98624276
_cell_angle_alpha   89.70206116
_cell_angle_beta   90.14863105
_cell_angle_gamma   119.92412190
_symmetry_Int_Tables_number   1
_chemical_formula_structural   Mn2RuI9
_chemical_formula_sum   'Mn4 Ru2 I18'
_cell_volume   905.47093602
_cell_formula_units_Z   2
loop_
 _symmetry_equiv_pos_site_id
 _symmetry_equiv_pos_as_xyz
  1  'x, y, z'
loop_
 _atom_site_type_symbol
 _atom_site_label
 _atom_site_symmetry_multiplicity
 _atom_site_fract_x
 _atom_site_fract_y
 _atom_site_fract_z
 _atom_site_occupancy
  Mn  Mn0  1  0.555016  0.777508  0.000000  1
  Mn  Mn1  1  0.222722  0.777925  0.333376  1
  Mn  Mn2  1  0.222722  0.444797  0.666624  1
  Mn  Mn3  1  0.889802  0.444901  0.000000  1
  Ru  Ru4  1  0.556663  0.444591  0.333056  1
  Ru  Ru5  1  0.556663  0.112073  0.666944  1
  I  I6  1  0.220169  0.471031  0.922948  1
  I  I7  1  0.534139  0.748160  0.259588  1
  I  I8  1  0.220169  0.749140  0.077052  1
  I  I9  1  0.251809  0.786350  0.594081  1
  I  I10  1  0.534139  0.785978  0.740412  1
  I  I11  1  0.251809  0.465459  0.405919  1
  I  I12  1  0.582792  0.109787  0.923468  1
  I  I13  1  0.883269  0.468364  0.260598  1
  I  I14  1  0.582792  0.473007  0.076532  1
  I  I15  1  0.531277  0.415391  0.593005  1
  I  I16  1  0.883269  0.414905  0.739402  1
  I  I17  1  0.531277  0.115886  0.406995  1
  I  I18  1  0.860419  0.111805  0.077321  1
  I  I19  1  0.880028  0.745286  0.407135  1
  I  I20  1  0.860419  0.748614  0.922679  1
  I  I21  1  0.254303  0.134916  0.740219  1
  I  I22  1  0.880028  0.134741  0.592865  1
  I  I23  1  0.254303  0.119386  0.259781  1
