# generated using pymatgen
data_SmTm3Ge4F28
_symmetry_space_group_name_H-M   'P 1'
_cell_length_a   5.40073225
_cell_length_b   8.67069629
_cell_length_c   11.65725300
_cell_angle_alpha   62.47729084
_cell_angle_beta   90.09387812
_cell_angle_gamma   90.03605284
_symmetry_Int_Tables_number   1
_chemical_formula_structural   SmTm3Ge4F28
_chemical_formula_sum   'Sm1 Tm3 Ge4 F28'
_cell_volume   484.10718701
_cell_formula_units_Z   1
loop_
 _symmetry_equiv_pos_site_id
 _symmetry_equiv_pos_as_xyz
  1  'x, y, z'
loop_
 _atom_site_type_symbol
 _atom_site_label
 _atom_site_symmetry_multiplicity
 _atom_site_fract_x
 _atom_site_fract_y
 _atom_site_fract_z
 _atom_site_occupancy
  Sm  Sm0  1  0.740517  0.811998  0.264597  1
  Tm  Tm1  1  0.760570  0.812211  0.764212  1
  Tm  Tm2  1  0.260483  0.188665  0.736157  1
  Tm  Tm3  1  0.237985  0.193636  0.235273  1
  Ge  Ge4  1  0.759453  0.276801  0.955345  1
  Ge  Ge5  1  0.258378  0.725737  0.546694  1
  Ge  Ge6  1  0.243989  0.725684  0.038494  1
  Ge  Ge7  1  0.741616  0.269630  0.459603  1
  F  F8  1  0.434408  0.704282  0.918179  1
  F  F9  1  0.936839  0.292577  0.578713  1
  F  F10  1  0.564200  0.296134  0.075526  1
  F  F11  1  0.068350  0.704323  0.425434  1
  F  F12  1  0.456885  0.278153  0.544239  1
  F  F13  1  0.956056  0.718304  0.956222  1
  F  F14  1  0.543427  0.716001  0.464905  1
  F  F15  1  0.043919  0.282776  0.040831  1
  F  F16  1  0.773735  0.512553  0.860893  1
  F  F17  1  0.270214  0.488620  0.640258  1
  F  F18  1  0.227645  0.488494  0.134127  1
  F  F19  1  0.723769  0.504744  0.364898  1
  F  F20  1  0.760182  0.040670  0.044925  1
  F  F21  1  0.259428  0.961561  0.454159  1
  F  F22  1  0.241336  0.962376  0.949889  1
  F  F23  1  0.740959  0.034074  0.549208  1
  F  F24  1  0.983139  0.728839  0.636919  1
  F  F25  1  0.486642  0.272327  0.863014  1
  F  F26  1  0.016607  0.271014  0.366938  1
  F  F27  1  0.521132  0.726160  0.127905  1
  F  F28  1  0.059933  0.739379  0.165725  1
  F  F29  1  0.547936  0.253806  0.334266  1
  F  F30  1  0.953296  0.258879  0.831202  1
  F  F31  1  0.449194  0.742536  0.671625  1
  F  F32  1  0.395318  0.974969  0.227219  1
  F  F33  1  0.908067  0.041868  0.271895  1
  F  F34  1  0.587439  0.028527  0.770851  1
  F  F35  1  0.086954  0.971692  0.729663  1
