# generated using pymatgen
data_Ce2GeP3(IrRh)2
_symmetry_space_group_name_H-M   'P 1'
_cell_length_a   4.22896100
_cell_length_b   4.22896100
_cell_length_c   9.61378500
_cell_angle_alpha   90.00000000
_cell_angle_beta   90.00000000
_cell_angle_gamma   90.00000000
_symmetry_Int_Tables_number   1
_chemical_formula_structural   Ce2GeP3(IrRh)2
_chemical_formula_sum   'Ce2 Ge1 P3 Ir2 Rh2'
_cell_volume   171.93399941
_cell_formula_units_Z   1
loop_
 _symmetry_equiv_pos_site_id
 _symmetry_equiv_pos_as_xyz
  1  'x, y, z'
loop_
 _atom_site_type_symbol
 _atom_site_label
 _atom_site_symmetry_multiplicity
 _atom_site_fract_x
 _atom_site_fract_y
 _atom_site_fract_z
 _atom_site_occupancy
  Ce  Ce0  1  0.000000  0.500000  0.241384  1
  Ce  Ce1  1  0.500000  0.000000  0.763352  1
  Ge  Ge2  1  0.000000  0.500000  0.637580  1
  P  P3  1  0.000000  0.000000  0.003644  1
  P  P4  1  0.500000  0.500000  0.003644  1
  P  P5  1  0.500000  0.000000  0.360938  1
  Ir  Ir6  1  0.000000  0.500000  0.897107  1
  Ir  Ir7  1  0.500000  0.000000  0.113316  1
  Rh  Rh8  1  0.000000  0.000000  0.489517  1
  Rh  Rh9  1  0.500000  0.500000  0.489517  1
