# generated using pymatgen
data_Hf8Ti8Re3Si16Mo
_symmetry_space_group_name_H-M   'P 1'
_cell_length_a   6.50221900
_cell_length_b   6.67993012
_cell_length_c   12.96733400
_cell_angle_alpha   90.00000000
_cell_angle_beta   90.00000000
_cell_angle_gamma   89.96603111
_symmetry_Int_Tables_number   1
_chemical_formula_structural   Hf8Ti8Re3Si16Mo
_chemical_formula_sum   'Hf8 Ti8 Re3 Si16 Mo1'
_cell_volume   563.22786530
_cell_formula_units_Z   1
loop_
 _symmetry_equiv_pos_site_id
 _symmetry_equiv_pos_as_xyz
  1  'x, y, z'
loop_
 _atom_site_type_symbol
 _atom_site_label
 _atom_site_symmetry_multiplicity
 _atom_site_fract_x
 _atom_site_fract_y
 _atom_site_fract_z
 _atom_site_occupancy
  Hf  Hf0  1  0.994454  0.172343  0.089608  1
  Hf  Hf1  1  0.004325  0.828142  0.909727  1
  Hf  Hf2  1  0.505533  0.672650  0.909684  1
  Hf  Hf3  1  0.004325  0.828142  0.590273  1
  Hf  Hf4  1  0.494513  0.327979  0.089654  1
  Hf  Hf5  1  0.994454  0.172343  0.410392  1
  Hf  Hf6  1  0.494513  0.327979  0.410346  1
  Hf  Hf7  1  0.505533  0.672650  0.590316  1
  Ti  Ti8  1  0.335182  0.165829  0.624268  1
  Ti  Ti9  1  0.667131  0.834271  0.374635  1
  Ti  Ti10  1  0.165892  0.665328  0.375214  1
  Ti  Ti11  1  0.667131  0.834271  0.125365  1
  Ti  Ti12  1  0.832815  0.332507  0.624468  1
  Ti  Ti13  1  0.335182  0.165829  0.875732  1
  Ti  Ti14  1  0.832815  0.332507  0.875532  1
  Ti  Ti15  1  0.165892  0.665328  0.124786  1
  Re  Re16  1  0.159028  0.494108  0.750000  1
  Re  Re17  1  0.841213  0.507055  0.250000  1
  Re  Re18  1  0.340917  0.994190  0.250000  1
  Si  Si19  1  0.034794  0.116122  0.750000  1
  Si  Si20  1  0.968732  0.886323  0.250000  1
  Si  Si21  1  0.467703  0.614327  0.250000  1
  Si  Si22  1  0.531073  0.386643  0.750000  1
  Si  Si23  1  0.296347  0.855270  0.750000  1
  Si  Si24  1  0.702096  0.145540  0.250000  1
  Si  Si25  1  0.202101  0.354759  0.250000  1
  Si  Si26  1  0.798313  0.642497  0.750000  1
  Si  Si27  1  0.171479  0.459023  0.539148  1
  Si  Si28  1  0.828083  0.541344  0.461573  1
  Si  Si29  1  0.328045  0.958500  0.460762  1
  Si  Si30  1  0.828083  0.541344  0.038427  1
  Si  Si31  1  0.671269  0.040122  0.537914  1
  Si  Si32  1  0.171479  0.459023  0.960852  1
  Si  Si33  1  0.671269  0.040122  0.962086  1
  Si  Si34  1  0.328045  0.958500  0.039238  1
  Mo  Mo35  1  0.660239  0.007087  0.750000  1
