# generated using pymatgen
data_Ce2(B2Ir3)3
_symmetry_space_group_name_H-M   'P 1'
_cell_length_a   5.68162601
_cell_length_b   5.68433822
_cell_length_c   8.63535435
_cell_angle_alpha   89.99372412
_cell_angle_beta   89.98743216
_cell_angle_gamma   60.01578231
_symmetry_Int_Tables_number   1
_chemical_formula_structural   Ce2(B2Ir3)3
_chemical_formula_sum   'Ce2 B6 Ir9'
_cell_volume   241.56409535
_cell_formula_units_Z   1
loop_
 _symmetry_equiv_pos_site_id
 _symmetry_equiv_pos_as_xyz
  1  'x, y, z'
loop_
 _atom_site_type_symbol
 _atom_site_label
 _atom_site_symmetry_multiplicity
 _atom_site_fract_x
 _atom_site_fract_y
 _atom_site_fract_z
 _atom_site_occupancy
  Ce  Ce0  1  0.999790  0.000000  0.299978  1
  Ce  Ce1  1  0.000109  0.000000  0.698550  1
  B  B2  1  0.666743  0.666531  0.000110  1
  B  B3  1  0.333274  0.333469  0.000110  1
  B  B4  1  0.666706  0.666557  0.332088  1
  B  B5  1  0.333263  0.333443  0.332088  1
  B  B6  1  0.333353  0.333438  0.668132  1
  B  B7  1  0.666792  0.666562  0.668132  1
  Ir  Ir8  1  0.499810  0.000000  0.163685  1
  Ir  Ir9  1  0.999954  0.499929  0.163656  1
  Ir  Ir10  1  0.499882  0.500071  0.163656  1
  Ir  Ir11  1  0.500081  0.000000  0.836550  1
  Ir  Ir12  1  0.000028  0.500029  0.836582  1
  Ir  Ir13  1  0.500058  0.499971  0.836582  1
  Ir  Ir14  1  0.500006  0.000000  0.500036  1
  Ir  Ir15  1  0.000034  0.499984  0.500033  1
  Ir  Ir16  1  0.500018  0.500016  0.500033  1
