# generated using pymatgen
data_Tb11In9Co3Ni
_symmetry_space_group_name_H-M   'P 1'
_cell_length_a   3.63956800
_cell_length_b   13.03501878
_cell_length_c   13.01027494
_cell_angle_alpha   110.98074489
_cell_angle_beta   90.00000000
_cell_angle_gamma   90.00000000
_symmetry_Int_Tables_number   1
_chemical_formula_structural   Tb11In9Co3Ni
_chemical_formula_sum   'Tb11 In9 Co3 Ni1'
_cell_volume   576.30940703
_cell_formula_units_Z   1
loop_
 _symmetry_equiv_pos_site_id
 _symmetry_equiv_pos_as_xyz
  1  'x, y, z'
loop_
 _atom_site_type_symbol
 _atom_site_label
 _atom_site_symmetry_multiplicity
 _atom_site_fract_x
 _atom_site_fract_y
 _atom_site_fract_z
 _atom_site_occupancy
  Tb  Tb0  1  0.000000  0.917105  0.579752  1
  Tb  Tb1  1  0.000000  0.082063  0.420652  1
  Tb  Tb2  1  0.000000  0.579282  0.916714  1
  Tb  Tb3  1  0.000000  0.419928  0.079356  1
  Tb  Tb4  1  0.000000  0.159448  0.839983  1
  Tb  Tb5  1  0.000000  0.840846  0.159907  1
  Tb  Tb6  1  0.000000  0.375243  0.625406  1
  Tb  Tb7  1  0.000000  0.629484  0.378987  1
  Tb  Tb8  1  0.000000  0.685933  0.686018  1
  Tb  Tb9  1  0.000000  0.311653  0.316217  1
  Tb  Tb10  1  0.000000  0.999178  0.999584  1
  In  In11  1  0.500000  0.161519  0.631983  1
  In  In12  1  0.500000  0.838641  0.367989  1
  In  In13  1  0.500000  0.632508  0.159394  1
  In  In14  1  0.500000  0.367976  0.838619  1
  In  In15  1  0.500000  0.920549  0.778824  1
  In  In16  1  0.500000  0.079739  0.221506  1
  In  In17  1  0.500000  0.778519  0.920888  1
  In  In18  1  0.500000  0.220017  0.077466  1
  In  In19  1  0.500000  0.499880  0.500098  1
  Co  Co20  1  0.500000  0.753991  0.549834  1
  Co  Co21  1  0.500000  0.244690  0.449150  1
  Co  Co22  1  0.500000  0.551284  0.754543  1
  Ni  Ni23  1  0.500000  0.450524  0.247129  1
