# generated using pymatgen
data_Sc(TaRe6)4
_symmetry_space_group_name_H-M   'P 1'
_cell_length_a   8.42046616
_cell_length_b   8.42046651
_cell_length_c   8.42046600
_cell_angle_alpha   109.47121220
_cell_angle_beta   109.47121304
_cell_angle_gamma   109.47123420
_symmetry_Int_Tables_number   1
_chemical_formula_structural   Sc(TaRe6)4
_chemical_formula_sum   'Sc1 Ta4 Re24'
_cell_volume   459.60689634
_cell_formula_units_Z   1
loop_
 _symmetry_equiv_pos_site_id
 _symmetry_equiv_pos_as_xyz
  1  'x, y, z'
loop_
 _atom_site_type_symbol
 _atom_site_label
 _atom_site_symmetry_multiplicity
 _atom_site_fract_x
 _atom_site_fract_y
 _atom_site_fract_z
 _atom_site_occupancy
  Sc  Sc0  1  0.000000  0.000000  0.000000  1
  Ta  Ta1  1  0.631574  0.000000  0.000000  1
  Ta  Ta2  1  0.000000  0.631574  0.000000  1
  Ta  Ta3  1  0.000000  0.000000  0.631574  1
  Ta  Ta4  1  0.368426  0.368426  0.368426  1
  Re  Re5  1  0.399873  0.681962  0.000000  1
  Re  Re6  1  0.717910  0.318038  0.318038  1
  Re  Re7  1  0.399873  0.000000  0.681962  1
  Re  Re8  1  0.681962  0.399873  0.000000  1
  Re  Re9  1  0.000000  0.399873  0.681962  1
  Re  Re10  1  0.318038  0.717910  0.318038  1
  Re  Re11  1  0.318038  0.318038  0.717910  1
  Re  Re12  1  0.000000  0.681962  0.399873  1
  Re  Re13  1  0.681962  0.000000  0.399873  1
  Re  Re14  1  0.600127  0.600127  0.282090  1
  Re  Re15  1  0.282090  0.600127  0.600127  1
  Re  Re16  1  0.600127  0.282090  0.600127  1
  Re  Re17  1  0.376002  0.194431  0.000000  1
  Re  Re18  1  0.181571  0.805569  0.805569  1
  Re  Re19  1  0.376002  0.000000  0.194431  1
  Re  Re20  1  0.194431  0.376002  0.000000  1
  Re  Re21  1  0.000000  0.376002  0.194431  1
  Re  Re22  1  0.805569  0.181571  0.805569  1
  Re  Re23  1  0.805569  0.805569  0.181571  1
  Re  Re24  1  0.000000  0.194431  0.376002  1
  Re  Re25  1  0.194431  0.000000  0.376002  1
  Re  Re26  1  0.623998  0.623998  0.818429  1
  Re  Re27  1  0.818429  0.623998  0.623998  1
  Re  Re28  1  0.623998  0.818429  0.623998  1
