# generated using pymatgen
data_MnF18
_symmetry_space_group_name_H-M   'P 1'
_cell_length_a   6.14669854
_cell_length_b   9.14718147
_cell_length_c   13.07490232
_cell_angle_alpha   100.12976421
_cell_angle_beta   90.55874209
_cell_angle_gamma   105.19979575
_symmetry_Int_Tables_number   1
_chemical_formula_structural   MnF18
_chemical_formula_sum   'Mn2 F36'
_cell_volume   697.15197143
_cell_formula_units_Z   2
loop_
 _symmetry_equiv_pos_site_id
 _symmetry_equiv_pos_as_xyz
  1  'x, y, z'
loop_
 _atom_site_type_symbol
 _atom_site_label
 _atom_site_symmetry_multiplicity
 _atom_site_fract_x
 _atom_site_fract_y
 _atom_site_fract_z
 _atom_site_occupancy
  Mn  Mn0  1  0.125314  0.959536  0.311530  1
  Mn  Mn1  1  0.874686  0.040464  0.688470  1
  F  F2  1  0.656751  0.614925  0.364528  1
  F  F3  1  0.343249  0.385075  0.635472  1
  F  F4  1  0.046271  0.341066  0.360824  1
  F  F5  1  0.953729  0.658934  0.639176  1
  F  F6  1  0.187391  0.925781  0.958634  1
  F  F7  1  0.812609  0.074219  0.041366  1
  F  F8  1  0.849398  0.886997  0.350164  1
  F  F9  1  0.150602  0.113003  0.649836  1
  F  F10  1  0.109330  0.760552  0.235873  1
  F  F11  1  0.890670  0.239448  0.764127  1
  F  F12  1  0.524005  0.469931  0.383945  1
  F  F13  1  0.475995  0.530069  0.616055  1
  F  F14  1  0.049058  0.036695  0.208728  1
  F  F15  1  0.950942  0.963305  0.791272  1
  F  F16  1  0.183937  0.126544  0.410913  1
  F  F17  1  0.816063  0.873456  0.589087  1
  F  F18  1  0.011612  0.463928  0.314304  1
  F  F19  1  0.988388  0.536072  0.685696  1
  F  F20  1  0.745517  0.725054  0.064284  1
  F  F21  1  0.254483  0.274946  0.935716  1
  F  F22  1  0.839011  0.603933  0.018322  1
  F  F23  1  0.160989  0.396067  0.981678  1
  F  F24  1  0.514788  0.588090  0.854374  1
  F  F25  1  0.485212  0.411910  0.145626  1
  F  F26  1  0.436586  0.008823  0.284166  1
  F  F27  1  0.563414  0.991177  0.715834  1
  F  F28  1  0.255393  0.898927  0.459944  1
  F  F29  1  0.744607  0.101073  0.540056  1
  F  F30  1  0.301787  0.884526  0.040019  1
  F  F31  1  0.698213  0.115474  0.959981  1
  F  F32  1  0.432487  0.802362  0.208935  1
  F  F33  1  0.567513  0.197638  0.791065  1
  F  F34  1  0.620598  0.309996  0.155987  1
  F  F35  1  0.379402  0.690004  0.844013  1
  F  F36  1  0.296929  0.749562  0.453955  1
  F  F37  1  0.703071  0.250438  0.546045  1
