# generated using pymatgen
data_Tm10In8AgRh3
_symmetry_space_group_name_H-M   'P 1'
_cell_length_a   3.57269100
_cell_length_b   8.07672311
_cell_length_c   18.16080153
_cell_angle_alpha   90.12179783
_cell_angle_beta   90.00000000
_cell_angle_gamma   90.00000000
_symmetry_Int_Tables_number   1
_chemical_formula_structural   Tm10In8AgRh3
_chemical_formula_sum   'Tm10 In8 Ag1 Rh3'
_cell_volume   524.04029401
_cell_formula_units_Z   1
loop_
 _symmetry_equiv_pos_site_id
 _symmetry_equiv_pos_as_xyz
  1  'x, y, z'
loop_
 _atom_site_type_symbol
 _atom_site_label
 _atom_site_symmetry_multiplicity
 _atom_site_fract_x
 _atom_site_fract_y
 _atom_site_fract_z
 _atom_site_occupancy
  Tm  Tm0  1  0.000000  0.116626  0.415406  1
  Tm  Tm1  1  0.000000  0.882929  0.588340  1
  Tm  Tm2  1  0.000000  0.383459  0.911201  1
  Tm  Tm3  1  0.000000  0.623066  0.079226  1
  Tm  Tm4  1  0.000000  0.222418  0.221988  1
  Tm  Tm5  1  0.000000  0.756281  0.778590  1
  Tm  Tm6  1  0.000000  0.254022  0.721814  1
  Tm  Tm7  1  0.000000  0.762841  0.282517  1
  Tm  Tm8  1  0.000000  0.000819  0.998741  1
  Tm  Tm9  1  0.000000  0.500374  0.500827  1
  In  In10  1  0.500000  0.421679  0.352364  1
  In  In11  1  0.500000  0.571897  0.650314  1
  In  In12  1  0.500000  0.073024  0.850070  1
  In  In13  1  0.500000  0.924508  0.148248  1
  In  In14  1  0.500000  0.293642  0.064934  1
  In  In15  1  0.500000  0.707570  0.930750  1
  In  In16  1  0.500000  0.206577  0.567855  1
  In  In17  1  0.500000  0.792872  0.433600  1
  Ag  Ag18  1  0.500000  0.523083  0.198135  1
  Rh  Rh19  1  0.500000  0.025797  0.305530  1
  Rh  Rh20  1  0.500000  0.978277  0.695587  1
  Rh  Rh21  1  0.500000  0.478236  0.803964  1
