# generated using pymatgen
data_CeHoErP4Pd7
_symmetry_space_group_name_H-M   'P 1'
_cell_length_a   7.94145733
_cell_length_b   7.94145851
_cell_length_c   9.48182901
_cell_angle_alpha   55.64416245
_cell_angle_beta   55.64415814
_cell_angle_gamma   29.21871886
_symmetry_Int_Tables_number   1
_chemical_formula_structural   CeHoErP4Pd7
_chemical_formula_sum   'Ce1 Ho1 Er1 P4 Pd7'
_cell_volume   237.12547759
_cell_formula_units_Z   1
loop_
 _symmetry_equiv_pos_site_id
 _symmetry_equiv_pos_as_xyz
  1  'x, y, z'
loop_
 _atom_site_type_symbol
 _atom_site_label
 _atom_site_symmetry_multiplicity
 _atom_site_fract_x
 _atom_site_fract_y
 _atom_site_fract_z
 _atom_site_occupancy
  Ce  Ce0  1  0.499872  0.499872  0.500094  1
  Ho  Ho1  1  0.819845  0.819845  0.177222  1
  Er  Er2  1  0.180064  0.180064  0.823020  1
  P  P3  1  0.394184  0.394184  0.319228  1
  P  P4  1  0.606102  0.606102  0.680805  1
  P  P5  1  0.840531  0.840531  0.752814  1
  P  P6  1  0.159078  0.159078  0.247758  1
  Pd  Pd7  1  0.669146  0.669146  0.071756  1
  Pd  Pd8  1  0.010165  0.010165  0.211308  1
  Pd  Pd9  1  0.989857  0.989857  0.788670  1
  Pd  Pd10  1  0.500425  0.500425  0.999456  1
  Pd  Pd11  1  0.194315  0.194315  0.471443  1
  Pd  Pd12  1  0.805591  0.805591  0.529273  1
  Pd  Pd13  1  0.330824  0.330824  0.927153  1
