# generated using pymatgen
data_Be7SiOs2
_symmetry_space_group_name_H-M   'P 1'
_cell_length_a   4.63393776
_cell_length_b   4.41516936
_cell_length_c   5.82819198
_cell_angle_alpha   104.63577029
_cell_angle_beta   90.03200145
_cell_angle_gamma   121.67267045
_symmetry_Int_Tables_number   1
_chemical_formula_structural   Be7SiOs2
_chemical_formula_sum   'Be7 Si1 Os2'
_cell_volume   96.89614951
_cell_formula_units_Z   1
loop_
 _symmetry_equiv_pos_site_id
 _symmetry_equiv_pos_as_xyz
  1  'x, y, z'
loop_
 _atom_site_type_symbol
 _atom_site_label
 _atom_site_symmetry_multiplicity
 _atom_site_fract_x
 _atom_site_fract_y
 _atom_site_fract_z
 _atom_site_occupancy
  Be  Be0  1  0.391105  0.918567  0.596589  1
  Be  Be1  1  0.714359  0.062518  0.936705  1
  Be  Be2  1  0.808778  0.261540  0.346270  1
  Be  Be3  1  0.412130  0.467672  0.763941  1
  Be  Be4  1  0.206459  0.052737  0.925416  1
  Be  Be5  1  0.731188  0.599025  0.093586  1
  Be  Be6  1  0.909513  0.457549  0.754759  1
  Si  Si7  1  0.302438  0.259984  0.344670  1
  Os  Os8  1  0.268934  0.678200  0.155663  1
  Os  Os9  1  0.851142  0.842928  0.534663  1
