# generated using pymatgen
data_GeIr2S5
_symmetry_space_group_name_H-M   'P 1'
_cell_length_a   3.56033800
_cell_length_b   7.31414917
_cell_length_c   12.45182412
_cell_angle_alpha   76.81730682
_cell_angle_beta   90.00000000
_cell_angle_gamma   90.00000000
_symmetry_Int_Tables_number   1
_chemical_formula_structural   GeIr2S5
_chemical_formula_sum   'Ge2 Ir4 S10'
_cell_volume   315.71115210
_cell_formula_units_Z   2
loop_
 _symmetry_equiv_pos_site_id
 _symmetry_equiv_pos_as_xyz
  1  'x, y, z'
loop_
 _atom_site_type_symbol
 _atom_site_label
 _atom_site_symmetry_multiplicity
 _atom_site_fract_x
 _atom_site_fract_y
 _atom_site_fract_z
 _atom_site_occupancy
  Ge  Ge0  1  0.500000  0.163009  0.675017  1
  Ge  Ge1  1  0.500000  0.836991  0.324983  1
  Ir  Ir2  1  0.000000  0.250836  0.146447  1
  Ir  Ir3  1  0.000000  0.749164  0.853553  1
  Ir  Ir4  1  0.500000  0.746576  0.144593  1
  Ir  Ir5  1  0.500000  0.253424  0.855407  1
  S  S6  1  0.000000  0.955638  0.097693  1
  S  S7  1  0.000000  0.044362  0.902307  1
  S  S8  1  0.000000  0.468636  0.783573  1
  S  S9  1  0.000000  0.531364  0.216427  1
  S  S10  1  0.500000  0.656693  0.975044  1
  S  S11  1  0.500000  0.343307  0.024956  1
  S  S12  1  0.500000  0.166531  0.277876  1
  S  S13  1  0.500000  0.833469  0.722124  1
  S  S14  1  0.000000  0.230273  0.559344  1
  S  S15  1  0.000000  0.769727  0.440656  1
