# generated using pymatgen
data_Zr6BeSi12Rh5
_symmetry_space_group_name_H-M   'P 1'
_cell_length_a   10.00880198
_cell_length_b   10.00925705
_cell_length_c   9.98415029
_cell_angle_alpha   148.96006927
_cell_angle_beta   133.57498391
_cell_angle_gamma   57.03303385
_symmetry_Int_Tables_number   1
_chemical_formula_structural   Zr6BeSi12Rh5
_chemical_formula_sum   'Zr6 Be1 Si12 Rh5'
_cell_volume   370.74642859
_cell_formula_units_Z   1
loop_
 _symmetry_equiv_pos_site_id
 _symmetry_equiv_pos_as_xyz
  1  'x, y, z'
loop_
 _atom_site_type_symbol
 _atom_site_label
 _atom_site_symmetry_multiplicity
 _atom_site_fract_x
 _atom_site_fract_y
 _atom_site_fract_z
 _atom_site_occupancy
  Zr  Zr0  1  0.349529  0.102524  0.260949  1
  Zr  Zr1  1  0.650471  0.897476  0.739051  1
  Zr  Zr2  1  0.163138  0.906827  0.257612  1
  Zr  Zr3  1  0.836862  0.093173  0.742388  1
  Zr  Zr4  1  0.634559  0.631897  0.987821  1
  Zr  Zr5  1  0.365441  0.368103  0.012179  1
  Be  Be6  1  0.500000  0.500000  0.500000  1
  Si  Si7  1  0.002744  0.781683  0.779320  1
  Si  Si8  1  0.997256  0.218317  0.220680  1
  Si  Si9  1  0.498136  0.228973  0.729212  1
  Si  Si10  1  0.501864  0.771027  0.270788  1
  Si  Si11  1  0.204361  0.210012  0.007959  1
  Si  Si12  1  0.795639  0.789988  0.992041  1
  Si  Si13  1  0.293838  0.792146  0.499971  1
  Si  Si14  1  0.706162  0.207854  0.500029  1
  Si  Si15  1  0.717161  0.370371  0.362070  1
  Si  Si16  1  0.282839  0.629629  0.637930  1
  Si  Si17  1  0.988688  0.643080  0.356128  1
  Si  Si18  1  0.011312  0.356920  0.643872  1
  Rh  Rh19  1  0.500000  0.000000  0.000000  1
  Rh  Rh20  1  0.000000  0.000000  0.500000  1
  Rh  Rh21  1  0.000000  0.500000  0.000000  1
  Rh  Rh22  1  0.242938  0.503169  0.747168  1
  Rh  Rh23  1  0.757062  0.496831  0.252832  1
