# generated using pymatgen
data_Cs6Cr(RhBr6)3
_symmetry_space_group_name_H-M   'P 1'
_cell_length_a   7.75174500
_cell_length_b   7.75174467
_cell_length_c   19.47374300
_cell_angle_alpha   90.00000000
_cell_angle_beta   90.00000000
_cell_angle_gamma   119.99999715
_symmetry_Int_Tables_number   1
_chemical_formula_structural   Cs6Cr(RhBr6)3
_chemical_formula_sum   'Cs6 Cr1 Rh3 Br18'
_cell_volume   1013.39560265
_cell_formula_units_Z   1
loop_
 _symmetry_equiv_pos_site_id
 _symmetry_equiv_pos_as_xyz
  1  'x, y, z'
loop_
 _atom_site_type_symbol
 _atom_site_label
 _atom_site_symmetry_multiplicity
 _atom_site_fract_x
 _atom_site_fract_y
 _atom_site_fract_z
 _atom_site_occupancy
  Cs  Cs0  1  0.666667  0.333333  0.930897  1
  Cs  Cs1  1  0.333333  0.666667  0.431042  1
  Cs  Cs2  1  0.666667  0.333333  0.570046  1
  Cs  Cs3  1  0.333333  0.666667  0.069546  1
  Cs  Cs4  1  0.000000  0.000000  0.749184  1
  Cs  Cs5  1  0.000000  0.000000  0.250174  1
  Cr  Cr6  1  0.333333  0.666667  0.835916  1
  Rh  Rh7  1  0.333333  0.666667  0.667047  1
  Rh  Rh8  1  0.666667  0.333333  0.165962  1
  Rh  Rh9  1  0.666667  0.333333  0.334022  1
  Br  Br10  1  0.819530  0.639059  0.406130  1
  Br  Br11  1  0.179112  0.358225  0.905272  1
  Br  Br12  1  0.179112  0.820888  0.905272  1
  Br  Br13  1  0.180844  0.361688  0.594181  1
  Br  Br14  1  0.641775  0.820888  0.905272  1
  Br  Br15  1  0.360941  0.180470  0.406130  1
  Br  Br16  1  0.037230  0.518615  0.749384  1
  Br  Br17  1  0.819530  0.180470  0.406130  1
  Br  Br18  1  0.519748  0.039496  0.249973  1
  Br  Br19  1  0.481385  0.518615  0.749384  1
  Br  Br20  1  0.519748  0.480252  0.249973  1
  Br  Br21  1  0.960504  0.480252  0.249973  1
  Br  Br22  1  0.361107  0.180553  0.093781  1
  Br  Br23  1  0.481385  0.962770  0.749384  1
  Br  Br24  1  0.819447  0.638893  0.093781  1
  Br  Br25  1  0.180844  0.819156  0.594181  1
  Br  Br26  1  0.638312  0.819156  0.594181  1
  Br  Br27  1  0.819447  0.180553  0.093781  1
