# generated using pymatgen
data_Tm3Lu9Co5Hg
_symmetry_space_group_name_H-M   'P 1'
_cell_length_a   8.09030703
_cell_length_b   8.08643664
_cell_length_c   8.09030623
_cell_angle_alpha   110.99656684
_cell_angle_beta   110.81762788
_cell_angle_gamma   106.65463541
_symmetry_Int_Tables_number   1
_chemical_formula_structural   Tm3Lu9Co5Hg
_chemical_formula_sum   'Tm3 Lu9 Co5 Hg1'
_cell_volume   406.60899236
_cell_formula_units_Z   1
loop_
 _symmetry_equiv_pos_site_id
 _symmetry_equiv_pos_as_xyz
  1  'x, y, z'
loop_
 _atom_site_type_symbol
 _atom_site_label
 _atom_site_symmetry_multiplicity
 _atom_site_fract_x
 _atom_site_fract_y
 _atom_site_fract_z
 _atom_site_occupancy
  Tm  Tm0  1  0.783567  0.591182  0.807614  1
  Tm  Tm1  1  0.216901  0.024570  0.807671  1
  Tm  Tm2  1  0.783008  0.975926  0.192917  1
  Lu  Lu3  1  0.285910  0.183990  0.469275  1
  Lu  Lu4  1  0.713078  0.815546  0.529194  1
  Lu  Lu5  1  0.286352  0.815546  0.102467  1
  Lu  Lu6  1  0.714715  0.183990  0.898080  1
  Lu  Lu7  1  0.619425  0.315569  0.304769  1
  Lu  Lu8  1  0.379866  0.684449  0.694710  1
  Lu  Lu9  1  0.010800  0.315569  0.696144  1
  Lu  Lu10  1  0.989739  0.684449  0.304584  1
  Lu  Lu11  1  0.216341  0.409216  0.192876  1
  Co  Co12  1  0.999787  0.374539  0.374752  1
  Co  Co13  1  0.999753  0.624028  0.624275  1
  Co  Co14  1  0.386149  0.886230  0.500081  1
  Co  Co15  1  0.613853  0.113376  0.499523  1
  Co  Co16  1  0.000567  0.001626  0.001060  1
  Hg  Hg17  1  0.500192  0.500200  0.000009  1
