# generated using pymatgen
data_SnBi2Te4Se
_symmetry_space_group_name_H-M   'P 1'
_cell_length_a   25.21830974
_cell_length_b   25.21830937
_cell_length_c   6.43954053
_cell_angle_alpha   98.66191241
_cell_angle_beta   98.66191332
_cell_angle_gamma   12.96418573
_symmetry_Int_Tables_number   1
_chemical_formula_structural   SnBi2Te4Se
_chemical_formula_sum   'Sn3 Bi6 Te12 Se3'
_cell_volume   908.13480814
_cell_formula_units_Z   3
loop_
 _symmetry_equiv_pos_site_id
 _symmetry_equiv_pos_as_xyz
  1  'x, y, z'
loop_
 _atom_site_type_symbol
 _atom_site_label
 _atom_site_symmetry_multiplicity
 _atom_site_fract_x
 _atom_site_fract_y
 _atom_site_fract_z
 _atom_site_occupancy
  Sn  Sn0  1  0.965353  0.965353  0.112990  1
  Sn  Sn1  1  0.449671  0.449671  0.597018  1
  Sn  Sn2  1  0.586432  0.586432  0.516830  1
  Bi  Bi3  1  0.259220  0.259220  0.947002  1
  Bi  Bi4  1  0.739098  0.739098  0.474193  1
  Bi  Bi5  1  0.876252  0.876252  0.926679  1
  Bi  Bi6  1  0.319700  0.319700  0.199396  1
  Bi  Bi7  1  0.179459  0.179459  0.275280  1
  Bi  Bi8  1  0.647299  0.647299  0.755970  1
  Te  Te9  1  0.087646  0.087646  0.521744  1
  Te  Te10  1  0.606168  0.606168  0.065482  1
  Te  Te11  1  0.878866  0.878866  0.401999  1
  Te  Te12  1  0.375519  0.375519  0.906939  1
  Te  Te13  1  0.466439  0.466439  0.111642  1
  Te  Te14  1  0.949107  0.949107  0.590959  1
  Te  Te15  1  0.550514  0.550514  0.931785  1
  Te  Te16  1  0.033539  0.033539  0.321353  1
  Te  Te17  1  0.306997  0.306997  0.729334  1
  Te  Te18  1  0.823207  0.823207  0.223647  1
  Te  Te19  1  0.153974  0.153974  0.784717  1
  Te  Te20  1  0.678133  0.678133  0.281191  1
  Se  Se21  1  0.044273  0.044273  0.942307  1
  Se  Se22  1  0.753829  0.753829  0.935713  1
  Se  Se23  1  0.237392  0.237392  0.445831  1
