# generated using pymatgen
data_Nb4Fe3CoP4
_symmetry_space_group_name_H-M   'P 1'
_cell_length_a   3.59005500
_cell_length_b   6.15692114
_cell_length_c   6.98553356
_cell_angle_alpha   90.11573305
_cell_angle_beta   90.00000000
_cell_angle_gamma   90.00000000
_symmetry_Int_Tables_number   1
_chemical_formula_structural   Nb4Fe3CoP4
_chemical_formula_sum   'Nb4 Fe3 Co1 P4'
_cell_volume   154.40572209
_cell_formula_units_Z   1
loop_
 _symmetry_equiv_pos_site_id
 _symmetry_equiv_pos_as_xyz
  1  'x, y, z'
loop_
 _atom_site_type_symbol
 _atom_site_label
 _atom_site_symmetry_multiplicity
 _atom_site_fract_x
 _atom_site_fract_y
 _atom_site_fract_z
 _atom_site_occupancy
  Nb  Nb0  1  0.250000  0.522943  0.173640  1
  Nb  Nb1  1  0.750000  0.475335  0.825487  1
  Nb  Nb2  1  0.750000  0.976472  0.676244  1
  Nb  Nb3  1  0.250000  0.023246  0.323965  1
  Fe  Fe4  1  0.750000  0.360424  0.439224  1
  Fe  Fe5  1  0.750000  0.859646  0.061736  1
  Fe  Fe6  1  0.250000  0.141861  0.937516  1
  Co  Co7  1  0.250000  0.641614  0.562234  1
  P  P8  1  0.250000  0.778504  0.883084  1
  P  P9  1  0.750000  0.221927  0.119174  1
  P  P10  1  0.750000  0.722671  0.378142  1
  P  P11  1  0.250000  0.275357  0.619556  1
