# generated using pymatgen
data_Er12Co4PtPb
_symmetry_space_group_name_H-M   'P 1'
_cell_length_a   8.26477569
_cell_length_b   8.26477571
_cell_length_c   8.26477596
_cell_angle_alpha   111.08935362
_cell_angle_beta   110.64843999
_cell_angle_gamma   106.71095598
_symmetry_Int_Tables_number   1
_chemical_formula_structural   Er12Co4PtPb
_chemical_formula_sum   'Er12 Co4 Pt1 Pb1'
_cell_volume   433.82297229
_cell_formula_units_Z   1
loop_
 _symmetry_equiv_pos_site_id
 _symmetry_equiv_pos_as_xyz
  1  'x, y, z'
loop_
 _atom_site_type_symbol
 _atom_site_label
 _atom_site_symmetry_multiplicity
 _atom_site_fract_x
 _atom_site_fract_y
 _atom_site_fract_z
 _atom_site_occupancy
  Er  Er0  1  0.313445  0.620181  0.306736  1
  Er  Er1  1  0.686555  0.379820  0.693264  1
  Er  Er2  1  0.313445  0.006709  0.693264  1
  Er  Er3  1  0.686555  0.993291  0.306736  1
  Er  Er4  1  0.415072  0.214729  0.200344  1
  Er  Er5  1  0.584928  0.785271  0.799656  1
  Er  Er6  1  0.014385  0.214729  0.799656  1
  Er  Er7  1  0.985615  0.785271  0.200344  1
  Er  Er8  1  0.184178  0.288691  0.472869  1
  Er  Er9  1  0.815822  0.711309  0.527131  1
  Er  Er10  1  0.184178  0.711309  0.895487  1
  Er  Er11  1  0.815822  0.288691  0.104513  1
  Co  Co12  1  0.111877  0.611877  0.500000  1
  Co  Co13  1  0.888124  0.388124  0.500000  1
  Co  Co14  1  0.377727  0.000000  0.377727  1
  Co  Co15  1  0.622273  0.000000  0.622273  1
  Pt  Pt16  1  0.000000  0.000000  0.000000  1
  Pb  Pb17  1  0.500000  0.500000  0.000000  1
