# generated using pymatgen
data_La4PI6
_symmetry_space_group_name_H-M   'P 1'
_cell_length_a   4.43834600
_cell_length_b   14.50261700
_cell_length_c   15.32973000
_cell_angle_alpha   90.00000000
_cell_angle_beta   90.00000000
_cell_angle_gamma   90.00000000
_symmetry_Int_Tables_number   1
_chemical_formula_structural   La4PI6
_chemical_formula_sum   'La8 P2 I12'
_cell_volume   986.73842162
_cell_formula_units_Z   2
loop_
 _symmetry_equiv_pos_site_id
 _symmetry_equiv_pos_as_xyz
  1  'x, y, z'
loop_
 _atom_site_type_symbol
 _atom_site_label
 _atom_site_symmetry_multiplicity
 _atom_site_fract_x
 _atom_site_fract_y
 _atom_site_fract_z
 _atom_site_occupancy
  La  La0  1  0.500000  0.114606  0.347059  1
  La  La1  1  0.500000  0.885394  0.652941  1
  La  La2  1  0.500000  0.614606  0.152941  1
  La  La3  1  0.500000  0.385394  0.847059  1
  La  La4  1  0.000000  0.109666  0.573001  1
  La  La5  1  0.000000  0.890334  0.426999  1
  La  La6  1  0.000000  0.609666  0.926999  1
  La  La7  1  0.000000  0.390334  0.073001  1
  P  P8  1  0.500000  0.000000  0.500000  1
  P  P9  1  0.500000  0.500000  0.000000  1
  I  I10  1  0.500000  0.245192  0.160811  1
  I  I11  1  0.500000  0.754808  0.839189  1
  I  I12  1  0.500000  0.745192  0.339189  1
  I  I13  1  0.500000  0.254808  0.660811  1
  I  I14  1  0.000000  0.260152  0.414080  1
  I  I15  1  0.000000  0.739848  0.585920  1
  I  I16  1  0.000000  0.760152  0.085920  1
  I  I17  1  0.000000  0.239848  0.914080  1
  I  I18  1  0.000000  0.998918  0.239546  1
  I  I19  1  0.000000  0.001082  0.760454  1
  I  I20  1  0.000000  0.498918  0.260454  1
  I  I21  1  0.000000  0.501082  0.739546  1
