# generated using pymatgen
data_ErLu3(As4O9)2
_symmetry_space_group_name_H-M   'P 1'
_cell_length_a   6.64162837
_cell_length_b   7.44499398
_cell_length_c   9.76842311
_cell_angle_alpha   94.45529019
_cell_angle_beta   104.11790714
_cell_angle_gamma   104.85229731
_symmetry_Int_Tables_number   1
_chemical_formula_structural   ErLu3(As4O9)2
_chemical_formula_sum   'Er1 Lu3 As8 O18'
_cell_volume   447.68552045
_cell_formula_units_Z   1
loop_
 _symmetry_equiv_pos_site_id
 _symmetry_equiv_pos_as_xyz
  1  'x, y, z'
loop_
 _atom_site_type_symbol
 _atom_site_label
 _atom_site_symmetry_multiplicity
 _atom_site_fract_x
 _atom_site_fract_y
 _atom_site_fract_z
 _atom_site_occupancy
  Er  Er0  1  0.240519  0.938824  0.613703  1
  Lu  Lu1  1  0.759081  0.061913  0.385980  1
  Lu  Lu2  1  0.720552  0.527343  0.409971  1
  Lu  Lu3  1  0.278738  0.471928  0.588965  1
  As  As4  1  0.685211  0.773814  0.083183  1
  As  As5  1  0.315082  0.227507  0.918254  1
  As  As6  1  0.167979  0.750570  0.911843  1
  As  As7  1  0.831571  0.248701  0.088620  1
  As  As8  1  0.741228  0.913532  0.708754  1
  As  As9  1  0.259789  0.086231  0.290000  1
  As  As10  1  0.810373  0.351889  0.700541  1
  As  As11  1  0.190359  0.647591  0.298943  1
  O  O12  1  0.721363  0.746717  0.263920  1
  O  O13  1  0.279040  0.255246  0.737496  1
  O  O14  1  0.315980  0.978320  0.866706  1
  O  O15  1  0.685210  0.022562  0.136686  1
  O  O16  1  0.608815  0.327478  0.985833  1
  O  O17  1  0.391467  0.672472  0.014610  1
  O  O18  1  0.123777  0.641357  0.736973  1
  O  O19  1  0.876292  0.359326  0.262746  1
  O  O20  1  0.846230  0.879107  0.557273  1
  O  O21  1  0.149029  0.123170  0.438474  1
  O  O22  1  0.476987  0.764250  0.664870  1
  O  O23  1  0.525150  0.233962  0.336208  1
  O  O24  1  0.373841  0.530190  0.382477  1
  O  O25  1  0.626498  0.468810  0.616794  1
  O  O26  1  0.087120  0.668396  0.454812  1
  O  O27  1  0.912146  0.328530  0.544153  1
  O  O28  1  0.383646  0.900281  0.359732  1
  O  O29  1  0.616926  0.099982  0.641481  1
