# generated using pymatgen
data_Ac3IrI3
_symmetry_space_group_name_H-M   'P 1'
_cell_length_a   11.41498106
_cell_length_b   11.41463628
_cell_length_c   11.41484600
_cell_angle_alpha   109.47051157
_cell_angle_beta   109.47159237
_cell_angle_gamma   109.47092658
_symmetry_Int_Tables_number   1
_chemical_formula_structural   Ac3IrI3
_chemical_formula_sum   'Ac12 Ir4 I12'
_cell_volume   1144.95606738
_cell_formula_units_Z   4
loop_
 _symmetry_equiv_pos_site_id
 _symmetry_equiv_pos_as_xyz
  1  'x, y, z'
loop_
 _atom_site_type_symbol
 _atom_site_label
 _atom_site_symmetry_multiplicity
 _atom_site_fract_x
 _atom_site_fract_y
 _atom_site_fract_z
 _atom_site_occupancy
  Ac  Ac0  1  0.272066  0.750001  0.227935  1
  Ac  Ac1  1  0.477934  0.750001  0.022067  1
  Ac  Ac2  1  0.227933  0.455867  0.477935  1
  Ac  Ac3  1  0.022066  0.044134  0.272068  1
  Ac  Ac4  1  0.227933  0.272066  0.749998  1
  Ac  Ac5  1  0.022065  0.477931  0.749997  1
  Ac  Ac6  1  0.477934  0.227933  0.455867  1
  Ac  Ac7  1  0.272065  0.022064  0.044131  1
  Ac  Ac8  1  0.750002  0.227934  0.272067  1
  Ac  Ac9  1  0.750001  0.022067  0.477934  1
  Ac  Ac10  1  0.455868  0.477934  0.227934  1
  Ac  Ac11  1  0.044133  0.272066  0.022067  1
  Ir  Ir12  1  0.500000  0.000000  0.250000  1
  Ir  Ir13  1  0.250000  0.500000  0.000000  1
  Ir  Ir14  1  0.000000  0.250000  0.500000  1
  Ir  Ir15  1  0.250000  0.250000  0.250000  1
  I  I16  1  0.250000  0.989860  0.510140  1
  I  I17  1  0.520280  0.510140  0.760140  1
  I  I18  1  0.250000  0.760140  0.739860  1
  I  I19  1  0.979720  0.739860  0.989860  1
  I  I20  1  0.989860  0.510140  0.250001  1
  I  I21  1  0.739860  0.989860  0.979721  1
  I  I22  1  0.760141  0.739861  0.250000  1
  I  I23  1  0.510140  0.760140  0.520280  1
  I  I24  1  0.510140  0.250000  0.989860  1
  I  I25  1  0.760141  0.520280  0.510140  1
  I  I26  1  0.739860  0.250000  0.760139  1
  I  I27  1  0.989860  0.979720  0.739859  1
