# generated using pymatgen
data_Hf8Ti9Si8Ge8Mo3
_symmetry_space_group_name_H-M   'P 1'
_cell_length_a   6.64780801
_cell_length_b   6.77677821
_cell_length_c   13.06994900
_cell_angle_alpha   90.00000000
_cell_angle_beta   90.00000000
_cell_angle_gamma   89.98915984
_symmetry_Int_Tables_number   1
_chemical_formula_structural   Hf8Ti9Si8Ge8Mo3
_chemical_formula_sum   'Hf8 Ti9 Si8 Ge8 Mo3'
_cell_volume   588.81060875
_cell_formula_units_Z   1
loop_
 _symmetry_equiv_pos_site_id
 _symmetry_equiv_pos_as_xyz
  1  'x, y, z'
loop_
 _atom_site_type_symbol
 _atom_site_label
 _atom_site_symmetry_multiplicity
 _atom_site_fract_x
 _atom_site_fract_y
 _atom_site_fract_z
 _atom_site_occupancy
  Hf  Hf0  1  0.990944  0.175186  0.097485  1
  Hf  Hf1  1  0.007378  0.825375  0.902171  1
  Hf  Hf2  1  0.507103  0.675743  0.902399  1
  Hf  Hf3  1  0.007378  0.825375  0.597829  1
  Hf  Hf4  1  0.492558  0.325491  0.096555  1
  Hf  Hf5  1  0.990944  0.175186  0.402515  1
  Hf  Hf6  1  0.492558  0.325491  0.403445  1
  Hf  Hf7  1  0.507103  0.675743  0.597601  1
  Ti  Ti8  1  0.165814  0.493779  0.750000  1
  Ti  Ti9  1  0.338951  0.166963  0.627412  1
  Ti  Ti10  1  0.661452  0.833837  0.372819  1
  Ti  Ti11  1  0.162017  0.665906  0.372646  1
  Ti  Ti12  1  0.661452  0.833837  0.127181  1
  Ti  Ti13  1  0.837573  0.332821  0.627186  1
  Ti  Ti14  1  0.338951  0.166963  0.872588  1
  Ti  Ti15  1  0.837573  0.332821  0.872814  1
  Ti  Ti16  1  0.162017  0.665906  0.127354  1
  Si  Si17  1  0.039655  0.117978  0.750000  1
  Si  Si18  1  0.961584  0.882767  0.250000  1
  Si  Si19  1  0.462080  0.616470  0.250000  1
  Si  Si20  1  0.538849  0.383604  0.750000  1
  Si  Si21  1  0.299393  0.860280  0.750000  1
  Si  Si22  1  0.698629  0.138866  0.250000  1
  Si  Si23  1  0.200081  0.360417  0.250000  1
  Si  Si24  1  0.802514  0.637194  0.750000  1
  Ge  Ge25  1  0.180797  0.459620  0.539417  1
  Ge  Ge26  1  0.819412  0.541591  0.461352  1
  Ge  Ge27  1  0.318546  0.959203  0.461415  1
  Ge  Ge28  1  0.819412  0.541591  0.038648  1
  Ge  Ge29  1  0.681572  0.041045  0.538828  1
  Ge  Ge30  1  0.180797  0.459620  0.960583  1
  Ge  Ge31  1  0.681572  0.041045  0.961172  1
  Ge  Ge32  1  0.318546  0.959203  0.038585  1
  Mo  Mo33  1  0.834846  0.505303  0.250000  1
  Mo  Mo34  1  0.334433  0.993560  0.250000  1
  Mo  Mo35  1  0.665520  0.004219  0.750000  1
