# generated using pymatgen
data_Er10In2CoAu
_symmetry_space_group_name_H-M   'P 1'
_cell_length_a   9.55623700
_cell_length_b   9.47993935
_cell_length_c   9.30372800
_cell_angle_alpha   90.00000000
_cell_angle_beta   90.00000000
_cell_angle_gamma   119.73867192
_symmetry_Int_Tables_number   1
_chemical_formula_structural   Er10In2CoAu
_chemical_formula_sum   'Er20 In4 Co2 Au2'
_cell_volume   731.84267275
_cell_formula_units_Z   2
loop_
 _symmetry_equiv_pos_site_id
 _symmetry_equiv_pos_as_xyz
  1  'x, y, z'
loop_
 _atom_site_type_symbol
 _atom_site_label
 _atom_site_symmetry_multiplicity
 _atom_site_fract_x
 _atom_site_fract_y
 _atom_site_fract_z
 _atom_site_occupancy
  Er  Er0  1  0.982955  0.991500  0.467916  1
  Er  Er1  1  0.982955  0.991500  0.032084  1
  Er  Er2  1  0.556256  0.468827  0.250000  1
  Er  Er3  1  0.556141  0.087387  0.250000  1
  Er  Er4  1  0.921625  0.460824  0.250000  1
  Er  Er5  1  0.457157  0.540508  0.750000  1
  Er  Er6  1  0.457192  0.916604  0.750000  1
  Er  Er7  1  0.086884  0.543527  0.750000  1
  Er  Er8  1  0.210569  0.791018  0.433423  1
  Er  Er9  1  0.210555  0.419560  0.433430  1
  Er  Er10  1  0.572922  0.786440  0.436390  1
  Er  Er11  1  0.791882  0.212242  0.563707  1
  Er  Er12  1  0.791858  0.579570  0.563693  1
  Er  Er13  1  0.421755  0.210866  0.561657  1
  Er  Er14  1  0.791882  0.212242  0.936293  1
  Er  Er15  1  0.791858  0.579570  0.936307  1
  Er  Er16  1  0.421755  0.210866  0.938343  1
  Er  Er17  1  0.210569  0.791018  0.066577  1
  Er  Er18  1  0.210555  0.419560  0.066570  1
  Er  Er19  1  0.572922  0.786440  0.063610  1
  In  In20  1  0.254141  0.127153  0.250000  1
  In  In21  1  0.111405  0.890532  0.750000  1
  In  In22  1  0.111269  0.221092  0.750000  1
  In  In23  1  0.772328  0.885956  0.750000  1
  Co  Co24  1  0.332233  0.666150  0.250000  1
  Co  Co25  1  0.663518  0.331679  0.750000  1
  Au  Au26  1  0.877395  0.134900  0.250000  1
  Au  Au27  1  0.877466  0.742474  0.250000  1
