# generated using pymatgen
data_Pr10In9Ni4Sn
_symmetry_space_group_name_H-M   'P 1'
_cell_length_a   13.38208724
_cell_length_b   13.32686110
_cell_length_c   3.78341900
_cell_angle_alpha   90.00000000
_cell_angle_beta   90.00000000
_cell_angle_gamma   110.09600375
_symmetry_Int_Tables_number   1
_chemical_formula_structural   Pr10In9Ni4Sn
_chemical_formula_sum   'Pr10 In9 Ni4 Sn1'
_cell_volume   633.66020686
_cell_formula_units_Z   1
loop_
 _symmetry_equiv_pos_site_id
 _symmetry_equiv_pos_as_xyz
  1  'x, y, z'
loop_
 _atom_site_type_symbol
 _atom_site_label
 _atom_site_symmetry_multiplicity
 _atom_site_fract_x
 _atom_site_fract_y
 _atom_site_fract_z
 _atom_site_occupancy
  Pr  Pr0  1  0.815423  0.815157  0.500000  1
  Pr  Pr1  1  0.183846  0.183925  0.500000  1
  Pr  Pr2  1  0.580458  0.920332  0.500000  1
  Pr  Pr3  1  0.419450  0.080224  0.500000  1
  Pr  Pr4  1  0.920412  0.579838  0.500000  1
  Pr  Pr5  1  0.079756  0.419338  0.500000  1
  Pr  Pr6  1  0.129698  0.870008  0.500000  1
  Pr  Pr7  1  0.869933  0.129448  0.500000  1
  Pr  Pr8  1  0.347715  0.653089  0.500000  1
  Pr  Pr9  1  0.652389  0.347431  0.500000  1
  In  In10  1  0.341989  0.866380  0.000000  1
  In  In11  1  0.657787  0.134134  0.000000  1
  In  In12  1  0.865540  0.341471  0.000000  1
  In  In13  1  0.134368  0.658002  0.000000  1
  In  In14  1  0.577019  0.713873  0.000000  1
  In  In15  1  0.423422  0.287439  0.000000  1
  In  In16  1  0.714191  0.576664  0.000000  1
  In  In17  1  0.286996  0.423926  0.000000  1
  In  In18  1  0.999130  0.998989  0.000000  1
  Ni  Ni19  1  0.752890  0.959358  0.000000  1
  Ni  Ni20  1  0.246966  0.040343  0.000000  1
  Ni  Ni21  1  0.959249  0.752271  0.000000  1
  Ni  Ni22  1  0.039972  0.246785  0.000000  1
  Sn  Sn23  1  0.501404  0.501574  0.500000  1
