# generated using pymatgen
data_LaY3Er6(Si3Pt)2
_symmetry_space_group_name_H-M   'P 1'
_cell_length_a   7.28523600
_cell_length_b   7.91970741
_cell_length_c   14.56442316
_cell_angle_alpha   89.93001366
_cell_angle_beta   90.00000000
_cell_angle_gamma   90.00000000
_symmetry_Int_Tables_number   1
_chemical_formula_structural   LaY3Er6(Si3Pt)2
_chemical_formula_sum   'La2 Y6 Er12 Si12 Pt4'
_cell_volume   840.32198571
_cell_formula_units_Z   2
loop_
 _symmetry_equiv_pos_site_id
 _symmetry_equiv_pos_as_xyz
  1  'x, y, z'
loop_
 _atom_site_type_symbol
 _atom_site_label
 _atom_site_symmetry_multiplicity
 _atom_site_fract_x
 _atom_site_fract_y
 _atom_site_fract_z
 _atom_site_occupancy
  La  La0  1  0.513038  0.573585  0.338049  1
  La  La1  1  0.013038  0.426415  0.661951  1
  Y  Y2  1  0.483396  0.934068  0.843189  1
  Y  Y3  1  0.983396  0.065932  0.156811  1
  Y  Y4  1  0.480446  0.937143  0.154421  1
  Y  Y5  1  0.980446  0.062857  0.845579  1
  Y  Y6  1  0.517275  0.566751  0.658125  1
  Y  Y7  1  0.017275  0.433249  0.341875  1
  Er  Er8  1  0.811668  0.578026  0.877941  1
  Er  Er9  1  0.311668  0.421974  0.122059  1
  Er  Er10  1  0.185745  0.925966  0.376589  1
  Er  Er11  1  0.685745  0.074034  0.623411  1
  Er  Er12  1  0.187094  0.923823  0.624765  1
  Er  Er13  1  0.687094  0.076177  0.375235  1
  Er  Er14  1  0.814771  0.575425  0.122754  1
  Er  Er15  1  0.314771  0.424575  0.877246  1
  Er  Er16  1  0.661663  0.234389  0.999614  1
  Er  Er17  1  0.161663  0.765611  0.000386  1
  Er  Er18  1  0.340203  0.266072  0.499330  1
  Er  Er19  1  0.840203  0.733928  0.500670  1
  Si  Si20  1  0.651107  0.276302  0.790874  1
  Si  Si21  1  0.151107  0.723698  0.209126  1
  Si  Si22  1  0.347459  0.216777  0.286917  1
  Si  Si23  1  0.847459  0.783223  0.713083  1
  Si  Si24  1  0.357127  0.219492  0.711718  1
  Si  Si25  1  0.857127  0.780508  0.288282  1
  Si  Si26  1  0.650394  0.273994  0.208185  1
  Si  Si27  1  0.150394  0.726006  0.791815  1
  Si  Si28  1  0.767516  0.881502  0.000317  1
  Si  Si29  1  0.267516  0.118498  0.999683  1
  Si  Si30  1  0.230733  0.620631  0.502539  1
  Si  Si31  1  0.730733  0.379369  0.497461  1
  Pt  Pt32  1  0.517714  0.653153  0.001030  1
  Pt  Pt33  1  0.017714  0.346847  0.998970  1
  Pt  Pt34  1  0.482651  0.848604  0.501626  1
  Pt  Pt35  1  0.982651  0.151396  0.498374  1
