# generated using pymatgen
data_La4Pr4Te(WO8)3
_symmetry_space_group_name_H-M   'P 1'
_cell_length_a   5.51635934
_cell_length_b   9.51234471
_cell_length_c   10.41298475
_cell_angle_alpha   90.02302281
_cell_angle_beta   89.91992238
_cell_angle_gamma   90.15374672
_symmetry_Int_Tables_number   1
_chemical_formula_structural   La4Pr4Te(WO8)3
_chemical_formula_sum   'La4 Pr4 Te1 W3 O24'
_cell_volume   546.40333135
_cell_formula_units_Z   1
loop_
 _symmetry_equiv_pos_site_id
 _symmetry_equiv_pos_as_xyz
  1  'x, y, z'
loop_
 _atom_site_type_symbol
 _atom_site_label
 _atom_site_symmetry_multiplicity
 _atom_site_fract_x
 _atom_site_fract_y
 _atom_site_fract_z
 _atom_site_occupancy
  La  La0  1  0.031612  0.220022  0.135693  1
  La  La1  1  0.471096  0.782696  0.638600  1
  La  La2  1  0.968213  0.720761  0.362113  1
  La  La3  1  0.532281  0.282304  0.862527  1
  Pr  Pr4  1  0.023281  0.102900  0.541287  1
  Pr  Pr5  1  0.477111  0.897170  0.040100  1
  Pr  Pr6  1  0.976271  0.602280  0.959888  1
  Pr  Pr7  1  0.520771  0.394694  0.458694  1
  Te  Te8  1  0.038759  0.495189  0.642723  1
  W  W9  1  0.539373  0.004185  0.355174  1
  W  W10  1  0.961701  0.996311  0.855774  1
  W  W11  1  0.460559  0.504651  0.144809  1
  O  O12  1  0.421822  0.150992  0.473091  1
  O  O13  1  0.080042  0.846830  0.970449  1
  O  O14  1  0.577577  0.652679  0.028120  1
  O  O15  1  0.924115  0.349666  0.524771  1
  O  O16  1  0.723308  0.391354  0.064279  1
  O  O17  1  0.776772  0.609951  0.566420  1
  O  O18  1  0.279523  0.888516  0.436091  1
  O  O19  1  0.222129  0.110140  0.936663  1
  O  O20  1  0.254701  0.413203  0.008679  1
  O  O21  1  0.244473  0.583877  0.507714  1
  O  O22  1  0.747008  0.912981  0.491053  1
  O  O23  1  0.755177  0.086846  0.992329  1
  O  O24  1  0.194227  0.634503  0.175418  1
  O  O25  1  0.305099  0.364064  0.675441  1
  O  O26  1  0.804994  0.136041  0.326487  1
  O  O27  1  0.693294  0.865854  0.826528  1
  O  O28  1  0.332102  0.049896  0.215048  1
  O  O29  1  0.168813  0.951502  0.714593  1
  O  O30  1  0.664587  0.551590  0.286519  1
  O  O31  1  0.834046  0.446314  0.786559  1
  O  O32  1  0.320480  0.363228  0.256006  1
  O  O33  1  0.174772  0.637327  0.754855  1
  O  O34  1  0.681917  0.865445  0.242541  1
  O  O35  1  0.817993  0.134039  0.742964  1
