# generated using pymatgen
data_Nd2Co9As6Ru
_symmetry_space_group_name_H-M   'P 1'
_cell_length_a   3.85638400
_cell_length_b   10.83473500
_cell_length_c   12.28658700
_cell_angle_alpha   90.00000000
_cell_angle_beta   90.00000000
_cell_angle_gamma   90.00000000
_symmetry_Int_Tables_number   1
_chemical_formula_structural   Nd2Co9As6Ru
_chemical_formula_sum   'Nd4 Co18 As12 Ru2'
_cell_volume   513.36921997
_cell_formula_units_Z   2
loop_
 _symmetry_equiv_pos_site_id
 _symmetry_equiv_pos_as_xyz
  1  'x, y, z'
loop_
 _atom_site_type_symbol
 _atom_site_label
 _atom_site_symmetry_multiplicity
 _atom_site_fract_x
 _atom_site_fract_y
 _atom_site_fract_z
 _atom_site_occupancy
  Nd  Nd0  1  0.250000  0.582284  0.700765  1
  Nd  Nd1  1  0.250000  0.917716  0.200765  1
  Nd  Nd2  1  0.750000  0.413812  0.296553  1
  Nd  Nd3  1  0.750000  0.086188  0.796553  1
  Co  Co4  1  0.750000  0.290038  0.009220  1
  Co  Co5  1  0.750000  0.209962  0.509220  1
  Co  Co6  1  0.250000  0.405193  0.489370  1
  Co  Co7  1  0.250000  0.094807  0.989370  1
  Co  Co8  1  0.750000  0.594007  0.509422  1
  Co  Co9  1  0.750000  0.905993  0.009422  1
  Co  Co10  1  0.250000  0.214817  0.176811  1
  Co  Co11  1  0.250000  0.285183  0.676811  1
  Co  Co12  1  0.750000  0.784075  0.824169  1
  Co  Co13  1  0.750000  0.715925  0.324169  1
  Co  Co14  1  0.250000  0.887977  0.698709  1
  Co  Co15  1  0.250000  0.612023  0.198709  1
  Co  Co16  1  0.750000  0.115330  0.303649  1
  Co  Co17  1  0.750000  0.384670  0.803649  1
  Co  Co18  1  0.250000  0.468696  0.932847  1
  Co  Co19  1  0.250000  0.031304  0.432847  1
  Co  Co20  1  0.750000  0.530627  0.067783  1
  Co  Co21  1  0.750000  0.969373  0.567783  1
  As  As22  1  0.250000  0.413472  0.111295  1
  As  As23  1  0.250000  0.086528  0.611295  1
  As  As24  1  0.750000  0.583265  0.887163  1
  As  As25  1  0.750000  0.916735  0.387163  1
  As  As26  1  0.250000  0.273513  0.870393  1
  As  As27  1  0.250000  0.226487  0.370393  1
  As  As28  1  0.750000  0.726206  0.132238  1
  As  As29  1  0.750000  0.773794  0.632238  1
  As  As30  1  0.250000  0.596693  0.390977  1
  As  As31  1  0.250000  0.903307  0.890977  1
  As  As32  1  0.750000  0.396010  0.607585  1
  As  As33  1  0.750000  0.103990  0.107585  1
  Ru  Ru34  1  0.250000  0.710579  0.991053  1
  Ru  Ru35  1  0.250000  0.789421  0.491053  1
