# generated using pymatgen
data_Be8AlCrOs2
_symmetry_space_group_name_H-M   'P 1'
_cell_length_a   4.29658500
_cell_length_b   4.29658682
_cell_length_c   7.02683900
_cell_angle_alpha   90.00000000
_cell_angle_beta   90.00000000
_cell_angle_gamma   120.00000905
_symmetry_Int_Tables_number   1
_chemical_formula_structural   Be8AlCrOs2
_chemical_formula_sum   'Be8 Al1 Cr1 Os2'
_cell_volume   112.34082150
_cell_formula_units_Z   1
loop_
 _symmetry_equiv_pos_site_id
 _symmetry_equiv_pos_as_xyz
  1  'x, y, z'
loop_
 _atom_site_type_symbol
 _atom_site_label
 _atom_site_symmetry_multiplicity
 _atom_site_fract_x
 _atom_site_fract_y
 _atom_site_fract_z
 _atom_site_occupancy
  Be  Be0  1  0.167447  0.334892  0.746757  1
  Be  Be1  1  0.167447  0.832553  0.746757  1
  Be  Be2  1  0.340969  0.170485  0.252993  1
  Be  Be3  1  0.829515  0.659031  0.252993  1
  Be  Be4  1  0.000000  0.000000  0.998802  1
  Be  Be5  1  0.665108  0.832553  0.746757  1
  Be  Be6  1  0.829515  0.170485  0.252993  1
  Be  Be7  1  0.000000  0.000000  0.497867  1
  Al  Al8  1  0.333333  0.666667  0.064396  1
  Cr  Cr9  1  0.666667  0.333333  0.564367  1
  Os  Os10  1  0.333333  0.666667  0.443346  1
  Os  Os11  1  0.666667  0.333333  0.931974  1
