# generated using pymatgen
data_Cs2Nd10C2Cl17
_symmetry_space_group_name_H-M   'P 1'
_cell_length_a   8.91427812
_cell_length_b   10.42851620
_cell_length_c   10.42844400
_cell_angle_alpha   107.02157981
_cell_angle_beta   94.11691477
_cell_angle_gamma   94.11655613
_symmetry_Int_Tables_number   1
_chemical_formula_structural   Cs2Nd10C2Cl17
_chemical_formula_sum   'Cs2 Nd10 C2 Cl17'
_cell_volume   920.20934598
_cell_formula_units_Z   1
loop_
 _symmetry_equiv_pos_site_id
 _symmetry_equiv_pos_as_xyz
  1  'x, y, z'
loop_
 _atom_site_type_symbol
 _atom_site_label
 _atom_site_symmetry_multiplicity
 _atom_site_fract_x
 _atom_site_fract_y
 _atom_site_fract_z
 _atom_site_occupancy
  Cs  Cs0  1  0.999995  0.821753  0.178245  1
  Cs  Cs1  1  0.000007  0.178241  0.821755  1
  Nd  Nd2  1  0.437327  0.165321  0.165310  1
  Nd  Nd3  1  0.570475  0.509991  0.206480  1
  Nd  Nd4  1  0.830970  0.292497  0.292506  1
  Nd  Nd5  1  0.314162  0.439214  0.439213  1
  Nd  Nd6  1  0.429524  0.793523  0.490022  1
  Nd  Nd7  1  0.570478  0.206482  0.509983  1
  Nd  Nd8  1  0.685840  0.560787  0.560786  1
  Nd  Nd9  1  0.169033  0.707495  0.707502  1
  Nd  Nd10  1  0.429521  0.490006  0.793516  1
  Nd  Nd11  1  0.562676  0.834685  0.834685  1
  C  C12  1  0.572566  0.353594  0.353582  1
  C  C13  1  0.427435  0.646413  0.646407  1
  Cl  Cl14  1  0.579101  0.689028  0.022944  1
  Cl  Cl15  1  0.713569  0.068573  0.068568  1
  Cl  Cl16  1  0.853548  0.450628  0.118954  1
  Cl  Cl17  1  0.137301  0.212929  0.212935  1
  Cl  Cl18  1  0.280223  0.599889  0.257714  1
  Cl  Cl19  1  0.420899  0.977059  0.310968  1
  Cl  Cl20  1  0.719775  0.742287  0.400119  1
  Cl  Cl21  1  0.853546  0.118925  0.450620  1
  Cl  Cl22  1  0.000000  0.499998  0.500001  1
  Cl  Cl23  1  0.146458  0.881057  0.549377  1
  Cl  Cl24  1  0.280229  0.257692  0.599863  1
  Cl  Cl25  1  0.579114  0.022961  0.689037  1
  Cl  Cl26  1  0.719771  0.400130  0.742309  1
  Cl  Cl27  1  0.862700  0.787067  0.787062  1
  Cl  Cl28  1  0.146444  0.549374  0.881062  1
  Cl  Cl29  1  0.286436  0.931430  0.931434  1
  Cl  Cl30  1  0.420884  0.310969  0.977042  1
