# generated using pymatgen
data_Tm19Lu(Ir3Rh)3
_symmetry_space_group_name_H-M   'P 1'
_cell_length_a   10.72425800
_cell_length_b   10.72438800
_cell_length_c   6.31720600
_cell_angle_alpha   90.00000000
_cell_angle_beta   90.00000000
_cell_angle_gamma   90.00306665
_symmetry_Int_Tables_number   1
_chemical_formula_structural   Tm19Lu(Ir3Rh)3
_chemical_formula_sum   'Tm19 Lu1 Ir9 Rh3'
_cell_volume   726.54883450
_cell_formula_units_Z   1
loop_
 _symmetry_equiv_pos_site_id
 _symmetry_equiv_pos_as_xyz
  1  'x, y, z'
loop_
 _atom_site_type_symbol
 _atom_site_label
 _atom_site_symmetry_multiplicity
 _atom_site_fract_x
 _atom_site_fract_y
 _atom_site_fract_z
 _atom_site_occupancy
  Tm  Tm0  1  0.290431  0.087911  0.377929  1
  Tm  Tm1  1  0.290526  0.911799  0.877626  1
  Tm  Tm2  1  0.709474  0.088201  0.877626  1
  Tm  Tm3  1  0.709569  0.912089  0.377929  1
  Tm  Tm4  1  0.588207  0.790595  0.877668  1
  Tm  Tm5  1  0.588006  0.209337  0.377841  1
  Tm  Tm6  1  0.411994  0.790663  0.377841  1
  Tm  Tm7  1  0.411793  0.209405  0.877668  1
  Tm  Tm8  1  0.208733  0.411994  0.621178  1
  Tm  Tm9  1  0.209014  0.588173  0.123281  1
  Tm  Tm10  1  0.790986  0.411827  0.123281  1
  Tm  Tm11  1  0.791267  0.588006  0.621178  1
  Tm  Tm12  1  0.911839  0.709091  0.123307  1
  Tm  Tm13  1  0.912091  0.291044  0.621079  1
  Tm  Tm14  1  0.087909  0.708956  0.621079  1
  Tm  Tm15  1  0.088161  0.290909  0.123307  1
  Tm  Tm16  1  0.000000  0.000000  0.000205  1
  Tm  Tm17  1  0.500000  0.500000  0.000183  1
  Tm  Tm18  1  0.500000  0.500000  0.500362  1
  Lu  Lu19  1  0.000000  0.000000  0.500368  1
  Ir  Ir20  1  0.845922  0.153053  0.250249  1
  Ir  Ir21  1  0.846091  0.846679  0.749542  1
  Ir  Ir22  1  0.153909  0.153321  0.749542  1
  Ir  Ir23  1  0.154078  0.846947  0.250249  1
  Ir  Ir24  1  0.653652  0.345750  0.750017  1
  Ir  Ir25  1  0.653387  0.654385  0.249765  1
  Ir  Ir26  1  0.346613  0.345615  0.249765  1
  Ir  Ir27  1  0.346348  0.654250  0.750017  1
  Ir  Ir28  1  0.000000  0.500000  0.376604  1
  Rh  Rh29  1  0.500000  0.000000  0.122951  1
  Rh  Rh30  1  0.500000  0.000000  0.623026  1
  Rh  Rh31  1  0.000000  0.500000  0.877330  1
