# generated using pymatgen
data_RbNb(MoSe3)2
_symmetry_space_group_name_H-M   'P 1'
_cell_length_a   5.90087500
_cell_length_b   5.90087642
_cell_length_c   18.12665500
_cell_angle_alpha   90.00000000
_cell_angle_beta   90.00000000
_cell_angle_gamma   119.99999767
_symmetry_Int_Tables_number   1
_chemical_formula_structural   RbNb(MoSe3)2
_chemical_formula_sum   'Rb2 Nb2 Mo4 Se12'
_cell_volume   546.61462201
_cell_formula_units_Z   2
loop_
 _symmetry_equiv_pos_site_id
 _symmetry_equiv_pos_as_xyz
  1  'x, y, z'
loop_
 _atom_site_type_symbol
 _atom_site_label
 _atom_site_symmetry_multiplicity
 _atom_site_fract_x
 _atom_site_fract_y
 _atom_site_fract_z
 _atom_site_occupancy
  Rb  Rb0  1  0.000000  0.000000  0.000000  1
  Rb  Rb1  1  0.000000  0.000000  0.500000  1
  Nb  Nb2  1  0.666667  0.333333  0.250000  1
  Nb  Nb3  1  0.333333  0.666667  0.750000  1
  Mo  Mo4  1  0.000000  0.000000  0.750000  1
  Mo  Mo5  1  0.000000  0.000000  0.250000  1
  Mo  Mo6  1  0.333333  0.666667  0.250000  1
  Mo  Mo7  1  0.666667  0.333333  0.750000  1
  Se  Se8  1  0.328559  0.993478  0.158273  1
  Se  Se9  1  0.006522  0.335081  0.158273  1
  Se  Se10  1  0.664919  0.671441  0.158273  1
  Se  Se11  1  0.335081  0.328559  0.658273  1
  Se  Se12  1  0.664919  0.671441  0.341727  1
  Se  Se13  1  0.671441  0.006522  0.658273  1
  Se  Se14  1  0.993478  0.664919  0.658273  1
  Se  Se15  1  0.993478  0.664919  0.841727  1
  Se  Se16  1  0.335081  0.328559  0.841727  1
  Se  Se17  1  0.006522  0.335081  0.341727  1
  Se  Se18  1  0.328559  0.993478  0.341727  1
  Se  Se19  1  0.671441  0.006522  0.841727  1
