# generated using pymatgen
data_Tb7Dy13(Cd3Os)2
_symmetry_space_group_name_H-M   'P 1'
_cell_length_a   9.61825302
_cell_length_b   9.61825330
_cell_length_c   9.86731800
_cell_angle_alpha   89.99646155
_cell_angle_beta   90.00353249
_cell_angle_gamma   120.00950231
_symmetry_Int_Tables_number   1
_chemical_formula_structural   Tb7Dy13(Cd3Os)2
_chemical_formula_sum   'Tb7 Dy13 Cd6 Os2'
_cell_volume   790.46122407
_cell_formula_units_Z   1
loop_
 _symmetry_equiv_pos_site_id
 _symmetry_equiv_pos_as_xyz
  1  'x, y, z'
loop_
 _atom_site_type_symbol
 _atom_site_label
 _atom_site_symmetry_multiplicity
 _atom_site_fract_x
 _atom_site_fract_y
 _atom_site_fract_z
 _atom_site_occupancy
  Tb  Tb0  1  0.209766  0.790234  0.440127  1
  Tb  Tb1  1  0.540150  0.459850  0.250006  1
  Tb  Tb2  1  0.540333  0.080485  0.249888  1
  Tb  Tb3  1  0.919515  0.459667  0.249888  1
  Tb  Tb4  1  0.459860  0.540140  0.750028  1
  Tb  Tb5  1  0.459976  0.919762  0.750141  1
  Tb  Tb6  1  0.080238  0.540024  0.750141  1
  Dy  Dy7  1  0.999897  0.000103  0.500030  1
  Dy  Dy8  1  0.999993  0.000007  0.000041  1
  Dy  Dy9  1  0.209909  0.419497  0.440162  1
  Dy  Dy10  1  0.580503  0.790091  0.440162  1
  Dy  Dy11  1  0.790114  0.209886  0.559902  1
  Dy  Dy12  1  0.790003  0.580191  0.559919  1
  Dy  Dy13  1  0.419809  0.209997  0.559919  1
  Dy  Dy14  1  0.790116  0.209884  0.940107  1
  Dy  Dy15  1  0.790123  0.580240  0.940144  1
  Dy  Dy16  1  0.419760  0.209877  0.940144  1
  Dy  Dy17  1  0.209808  0.790192  0.059647  1
  Dy  Dy18  1  0.209933  0.419751  0.059855  1
  Dy  Dy19  1  0.580249  0.790067  0.059855  1
  Cd  Cd20  1  0.885918  0.114082  0.250019  1
  Cd  Cd21  1  0.885839  0.771829  0.249958  1
  Cd  Cd22  1  0.228171  0.114161  0.249958  1
  Cd  Cd23  1  0.114035  0.885965  0.750081  1
  Cd  Cd24  1  0.114057  0.228157  0.750023  1
  Cd  Cd25  1  0.771843  0.885943  0.750023  1
  Os  Os26  1  0.333423  0.666577  0.249846  1
  Os  Os27  1  0.666659  0.333341  0.749983  1
