# generated using pymatgen
data_Hf8Nb12Ga3Si13
_symmetry_space_group_name_H-M   'P 1'
_cell_length_a   6.71898791
_cell_length_b   6.87420667
_cell_length_c   13.14865185
_cell_angle_alpha   90.05229172
_cell_angle_beta   90.00680990
_cell_angle_gamma   90.09709844
_symmetry_Int_Tables_number   1
_chemical_formula_structural   Hf8Nb12Ga3Si13
_chemical_formula_sum   'Hf8 Nb12 Ga3 Si13'
_cell_volume   607.30500839
_cell_formula_units_Z   1
loop_
 _symmetry_equiv_pos_site_id
 _symmetry_equiv_pos_as_xyz
  1  'x, y, z'
loop_
 _atom_site_type_symbol
 _atom_site_label
 _atom_site_symmetry_multiplicity
 _atom_site_fract_x
 _atom_site_fract_y
 _atom_site_fract_z
 _atom_site_occupancy
  Hf  Hf0  1  0.994799  0.176481  0.091610  1
  Hf  Hf1  1  0.004442  0.824029  0.908761  1
  Hf  Hf2  1  0.501469  0.673214  0.907270  1
  Hf  Hf3  1  0.004157  0.827856  0.591685  1
  Hf  Hf4  1  0.498197  0.326952  0.093030  1
  Hf  Hf5  1  0.992965  0.173098  0.406978  1
  Hf  Hf6  1  0.502129  0.324935  0.404989  1
  Hf  Hf7  1  0.505765  0.675592  0.593765  1
  Nb  Nb8  1  0.161437  0.498260  0.753004  1
  Nb  Nb9  1  0.838398  0.501010  0.249264  1
  Nb  Nb10  1  0.343136  0.995777  0.249685  1
  Nb  Nb11  1  0.655965  0.003992  0.750737  1
  Nb  Nb12  1  0.342429  0.164243  0.625098  1
  Nb  Nb13  1  0.660868  0.829759  0.376583  1
  Nb  Nb14  1  0.168728  0.670320  0.374530  1
  Nb  Nb15  1  0.659202  0.829512  0.122816  1
  Nb  Nb16  1  0.825949  0.334113  0.623590  1
  Nb  Nb17  1  0.339028  0.169307  0.877394  1
  Nb  Nb18  1  0.829441  0.334415  0.877526  1
  Nb  Nb19  1  0.170428  0.665884  0.122307  1
  Ga  Ga20  1  0.034682  0.113107  0.749815  1
  Ga  Ga21  1  0.964063  0.888694  0.248597  1
  Ga  Ga22  1  0.175237  0.462233  0.540171  1
  Si  Si23  1  0.464536  0.610400  0.249659  1
  Si  Si24  1  0.534112  0.390492  0.750268  1
  Si  Si25  1  0.292978  0.858190  0.750435  1
  Si  Si26  1  0.705427  0.139794  0.249115  1
  Si  Si27  1  0.204704  0.357627  0.250449  1
  Si  Si28  1  0.796174  0.642724  0.749752  1
  Si  Si29  1  0.830672  0.538067  0.460521  1
  Si  Si30  1  0.326682  0.964803  0.461135  1
  Si  Si31  1  0.829571  0.538989  0.039420  1
  Si  Si32  1  0.673310  0.035466  0.538850  1
  Si  Si33  1  0.170152  0.460649  0.960995  1
  Si  Si34  1  0.672586  0.035257  0.960815  1
  Si  Si35  1  0.326187  0.964755  0.039380  1
