# generated using pymatgen
data_Tb5ScTe3
_symmetry_space_group_name_H-M   'P 1'
_cell_length_a   4.14586900
_cell_length_b   11.52323400
_cell_length_c   21.29652800
_cell_angle_alpha   90.00000000
_cell_angle_beta   90.00000000
_cell_angle_gamma   90.00000000
_symmetry_Int_Tables_number   1
_chemical_formula_structural   Tb5ScTe3
_chemical_formula_sum   'Tb20 Sc4 Te12'
_cell_volume   1017.41646592
_cell_formula_units_Z   4
loop_
 _symmetry_equiv_pos_site_id
 _symmetry_equiv_pos_as_xyz
  1  'x, y, z'
loop_
 _atom_site_type_symbol
 _atom_site_label
 _atom_site_symmetry_multiplicity
 _atom_site_fract_x
 _atom_site_fract_y
 _atom_site_fract_z
 _atom_site_occupancy
  Tb  Tb0  1  0.250000  0.467045  0.339336  1
  Tb  Tb1  1  0.750000  0.532955  0.660664  1
  Tb  Tb2  1  0.750000  0.967045  0.160664  1
  Tb  Tb3  1  0.250000  0.032955  0.839336  1
  Tb  Tb4  1  0.250000  0.744716  0.228707  1
  Tb  Tb5  1  0.750000  0.255284  0.771293  1
  Tb  Tb6  1  0.750000  0.244716  0.271293  1
  Tb  Tb7  1  0.250000  0.755284  0.728707  1
  Tb  Tb8  1  0.250000  0.115951  0.032690  1
  Tb  Tb9  1  0.750000  0.884049  0.967310  1
  Tb  Tb10  1  0.750000  0.615951  0.467310  1
  Tb  Tb11  1  0.250000  0.384049  0.532690  1
  Tb  Tb12  1  0.250000  0.425229  0.140828  1
  Tb  Tb13  1  0.750000  0.574771  0.859172  1
  Tb  Tb14  1  0.750000  0.925229  0.359172  1
  Tb  Tb15  1  0.250000  0.074771  0.640828  1
  Tb  Tb16  1  0.250000  0.608312  0.993488  1
  Tb  Tb17  1  0.750000  0.391688  0.006512  1
  Tb  Tb18  1  0.750000  0.108312  0.506512  1
  Tb  Tb19  1  0.250000  0.891688  0.493488  1
  Sc  Sc20  1  0.250000  0.157269  0.390797  1
  Sc  Sc21  1  0.750000  0.842731  0.609203  1
  Sc  Sc22  1  0.750000  0.657269  0.109203  1
  Sc  Sc23  1  0.250000  0.342731  0.890797  1
  Te  Te24  1  0.250000  0.843559  0.076189  1
  Te  Te25  1  0.750000  0.156441  0.923811  1
  Te  Te26  1  0.750000  0.343559  0.423811  1
  Te  Te27  1  0.250000  0.656441  0.576189  1
  Te  Te28  1  0.250000  0.722067  0.375154  1
  Te  Te29  1  0.750000  0.277933  0.624846  1
  Te  Te30  1  0.750000  0.222067  0.124846  1
  Te  Te31  1  0.250000  0.777933  0.875154  1
  Te  Te32  1  0.250000  0.032167  0.264166  1
  Te  Te33  1  0.750000  0.967833  0.735834  1
  Te  Te34  1  0.750000  0.532167  0.235834  1
  Te  Te35  1  0.250000  0.467833  0.764166  1
