# generated using pymatgen
data_La4Pr7In9Rh4
_symmetry_space_group_name_H-M   'P 1'
_cell_length_a   13.58719274
_cell_length_b   13.59823947
_cell_length_c   3.85856200
_cell_angle_alpha   90.00000000
_cell_angle_beta   90.00000000
_cell_angle_gamma   111.60381778
_symmetry_Int_Tables_number   1
_chemical_formula_structural   La4Pr7In9Rh4
_chemical_formula_sum   'La4 Pr7 In9 Rh4'
_cell_volume   662.83434599
_cell_formula_units_Z   1
loop_
 _symmetry_equiv_pos_site_id
 _symmetry_equiv_pos_as_xyz
  1  'x, y, z'
loop_
 _atom_site_type_symbol
 _atom_site_label
 _atom_site_symmetry_multiplicity
 _atom_site_fract_x
 _atom_site_fract_y
 _atom_site_fract_z
 _atom_site_occupancy
  La  La0  1  0.814448  0.813410  0.500000  1
  La  La1  1  0.185552  0.186590  0.500000  1
  La  La2  1  0.578500  0.920325  0.500000  1
  La  La3  1  0.421500  0.079675  0.500000  1
  Pr  Pr4  1  0.500000  0.500000  0.500000  1
  Pr  Pr5  1  0.918534  0.577374  0.500000  1
  Pr  Pr6  1  0.081466  0.422626  0.500000  1
  Pr  Pr7  1  0.125510  0.872945  0.500000  1
  Pr  Pr8  1  0.874490  0.127055  0.500000  1
  Pr  Pr9  1  0.342623  0.658373  0.500000  1
  Pr  Pr10  1  0.657377  0.341627  0.500000  1
  In  In11  1  0.333770  0.861668  0.000000  1
  In  In12  1  0.666230  0.138332  0.000000  1
  In  In13  1  0.865393  0.337738  0.000000  1
  In  In14  1  0.134607  0.662262  0.000000  1
  In  In15  1  0.578796  0.718151  0.000000  1
  In  In16  1  0.421204  0.281849  0.000000  1
  In  In17  1  0.719700  0.577304  0.000000  1
  In  In18  1  0.280300  0.422696  0.000000  1
  In  In19  1  0.000000  0.000000  0.000000  1
  Rh  Rh20  1  0.736794  0.941861  0.000000  1
  Rh  Rh21  1  0.263206  0.058139  0.000000  1
  Rh  Rh22  1  0.944325  0.743443  0.000000  1
  Rh  Rh23  1  0.055675  0.256557  0.000000  1
