# generated using pymatgen
data_YEr3Th4(ReB6)4
_symmetry_space_group_name_H-M   'P 1'
_cell_length_a   3.76203200
_cell_length_b   9.25212708
_cell_length_c   11.68456010
_cell_angle_alpha   90.01529753
_cell_angle_beta   90.00000000
_cell_angle_gamma   90.00000000
_symmetry_Int_Tables_number   1
_chemical_formula_structural   YEr3Th4(ReB6)4
_chemical_formula_sum   'Y1 Er3 Th4 Re4 B24'
_cell_volume   406.70211055
_cell_formula_units_Z   1
loop_
 _symmetry_equiv_pos_site_id
 _symmetry_equiv_pos_as_xyz
  1  'x, y, z'
loop_
 _atom_site_type_symbol
 _atom_site_label
 _atom_site_symmetry_multiplicity
 _atom_site_fract_x
 _atom_site_fract_y
 _atom_site_fract_z
 _atom_site_occupancy
  Y  Y0  1  0.000000  0.945095  0.373051  1
  Er  Er1  1  0.000000  0.055178  0.627663  1
  Er  Er2  1  0.000000  0.444971  0.127067  1
  Er  Er3  1  0.000000  0.554992  0.872776  1
  Th  Th4  1  0.000000  0.322726  0.414359  1
  Th  Th5  1  0.000000  0.677326  0.585919  1
  Th  Th6  1  0.000000  0.822318  0.085490  1
  Th  Th7  1  0.000000  0.177663  0.914279  1
  Re  Re8  1  0.000000  0.638831  0.319512  1
  Re  Re9  1  0.000000  0.360485  0.680468  1
  Re  Re10  1  0.000000  0.140032  0.179907  1
  Re  Re11  1  0.000000  0.860375  0.819655  1
  B  B12  1  0.500000  0.556279  0.429606  1
  B  B13  1  0.500000  0.443495  0.570495  1
  B  B14  1  0.500000  0.056507  0.070246  1
  B  B15  1  0.500000  0.943543  0.929546  1
  B  B16  1  0.500000  0.749413  0.416899  1
  B  B17  1  0.500000  0.249885  0.583217  1
  B  B18  1  0.500000  0.250309  0.083075  1
  B  B19  1  0.500000  0.749797  0.916820  1
  B  B20  1  0.500000  0.790837  0.266306  1
  B  B21  1  0.500000  0.208560  0.733474  1
  B  B22  1  0.500000  0.291739  0.233361  1
  B  B23  1  0.500000  0.708495  0.766593  1
  B  B24  1  0.500000  0.630482  0.185743  1
  B  B25  1  0.500000  0.369361  0.814142  1
  B  B26  1  0.500000  0.131315  0.313790  1
  B  B27  1  0.500000  0.869283  0.685958  1
  B  B28  1  0.500000  0.985627  0.213817  1
  B  B29  1  0.500000  0.014697  0.785675  1
  B  B30  1  0.500000  0.485124  0.285562  1
  B  B31  1  0.500000  0.514706  0.714393  1
  B  B32  1  0.500000  0.602339  0.027960  1
  B  B33  1  0.500000  0.397651  0.971950  1
  B  B34  1  0.500000  0.103268  0.472457  1
  B  B35  1  0.500000  0.897294  0.528769  1
