# generated using pymatgen
data_MnCr3(CuSe4)2
_symmetry_space_group_name_H-M   'P 1'
_cell_length_a   7.36864201
_cell_length_b   7.36864185
_cell_length_c   7.36864079
_cell_angle_alpha   59.87509616
_cell_angle_beta   59.87509472
_cell_angle_gamma   59.87509174
_symmetry_Int_Tables_number   1
_chemical_formula_structural   MnCr3(CuSe4)2
_chemical_formula_sum   'Mn1 Cr3 Cu2 Se8'
_cell_volume   282.10753985
_cell_formula_units_Z   1
loop_
 _symmetry_equiv_pos_site_id
 _symmetry_equiv_pos_as_xyz
  1  'x, y, z'
loop_
 _atom_site_type_symbol
 _atom_site_label
 _atom_site_symmetry_multiplicity
 _atom_site_fract_x
 _atom_site_fract_y
 _atom_site_fract_z
 _atom_site_occupancy
  Mn  Mn0  1  0.500000  0.500000  0.500000  1
  Cr  Cr1  1  0.000000  0.500000  0.500000  1
  Cr  Cr2  1  0.500000  0.500000  0.000000  1
  Cr  Cr3  1  0.500000  0.000000  0.500000  1
  Cu  Cu4  1  0.125321  0.125321  0.125321  1
  Cu  Cu5  1  0.874679  0.874679  0.874679  1
  Se  Se6  1  0.257959  0.257959  0.257959  1
  Se  Se7  1  0.725493  0.258853  0.258853  1
  Se  Se8  1  0.258853  0.258853  0.725493  1
  Se  Se9  1  0.258853  0.725493  0.258853  1
  Se  Se10  1  0.742041  0.742041  0.742041  1
  Se  Se11  1  0.274507  0.741147  0.741147  1
  Se  Se12  1  0.741147  0.741147  0.274507  1
  Se  Se13  1  0.741147  0.274507  0.741147  1
