# generated using pymatgen
data_Zr3VRe2W3
_symmetry_space_group_name_H-M   'P 1'
_cell_length_a   5.31974905
_cell_length_b   5.34356345
_cell_length_c   13.16865523
_cell_angle_alpha   90.28297030
_cell_angle_beta   89.61320681
_cell_angle_gamma   119.71207402
_symmetry_Int_Tables_number   1
_chemical_formula_structural   Zr3VRe2W3
_chemical_formula_sum   'Zr6 V2 Re4 W6'
_cell_volume   325.11445918
_cell_formula_units_Z   2
loop_
 _symmetry_equiv_pos_site_id
 _symmetry_equiv_pos_as_xyz
  1  'x, y, z'
loop_
 _atom_site_type_symbol
 _atom_site_label
 _atom_site_symmetry_multiplicity
 _atom_site_fract_x
 _atom_site_fract_y
 _atom_site_fract_z
 _atom_site_occupancy
  Zr  Zr0  1  0.334364  0.664966  0.918648  1
  Zr  Zr1  1  0.003184  0.002793  0.248744  1
  Zr  Zr2  1  0.667758  0.332710  0.583563  1
  Zr  Zr3  1  0.332242  0.667290  0.666437  1
  Zr  Zr4  1  0.996816  0.997207  0.001255  1
  Zr  Zr5  1  0.665636  0.335034  0.331352  1
  V  V6  1  0.000000  0.000000  0.625000  1
  V  V7  1  0.000000  0.500000  0.125000  1
  Re  Re8  1  0.500000  0.500000  0.125000  1
  Re  Re9  1  0.165614  0.835064  0.459532  1
  Re  Re10  1  0.834386  0.164936  0.790468  1
  Re  Re11  1  0.500000  0.000000  0.125000  1
  W  W12  1  0.165705  0.332529  0.459218  1
  W  W13  1  0.834295  0.667471  0.790782  1
  W  W14  1  0.330484  0.667488  0.289342  1
  W  W15  1  0.669516  0.332512  0.960658  1
  W  W16  1  0.667615  0.834491  0.459597  1
  W  W17  1  0.332385  0.165509  0.790403  1
