# generated using pymatgen
data_Tb16MgCd2AgPt4
_symmetry_space_group_name_H-M   'P 1'
_cell_length_a   9.70231644
_cell_length_b   9.70231571
_cell_length_c   9.68750174
_cell_angle_alpha   60.20529428
_cell_angle_beta   60.20529579
_cell_angle_gamma   60.19978143
_symmetry_Int_Tables_number   1
_chemical_formula_structural   Tb16MgCd2AgPt4
_chemical_formula_sum   'Tb16 Mg1 Cd2 Ag1 Pt4'
_cell_volume   647.80426074
_cell_formula_units_Z   1
loop_
 _symmetry_equiv_pos_site_id
 _symmetry_equiv_pos_as_xyz
  1  'x, y, z'
loop_
 _atom_site_type_symbol
 _atom_site_label
 _atom_site_symmetry_multiplicity
 _atom_site_fract_x
 _atom_site_fract_y
 _atom_site_fract_z
 _atom_site_occupancy
  Tb  Tb0  1  0.348629  0.348629  0.349713  1
  Tb  Tb1  1  0.354712  0.354712  0.938821  1
  Tb  Tb2  1  0.352901  0.942475  0.354290  1
  Tb  Tb3  1  0.942475  0.352901  0.354290  1
  Tb  Tb4  1  0.811633  0.190952  0.189523  1
  Tb  Tb5  1  0.190109  0.809731  0.809760  1
  Tb  Tb6  1  0.190952  0.811633  0.189523  1
  Tb  Tb7  1  0.809731  0.190109  0.809760  1
  Tb  Tb8  1  0.191741  0.191741  0.809876  1
  Tb  Tb9  1  0.811503  0.811503  0.188311  1
  Tb  Tb10  1  0.933796  0.564558  0.563921  1
  Tb  Tb11  1  0.563350  0.936387  0.934322  1
  Tb  Tb12  1  0.564558  0.933796  0.563921  1
  Tb  Tb13  1  0.936387  0.563350  0.934322  1
  Tb  Tb14  1  0.564960  0.564960  0.932060  1
  Tb  Tb15  1  0.935723  0.935723  0.562415  1
  Mg  Mg16  1  0.576287  0.576287  0.271316  1
  Cd  Cd17  1  0.582095  0.254082  0.581339  1
  Cd  Cd18  1  0.254082  0.582095  0.581339  1
  Ag  Ag19  1  0.584849  0.584849  0.582242  1
  Pt  Pt20  1  0.144957  0.144957  0.144004  1
  Pt  Pt21  1  0.141938  0.141938  0.571367  1
  Pt  Pt22  1  0.142130  0.570504  0.141783  1
  Pt  Pt23  1  0.570504  0.142130  0.141783  1
