# generated using pymatgen
data_Pr3DyIn2Ir2Rh
_symmetry_space_group_name_H-M   'P 1'
_cell_length_a   7.70976456
_cell_length_b   7.70976397
_cell_length_c   4.22035700
_cell_angle_alpha   90.00000000
_cell_angle_beta   90.00000000
_cell_angle_gamma   120.84286604
_symmetry_Int_Tables_number   1
_chemical_formula_structural   Pr3DyIn2Ir2Rh
_chemical_formula_sum   'Pr3 Dy1 In2 Ir2 Rh1'
_cell_volume   215.38250327
_cell_formula_units_Z   1
loop_
 _symmetry_equiv_pos_site_id
 _symmetry_equiv_pos_as_xyz
  1  'x, y, z'
loop_
 _atom_site_type_symbol
 _atom_site_label
 _atom_site_symmetry_multiplicity
 _atom_site_fract_x
 _atom_site_fract_y
 _atom_site_fract_z
 _atom_site_occupancy
  Pr  Pr0  1  0.019462  0.581171  0.500000  1
  Pr  Pr1  1  0.388545  0.388545  0.500000  1
  Pr  Pr2  1  0.581171  0.019462  0.500000  1
  Dy  Dy3  1  0.756739  0.756739  0.000000  1
  In  In4  1  0.993621  0.245964  0.000000  1
  In  In5  1  0.245964  0.993621  0.000000  1
  Ir  Ir6  1  0.341459  0.669381  0.000000  1
  Ir  Ir7  1  0.669381  0.341459  0.000000  1
  Rh  Rh8  1  0.003658  0.003658  0.500000  1
