# generated using pymatgen
data_K5U2Tl3Se10
_symmetry_space_group_name_H-M   'P 1'
_cell_length_a   7.98929133
_cell_length_b   11.77413240
_cell_length_c   7.99971300
_cell_angle_alpha   101.31145431
_cell_angle_beta   102.57058613
_cell_angle_gamma   108.64567856
_symmetry_Int_Tables_number   1
_chemical_formula_structural   K5U2Tl3Se10
_chemical_formula_sum   'K5 U2 Tl3 Se10'
_cell_volume   666.57416798
_cell_formula_units_Z   1
loop_
 _symmetry_equiv_pos_site_id
 _symmetry_equiv_pos_as_xyz
  1  'x, y, z'
loop_
 _atom_site_type_symbol
 _atom_site_label
 _atom_site_symmetry_multiplicity
 _atom_site_fract_x
 _atom_site_fract_y
 _atom_site_fract_z
 _atom_site_occupancy
  K  K0  1  0.426539  0.905661  0.212459  1
  K  K1  1  0.600153  0.597189  0.292988  1
  K  K2  1  0.797041  0.297457  0.421826  1
  K  K3  1  0.203428  0.705617  0.580732  1
  K  K4  1  0.399821  0.400002  0.703515  1
  U  U5  1  0.187861  0.195711  0.099681  1
  U  U6  1  0.809772  0.803922  0.899196  1
  Tl  Tl7  1  0.997519  0.499469  0.999629  1
  Tl  Tl8  1  0.002833  0.000905  0.502460  1
  Tl  Tl9  1  0.594357  0.095018  0.802515  1
  Se  Se10  1  0.516611  0.308124  0.057972  1
  Se  Se11  1  0.839824  0.038027  0.112926  1
  Se  Se12  1  0.983821  0.760196  0.192802  1
  Se  Se13  1  0.178842  0.403696  0.302454  1
  Se  Se14  1  0.356277  0.152792  0.393561  1
  Se  Se15  1  0.641344  0.848037  0.603630  1
  Se  Se16  1  0.821552  0.598222  0.695511  1
  Se  Se17  1  0.008977  0.239303  0.805385  1
  Se  Se18  1  0.152706  0.963327  0.884191  1
  Se  Se19  1  0.480726  0.687324  0.936564  1
