# generated using pymatgen
data_Dy4AsIO8
_symmetry_space_group_name_H-M   'P 1'
_cell_length_a   8.14940900
_cell_length_b   8.14940900
_cell_length_c   12.94266000
_cell_angle_alpha   90.00000000
_cell_angle_beta   90.00000000
_cell_angle_gamma   90.00000000
_symmetry_Int_Tables_number   1
_chemical_formula_structural   Dy4AsIO8
_chemical_formula_sum   'Dy16 As4 I4 O32'
_cell_volume   859.55915784
_cell_formula_units_Z   4
loop_
 _symmetry_equiv_pos_site_id
 _symmetry_equiv_pos_as_xyz
  1  'x, y, z'
loop_
 _atom_site_type_symbol
 _atom_site_label
 _atom_site_symmetry_multiplicity
 _atom_site_fract_x
 _atom_site_fract_y
 _atom_site_fract_z
 _atom_site_occupancy
  Dy  Dy0  1  0.014246  0.243064  0.171841  1
  Dy  Dy1  1  0.985754  0.756936  0.171841  1
  Dy  Dy2  1  0.481547  0.242657  0.172968  1
  Dy  Dy3  1  0.518453  0.757342  0.172968  1
  Dy  Dy4  1  0.757342  0.481547  0.327032  1
  Dy  Dy5  1  0.242657  0.518453  0.327032  1
  Dy  Dy6  1  0.756936  0.014246  0.328159  1
  Dy  Dy7  1  0.243064  0.985754  0.328159  1
  Dy  Dy8  1  0.756936  0.014246  0.671841  1
  Dy  Dy9  1  0.243064  0.985754  0.671841  1
  Dy  Dy10  1  0.757342  0.481547  0.672967  1
  Dy  Dy11  1  0.242657  0.518453  0.672967  1
  Dy  Dy12  1  0.481547  0.242657  0.827032  1
  Dy  Dy13  1  0.518453  0.757342  0.827032  1
  Dy  Dy14  1  0.014246  0.243064  0.828159  1
  Dy  Dy15  1  0.985754  0.756936  0.828159  1
  As  As16  1  0.748061  0.044990  0.000000  1
  As  As17  1  0.251939  0.955010  0.000000  1
  As  As18  1  0.044990  0.251939  0.500000  1
  As  As19  1  0.955010  0.748061  0.500000  1
  I  I20  1  0.252166  0.452288  0.000000  1
  I  I21  1  0.747834  0.547712  0.000000  1
  I  I22  1  0.547712  0.252166  0.500000  1
  I  I23  1  0.452288  0.747834  0.500000  1
  O  O24  1  0.574531  0.169057  0.000000  1
  O  O25  1  0.922188  0.168759  0.000000  1
  O  O26  1  0.077811  0.831240  0.000000  1
  O  O27  1  0.425469  0.830943  0.000000  1
  O  O28  1  0.251906  0.074520  0.108897  1
  O  O29  1  0.748093  0.925480  0.108897  1
  O  O30  1  0.743108  0.248149  0.227751  1
  O  O31  1  0.256892  0.751851  0.227751  1
  O  O32  1  0.000000  0.500000  0.237414  1
  O  O33  1  0.000000  0.000000  0.250000  1
  O  O34  1  0.500000  0.500000  0.250000  1
  O  O35  1  0.500000  0.000000  0.262586  1
  O  O36  1  0.248149  0.256892  0.272250  1
  O  O37  1  0.751851  0.743108  0.272250  1
  O  O38  1  0.925480  0.251906  0.391103  1
  O  O39  1  0.074520  0.748093  0.391103  1
  O  O40  1  0.168759  0.077811  0.500000  1
  O  O41  1  0.169057  0.425469  0.500000  1
  O  O42  1  0.830943  0.574531  0.500000  1
  O  O43  1  0.831240  0.922188  0.500000  1
  O  O44  1  0.925480  0.251906  0.608897  1
  O  O45  1  0.074520  0.748093  0.608897  1
  O  O46  1  0.248149  0.256892  0.727751  1
  O  O47  1  0.751851  0.743108  0.727751  1
  O  O48  1  0.500000  0.000000  0.737414  1
  O  O49  1  0.000000  0.000000  0.750000  1
  O  O50  1  0.500000  0.500000  0.750000  1
  O  O51  1  0.000000  0.500000  0.762587  1
  O  O52  1  0.743108  0.248149  0.772250  1
  O  O53  1  0.256892  0.751851  0.772250  1
  O  O54  1  0.251906  0.074520  0.891103  1
  O  O55  1  0.748093  0.925480  0.891103  1
