# generated using pymatgen
data_DyY18Lu(Cd3Fe)2
_symmetry_space_group_name_H-M   'P 1'
_cell_length_a   9.59327591
_cell_length_b   9.59327536
_cell_length_c   9.84882477
_cell_angle_alpha   90.07734659
_cell_angle_beta   89.92265301
_cell_angle_gamma   120.01644367
_symmetry_Int_Tables_number   1
_chemical_formula_structural   DyY18Lu(Cd3Fe)2
_chemical_formula_sum   'Dy1 Y18 Lu1 Cd6 Fe2'
_cell_volume   784.83140919
_cell_formula_units_Z   1
loop_
 _symmetry_equiv_pos_site_id
 _symmetry_equiv_pos_as_xyz
  1  'x, y, z'
loop_
 _atom_site_type_symbol
 _atom_site_label
 _atom_site_symmetry_multiplicity
 _atom_site_fract_x
 _atom_site_fract_y
 _atom_site_fract_z
 _atom_site_occupancy
  Dy  Dy0  1  0.211538  0.788462  0.436118  1
  Y  Y1  1  0.999899  0.000101  0.000036  1
  Y  Y2  1  0.210987  0.421997  0.436982  1
  Y  Y3  1  0.578003  0.789013  0.436982  1
  Y  Y4  1  0.789013  0.210987  0.563307  1
  Y  Y5  1  0.789303  0.577886  0.563172  1
  Y  Y6  1  0.422114  0.210697  0.563172  1
  Y  Y7  1  0.788111  0.211889  0.936615  1
  Y  Y8  1  0.788218  0.576305  0.936722  1
  Y  Y9  1  0.423695  0.211782  0.936722  1
  Y  Y10  1  0.211507  0.788493  0.063208  1
  Y  Y11  1  0.211998  0.423995  0.063338  1
  Y  Y12  1  0.576005  0.788002  0.063338  1
  Y  Y13  1  0.541262  0.458738  0.250316  1
  Y  Y14  1  0.540784  0.081710  0.250412  1
  Y  Y15  1  0.918290  0.459216  0.250412  1
  Y  Y16  1  0.459116  0.540884  0.749812  1
  Y  Y17  1  0.458818  0.917684  0.749465  1
  Y  Y18  1  0.082316  0.541182  0.749465  1
  Lu  Lu19  1  0.000322  0.999678  0.499844  1
  Cd  Cd20  1  0.886446  0.113554  0.252017  1
  Cd  Cd21  1  0.886312  0.772792  0.251669  1
  Cd  Cd22  1  0.227208  0.113688  0.251669  1
  Cd  Cd23  1  0.113553  0.886447  0.748220  1
  Cd  Cd24  1  0.113524  0.227149  0.748145  1
  Cd  Cd25  1  0.772851  0.886476  0.748145  1
  Fe  Fe26  1  0.332239  0.667761  0.250826  1
  Fe  Fe27  1  0.666569  0.333431  0.749872  1
