# generated using pymatgen
data_La4Ge8PtAu7
_symmetry_space_group_name_H-M   'P 1'
_cell_length_a   4.52243005
_cell_length_b   9.06624822
_cell_length_c   10.39753549
_cell_angle_alpha   89.78836222
_cell_angle_beta   90.01236135
_cell_angle_gamma   89.99226057
_symmetry_Int_Tables_number   1
_chemical_formula_structural   La4Ge8PtAu7
_chemical_formula_sum   'La4 Ge8 Pt1 Au7'
_cell_volume   426.31135260
_cell_formula_units_Z   1
loop_
 _symmetry_equiv_pos_site_id
 _symmetry_equiv_pos_as_xyz
  1  'x, y, z'
loop_
 _atom_site_type_symbol
 _atom_site_label
 _atom_site_symmetry_multiplicity
 _atom_site_fract_x
 _atom_site_fract_y
 _atom_site_fract_z
 _atom_site_occupancy
  La  La0  1  0.254423  0.871863  0.247057  1
  La  La1  1  0.752514  0.625498  0.756853  1
  La  La2  1  0.247566  0.375839  0.247103  1
  La  La3  1  0.746763  0.126053  0.752424  1
  Ge  Ge4  1  0.249965  0.123718  0.000868  1
  Ge  Ge5  1  0.763666  0.619574  0.357506  1
  Ge  Ge6  1  0.729476  0.118770  0.371897  1
  Ge  Ge7  1  0.252188  0.624110  0.005169  1
  Ge  Ge8  1  0.231619  0.382334  0.631170  1
  Ge  Ge9  1  0.749441  0.380744  0.004620  1
  Ge  Ge10  1  0.271420  0.880162  0.630618  1
  Ge  Ge11  1  0.750863  0.871257  0.003983  1
  Pt  Pt12  1  0.752084  0.625924  0.118586  1
  Au  Au13  1  0.265110  0.630508  0.496685  1
  Au  Au14  1  0.751186  0.125631  0.127853  1
  Au  Au15  1  0.228795  0.131181  0.502141  1
  Au  Au16  1  0.771793  0.864110  0.499503  1
  Au  Au17  1  0.250229  0.374161  0.873865  1
  Au  Au18  1  0.249378  0.873902  0.873263  1
  Au  Au19  1  0.731522  0.374662  0.498836  1
