# generated using pymatgen
data_Y7Tm9(HgRh)4
_symmetry_space_group_name_H-M   'P 1'
_cell_length_a   9.53478231
_cell_length_b   9.53478247
_cell_length_c   9.55238100
_cell_angle_alpha   59.93893570
_cell_angle_beta   59.93893517
_cell_angle_gamma   60.02452250
_symmetry_Int_Tables_number   1
_chemical_formula_structural   Y7Tm9(HgRh)4
_chemical_formula_sum   'Y7 Tm9 Hg4 Rh4'
_cell_volume   613.61648175
_cell_formula_units_Z   1
loop_
 _symmetry_equiv_pos_site_id
 _symmetry_equiv_pos_as_xyz
  1  'x, y, z'
loop_
 _atom_site_type_symbol
 _atom_site_label
 _atom_site_symmetry_multiplicity
 _atom_site_fract_x
 _atom_site_fract_y
 _atom_site_fract_z
 _atom_site_occupancy
  Y  Y0  1  0.061437  0.061437  0.438563  1
  Y  Y1  1  0.189817  0.810368  0.812529  1
  Y  Y2  1  0.810368  0.189817  0.187287  1
  Y  Y3  1  0.810368  0.189817  0.812529  1
  Y  Y4  1  0.189817  0.810368  0.187287  1
  Y  Y5  1  0.811036  0.811036  0.188964  1
  Y  Y6  1  0.188449  0.188449  0.811551  1
  Tm  Tm7  1  0.600921  0.600921  0.600250  1
  Tm  Tm8  1  0.600921  0.600921  0.197908  1
  Tm  Tm9  1  0.600763  0.198149  0.600545  1
  Tm  Tm10  1  0.198149  0.600763  0.600545  1
  Tm  Tm11  1  0.061003  0.438233  0.438716  1
  Tm  Tm12  1  0.438233  0.061003  0.062049  1
  Tm  Tm13  1  0.438233  0.061003  0.438716  1
  Tm  Tm14  1  0.061003  0.438233  0.062049  1
  Tm  Tm15  1  0.437798  0.437798  0.062202  1
  Hg  Hg16  1  0.833796  0.833796  0.834008  1
  Hg  Hg17  1  0.833796  0.833796  0.498399  1
  Hg  Hg18  1  0.834508  0.496799  0.834346  1
  Hg  Hg19  1  0.496799  0.834508  0.834346  1
  Rh  Rh20  1  0.393109  0.393109  0.392325  1
  Rh  Rh21  1  0.393109  0.393109  0.821457  1
  Rh  Rh22  1  0.397882  0.818686  0.391716  1
  Rh  Rh23  1  0.818686  0.397882  0.391716  1
