# generated using pymatgen
data_RbBaNbO4
_symmetry_space_group_name_H-M   'P 1'
_cell_length_a   6.40498000
_cell_length_b   8.06807000
_cell_length_c   10.88895900
_cell_angle_alpha   90.00000000
_cell_angle_beta   90.00000000
_cell_angle_gamma   90.00000000
_symmetry_Int_Tables_number   1
_chemical_formula_structural   RbBaNbO4
_chemical_formula_sum   'Rb4 Ba4 Nb4 O16'
_cell_volume   562.69596137
_cell_formula_units_Z   4
loop_
 _symmetry_equiv_pos_site_id
 _symmetry_equiv_pos_as_xyz
  1  'x, y, z'
loop_
 _atom_site_type_symbol
 _atom_site_label
 _atom_site_symmetry_multiplicity
 _atom_site_fract_x
 _atom_site_fract_y
 _atom_site_fract_z
 _atom_site_occupancy
  Rb  Rb0  1  0.250000  0.837304  0.423610  1
  Rb  Rb1  1  0.750000  0.162696  0.576390  1
  Rb  Rb2  1  0.250000  0.337304  0.076390  1
  Rb  Rb3  1  0.750000  0.662696  0.923610  1
  Ba  Ba4  1  0.250000  0.499536  0.706594  1
  Ba  Ba5  1  0.750000  0.500464  0.293406  1
  Ba  Ba6  1  0.250000  0.999536  0.793406  1
  Ba  Ba7  1  0.750000  0.000464  0.206594  1
  Nb  Nb8  1  0.250000  0.277925  0.418380  1
  Nb  Nb9  1  0.750000  0.722075  0.581620  1
  Nb  Nb10  1  0.250000  0.777925  0.081620  1
  Nb  Nb11  1  0.750000  0.222075  0.918380  1
  O  O12  1  0.506939  0.781940  0.669316  1
  O  O13  1  0.006939  0.218060  0.330684  1
  O  O14  1  0.993061  0.281940  0.830684  1
  O  O15  1  0.493061  0.718060  0.169316  1
  O  O16  1  0.493061  0.218060  0.330684  1
  O  O17  1  0.993061  0.781940  0.669316  1
  O  O18  1  0.006939  0.718060  0.169316  1
  O  O19  1  0.506939  0.281940  0.830684  1
  O  O20  1  0.250000  0.179179  0.575344  1
  O  O21  1  0.750000  0.820821  0.424656  1
  O  O22  1  0.250000  0.679179  0.924656  1
  O  O23  1  0.750000  0.320821  0.075344  1
  O  O24  1  0.750000  0.995172  0.946013  1
  O  O25  1  0.250000  0.004828  0.053987  1
  O  O26  1  0.750000  0.495172  0.553987  1
  O  O27  1  0.250000  0.504828  0.446013  1
