# generated using pymatgen
data_Ti8Al15Ru3Pt4
_symmetry_space_group_name_H-M   'P 1'
_cell_length_a   8.68690187
_cell_length_b   8.67633537
_cell_length_c   8.70481493
_cell_angle_alpha   120.00465742
_cell_angle_beta   119.91497522
_cell_angle_gamma   90.13384758
_symmetry_Int_Tables_number   1
_chemical_formula_structural   Ti8Al15Ru3Pt4
_chemical_formula_sum   'Ti8 Al15 Ru3 Pt4'
_cell_volume   463.94282153
_cell_formula_units_Z   1
loop_
 _symmetry_equiv_pos_site_id
 _symmetry_equiv_pos_as_xyz
  1  'x, y, z'
loop_
 _atom_site_type_symbol
 _atom_site_label
 _atom_site_symmetry_multiplicity
 _atom_site_fract_x
 _atom_site_fract_y
 _atom_site_fract_z
 _atom_site_occupancy
  Ti  Ti0  1  0.793065  0.289294  0.072706  1
  Ti  Ti1  1  0.215424  0.286795  0.497592  1
  Ti  Ti2  1  0.208783  0.709922  0.498122  1
  Ti  Ti3  1  0.211241  0.715254  0.923062  1
  Ti  Ti4  1  0.792895  0.719477  0.505278  1
  Ti  Ti5  1  0.785632  0.283192  0.502767  1
  Ti  Ti6  1  0.381236  0.120742  0.738419  1
  Ti  Ti7  1  0.371918  0.639692  0.255513  1
  Al  Al8  1  0.996630  0.495752  0.498137  1
  Al  Al9  1  0.151295  0.341771  0.186672  1
  Al  Al10  1  0.153603  0.967201  0.813258  1
  Al  Al11  1  0.149844  0.346995  0.806924  1
  Al  Al12  1  0.543631  0.347646  0.196893  1
  Al  Al13  1  0.848479  0.654471  0.811513  1
  Al  Al14  1  0.848184  0.039456  0.191199  1
  Al  Al15  1  0.845634  0.652758  0.186967  1
  Al  Al16  1  0.463872  0.653518  0.809201  1
  Al  Al17  1  0.373576  0.117163  0.257452  1
  Al  Al18  1  0.862201  0.123630  0.747391  1
  Al  Al19  1  0.619446  0.880458  0.261895  1
  Al  Al20  1  0.626693  0.361149  0.743577  1
  Al  Al21  1  0.627313  0.881883  0.743035  1
  Al  Al22  1  0.135897  0.876846  0.251790  1
  Ru  Ru23  1  0.001805  0.499888  0.002180  1
  Ru  Ru24  1  0.999604  0.999234  0.999438  1
  Ru  Ru25  1  0.497811  0.999240  0.500579  1
  Pt  Pt26  1  0.999092  0.998767  0.499409  1
  Pt  Pt27  1  0.499055  0.999043  0.999496  1
  Pt  Pt28  1  0.498085  0.499468  0.000707  1
  Pt  Pt29  1  0.498055  0.499296  0.498830  1
