# generated using pymatgen
data_Ca3Tb(Pr4Ga3)4
_symmetry_space_group_name_H-M   'P 1'
_cell_length_a   7.94712400
_cell_length_b   7.94712400
_cell_length_c   14.58857000
_cell_angle_alpha   90.00000000
_cell_angle_beta   90.00000000
_cell_angle_gamma   90.00000000
_symmetry_Int_Tables_number   1
_chemical_formula_structural   Ca3Tb(Pr4Ga3)4
_chemical_formula_sum   'Ca3 Tb1 Pr16 Ga12'
_cell_volume   921.36710413
_cell_formula_units_Z   1
loop_
 _symmetry_equiv_pos_site_id
 _symmetry_equiv_pos_as_xyz
  1  'x, y, z'
loop_
 _atom_site_type_symbol
 _atom_site_label
 _atom_site_symmetry_multiplicity
 _atom_site_fract_x
 _atom_site_fract_y
 _atom_site_fract_z
 _atom_site_occupancy
  Ca  Ca0  1  0.000000  0.500000  0.735697  1
  Ca  Ca1  1  0.000000  0.500000  0.239345  1
  Ca  Ca2  1  0.500000  0.000000  0.257172  1
  Tb  Tb3  1  0.500000  0.000000  0.780257  1
  Pr  Pr4  1  0.817837  0.834613  0.603413  1
  Pr  Pr5  1  0.176608  0.832757  0.100796  1
  Pr  Pr6  1  0.167454  0.822469  0.397497  1
  Pr  Pr7  1  0.832546  0.177531  0.397497  1
  Pr  Pr8  1  0.677531  0.667454  0.397497  1
  Pr  Pr9  1  0.665387  0.317837  0.603413  1
  Pr  Pr10  1  0.334613  0.682163  0.603413  1
  Pr  Pr11  1  0.667243  0.676608  0.100796  1
  Pr  Pr12  1  0.678332  0.337340  0.897633  1
  Pr  Pr13  1  0.837340  0.821668  0.897633  1
  Pr  Pr14  1  0.322469  0.332546  0.397497  1
  Pr  Pr15  1  0.182163  0.165387  0.603413  1
  Pr  Pr16  1  0.823392  0.167243  0.100796  1
  Pr  Pr17  1  0.321668  0.662660  0.897633  1
  Pr  Pr18  1  0.332757  0.323392  0.100796  1
  Pr  Pr19  1  0.162660  0.178332  0.897633  1
  Ga  Ga20  1  0.617231  0.382769  0.249296  1
  Ga  Ga21  1  0.123318  0.884401  0.749473  1
  Ga  Ga22  1  0.384401  0.376682  0.749473  1
  Ga  Ga23  1  0.382769  0.617231  0.249296  1
  Ga  Ga24  1  0.882769  0.882769  0.249296  1
  Ga  Ga25  1  0.615599  0.623318  0.749473  1
  Ga  Ga26  1  0.000000  0.500000  0.503427  1
  Ga  Ga27  1  0.876682  0.115599  0.749473  1
  Ga  Ga28  1  0.500000  0.000000  0.492203  1
  Ga  Ga29  1  0.500000  0.000000  0.995369  1
  Ga  Ga30  1  0.117231  0.117231  0.249296  1
  Ga  Ga31  1  0.000000  0.500000  0.004104  1
