# generated using pymatgen
data_Nd5HfRhO12
_symmetry_space_group_name_H-M   'P 1'
_cell_length_a   7.11391401
_cell_length_b   7.11391560
_cell_length_c   7.71144300
_cell_angle_alpha   74.30556956
_cell_angle_beta   74.30555761
_cell_angle_gamma   50.52272199
_symmetry_Int_Tables_number   1
_chemical_formula_structural   Nd5HfRhO12
_chemical_formula_sum   'Nd5 Hf1 Rh1 O12'
_cell_volume   287.44101100
_cell_formula_units_Z   1
loop_
 _symmetry_equiv_pos_site_id
 _symmetry_equiv_pos_as_xyz
  1  'x, y, z'
loop_
 _atom_site_type_symbol
 _atom_site_label
 _atom_site_symmetry_multiplicity
 _atom_site_fract_x
 _atom_site_fract_y
 _atom_site_fract_z
 _atom_site_occupancy
  Nd  Nd0  1  0.304011  0.305217  0.359559  1
  Nd  Nd1  1  0.694783  0.695989  0.640441  1
  Nd  Nd2  1  0.682968  0.699087  0.170146  1
  Nd  Nd3  1  0.300913  0.317032  0.829854  1
  Nd  Nd4  1  0.005966  0.994034  0.500000  1
  Hf  Hf5  1  0.774810  0.225190  0.000000  1
  Rh  Rh6  1  0.251518  0.748482  0.000000  1
  O  O7  1  0.093476  0.597159  0.574148  1
  O  O8  1  0.013012  0.986533  0.188100  1
  O  O9  1  0.402841  0.906524  0.425852  1
  O  O10  1  0.499394  0.501601  0.180379  1
  O  O11  1  0.097820  0.588489  0.080455  1
  O  O12  1  0.902791  0.408669  0.420504  1
  O  O13  1  0.013467  0.986988  0.811900  1
  O  O14  1  0.591331  0.097208  0.579496  1
  O  O15  1  0.498399  0.500606  0.819621  1
  O  O16  1  0.563924  0.102935  0.081450  1
  O  O17  1  0.411511  0.902180  0.919545  1
  O  O18  1  0.897065  0.436076  0.918550  1
