# generated using pymatgen
data_Cs2Ti3P5O19
_symmetry_space_group_name_H-M   'P 1'
_cell_length_a   9.61111876
_cell_length_b   14.50319500
_cell_length_c   6.44517600
_cell_angle_alpha   90.00000000
_cell_angle_beta   104.92270980
_cell_angle_gamma   90.00000000
_symmetry_Int_Tables_number   1
_chemical_formula_structural   Cs2Ti3P5O19
_chemical_formula_sum   'Cs4 Ti6 P10 O38'
_cell_volume   868.10597207
_cell_formula_units_Z   2
loop_
 _symmetry_equiv_pos_site_id
 _symmetry_equiv_pos_as_xyz
  1  'x, y, z'
loop_
 _atom_site_type_symbol
 _atom_site_label
 _atom_site_symmetry_multiplicity
 _atom_site_fract_x
 _atom_site_fract_y
 _atom_site_fract_z
 _atom_site_occupancy
  Cs  Cs0  1  0.500000  0.000000  0.000000  1
  Cs  Cs1  1  0.500000  0.500000  0.000000  1
  Cs  Cs2  1  0.877966  0.250000  0.054750  1
  Cs  Cs3  1  0.122034  0.750000  0.945251  1
  Ti  Ti4  1  0.860947  0.628550  0.277169  1
  Ti  Ti5  1  0.860947  0.871451  0.277169  1
  Ti  Ti6  1  0.535809  0.250000  0.374969  1
  Ti  Ti7  1  0.464191  0.750000  0.625031  1
  Ti  Ti8  1  0.139052  0.128549  0.722831  1
  Ti  Ti9  1  0.139052  0.371450  0.722831  1
  P  P10  1  0.559591  0.750000  0.168176  1
  P  P11  1  0.238973  0.102843  0.272652  1
  P  P12  1  0.238973  0.397157  0.272652  1
  P  P13  1  0.211483  0.567320  0.497872  1
  P  P14  1  0.211483  0.932680  0.497872  1
  P  P15  1  0.788517  0.067320  0.502129  1
  P  P16  1  0.788517  0.432681  0.502129  1
  P  P17  1  0.761027  0.602842  0.727347  1
  P  P18  1  0.761027  0.897157  0.727347  1
  P  P19  1  0.440409  0.250000  0.831825  1
  O  O20  1  0.159318  0.098827  0.034714  1
  O  O21  1  0.159318  0.401173  0.034714  1
  O  O22  1  0.538090  0.250000  0.064293  1
  O  O23  1  0.654146  0.662264  0.208147  1
  O  O24  1  0.654146  0.837736  0.208147  1
  O  O25  1  0.905816  0.750000  0.258923  1
  O  O26  1  0.382805  0.152684  0.310263  1
  O  O27  1  0.382805  0.347316  0.310263  1
  O  O28  1  0.456494  0.750000  0.317291  1
  O  O29  1  0.802442  0.009215  0.310705  1
  O  O30  1  0.802442  0.490785  0.310705  1
  O  O31  1  0.066546  0.596084  0.349963  1
  O  O32  1  0.066546  0.903917  0.349963  1
  O  O33  1  0.286611  0.503107  0.348360  1
  O  O34  1  0.286611  0.996893  0.348360  1
  O  O35  1  0.138384  0.136969  0.405935  1
  O  O36  1  0.138384  0.363031  0.405935  1
  O  O37  1  0.688383  0.149063  0.431171  1
  O  O38  1  0.688383  0.350937  0.431171  1
  O  O39  1  0.311618  0.649062  0.568830  1
  O  O40  1  0.311618  0.850937  0.568830  1
  O  O41  1  0.861617  0.636969  0.594066  1
  O  O42  1  0.861617  0.863031  0.594066  1
  O  O43  1  0.713389  0.003106  0.651640  1
  O  O44  1  0.713389  0.496894  0.651640  1
  O  O45  1  0.933454  0.096083  0.650038  1
  O  O46  1  0.933454  0.403917  0.650038  1
  O  O47  1  0.197558  0.509215  0.689296  1
  O  O48  1  0.197558  0.990785  0.689296  1
  O  O49  1  0.543507  0.250000  0.682708  1
  O  O50  1  0.617195  0.652684  0.689738  1
  O  O51  1  0.617195  0.847316  0.689738  1
  O  O52  1  0.094184  0.250000  0.741076  1
  O  O53  1  0.345853  0.162264  0.791854  1
  O  O54  1  0.345853  0.337736  0.791854  1
  O  O55  1  0.461910  0.750000  0.935708  1
  O  O56  1  0.840682  0.598827  0.965284  1
  O  O57  1  0.840682  0.901173  0.965284  1
