# generated using pymatgen
data_Yb4TlCdPd10
_symmetry_space_group_name_H-M   'P 1'
_cell_length_a   4.27902900
_cell_length_b   5.78146486
_cell_length_c   11.44272500
_cell_angle_alpha   90.52517148
_cell_angle_beta   90.00000000
_cell_angle_gamma   90.00000000
_symmetry_Int_Tables_number   1
_chemical_formula_structural   Yb4TlCdPd10
_chemical_formula_sum   'Yb4 Tl1 Cd1 Pd10'
_cell_volume   283.07032092
_cell_formula_units_Z   1
loop_
 _symmetry_equiv_pos_site_id
 _symmetry_equiv_pos_as_xyz
  1  'x, y, z'
loop_
 _atom_site_type_symbol
 _atom_site_label
 _atom_site_symmetry_multiplicity
 _atom_site_fract_x
 _atom_site_fract_y
 _atom_site_fract_z
 _atom_site_occupancy
  Yb  Yb0  1  0.500000  0.304511  0.860903  1
  Yb  Yb1  1  0.500000  0.801546  0.634676  1
  Yb  Yb2  1  0.500000  0.695489  0.139097  1
  Yb  Yb3  1  0.500000  0.198454  0.365324  1
  Tl  Tl4  1  0.000000  0.000000  0.000000  1
  Cd  Cd5  1  0.000000  0.500000  0.500000  1
  Pd  Pd6  1  0.500000  0.710488  0.382836  1
  Pd  Pd7  1  0.500000  0.289512  0.617164  1
  Pd  Pd8  1  0.000000  0.054344  0.748969  1
  Pd  Pd9  1  0.500000  0.789868  0.881918  1
  Pd  Pd10  1  0.000000  0.446461  0.250465  1
  Pd  Pd11  1  0.000000  0.945656  0.251031  1
  Pd  Pd12  1  0.000000  0.553539  0.749535  1
  Pd  Pd13  1  0.000000  0.500000  0.000000  1
  Pd  Pd14  1  0.000000  0.000000  0.500000  1
  Pd  Pd15  1  0.500000  0.210132  0.118082  1
