# generated using pymatgen
data_Be(CoB)3
_symmetry_space_group_name_H-M   'P 1'
_cell_length_a   3.92122913
_cell_length_b   3.92122841
_cell_length_c   9.67650000
_cell_angle_alpha   90.00000000
_cell_angle_beta   90.00000000
_cell_angle_gamma   133.77744019
_symmetry_Int_Tables_number   1
_chemical_formula_structural   Be(CoB)3
_chemical_formula_sum   'Be2 Co6 B6'
_cell_volume   107.42850384
_cell_formula_units_Z   2
loop_
 _symmetry_equiv_pos_site_id
 _symmetry_equiv_pos_as_xyz
  1  'x, y, z'
loop_
 _atom_site_type_symbol
 _atom_site_label
 _atom_site_symmetry_multiplicity
 _atom_site_fract_x
 _atom_site_fract_y
 _atom_site_fract_z
 _atom_site_occupancy
  Be  Be0  1  0.500000  0.500000  0.000000  1
  Be  Be1  1  0.500000  0.500000  0.500000  1
  Co  Co2  1  0.481909  0.518091  0.250000  1
  Co  Co3  1  0.518091  0.481909  0.750000  1
  Co  Co4  1  0.799311  0.200689  0.601786  1
  Co  Co5  1  0.200689  0.799311  0.398214  1
  Co  Co6  1  0.200689  0.799311  0.101786  1
  Co  Co7  1  0.799311  0.200689  0.898214  1
  B  B8  1  0.762069  0.237931  0.250000  1
  B  B9  1  0.237931  0.762069  0.750000  1
  B  B10  1  0.094093  0.905907  0.601105  1
  B  B11  1  0.905907  0.094093  0.398895  1
  B  B12  1  0.905907  0.094093  0.101105  1
  B  B13  1  0.094093  0.905907  0.898895  1
