# generated using pymatgen
data_Dy7LuSc12Si15Au
_symmetry_space_group_name_H-M   'P 1'
_cell_length_a   7.11700610
_cell_length_b   7.36916726
_cell_length_c   14.05789393
_cell_angle_alpha   89.86277078
_cell_angle_beta   89.64459298
_cell_angle_gamma   90.15566868
_symmetry_Int_Tables_number   1
_chemical_formula_structural   Dy7LuSc12Si15Au
_chemical_formula_sum   'Dy7 Lu1 Sc12 Si15 Au1'
_cell_volume   737.26699558
_cell_formula_units_Z   1
loop_
 _symmetry_equiv_pos_site_id
 _symmetry_equiv_pos_as_xyz
  1  'x, y, z'
loop_
 _atom_site_type_symbol
 _atom_site_label
 _atom_site_symmetry_multiplicity
 _atom_site_fract_x
 _atom_site_fract_y
 _atom_site_fract_z
 _atom_site_occupancy
  Dy  Dy0  1  0.988008  0.825804  0.904687  1
  Dy  Dy1  1  0.486797  0.676433  0.904237  1
  Dy  Dy2  1  0.989362  0.828624  0.597556  1
  Dy  Dy3  1  0.511683  0.323593  0.096282  1
  Dy  Dy4  1  0.009955  0.174024  0.399700  1
  Dy  Dy5  1  0.509567  0.323952  0.399804  1
  Dy  Dy6  1  0.491685  0.676202  0.599369  1
  Lu  Lu7  1  0.012144  0.176097  0.098412  1
  Sc  Sc8  1  0.163412  0.501265  0.751889  1
  Sc  Sc9  1  0.836682  0.498133  0.250127  1
  Sc  Sc10  1  0.337050  0.000516  0.248411  1
  Sc  Sc11  1  0.665302  0.996383  0.751438  1
  Sc  Sc12  1  0.340208  0.176397  0.625836  1
  Sc  Sc13  1  0.665933  0.824122  0.372936  1
  Sc  Sc14  1  0.167624  0.672941  0.372399  1
  Sc  Sc15  1  0.670474  0.825092  0.124475  1
  Sc  Sc16  1  0.828710  0.326110  0.625512  1
  Sc  Sc17  1  0.328950  0.174987  0.876632  1
  Sc  Sc18  1  0.831485  0.321507  0.876516  1
  Sc  Sc19  1  0.168217  0.676967  0.125024  1
  Si  Si20  1  0.036695  0.119741  0.750692  1
  Si  Si21  1  0.965883  0.885207  0.248542  1
  Si  Si22  1  0.466017  0.616015  0.247540  1
  Si  Si23  1  0.535993  0.385061  0.753101  1
  Si  Si24  1  0.285724  0.874649  0.751260  1
  Si  Si25  1  0.713483  0.128292  0.247555  1
  Si  Si26  1  0.212519  0.369684  0.246907  1
  Si  Si27  1  0.787900  0.627087  0.753297  1
  Si  Si28  1  0.834304  0.537870  0.459261  1
  Si  Si29  1  0.340248  0.962054  0.460093  1
  Si  Si30  1  0.844221  0.533655  0.039734  1
  Si  Si31  1  0.658822  0.036419  0.537423  1
  Si  Si32  1  0.155597  0.462450  0.962720  1
  Si  Si33  1  0.657210  0.034646  0.960977  1
  Si  Si34  1  0.339646  0.965503  0.039992  1
  Au  Au35  1  0.162491  0.462519  0.539662  1
