# generated using pymatgen
data_DyY5Al24(RuRh)4
_symmetry_space_group_name_H-M   'P 1'
_cell_length_a   8.83762600
_cell_length_b   8.78275919
_cell_length_c   9.55841800
_cell_angle_alpha   90.00000000
_cell_angle_beta   90.00000000
_cell_angle_gamma   119.79484056
_symmetry_Int_Tables_number   1
_chemical_formula_structural   DyY5Al24(RuRh)4
_chemical_formula_sum   'Dy1 Y5 Al24 Ru4 Rh4'
_cell_volume   643.83912438
_cell_formula_units_Z   1
loop_
 _symmetry_equiv_pos_site_id
 _symmetry_equiv_pos_as_xyz
  1  'x, y, z'
loop_
 _atom_site_type_symbol
 _atom_site_label
 _atom_site_symmetry_multiplicity
 _atom_site_fract_x
 _atom_site_fract_y
 _atom_site_fract_z
 _atom_site_occupancy
  Dy  Dy0  1  0.383756  0.191879  0.750000  1
  Y  Y1  1  0.189832  0.804181  0.250000  1
  Y  Y2  1  0.189832  0.385652  0.250000  1
  Y  Y3  1  0.616379  0.808189  0.250000  1
  Y  Y4  1  0.810069  0.195848  0.750000  1
  Y  Y5  1  0.810069  0.614221  0.750000  1
  Al  Al6  1  0.560821  0.437826  0.250000  1
  Al  Al7  1  0.560821  0.122996  0.250000  1
  Al  Al8  1  0.876133  0.438067  0.250000  1
  Al  Al9  1  0.439142  0.562105  0.750000  1
  Al  Al10  1  0.439142  0.877036  0.750000  1
  Al  Al11  1  0.123854  0.561927  0.750000  1
  Al  Al12  1  0.324935  0.162468  0.422578  1
  Al  Al13  1  0.837827  0.164313  0.422325  1
  Al  Al14  1  0.837827  0.673514  0.422325  1
  Al  Al15  1  0.675058  0.837528  0.577527  1
  Al  Al16  1  0.162214  0.835800  0.577766  1
  Al  Al17  1  0.162214  0.326415  0.577766  1
  Al  Al18  1  0.675058  0.837528  0.922473  1
  Al  Al19  1  0.162214  0.835800  0.922234  1
  Al  Al20  1  0.162214  0.326415  0.922234  1
  Al  Al21  1  0.324935  0.162468  0.077422  1
  Al  Al22  1  0.837827  0.164313  0.077675  1
  Al  Al23  1  0.837827  0.673514  0.077675  1
  Al  Al24  1  0.668870  0.334435  0.522582  1
  Al  Al25  1  0.331058  0.665530  0.477556  1
  Al  Al26  1  0.331058  0.665530  0.022444  1
  Al  Al27  1  0.668870  0.334435  0.977418  1
  Al  Al28  1  0.997905  0.998953  0.250000  1
  Al  Al29  1  0.002518  0.001258  0.750000  1
  Ru  Ru30  1  0.999918  0.999959  0.499956  1
  Ru  Ru31  1  0.999918  0.999959  0.000044  1
  Ru  Ru32  1  0.000016  0.500008  0.500001  1
  Ru  Ru33  1  0.000016  0.500008  0.999999  1
  Rh  Rh34  1  0.499962  0.499949  0.500039  1
  Rh  Rh35  1  0.499962  0.000013  0.500039  1
  Rh  Rh36  1  0.499962  0.499949  0.999961  1
  Rh  Rh37  1  0.499962  0.000013  0.999961  1
