# generated using pymatgen
data_Ho12Ga2TcNi3
_symmetry_space_group_name_H-M   'P 1'
_cell_length_a   8.29829082
_cell_length_b   8.29829039
_cell_length_c   8.29829109
_cell_angle_alpha   112.71731089
_cell_angle_beta   110.00998347
_cell_angle_gamma   105.76136205
_symmetry_Int_Tables_number   1
_chemical_formula_structural   Ho12Ga2TcNi3
_chemical_formula_sum   'Ho12 Ga2 Tc1 Ni3'
_cell_volume   438.25579964
_cell_formula_units_Z   1
loop_
 _symmetry_equiv_pos_site_id
 _symmetry_equiv_pos_as_xyz
  1  'x, y, z'
loop_
 _atom_site_type_symbol
 _atom_site_label
 _atom_site_symmetry_multiplicity
 _atom_site_fract_x
 _atom_site_fract_y
 _atom_site_fract_z
 _atom_site_occupancy
  Ho  Ho0  1  0.441915  0.248116  0.193799  1
  Ho  Ho1  1  0.572292  0.767385  0.804907  1
  Ho  Ho2  1  0.037521  0.232615  0.804907  1
  Ho  Ho3  1  0.945684  0.751884  0.193799  1
  Ho  Ho4  1  0.185282  0.280393  0.465674  1
  Ho  Ho5  1  0.825222  0.721061  0.546284  1
  Ho  Ho6  1  0.185282  0.719607  0.904889  1
  Ho  Ho7  1  0.825222  0.278939  0.104161  1
  Ho  Ho8  1  0.324992  0.637473  0.306851  1
  Ho  Ho9  1  0.669377  0.362527  0.687518  1
  Ho  Ho10  1  0.324992  0.018141  0.687518  1
  Ho  Ho11  1  0.669377  0.981859  0.306851  1
  Ga  Ga12  1  0.494056  0.500000  0.994056  1
  Ga  Ga13  1  0.016509  0.000000  0.016509  1
  Tc  Tc14  1  0.325866  0.000000  0.325866  1
  Ni  Ni15  1  0.654995  0.000000  0.654995  1
  Ni  Ni16  1  0.119269  0.618561  0.500708  1
  Ni  Ni17  1  0.882146  0.381439  0.500708  1
