# generated using pymatgen
data_Dy3HoPtAu3
_symmetry_space_group_name_H-M   'P 1'
_cell_length_a   4.68175400
_cell_length_b   5.62340120
_cell_length_c   7.16124454
_cell_angle_alpha   90.96888162
_cell_angle_beta   90.00000000
_cell_angle_gamma   90.00000000
_symmetry_Int_Tables_number   1
_chemical_formula_structural   Dy3HoPtAu3
_chemical_formula_sum   'Dy3 Ho1 Pt1 Au3'
_cell_volume   188.50985795
_cell_formula_units_Z   1
loop_
 _symmetry_equiv_pos_site_id
 _symmetry_equiv_pos_as_xyz
  1  'x, y, z'
loop_
 _atom_site_type_symbol
 _atom_site_label
 _atom_site_symmetry_multiplicity
 _atom_site_fract_x
 _atom_site_fract_y
 _atom_site_fract_z
 _atom_site_occupancy
  Dy  Dy0  1  0.250000  0.350666  0.693508  1
  Dy  Dy1  1  0.750000  0.641739  0.311725  1
  Dy  Dy2  1  0.750000  0.857333  0.819293  1
  Ho  Ho3  1  0.250000  0.154123  0.176464  1
  Pt  Pt4  1  0.750000  0.343465  0.958988  1
  Au  Au5  1  0.250000  0.842182  0.539330  1
  Au  Au6  1  0.250000  0.657522  0.043109  1
  Au  Au7  1  0.750000  0.152969  0.457584  1
