# generated using pymatgen
data_Dy19TmSn16
_symmetry_space_group_name_H-M   'P 1'
_cell_length_a   8.02805247
_cell_length_b   8.17977547
_cell_length_c   15.45493000
_cell_angle_alpha   90.00000000
_cell_angle_beta   90.00000000
_cell_angle_gamma   89.96097181
_symmetry_Int_Tables_number   1
_chemical_formula_structural   Dy19TmSn16
_chemical_formula_sum   'Dy19 Tm1 Sn16'
_cell_volume   1014.88895613
_cell_formula_units_Z   1
loop_
 _symmetry_equiv_pos_site_id
 _symmetry_equiv_pos_as_xyz
  1  'x, y, z'
loop_
 _atom_site_type_symbol
 _atom_site_label
 _atom_site_symmetry_multiplicity
 _atom_site_fract_x
 _atom_site_fract_y
 _atom_site_fract_z
 _atom_site_occupancy
  Dy  Dy0  1  0.367603  0.835565  0.878230  1
  Dy  Dy1  1  0.868114  0.664028  0.621764  1
  Dy  Dy2  1  0.632227  0.164224  0.378246  1
  Dy  Dy3  1  0.132210  0.335749  0.121658  1
  Dy  Dy4  1  0.632227  0.164224  0.121754  1
  Dy  Dy5  1  0.132210  0.335749  0.378342  1
  Dy  Dy6  1  0.367603  0.835565  0.621770  1
  Dy  Dy7  1  0.868114  0.664028  0.878236  1
  Dy  Dy8  1  0.521137  0.320166  0.902254  1
  Dy  Dy9  1  0.021402  0.180094  0.597718  1
  Dy  Dy10  1  0.478755  0.679960  0.402314  1
  Dy  Dy11  1  0.978686  0.820062  0.097726  1
  Dy  Dy12  1  0.478755  0.679960  0.097686  1
  Dy  Dy13  1  0.978686  0.820062  0.402274  1
  Dy  Dy14  1  0.521137  0.320166  0.597746  1
  Dy  Dy15  1  0.021402  0.180094  0.902282  1
  Dy  Dy16  1  0.698179  0.997330  0.750000  1
  Dy  Dy17  1  0.801730  0.497273  0.250000  1
  Dy  Dy18  1  0.301740  0.002773  0.250000  1
  Tm  Tm19  1  0.198547  0.502807  0.750000  1
  Sn  Sn20  1  0.292013  0.034392  0.041814  1
  Sn  Sn21  1  0.792007  0.465532  0.458178  1
  Sn  Sn22  1  0.707994  0.965619  0.541866  1
  Sn  Sn23  1  0.207952  0.534376  0.957769  1
  Sn  Sn24  1  0.707994  0.965619  0.958134  1
  Sn  Sn25  1  0.207952  0.534376  0.542231  1
  Sn  Sn26  1  0.292013  0.034392  0.458186  1
  Sn  Sn27  1  0.792007  0.465532  0.041822  1
  Sn  Sn28  1  0.564519  0.618652  0.750000  1
  Sn  Sn29  1  0.065570  0.880555  0.750000  1
  Sn  Sn30  1  0.434499  0.381030  0.250000  1
  Sn  Sn31  1  0.934683  0.119028  0.250000  1
  Sn  Sn32  1  0.328922  0.147543  0.750000  1
  Sn  Sn33  1  0.829399  0.353660  0.750000  1
  Sn  Sn34  1  0.670915  0.853352  0.250000  1
  Sn  Sn35  1  0.171092  0.646462  0.250000  1
