# generated using pymatgen
data_LuTh3(InNi2)2
_symmetry_space_group_name_H-M   'P 1'
_cell_length_a   7.58887125
_cell_length_b   7.58887125
_cell_length_c   3.64925100
_cell_angle_alpha   90.00000000
_cell_angle_beta   90.00000000
_cell_angle_gamma   91.03283531
_symmetry_Int_Tables_number   1
_chemical_formula_structural   LuTh3(InNi2)2
_chemical_formula_sum   'Lu1 Th3 In2 Ni4'
_cell_volume   210.12974781
_cell_formula_units_Z   1
loop_
 _symmetry_equiv_pos_site_id
 _symmetry_equiv_pos_as_xyz
  1  'x, y, z'
loop_
 _atom_site_type_symbol
 _atom_site_label
 _atom_site_symmetry_multiplicity
 _atom_site_fract_x
 _atom_site_fract_y
 _atom_site_fract_z
 _atom_site_occupancy
  Lu  Lu0  1  0.827096  0.672904  0.500000  1
  Th  Th1  1  0.674877  0.170735  0.500000  1
  Th  Th2  1  0.329265  0.825123  0.500000  1
  Th  Th3  1  0.168936  0.331064  0.500000  1
  In  In4  1  0.511330  0.504418  0.000000  1
  In  In5  1  0.995582  0.988670  0.000000  1
  Ni  Ni6  1  0.123882  0.624161  0.000000  1
  Ni  Ni7  1  0.875839  0.376118  0.000000  1
  Ni  Ni8  1  0.621169  0.878831  0.000000  1
  Ni  Ni9  1  0.372025  0.127975  0.000000  1
