# generated using pymatgen
data_Ho6Sc4Bi5Pb
_symmetry_space_group_name_H-M   'P 1'
_cell_length_a   8.96152600
_cell_length_b   8.95660208
_cell_length_c   6.19853000
_cell_angle_alpha   90.00000000
_cell_angle_beta   90.00000000
_cell_angle_gamma   120.01818735
_symmetry_Int_Tables_number   1
_chemical_formula_structural   Ho6Sc4Bi5Pb
_chemical_formula_sum   'Ho6 Sc4 Bi5 Pb1'
_cell_volume   430.78935882
_cell_formula_units_Z   1
loop_
 _symmetry_equiv_pos_site_id
 _symmetry_equiv_pos_as_xyz
  1  'x, y, z'
loop_
 _atom_site_type_symbol
 _atom_site_label
 _atom_site_symmetry_multiplicity
 _atom_site_fract_x
 _atom_site_fract_y
 _atom_site_fract_z
 _atom_site_occupancy
  Ho  Ho0  1  0.239968  0.000000  0.250000  1
  Ho  Ho1  1  0.240828  0.238065  0.750000  1
  Ho  Ho2  1  0.002763  0.761935  0.750000  1
  Ho  Ho3  1  0.999217  0.239622  0.250000  1
  Ho  Ho4  1  0.759595  0.760378  0.250000  1
  Ho  Ho5  1  0.758356  0.000000  0.750000  1
  Sc  Sc6  1  0.333570  0.667540  0.999689  1
  Sc  Sc7  1  0.666031  0.332460  0.500311  1
  Sc  Sc8  1  0.666031  0.332460  0.999689  1
  Sc  Sc9  1  0.333570  0.667540  0.500311  1
  Bi  Bi10  1  0.602608  0.000000  0.250000  1
  Bi  Bi11  1  0.604213  0.603820  0.750000  1
  Bi  Bi12  1  0.000392  0.396180  0.750000  1
  Bi  Bi13  1  0.999497  0.603522  0.250000  1
  Bi  Bi14  1  0.395975  0.396478  0.250000  1
  Pb  Pb15  1  0.397387  0.000000  0.750000  1
