# generated using pymatgen
data_LaTb(SeO3)3
_symmetry_space_group_name_H-M   'P 1'
_cell_length_a   7.30596233
_cell_length_b   8.35603119
_cell_length_c   9.28883483
_cell_angle_alpha   70.78292308
_cell_angle_beta   70.21790032
_cell_angle_gamma   66.24343855
_symmetry_Int_Tables_number   1
_chemical_formula_structural   LaTb(SeO3)3
_chemical_formula_sum   'La2 Tb2 Se6 O18'
_cell_volume   475.99721411
_cell_formula_units_Z   2
loop_
 _symmetry_equiv_pos_site_id
 _symmetry_equiv_pos_as_xyz
  1  'x, y, z'
loop_
 _atom_site_type_symbol
 _atom_site_label
 _atom_site_symmetry_multiplicity
 _atom_site_fract_x
 _atom_site_fract_y
 _atom_site_fract_z
 _atom_site_occupancy
  La  La0  1  0.332591  0.730839  0.591203  1
  La  La1  1  0.667409  0.269161  0.408797  1
  Tb  Tb2  1  0.740535  0.735772  0.802365  1
  Tb  Tb3  1  0.259465  0.264228  0.197635  1
  Se  Se4  1  0.426248  0.783127  0.192077  1
  Se  Se5  1  0.573752  0.216873  0.807923  1
  Se  Se6  1  0.150275  0.746357  0.968691  1
  Se  Se7  1  0.849725  0.253643  0.031309  1
  Se  Se8  1  0.887283  0.753382  0.421104  1
  Se  Se9  1  0.112717  0.246618  0.578896  1
  O  O10  1  0.643248  0.794157  0.048511  1
  O  O11  1  0.356752  0.205843  0.951489  1
  O  O12  1  0.364998  0.949585  0.291445  1
  O  O13  1  0.635002  0.050415  0.708555  1
  O  O14  1  0.513899  0.603839  0.342211  1
  O  O15  1  0.486101  0.396161  0.657789  1
  O  O16  1  0.171721  0.562667  0.119623  1
  O  O17  1  0.828279  0.437333  0.880377  1
  O  O18  1  0.402703  0.711751  0.854766  1
  O  O19  1  0.597297  0.288249  0.145234  1
  O  O20  1  0.339703  0.248025  0.433193  1
  O  O21  1  0.660297  0.751975  0.566807  1
  O  O22  1  0.974118  0.293841  0.440276  1
  O  O23  1  0.025882  0.706159  0.559724  1
  O  O24  1  0.148075  0.026800  0.658776  1
  O  O25  1  0.851925  0.973200  0.341224  1
  O  O26  1  0.940952  0.301511  0.158401  1
  O  O27  1  0.059048  0.698489  0.841599  1
