# generated using pymatgen
data_Sc2U2Tc7As6
_symmetry_space_group_name_H-M   'P 1'
_cell_length_a   7.15142219
_cell_length_b   7.19191021
_cell_length_c   7.19191074
_cell_angle_alpha   109.73165302
_cell_angle_beta   109.45506698
_cell_angle_gamma   109.45505162
_symmetry_Int_Tables_number   1
_chemical_formula_structural   Sc2U2Tc7As6
_chemical_formula_sum   'Sc2 U2 Tc7 As6'
_cell_volume   283.94084762
_cell_formula_units_Z   1
loop_
 _symmetry_equiv_pos_site_id
 _symmetry_equiv_pos_as_xyz
  1  'x, y, z'
loop_
 _atom_site_type_symbol
 _atom_site_label
 _atom_site_symmetry_multiplicity
 _atom_site_fract_x
 _atom_site_fract_y
 _atom_site_fract_z
 _atom_site_occupancy
  Sc  Sc0  1  0.000000  0.000000  0.500000  1
  Sc  Sc1  1  0.000000  0.500000  0.000000  1
  U  U2  1  0.500000  0.000000  0.000000  1
  U  U3  1  0.500000  0.500000  0.500000  1
  Tc  Tc4  1  0.746300  0.497056  0.249243  1
  Tc  Tc5  1  0.500000  0.750000  0.250000  1
  Tc  Tc6  1  0.500000  0.250000  0.750000  1
  Tc  Tc7  1  0.746300  0.249243  0.497056  1
  Tc  Tc8  1  0.253700  0.750757  0.502944  1
  Tc  Tc9  1  0.253700  0.502944  0.750757  1
  Tc  Tc10  1  0.000000  0.000000  0.000000  1
  As  As11  1  0.302299  0.993859  0.308439  1
  As  As12  1  0.000000  0.308814  0.308814  1
  As  As13  1  0.000000  0.691186  0.691186  1
  As  As14  1  0.302299  0.308439  0.993859  1
  As  As15  1  0.697701  0.691561  0.006141  1
  As  As16  1  0.697701  0.006141  0.691561  1
