# generated using pymatgen
data_Ba2NaAlAs3
_symmetry_space_group_name_H-M   'P 1'
_cell_length_a   8.67256497
_cell_length_b   8.67256462
_cell_length_c   12.47090204
_cell_angle_alpha   76.00047692
_cell_angle_beta   76.00047736
_cell_angle_gamma   67.55427647
_symmetry_Int_Tables_number   1
_chemical_formula_structural   Ba2NaAlAs3
_chemical_formula_sum   'Ba8 Na4 Al4 As12'
_cell_volume   829.39096316
_cell_formula_units_Z   4
loop_
 _symmetry_equiv_pos_site_id
 _symmetry_equiv_pos_as_xyz
  1  'x, y, z'
loop_
 _atom_site_type_symbol
 _atom_site_label
 _atom_site_symmetry_multiplicity
 _atom_site_fract_x
 _atom_site_fract_y
 _atom_site_fract_z
 _atom_site_occupancy
  Ba  Ba0  1  0.745471  0.194044  0.686123  1
  Ba  Ba1  1  0.254529  0.805956  0.313877  1
  Ba  Ba2  1  0.194044  0.745471  0.686123  1
  Ba  Ba3  1  0.500000  0.000000  0.500000  1
  Ba  Ba4  1  0.805956  0.254529  0.313877  1
  Ba  Ba5  1  0.000000  0.500000  0.000000  1
  Ba  Ba6  1  0.500000  0.000000  0.000000  1
  Ba  Ba7  1  0.000000  0.500000  0.500000  1
  Na  Na8  1  0.298982  0.701018  0.000000  1
  Na  Na9  1  0.358218  0.358218  0.229584  1
  Na  Na10  1  0.641782  0.641782  0.770416  1
  Na  Na11  1  0.701018  0.298982  0.000000  1
  Al  Al12  1  0.698699  0.698699  0.262948  1
  Al  Al13  1  0.091342  0.091342  0.884265  1
  Al  Al14  1  0.908658  0.908658  0.115735  1
  Al  Al15  1  0.301301  0.301301  0.737052  1
  As  As16  1  0.018866  0.615815  0.227611  1
  As  As17  1  0.588645  0.588645  0.136840  1
  As  As18  1  0.981134  0.384185  0.772389  1
  As  As19  1  0.089696  0.089696  0.486204  1
  As  As20  1  0.590423  0.590423  0.483492  1
  As  As21  1  0.914181  0.914181  0.908835  1
  As  As22  1  0.085819  0.085819  0.091165  1
  As  As23  1  0.411355  0.411355  0.863160  1
  As  As24  1  0.615815  0.018866  0.227611  1
  As  As25  1  0.910304  0.910304  0.513796  1
  As  As26  1  0.384185  0.981134  0.772389  1
  As  As27  1  0.409577  0.409577  0.516508  1
