# generated using pymatgen
data_Y3Er2Ga2Te
_symmetry_space_group_name_H-M   'P 1'
_cell_length_a   8.67183900
_cell_length_b   8.69606621
_cell_length_c   6.51555000
_cell_angle_alpha   90.00000000
_cell_angle_beta   90.00000000
_cell_angle_gamma   120.09247165
_symmetry_Int_Tables_number   1
_chemical_formula_structural   Y3Er2Ga2Te
_chemical_formula_sum   'Y6 Er4 Ga4 Te2'
_cell_volume   425.11881316
_cell_formula_units_Z   2
loop_
 _symmetry_equiv_pos_site_id
 _symmetry_equiv_pos_as_xyz
  1  'x, y, z'
loop_
 _atom_site_type_symbol
 _atom_site_label
 _atom_site_symmetry_multiplicity
 _atom_site_fract_x
 _atom_site_fract_y
 _atom_site_fract_z
 _atom_site_occupancy
  Y  Y0  1  0.986976  0.750058  0.750000  1
  Y  Y1  1  0.986976  0.236919  0.250000  1
  Y  Y2  1  0.765565  0.765511  0.250000  1
  Y  Y3  1  0.765565  0.000054  0.750000  1
  Y  Y4  1  0.235982  0.250014  0.750000  1
  Y  Y5  1  0.235982  0.985967  0.250000  1
  Er  Er6  1  0.329925  0.664963  0.500000  1
  Er  Er7  1  0.685468  0.342735  0.000000  1
  Er  Er8  1  0.685468  0.342735  0.500000  1
  Er  Er9  1  0.329925  0.664963  0.000000  1
  Ga  Ga10  1  0.003194  0.602377  0.250000  1
  Ga  Ga11  1  0.003194  0.400818  0.750000  1
  Ga  Ga12  1  0.598618  0.602022  0.750000  1
  Ga  Ga13  1  0.598618  0.996595  0.250000  1
  Te  Te14  1  0.394272  0.003920  0.750000  1
  Te  Te15  1  0.394272  0.390351  0.250000  1
