# generated using pymatgen
data_TbY3(Lu2Ru)4
_symmetry_space_group_name_H-M   'P 1'
_cell_length_a   6.22795028
_cell_length_b   7.30872598
_cell_length_c   8.94782300
_cell_angle_alpha   90.00000000
_cell_angle_beta   90.00000000
_cell_angle_gamma   89.88322598
_symmetry_Int_Tables_number   1
_chemical_formula_structural   TbY3(Lu2Ru)4
_chemical_formula_sum   'Tb1 Y3 Lu8 Ru4'
_cell_volume   407.28957939
_cell_formula_units_Z   1
loop_
 _symmetry_equiv_pos_site_id
 _symmetry_equiv_pos_as_xyz
  1  'x, y, z'
loop_
 _atom_site_type_symbol
 _atom_site_label
 _atom_site_symmetry_multiplicity
 _atom_site_fract_x
 _atom_site_fract_y
 _atom_site_fract_z
 _atom_site_occupancy
  Tb  Tb0  1  0.369688  0.959074  0.750000  1
  Y  Y1  1  0.871333  0.539692  0.250000  1
  Y  Y2  1  0.629297  0.040319  0.250000  1
  Y  Y3  1  0.129022  0.460342  0.750000  1
  Lu  Lu4  1  0.334761  0.676239  0.063859  1
  Lu  Lu5  1  0.166206  0.174567  0.436382  1
  Lu  Lu6  1  0.664920  0.323854  0.564419  1
  Lu  Lu7  1  0.833593  0.824870  0.935754  1
  Lu  Lu8  1  0.664920  0.323854  0.935581  1
  Lu  Lu9  1  0.833593  0.824870  0.564246  1
  Lu  Lu10  1  0.334761  0.676239  0.436141  1
  Lu  Lu11  1  0.166206  0.174567  0.063618  1
  Ru  Ru12  1  0.045383  0.885020  0.250000  1
  Ru  Ru13  1  0.454578  0.385138  0.250000  1
  Ru  Ru14  1  0.958174  0.114502  0.750000  1
  Ru  Ru15  1  0.543567  0.616854  0.750000  1
