# generated using pymatgen
data_HfZrPa2Pb4O13
_symmetry_space_group_name_H-M   'P 1'
_cell_length_a   7.89846023
_cell_length_b   7.91743771
_cell_length_c   7.91743762
_cell_angle_alpha   119.29586815
_cell_angle_beta   120.00771366
_cell_angle_gamma   90.67557620
_symmetry_Int_Tables_number   1
_chemical_formula_structural   HfZrPa2Pb4O13
_chemical_formula_sum   'Hf1 Zr1 Pa2 Pb4 O13'
_cell_volume   351.68959687
_cell_formula_units_Z   1
loop_
 _symmetry_equiv_pos_site_id
 _symmetry_equiv_pos_as_xyz
  1  'x, y, z'
loop_
 _atom_site_type_symbol
 _atom_site_label
 _atom_site_symmetry_multiplicity
 _atom_site_fract_x
 _atom_site_fract_y
 _atom_site_fract_z
 _atom_site_occupancy
  Hf  Hf0  1  0.253066  0.501330  0.751736  1
  Zr  Zr1  1  0.744379  0.499359  0.245020  1
  Pa  Pa2  1  0.750307  0.000993  0.251829  1
  Pa  Pa3  1  0.750307  0.498479  0.749315  1
  Pb  Pb4  1  0.728804  0.992488  0.736316  1
  Pb  Pb5  1  0.255930  0.992151  0.263778  1
  Pb  Pb6  1  0.228203  0.499989  0.273773  1
  Pb  Pb7  1  0.228203  0.954429  0.728214  1
  O  O8  1  0.089335  0.587124  0.502212  1
  O  O9  1  0.652392  0.153126  0.499266  1
  O  O10  1  0.073061  0.191350  0.503906  1
  O  O11  1  0.683293  0.571714  0.498071  1
  O  O12  1  0.683293  0.185222  0.111579  1
  O  O13  1  0.073061  0.569154  0.881710  1
  O  O14  1  0.459055  0.461647  0.997408  1
  O  O15  1  0.833693  0.832113  0.001579  1
  O  O16  1  0.420283  0.824627  0.986851  1
  O  O17  1  0.841863  0.432051  0.012638  1
  O  O18  1  0.841863  0.829225  0.409812  1
  O  O19  1  0.420283  0.433431  0.595656  1
  O  O20  1  0.364326  0.864995  0.499331  1
