# generated using pymatgen
data_BaPaPdS3
_symmetry_space_group_name_H-M   'P 1'
_cell_length_a   7.21044983
_cell_length_b   7.21045062
_cell_length_c   10.26841402
_cell_angle_alpha   89.99233982
_cell_angle_beta   90.00765928
_cell_angle_gamma   147.45488588
_symmetry_Int_Tables_number   1
_chemical_formula_structural   BaPaPdS3
_chemical_formula_sum   'Ba2 Pa2 Pd2 S6'
_cell_volume   287.19770147
_cell_formula_units_Z   2
loop_
 _symmetry_equiv_pos_site_id
 _symmetry_equiv_pos_as_xyz
  1  'x, y, z'
loop_
 _atom_site_type_symbol
 _atom_site_label
 _atom_site_symmetry_multiplicity
 _atom_site_fract_x
 _atom_site_fract_y
 _atom_site_fract_z
 _atom_site_occupancy
  Ba  Ba0  1  0.752570  0.247429  0.249929  1
  Ba  Ba1  1  0.247429  0.752570  0.750071  1
  Pa  Pa2  1  0.499999  0.499999  0.000000  1
  Pa  Pa3  1  0.499999  0.499999  0.500000  1
  Pd  Pd4  1  0.032373  0.967626  0.249898  1
  Pd  Pd5  1  0.967626  0.032373  0.750102  1
  S  S6  1  0.133215  0.866784  0.053358  1
  S  S7  1  0.428293  0.571706  0.249744  1
  S  S8  1  0.133303  0.866696  0.446591  1
  S  S9  1  0.866696  0.133303  0.553410  1
  S  S10  1  0.571706  0.428293  0.750256  1
  S  S11  1  0.866784  0.133215  0.946642  1
