# generated using pymatgen
data_Tm20(SiSb3)3
_symmetry_space_group_name_H-M   'P 1'
_cell_length_a   7.90769699
_cell_length_b   9.01827900
_cell_length_c   11.71987196
_cell_angle_alpha   90.00000000
_cell_angle_beta   89.91857309
_cell_angle_gamma   90.00000000
_symmetry_Int_Tables_number   1
_chemical_formula_structural   Tm20(SiSb3)3
_chemical_formula_sum   'Tm20 Si3 Sb9'
_cell_volume   835.78796903
_cell_formula_units_Z   1
loop_
 _symmetry_equiv_pos_site_id
 _symmetry_equiv_pos_as_xyz
  1  'x, y, z'
loop_
 _atom_site_type_symbol
 _atom_site_label
 _atom_site_symmetry_multiplicity
 _atom_site_fract_x
 _atom_site_fract_y
 _atom_site_fract_z
 _atom_site_occupancy
  Tm  Tm0  1  0.815558  0.946564  0.063811  1
  Tm  Tm1  1  0.310729  0.043863  0.431444  1
  Tm  Tm2  1  0.180797  0.447085  0.938833  1
  Tm  Tm3  1  0.686983  0.564887  0.565705  1
  Tm  Tm4  1  0.180797  0.052915  0.938833  1
  Tm  Tm5  1  0.686983  0.935113  0.565705  1
  Tm  Tm6  1  0.815558  0.553436  0.063811  1
  Tm  Tm7  1  0.310729  0.456137  0.431444  1
  Tm  Tm8  1  0.535859  0.250000  0.996163  1
  Tm  Tm9  1  0.040893  0.750000  0.501917  1
  Tm  Tm10  1  0.460877  0.750000  0.001431  1
  Tm  Tm11  1  0.974593  0.250000  0.497583  1
  Tm  Tm12  1  0.165889  0.750000  0.213463  1
  Tm  Tm13  1  0.677735  0.250000  0.272166  1
  Tm  Tm14  1  0.835484  0.250000  0.786210  1
  Tm  Tm15  1  0.334693  0.750000  0.716202  1
  Tm  Tm16  1  0.640681  0.750000  0.293570  1
  Tm  Tm17  1  0.141544  0.250000  0.207116  1
  Tm  Tm18  1  0.343459  0.250000  0.713813  1
  Tm  Tm19  1  0.858347  0.750000  0.795021  1
  Si  Si20  1  0.909219  0.250000  0.024788  1
  Si  Si21  1  0.416611  0.750000  0.480465  1
  Si  Si22  1  0.087760  0.750000  0.977772  1
  Sb  Sb23  1  0.932751  0.988238  0.326250  1
  Sb  Sb24  1  0.433078  0.010890  0.173065  1
  Sb  Sb25  1  0.066335  0.491659  0.674388  1
  Sb  Sb26  1  0.566909  0.509886  0.825787  1
  Sb  Sb27  1  0.066335  0.008341  0.674388  1
  Sb  Sb28  1  0.566909  0.990114  0.825787  1
  Sb  Sb29  1  0.932751  0.511762  0.326250  1
  Sb  Sb30  1  0.433078  0.489110  0.173065  1
  Sb  Sb31  1  0.590073  0.250000  0.523754  1
