# generated using pymatgen
data_DyYEr2(SbO4)4
_symmetry_space_group_name_H-M   'P 1'
_cell_length_a   5.38393297
_cell_length_b   7.65391653
_cell_length_c   7.54185767
_cell_angle_alpha   81.16003161
_cell_angle_beta   90.35255448
_cell_angle_gamma   92.28400066
_symmetry_Int_Tables_number   1
_chemical_formula_structural   DyYEr2(SbO4)4
_chemical_formula_sum   'Dy1 Y1 Er2 Sb4 O16'
_cell_volume   306.85051412
_cell_formula_units_Z   1
loop_
 _symmetry_equiv_pos_site_id
 _symmetry_equiv_pos_as_xyz
  1  'x, y, z'
loop_
 _atom_site_type_symbol
 _atom_site_label
 _atom_site_symmetry_multiplicity
 _atom_site_fract_x
 _atom_site_fract_y
 _atom_site_fract_z
 _atom_site_occupancy
  Dy  Dy0  1  0.261823  0.132490  0.615023  1
  Y  Y1  1  0.738495  0.867530  0.385055  1
  Er  Er2  1  0.212368  0.158351  0.109958  1
  Er  Er3  1  0.787428  0.841671  0.889797  1
  Sb  Sb4  1  0.240333  0.663641  0.193294  1
  Sb  Sb5  1  0.759718  0.336189  0.806666  1
  Sb  Sb6  1  0.724789  0.335717  0.308243  1
  Sb  Sb7  1  0.275201  0.664138  0.691829  1
  O  O8  1  0.087284  0.433875  0.689544  1
  O  O9  1  0.913046  0.565812  0.310663  1
  O  O10  1  0.608582  0.324957  0.561221  1
  O  O11  1  0.391189  0.674551  0.438959  1
  O  O12  1  0.875428  0.330919  0.061929  1
  O  O13  1  0.124912  0.669743  0.937870  1
  O  O14  1  0.399505  0.429922  0.195442  1
  O  O15  1  0.600164  0.569981  0.804866  1
  O  O16  1  0.044887  0.887137  0.172214  1
  O  O17  1  0.955847  0.112757  0.827670  1
  O  O18  1  0.507212  0.111499  0.320782  1
  O  O19  1  0.491817  0.889074  0.679240  1
  O  O20  1  0.462431  0.188811  0.880478  1
  O  O21  1  0.537433  0.811249  0.119156  1
  O  O22  1  0.992267  0.168286  0.380842  1
  O  O23  1  0.007841  0.831703  0.619261  1
