# generated using pymatgen
data_Tb4Pr16Si15Br
_symmetry_space_group_name_H-M   'P 1'
_cell_length_a   7.91654174
_cell_length_b   7.84546472
_cell_length_c   15.28181456
_cell_angle_alpha   89.63335026
_cell_angle_beta   89.18774096
_cell_angle_gamma   90.38054608
_symmetry_Int_Tables_number   1
_chemical_formula_structural   Tb4Pr16Si15Br
_chemical_formula_sum   'Tb4 Pr16 Si15 Br1'
_cell_volume   949.00111919
_cell_formula_units_Z   1
loop_
 _symmetry_equiv_pos_site_id
 _symmetry_equiv_pos_as_xyz
  1  'x, y, z'
loop_
 _atom_site_type_symbol
 _atom_site_label
 _atom_site_symmetry_multiplicity
 _atom_site_fract_x
 _atom_site_fract_y
 _atom_site_fract_z
 _atom_site_occupancy
  Tb  Tb0  1  0.313460  0.310611  0.999350  1
  Tb  Tb1  1  0.186661  0.808488  0.249471  1
  Tb  Tb2  1  0.793946  0.189930  0.753230  1
  Tb  Tb3  1  0.684686  0.687772  0.498224  1
  Pr  Pr4  1  0.379621  0.005767  0.442698  1
  Pr  Pr5  1  0.495719  0.866098  0.699265  1
  Pr  Pr6  1  0.510683  0.121976  0.196725  1
  Pr  Pr7  1  0.873465  0.484816  0.300341  1
  Pr  Pr8  1  0.123540  0.519891  0.804433  1
  Pr  Pr9  1  0.634916  0.985273  0.952236  1
  Pr  Pr10  1  0.997073  0.382198  0.544508  1
  Pr  Pr11  1  0.993046  0.623714  0.053309  1
  Pr  Pr12  1  0.140656  0.987486  0.875115  1
  Pr  Pr13  1  0.520704  0.629412  0.126750  1
  Pr  Pr14  1  0.478390  0.369223  0.631340  1
  Pr  Pr15  1  0.635963  0.524107  0.876013  1
  Pr  Pr16  1  0.367293  0.475455  0.374333  1
  Pr  Pr17  1  0.871099  0.021302  0.377456  1
  Pr  Pr18  1  0.982302  0.126654  0.123178  1
  Pr  Pr19  1  0.015202  0.864639  0.619539  1
  Si  Si20  1  0.331859  0.694544  0.952814  1
  Si  Si21  1  0.662391  0.308276  0.455804  1
  Si  Si22  1  0.698863  0.333460  0.048603  1
  Si  Si23  1  0.308216  0.668824  0.546958  1
  Si  Si24  1  0.808150  0.829887  0.205187  1
  Si  Si25  1  0.169207  0.189619  0.294216  1
  Si  Si26  1  0.841017  0.810623  0.794861  1
  Si  Si27  1  0.288433  0.923978  0.061022  1
  Si  Si28  1  0.575742  0.783791  0.311472  1
  Si  Si29  1  0.455476  0.209600  0.826452  1
  Si  Si30  1  0.789664  0.574959  0.686482  1
  Si  Si31  1  0.211890  0.424876  0.188142  1
  Si  Si32  1  0.705307  0.073775  0.562839  1
  Si  Si33  1  0.930681  0.290626  0.938152  1
  Si  Si34  1  0.074293  0.711308  0.437061  1
  Br  Br35  1  0.150387  0.187038  0.692421  1
