# generated using pymatgen
data_Y3Er15(TmPt8)2
_symmetry_space_group_name_H-M   'P 1'
_cell_length_a   7.43027594
_cell_length_b   7.51655312
_cell_length_c   14.67804158
_cell_angle_alpha   90.01378718
_cell_angle_beta   89.99140846
_cell_angle_gamma   89.96997824
_symmetry_Int_Tables_number   1
_chemical_formula_structural   Y3Er15(TmPt8)2
_chemical_formula_sum   'Y3 Er15 Tm2 Pt16'
_cell_volume   819.76941267
_cell_formula_units_Z   1
loop_
 _symmetry_equiv_pos_site_id
 _symmetry_equiv_pos_as_xyz
  1  'x, y, z'
loop_
 _atom_site_type_symbol
 _atom_site_label
 _atom_site_symmetry_multiplicity
 _atom_site_fract_x
 _atom_site_fract_y
 _atom_site_fract_z
 _atom_site_occupancy
  Y  Y0  1  0.498728  0.322109  0.907326  1
  Y  Y1  1  0.501309  0.677831  0.407121  1
  Y  Y2  1  0.001094  0.822188  0.092829  1
  Er  Er3  1  0.816490  0.489271  0.749541  1
  Er  Er4  1  0.317082  0.010496  0.749881  1
  Er  Er5  1  0.654938  0.832539  0.622021  1
  Er  Er6  1  0.154259  0.667558  0.877454  1
  Er  Er7  1  0.846572  0.332116  0.377396  1
  Er  Er8  1  0.345597  0.168042  0.122566  1
  Er  Er9  1  0.346413  0.167932  0.377726  1
  Er  Er10  1  0.845987  0.332063  0.122219  1
  Er  Er11  1  0.153823  0.668129  0.621740  1
  Er  Er12  1  0.654302  0.831878  0.878139  1
  Er  Er13  1  0.000882  0.822236  0.406373  1
  Er  Er14  1  0.499719  0.679067  0.093614  1
  Er  Er15  1  0.499662  0.320273  0.593264  1
  Er  Er16  1  0.000476  0.179631  0.906917  1
  Er  Er17  1  0.999380  0.178813  0.592652  1
  Tm  Tm18  1  0.683208  0.989544  0.250103  1
  Tm  Tm19  1  0.183110  0.510641  0.250068  1
  Pt  Pt20  1  0.820840  0.643657  0.251145  1
  Pt  Pt21  1  0.321020  0.855983  0.249631  1
  Pt  Pt22  1  0.680183  0.143180  0.748836  1
  Pt  Pt23  1  0.178262  0.355827  0.749445  1
  Pt  Pt24  1  0.549448  0.386851  0.249553  1
  Pt  Pt25  1  0.049022  0.113442  0.250591  1
  Pt  Pt26  1  0.950761  0.887146  0.750026  1
  Pt  Pt27  1  0.449573  0.613383  0.749255  1
  Pt  Pt28  1  0.814574  0.529795  0.542696  1
  Pt  Pt29  1  0.314100  0.967028  0.958431  1
  Pt  Pt30  1  0.686546  0.033683  0.458777  1
  Pt  Pt31  1  0.185498  0.467505  0.041852  1
  Pt  Pt32  1  0.183094  0.466654  0.458387  1
  Pt  Pt33  1  0.682724  0.032224  0.042172  1
  Pt  Pt34  1  0.314291  0.969818  0.542320  1
  Pt  Pt35  1  0.817030  0.531465  0.957934  1
