# generated using pymatgen
data_MnCl12
_symmetry_space_group_name_H-M   'P 1'
_cell_length_a   11.21509016
_cell_length_b   10.54512791
_cell_length_c   7.54456208
_cell_angle_alpha   60.02435519
_cell_angle_beta   37.24619336
_cell_angle_gamma   61.75030794
_symmetry_Int_Tables_number   1
_chemical_formula_structural   MnCl12
_chemical_formula_sum   'Mn1 Cl12'
_cell_volume   462.90634741
_cell_formula_units_Z   1
loop_
 _symmetry_equiv_pos_site_id
 _symmetry_equiv_pos_as_xyz
  1  'x, y, z'
loop_
 _atom_site_type_symbol
 _atom_site_label
 _atom_site_symmetry_multiplicity
 _atom_site_fract_x
 _atom_site_fract_y
 _atom_site_fract_z
 _atom_site_occupancy
  Mn  Mn0  1  0.999013  0.998415  0.003920  1
  Cl  Cl1  1  0.489307  0.638777  0.123268  1
  Cl  Cl2  1  0.725915  0.519359  0.038645  1
  Cl  Cl3  1  0.865458  0.793171  0.205169  1
  Cl  Cl4  1  0.558781  0.860957  0.377974  1
  Cl  Cl5  1  0.732718  0.068180  0.461255  1
  Cl  Cl6  1  0.136119  0.861186  0.154922  1
  Cl  Cl7  1  0.868650  0.137357  0.841738  1
  Cl  Cl8  1  0.269448  0.932391  0.535678  1
  Cl  Cl9  1  0.435511  0.140946  0.623935  1
  Cl  Cl10  1  0.136687  0.206799  0.794156  1
  Cl  Cl11  1  0.272517  0.481858  0.963520  1
  Cl  Cl12  1  0.509872  0.360599  0.875822  1
