# generated using pymatgen
data_Tm12Th8Si15Hg
_symmetry_space_group_name_H-M   'P 1'
_cell_length_a   7.46098507
_cell_length_b   7.67393992
_cell_length_c   14.64226700
_cell_angle_alpha   89.74999831
_cell_angle_beta   89.79219538
_cell_angle_gamma   90.06365379
_symmetry_Int_Tables_number   1
_chemical_formula_structural   Tm12Th8Si15Hg
_chemical_formula_sum   'Tm12 Th8 Si15 Hg1'
_cell_volume   838.33118451
_cell_formula_units_Z   1
loop_
 _symmetry_equiv_pos_site_id
 _symmetry_equiv_pos_as_xyz
  1  'x, y, z'
loop_
 _atom_site_type_symbol
 _atom_site_label
 _atom_site_symmetry_multiplicity
 _atom_site_fract_x
 _atom_site_fract_y
 _atom_site_fract_z
 _atom_site_occupancy
  Tm  Tm0  1  0.164722  0.508478  0.755785  1
  Tm  Tm1  1  0.834575  0.490195  0.248161  1
  Tm  Tm2  1  0.335037  0.006161  0.248544  1
  Tm  Tm3  1  0.666500  0.991210  0.751724  1
  Tm  Tm4  1  0.344956  0.167938  0.626226  1
  Tm  Tm5  1  0.660799  0.824120  0.376031  1
  Tm  Tm6  1  0.164933  0.677310  0.372267  1
  Tm  Tm7  1  0.666501  0.822792  0.122278  1
  Tm  Tm8  1  0.825611  0.326342  0.624946  1
  Tm  Tm9  1  0.333545  0.175690  0.877851  1
  Tm  Tm10  1  0.833128  0.325287  0.877319  1
  Tm  Tm11  1  0.165141  0.674132  0.123754  1
  Th  Th12  1  0.008119  0.176199  0.096302  1
  Th  Th13  1  0.992187  0.825661  0.904515  1
  Th  Th14  1  0.492872  0.677763  0.903732  1
  Th  Th15  1  0.992733  0.833699  0.598502  1
  Th  Th16  1  0.508004  0.322802  0.095737  1
  Th  Th17  1  0.001726  0.169706  0.399509  1
  Th  Th18  1  0.513666  0.319524  0.398614  1
  Th  Th19  1  0.499078  0.685641  0.599922  1
  Si  Si20  1  0.040218  0.116032  0.751500  1
  Si  Si21  1  0.959514  0.889083  0.247865  1
  Si  Si22  1  0.462101  0.611015  0.249199  1
  Si  Si23  1  0.536790  0.390606  0.751409  1
  Si  Si24  1  0.286501  0.872017  0.752073  1
  Si  Si25  1  0.711130  0.125481  0.247035  1
  Si  Si26  1  0.212227  0.369921  0.248546  1
  Si  Si27  1  0.791167  0.628494  0.752156  1
  Si  Si28  1  0.831168  0.534782  0.459847  1
  Si  Si29  1  0.329180  0.966853  0.459150  1
  Si  Si30  1  0.836393  0.531409  0.039750  1
  Si  Si31  1  0.669612  0.036021  0.538324  1
  Si  Si32  1  0.164084  0.467705  0.961192  1
  Si  Si33  1  0.662498  0.033389  0.960666  1
  Si  Si34  1  0.336680  0.966595  0.040055  1
  Hg  Hg35  1  0.166904  0.459949  0.539510  1
