# generated using pymatgen
data_Y2GaSi3(PRh4)3
_symmetry_space_group_name_H-M   'P 1'
_cell_length_a   9.73058800
_cell_length_b   9.73058765
_cell_length_c   3.85578000
_cell_angle_alpha   90.00000000
_cell_angle_beta   90.00000000
_cell_angle_gamma   119.99999529
_symmetry_Int_Tables_number   1
_chemical_formula_structural   Y2GaSi3(PRh4)3
_chemical_formula_sum   'Y2 Ga1 Si3 P3 Rh12'
_cell_volume   316.17028615
_cell_formula_units_Z   1
loop_
 _symmetry_equiv_pos_site_id
 _symmetry_equiv_pos_as_xyz
  1  'x, y, z'
loop_
 _atom_site_type_symbol
 _atom_site_label
 _atom_site_symmetry_multiplicity
 _atom_site_fract_x
 _atom_site_fract_y
 _atom_site_fract_z
 _atom_site_occupancy
  Y  Y0  1  0.333333  0.666667  0.747322  1
  Y  Y1  1  0.666667  0.333333  0.245836  1
  Ga  Ga2  1  0.000000  0.000000  0.585204  1
  Si  Si3  1  0.400681  0.287394  0.745674  1
  Si  Si4  1  0.712606  0.113287  0.745674  1
  Si  Si5  1  0.886713  0.599319  0.745674  1
  P  P6  1  0.597905  0.710437  0.245127  1
  P  P7  1  0.289563  0.887468  0.245127  1
  P  P8  1  0.112532  0.402095  0.245127  1
  Rh  Rh9  1  0.447248  0.064690  0.746297  1
  Rh  Rh10  1  0.935310  0.382558  0.746297  1
  Rh  Rh11  1  0.617442  0.552752  0.746297  1
  Rh  Rh12  1  0.552023  0.936825  0.245212  1
  Rh  Rh13  1  0.063175  0.615198  0.245212  1
  Rh  Rh14  1  0.384802  0.447977  0.245212  1
  Rh  Rh15  1  0.153774  0.282920  0.745514  1
  Rh  Rh16  1  0.717080  0.870854  0.745514  1
  Rh  Rh17  1  0.129146  0.846226  0.745514  1
  Rh  Rh18  1  0.851351  0.733897  0.246056  1
  Rh  Rh19  1  0.266103  0.117454  0.246056  1
  Rh  Rh20  1  0.882546  0.148649  0.246056  1
