# generated using pymatgen
data_Ca2Al20Fe3Ni
_symmetry_space_group_name_H-M   'P 1'
_cell_length_a   6.78349455
_cell_length_b   6.78890924
_cell_length_c   8.96914201
_cell_angle_alpha   90.09080266
_cell_angle_beta   90.21454435
_cell_angle_gamma   97.16832852
_symmetry_Int_Tables_number   1
_chemical_formula_structural   Ca2Al20Fe3Ni
_chemical_formula_sum   'Ca2 Al20 Fe3 Ni1'
_cell_volume   409.81943949
_cell_formula_units_Z   1
loop_
 _symmetry_equiv_pos_site_id
 _symmetry_equiv_pos_as_xyz
  1  'x, y, z'
loop_
 _atom_site_type_symbol
 _atom_site_label
 _atom_site_symmetry_multiplicity
 _atom_site_fract_x
 _atom_site_fract_y
 _atom_site_fract_z
 _atom_site_occupancy
  Ca  Ca0  1  0.877869  0.124353  0.249771  1
  Ca  Ca1  1  0.122131  0.875647  0.750229  1
  Al  Al2  1  0.224189  0.229278  0.498371  1
  Al  Al3  1  0.774161  0.773156  0.000020  1
  Al  Al4  1  0.775811  0.770722  0.501629  1
  Al  Al5  1  0.225839  0.226844  0.999980  1
  Al  Al6  1  0.373632  0.621062  0.548676  1
  Al  Al7  1  0.625343  0.375232  0.047494  1
  Al  Al8  1  0.586288  0.865265  0.751847  1
  Al  Al9  1  0.413712  0.134735  0.248153  1
  Al  Al10  1  0.867130  0.584442  0.249238  1
  Al  Al11  1  0.132870  0.415558  0.750762  1
  Al  Al12  1  0.476892  0.223823  0.753765  1
  Al  Al13  1  0.523108  0.776177  0.246235  1
  Al  Al14  1  0.221471  0.476791  0.250623  1
  Al  Al15  1  0.778529  0.523209  0.749377  1
  Al  Al16  1  0.156102  0.839884  0.401380  1
  Al  Al17  1  0.841282  0.157746  0.904652  1
  Al  Al18  1  0.843898  0.160116  0.598620  1
  Al  Al19  1  0.158718  0.842254  0.095348  1
  Al  Al20  1  0.374657  0.624768  0.952506  1
  Al  Al21  1  0.626368  0.378938  0.451324  1
  Fe  Fe22  1  0.000000  0.500000  0.500000  1
  Fe  Fe23  1  0.000000  0.500000  0.000000  1
  Fe  Fe24  1  0.500000  0.000000  0.000000  1
  Ni  Ni25  1  0.500000  0.000000  0.500000  1
