# generated using pymatgen
data_Ho12ZnFe4Bi
_symmetry_space_group_name_H-M   'P 1'
_cell_length_a   8.35600566
_cell_length_b   8.35600660
_cell_length_c   8.35600526
_cell_angle_alpha   110.34388120
_cell_angle_beta   111.15379629
_cell_angle_gamma   106.94619067
_symmetry_Int_Tables_number   1
_chemical_formula_structural   Ho12ZnFe4Bi
_chemical_formula_sum   'Ho12 Zn1 Fe4 Bi1'
_cell_volume   448.45825777
_cell_formula_units_Z   1
loop_
 _symmetry_equiv_pos_site_id
 _symmetry_equiv_pos_as_xyz
  1  'x, y, z'
loop_
 _atom_site_type_symbol
 _atom_site_label
 _atom_site_symmetry_multiplicity
 _atom_site_fract_x
 _atom_site_fract_y
 _atom_site_fract_z
 _atom_site_occupancy
  Ho  Ho0  1  0.285799  0.184410  0.470208  1
  Ho  Ho1  1  0.714201  0.815590  0.529792  1
  Ho  Ho2  1  0.285799  0.815590  0.101391  1
  Ho  Ho3  1  0.714201  0.184410  0.898609  1
  Ho  Ho4  1  0.614037  0.310174  0.303863  1
  Ho  Ho5  1  0.385963  0.689826  0.696137  1
  Ho  Ho6  1  0.006311  0.310174  0.696137  1
  Ho  Ho7  1  0.993689  0.689826  0.303863  1
  Ho  Ho8  1  0.219306  0.427361  0.208056  1
  Ho  Ho9  1  0.780694  0.572639  0.791944  1
  Ho  Ho10  1  0.219306  0.011250  0.791944  1
  Ho  Ho11  1  0.780694  0.988750  0.208056  1
  Zn  Zn12  1  0.000000  0.000000  0.000000  1
  Fe  Fe13  1  0.000000  0.384684  0.384684  1
  Fe  Fe14  1  0.000000  0.615316  0.615316  1
  Fe  Fe15  1  0.392600  0.892600  0.500000  1
  Fe  Fe16  1  0.607400  0.107400  0.500000  1
  Bi  Bi17  1  0.500000  0.500000  0.000000  1
