# generated using pymatgen
data_Tb6Al24ZnIr2Ru5
_symmetry_space_group_name_H-M   'P 1'
_cell_length_a   8.87550191
_cell_length_b   8.87550088
_cell_length_c   9.52212718
_cell_angle_alpha   89.72519194
_cell_angle_beta   90.27481521
_cell_angle_gamma   119.86769630
_symmetry_Int_Tables_number   1
_chemical_formula_structural   Tb6Al24ZnIr2Ru5
_chemical_formula_sum   'Tb6 Al24 Zn1 Ir2 Ru5'
_cell_volume   650.46088104
_cell_formula_units_Z   1
loop_
 _symmetry_equiv_pos_site_id
 _symmetry_equiv_pos_as_xyz
  1  'x, y, z'
loop_
 _atom_site_type_symbol
 _atom_site_label
 _atom_site_symmetry_multiplicity
 _atom_site_fract_x
 _atom_site_fract_y
 _atom_site_fract_z
 _atom_site_occupancy
  Tb  Tb0  1  0.384238  0.191909  0.252973  1
  Tb  Tb1  1  0.807660  0.192340  0.245914  1
  Tb  Tb2  1  0.808091  0.615762  0.252973  1
  Tb  Tb3  1  0.615762  0.808091  0.747027  1
  Tb  Tb4  1  0.192340  0.807660  0.754086  1
  Tb  Tb5  1  0.191909  0.384238  0.747027  1
  Al  Al6  1  0.438288  0.877740  0.251731  1
  Al  Al7  1  0.122260  0.561712  0.251731  1
  Al  Al8  1  0.435557  0.564443  0.242162  1
  Al  Al9  1  0.561712  0.122260  0.748269  1
  Al  Al10  1  0.877740  0.438288  0.748269  1
  Al  Al11  1  0.564443  0.435557  0.757838  1
  Al  Al12  1  0.163062  0.836938  0.422110  1
  Al  Al13  1  0.150035  0.322645  0.419958  1
  Al  Al14  1  0.677355  0.849965  0.419958  1
  Al  Al15  1  0.836938  0.163062  0.577890  1
  Al  Al16  1  0.849965  0.677355  0.580042  1
  Al  Al17  1  0.322645  0.150035  0.580042  1
  Al  Al18  1  0.837112  0.162888  0.922973  1
  Al  Al19  1  0.835900  0.674614  0.925849  1
  Al  Al20  1  0.325386  0.164100  0.925849  1
  Al  Al21  1  0.162888  0.837112  0.077027  1
  Al  Al22  1  0.164100  0.325386  0.074151  1
  Al  Al23  1  0.674614  0.835900  0.074151  1
  Al  Al24  1  0.328351  0.671649  0.523186  1
  Al  Al25  1  0.671649  0.328351  0.476814  1
  Al  Al26  1  0.665595  0.334405  0.021145  1
  Al  Al27  1  0.334405  0.665595  0.978855  1
  Al  Al28  1  0.001476  0.998524  0.249469  1
  Al  Al29  1  0.998524  0.001476  0.750531  1
  Zn  Zn30  1  0.500000  0.500000  0.500000  1
  Ir  Ir31  1  0.500000  0.000000  0.000000  1
  Ir  Ir32  1  0.000000  0.500000  0.000000  1
  Ru  Ru33  1  0.000000  0.000000  0.500000  1
  Ru  Ru34  1  0.000000  0.000000  0.000000  1
  Ru  Ru35  1  0.500000  0.000000  0.500000  1
  Ru  Ru36  1  0.000000  0.500000  0.500000  1
  Ru  Ru37  1  0.500000  0.500000  0.000000  1
