# generated using pymatgen
data_Dy19Mg(IrPt)6
_symmetry_space_group_name_H-M   'P 1'
_cell_length_a   10.97262322
_cell_length_b   10.96249760
_cell_length_c   6.33010157
_cell_angle_alpha   90.02099599
_cell_angle_beta   90.04397135
_cell_angle_gamma   90.03155485
_symmetry_Int_Tables_number   1
_chemical_formula_structural   Dy19Mg(IrPt)6
_chemical_formula_sum   'Dy19 Mg1 Ir6 Pt6'
_cell_volume   761.43078887
_cell_formula_units_Z   1
loop_
 _symmetry_equiv_pos_site_id
 _symmetry_equiv_pos_as_xyz
  1  'x, y, z'
loop_
 _atom_site_type_symbol
 _atom_site_label
 _atom_site_symmetry_multiplicity
 _atom_site_fract_x
 _atom_site_fract_y
 _atom_site_fract_z
 _atom_site_occupancy
  Dy  Dy0  1  0.288397  0.086562  0.375552  1
  Dy  Dy1  1  0.294292  0.908567  0.877433  1
  Dy  Dy2  1  0.705607  0.087775  0.876279  1
  Dy  Dy3  1  0.712749  0.916996  0.374224  1
  Dy  Dy4  1  0.586091  0.791955  0.875761  1
  Dy  Dy5  1  0.582019  0.208107  0.373240  1
  Dy  Dy6  1  0.412596  0.792622  0.377890  1
  Dy  Dy7  1  0.408603  0.207539  0.881337  1
  Dy  Dy8  1  0.209467  0.416153  0.623717  1
  Dy  Dy9  1  0.209460  0.588182  0.120362  1
  Dy  Dy10  1  0.794062  0.410438  0.122446  1
  Dy  Dy11  1  0.794530  0.585890  0.624991  1
  Dy  Dy12  1  0.913063  0.705780  0.122893  1
  Dy  Dy13  1  0.917649  0.287714  0.624825  1
  Dy  Dy14  1  0.087393  0.711862  0.625196  1
  Dy  Dy15  1  0.092149  0.294512  0.123596  1
  Dy  Dy16  1  0.000075  0.999985  0.999912  1
  Dy  Dy17  1  0.496644  0.499634  0.000297  1
  Dy  Dy18  1  0.497302  0.500384  0.500378  1
  Mg  Mg19  1  0.000001  0.999568  0.499905  1
  Ir  Ir20  1  0.345292  0.345427  0.251797  1
  Ir  Ir21  1  0.346198  0.655320  0.747978  1
  Ir  Ir22  1  0.500343  0.999703  0.125681  1
  Ir  Ir23  1  0.500474  0.000133  0.622955  1
  Ir  Ir24  1  0.999360  0.500089  0.874500  1
  Ir  Ir25  1  0.999276  0.499558  0.377055  1
  Pt  Pt26  1  0.848323  0.154084  0.249160  1
  Pt  Pt27  1  0.845258  0.848930  0.751271  1
  Pt  Pt28  1  0.153313  0.150709  0.750214  1
  Pt  Pt29  1  0.150096  0.846086  0.249025  1
  Pt  Pt30  1  0.654926  0.345276  0.748044  1
  Pt  Pt31  1  0.654992  0.654461  0.252085  1
