# generated using pymatgen
data_Hf6Zn16SiAg7
_symmetry_space_group_name_H-M   'P 1'
_cell_length_a   8.85658817
_cell_length_b   8.86310480
_cell_length_c   8.86310500
_cell_angle_alpha   60.00000298
_cell_angle_beta   59.97566010
_cell_angle_gamma   59.97565877
_symmetry_Int_Tables_number   1
_chemical_formula_structural   Hf6Zn16SiAg7
_chemical_formula_sum   'Hf6 Zn16 Si1 Ag7'
_cell_volume   491.77150779
_cell_formula_units_Z   1
loop_
 _symmetry_equiv_pos_site_id
 _symmetry_equiv_pos_as_xyz
  1  'x, y, z'
loop_
 _atom_site_type_symbol
 _atom_site_label
 _atom_site_symmetry_multiplicity
 _atom_site_fract_x
 _atom_site_fract_y
 _atom_site_fract_z
 _atom_site_occupancy
  Hf  Hf0  1  0.706410  0.294107  0.294107  1
  Hf  Hf1  1  0.293693  0.706609  0.706609  1
  Hf  Hf2  1  0.293693  0.706609  0.293089  1
  Hf  Hf3  1  0.706410  0.294107  0.705377  1
  Hf  Hf4  1  0.293693  0.293089  0.706609  1
  Hf  Hf5  1  0.706410  0.705377  0.294107  1
  Zn  Zn6  1  0.366326  0.877892  0.877892  1
  Zn  Zn7  1  0.498417  0.999040  0.999040  1
  Zn  Zn8  1  0.999820  0.500124  0.500124  1
  Zn  Zn9  1  0.999820  0.500124  0.999931  1
  Zn  Zn10  1  0.498417  0.999040  0.503503  1
  Zn  Zn11  1  0.999820  0.999931  0.500124  1
  Zn  Zn12  1  0.498417  0.503503  0.999040  1
  Zn  Zn13  1  0.336493  0.336730  0.336730  1
  Zn  Zn14  1  0.662650  0.663956  0.663956  1
  Zn  Zn15  1  0.336493  0.336730  0.990046  1
  Zn  Zn16  1  0.336493  0.990046  0.336730  1
  Zn  Zn17  1  0.662650  0.663956  0.009438  1
  Zn  Zn18  1  0.662650  0.009438  0.663956  1
  Zn  Zn19  1  0.990187  0.336604  0.336604  1
  Zn  Zn20  1  0.010030  0.663323  0.663323  1
  Zn  Zn21  1  0.003826  0.998725  0.998725  1
  Si  Si22  1  0.499097  0.500301  0.500301  1
  Ag  Ag23  1  0.121437  0.120315  0.120315  1
  Ag  Ag24  1  0.878870  0.879171  0.879171  1
  Ag  Ag25  1  0.121437  0.120315  0.637933  1
  Ag  Ag26  1  0.121437  0.637933  0.120315  1
  Ag  Ag27  1  0.878870  0.879171  0.362789  1
  Ag  Ag28  1  0.878870  0.362789  0.879171  1
  Ag  Ag29  1  0.637164  0.120945  0.120945  1
