# generated using pymatgen
data_La2Eu3Sn4
_symmetry_space_group_name_H-M   'P 1'
_cell_length_a   8.17196300
_cell_length_b   8.64375200
_cell_length_c   16.68915200
_cell_angle_alpha   90.00000000
_cell_angle_beta   90.00000000
_cell_angle_gamma   90.00000000
_symmetry_Int_Tables_number   1
_chemical_formula_structural   La2Eu3Sn4
_chemical_formula_sum   'La8 Eu12 Sn16'
_cell_volume   1178.86197557
_cell_formula_units_Z   4
loop_
 _symmetry_equiv_pos_site_id
 _symmetry_equiv_pos_as_xyz
  1  'x, y, z'
loop_
 _atom_site_type_symbol
 _atom_site_label
 _atom_site_symmetry_multiplicity
 _atom_site_fract_x
 _atom_site_fract_y
 _atom_site_fract_z
 _atom_site_occupancy
  La  La0  1  0.830538  0.670304  0.378512  1
  La  La1  1  0.330538  0.829696  0.121488  1
  La  La2  1  0.669462  0.170304  0.621488  1
  La  La3  1  0.169462  0.329696  0.878512  1
  La  La4  1  0.169462  0.329696  0.621488  1
  La  La5  1  0.669462  0.170304  0.878512  1
  La  La6  1  0.330538  0.829696  0.378512  1
  La  La7  1  0.830538  0.670304  0.121488  1
  Eu  Eu8  1  0.004385  0.817391  0.905984  1
  Eu  Eu9  1  0.504385  0.682609  0.594016  1
  Eu  Eu10  1  0.495615  0.317391  0.094016  1
  Eu  Eu11  1  0.995615  0.182609  0.405984  1
  Eu  Eu12  1  0.004385  0.817391  0.594016  1
  Eu  Eu13  1  0.504385  0.682609  0.905984  1
  Eu  Eu14  1  0.495615  0.317391  0.405984  1
  Eu  Eu15  1  0.995615  0.182609  0.094016  1
  Eu  Eu16  1  0.330504  0.983871  0.750000  1
  Eu  Eu17  1  0.830504  0.516129  0.750000  1
  Eu  Eu18  1  0.169496  0.483871  0.250000  1
  Eu  Eu19  1  0.669496  0.016129  0.250000  1
  Sn  Sn20  1  0.833855  0.464322  0.539567  1
  Sn  Sn21  1  0.333855  0.035678  0.960433  1
  Sn  Sn22  1  0.666145  0.964322  0.460433  1
  Sn  Sn23  1  0.166145  0.535678  0.039567  1
  Sn  Sn24  1  0.166145  0.535678  0.460433  1
  Sn  Sn25  1  0.666145  0.964322  0.039567  1
  Sn  Sn26  1  0.333855  0.035678  0.539567  1
  Sn  Sn27  1  0.833855  0.464322  0.960433  1
  Sn  Sn28  1  0.214345  0.624374  0.750000  1
  Sn  Sn29  1  0.714345  0.875626  0.750000  1
  Sn  Sn30  1  0.285655  0.124374  0.250000  1
  Sn  Sn31  1  0.785655  0.375626  0.250000  1
  Sn  Sn32  1  0.965056  0.118077  0.750000  1
  Sn  Sn33  1  0.465056  0.381923  0.750000  1
  Sn  Sn34  1  0.534944  0.618077  0.250000  1
  Sn  Sn35  1  0.034944  0.881923  0.250000  1
