# generated using pymatgen
data_Er4Ti3GaIr4
_symmetry_space_group_name_H-M   'P 1'
_cell_length_a   4.32623300
_cell_length_b   6.89067153
_cell_length_c   7.95472643
_cell_angle_alpha   92.47072332
_cell_angle_beta   90.00000000
_cell_angle_gamma   90.00000000
_symmetry_Int_Tables_number   1
_chemical_formula_structural   Er4Ti3GaIr4
_chemical_formula_sum   'Er4 Ti3 Ga1 Ir4'
_cell_volume   236.91512384
_cell_formula_units_Z   1
loop_
 _symmetry_equiv_pos_site_id
 _symmetry_equiv_pos_as_xyz
  1  'x, y, z'
loop_
 _atom_site_type_symbol
 _atom_site_label
 _atom_site_symmetry_multiplicity
 _atom_site_fract_x
 _atom_site_fract_y
 _atom_site_fract_z
 _atom_site_occupancy
  Er  Er0  1  0.250000  0.981809  0.314207  1
  Er  Er1  1  0.250000  0.473003  0.172760  1
  Er  Er2  1  0.750000  0.027194  0.688590  1
  Er  Er3  1  0.750000  0.511083  0.824582  1
  Ti  Ti4  1  0.250000  0.363882  0.570774  1
  Ti  Ti5  1  0.250000  0.862363  0.938600  1
  Ti  Ti6  1  0.750000  0.636817  0.430142  1
  Ga  Ga7  1  0.750000  0.148509  0.072189  1
  Ir  Ir8  1  0.250000  0.223583  0.876592  1
  Ir  Ir9  1  0.250000  0.726613  0.599761  1
  Ir  Ir10  1  0.750000  0.768940  0.110432  1
  Ir  Ir11  1  0.750000  0.276204  0.401371  1
