# generated using pymatgen
data_Dy4ReB12Rh
_symmetry_space_group_name_H-M   'P 1'
_cell_length_a   3.68705100
_cell_length_b   9.16438539
_cell_length_c   11.55339699
_cell_angle_alpha   90.46196586
_cell_angle_beta   90.00000000
_cell_angle_gamma   90.00000000
_symmetry_Int_Tables_number   1
_chemical_formula_structural   Dy4ReB12Rh
_chemical_formula_sum   'Dy8 Re2 B24 Rh2'
_cell_volume   390.37146892
_cell_formula_units_Z   2
loop_
 _symmetry_equiv_pos_site_id
 _symmetry_equiv_pos_as_xyz
  1  'x, y, z'
loop_
 _atom_site_type_symbol
 _atom_site_label
 _atom_site_symmetry_multiplicity
 _atom_site_fract_x
 _atom_site_fract_y
 _atom_site_fract_z
 _atom_site_occupancy
  Dy  Dy0  1  0.000000  0.319026  0.410483  1
  Dy  Dy1  1  0.000000  0.680974  0.589517  1
  Dy  Dy2  1  0.000000  0.826753  0.082744  1
  Dy  Dy3  1  0.000000  0.173247  0.917256  1
  Dy  Dy4  1  0.000000  0.945401  0.371923  1
  Dy  Dy5  1  0.000000  0.054599  0.628077  1
  Dy  Dy6  1  0.000000  0.442510  0.126740  1
  Dy  Dy7  1  0.000000  0.557490  0.873260  1
  Re  Re8  1  0.000000  0.138936  0.179835  1
  Re  Re9  1  0.000000  0.861064  0.820165  1
  B  B10  1  0.500000  0.554297  0.433943  1
  B  B11  1  0.500000  0.445703  0.566057  1
  B  B12  1  0.500000  0.053138  0.067552  1
  B  B13  1  0.500000  0.946862  0.932448  1
  B  B14  1  0.500000  0.748472  0.421396  1
  B  B15  1  0.500000  0.251528  0.578604  1
  B  B16  1  0.500000  0.247887  0.081266  1
  B  B17  1  0.500000  0.752113  0.918734  1
  B  B18  1  0.500000  0.790942  0.265760  1
  B  B19  1  0.500000  0.209058  0.734240  1
  B  B20  1  0.500000  0.292572  0.234462  1
  B  B21  1  0.500000  0.707428  0.765538  1
  B  B22  1  0.500000  0.632732  0.183859  1
  B  B23  1  0.500000  0.367268  0.816141  1
  B  B24  1  0.500000  0.132387  0.314562  1
  B  B25  1  0.500000  0.867613  0.685438  1
  B  B26  1  0.500000  0.983621  0.213012  1
  B  B27  1  0.500000  0.016379  0.786988  1
  B  B28  1  0.500000  0.483857  0.287805  1
  B  B29  1  0.500000  0.516143  0.712195  1
  B  B30  1  0.500000  0.607348  0.029880  1
  B  B31  1  0.500000  0.392652  0.970120  1
  B  B32  1  0.500000  0.109195  0.470445  1
  B  B33  1  0.500000  0.890805  0.529555  1
  Rh  Rh34  1  0.000000  0.637739  0.321640  1
  Rh  Rh35  1  0.000000  0.362261  0.678360  1
