# generated using pymatgen
data_Tb7Dy5B2(CCl6)2
_symmetry_space_group_name_H-M   'P 1'
_cell_length_a   9.34470178
_cell_length_b   9.34466347
_cell_length_c   9.41567340
_cell_angle_alpha   109.48430649
_cell_angle_beta   109.49515686
_cell_angle_gamma   109.12793509
_symmetry_Int_Tables_number   1
_chemical_formula_structural   Tb7Dy5B2(CCl6)2
_chemical_formula_sum   'Tb7 Dy5 B2 C2 Cl12'
_cell_volume   635.30896726
_cell_formula_units_Z   1
loop_
 _symmetry_equiv_pos_site_id
 _symmetry_equiv_pos_as_xyz
  1  'x, y, z'
loop_
 _atom_site_type_symbol
 _atom_site_label
 _atom_site_symmetry_multiplicity
 _atom_site_fract_x
 _atom_site_fract_y
 _atom_site_fract_z
 _atom_site_occupancy
  Tb  Tb0  1  0.034836  0.264902  0.020523  1
  Tb  Tb1  1  0.020627  0.032264  0.264068  1
  Tb  Tb2  1  0.485671  0.755623  0.020492  1
  Tb  Tb3  1  0.481190  0.231248  0.462484  1
  Tb  Tb4  1  0.014201  0.486056  0.750118  1
  Tb  Tb5  1  0.268889  0.018922  0.037767  1
  Tb  Tb6  1  0.235830  0.264078  0.749996  1
  Dy  Dy7  1  0.466766  0.478937  0.235469  1
  Dy  Dy8  1  0.743410  0.231197  0.264647  1
  Dy  Dy9  1  0.744538  0.015167  0.479053  1
  Dy  Dy10  1  0.234523  0.464022  0.479020  1
  Dy  Dy11  1  0.268775  0.756720  0.235466  1
  B  B12  1  0.998924  0.249465  0.498465  1
  B  B13  1  0.251028  0.501067  0.001989  1
  C  C14  1  0.250630  0.251708  0.250833  1
  C  C15  1  0.500969  0.999902  0.250794  1
  Cl  Cl16  1  0.252177  0.758600  0.745773  1
  Cl  Cl17  1  0.512129  0.505977  0.753008  1
  Cl  Cl18  1  0.988439  0.745816  0.994810  1
  Cl  Cl19  1  0.740879  0.247045  0.752987  1
  Cl  Cl20  1  0.993581  0.987181  0.745776  1
  Cl  Cl21  1  0.251840  0.993033  0.505262  1
  Cl  Cl22  1  0.753404  0.511473  0.504395  1
  Cl  Cl23  1  0.507171  0.249084  0.995667  1
  Cl  Cl24  1  0.755085  0.744629  0.250951  1
  Cl  Cl25  1  0.743889  0.994742  0.988630  1
  Cl  Cl26  1  0.995232  0.505778  0.250848  1
  Cl  Cl27  1  0.505368  0.755361  0.510710  1
