# generated using pymatgen
data_Zr2B(IrRh2)2
_symmetry_space_group_name_H-M   'P 1'
_cell_length_a   5.74230772
_cell_length_b   5.74230752
_cell_length_c   5.72962400
_cell_angle_alpha   60.07302761
_cell_angle_beta   60.07302879
_cell_angle_gamma   59.99312651
_symmetry_Int_Tables_number   1
_chemical_formula_structural   Zr2B(IrRh2)2
_chemical_formula_sum   'Zr2 B1 Ir2 Rh4'
_cell_volume   133.73341076
_cell_formula_units_Z   1
loop_
 _symmetry_equiv_pos_site_id
 _symmetry_equiv_pos_as_xyz
  1  'x, y, z'
loop_
 _atom_site_type_symbol
 _atom_site_label
 _atom_site_symmetry_multiplicity
 _atom_site_fract_x
 _atom_site_fract_y
 _atom_site_fract_z
 _atom_site_occupancy
  Zr  Zr0  1  0.750273  0.750273  0.749855  1
  Zr  Zr1  1  0.249727  0.249727  0.250400  1
  B  B2  1  0.000000  0.000000  0.000947  1
  Ir  Ir3  1  0.741896  0.258104  0.742295  1
  Ir  Ir4  1  0.258104  0.741896  0.742295  1
  Rh  Rh5  1  0.742487  0.742487  0.257715  1
  Rh  Rh6  1  0.256762  0.743238  0.256902  1
  Rh  Rh7  1  0.743238  0.256762  0.256902  1
  Rh  Rh8  1  0.257513  0.257513  0.742688  1
