# generated using pymatgen
data_TmLuZr2(Al8Pt3)3
_symmetry_space_group_name_H-M   'P 1'
_cell_length_a   7.49080422
_cell_length_b   7.49921802
_cell_length_c   13.01486758
_cell_angle_alpha   84.54717218
_cell_angle_beta   78.97012692
_cell_angle_gamma   59.94705912
_symmetry_Int_Tables_number   1
_chemical_formula_structural   TmLuZr2(Al8Pt3)3
_chemical_formula_sum   'Tm1 Lu1 Zr2 Al24 Pt9'
_cell_volume   621.13384882
_cell_formula_units_Z   1
loop_
 _symmetry_equiv_pos_site_id
 _symmetry_equiv_pos_as_xyz
  1  'x, y, z'
loop_
 _atom_site_type_symbol
 _atom_site_label
 _atom_site_symmetry_multiplicity
 _atom_site_fract_x
 _atom_site_fract_y
 _atom_site_fract_z
 _atom_site_occupancy
  Tm  Tm0  1  0.734206  0.498657  0.806919  1
  Lu  Lu1  1  0.265695  0.501338  0.193265  1
  Zr  Zr2  1  0.393721  0.168004  0.810035  1
  Zr  Zr3  1  0.606257  0.832045  0.189946  1
  Al  Al4  1  0.681624  0.835528  0.943074  1
  Al  Al5  1  0.318333  0.164596  0.057028  1
  Al  Al6  1  0.146036  0.832898  0.562953  1
  Al  Al7  1  0.853975  0.167088  0.437044  1
  Al  Al8  1  0.479534  0.166887  0.561023  1
  Al  Al9  1  0.520460  0.833119  0.438957  1
  Al  Al10  1  0.220607  0.163614  0.326434  1
  Al  Al11  1  0.779446  0.836496  0.673482  1
  Al  Al12  1  0.436183  0.504610  0.673570  1
  Al  Al13  1  0.563680  0.495414  0.326354  1
  Al  Al14  1  0.110640  0.160125  0.672350  1
  Al  Al15  1  0.889539  0.839722  0.327561  1
  Al  Al16  1  0.353894  0.496999  0.942446  1
  Al  Al17  1  0.645941  0.503006  0.057693  1
  Al  Al18  1  0.018201  0.168294  0.950261  1
  Al  Al19  1  0.981890  0.831602  0.049822  1
  Al  Al20  1  0.186599  0.499698  0.440500  1
  Al  Al21  1  0.813428  0.500304  0.559449  1
  Al  Al22  1  0.732494  0.159990  0.183472  1
  Al  Al23  1  0.267332  0.840093  0.816527  1
  Al  Al24  1  0.065229  0.626814  0.815406  1
  Al  Al25  1  0.934871  0.373275  0.184589  1
  Al  Al26  1  0.850837  0.041901  0.815925  1
  Al  Al27  1  0.149259  0.957896  0.184077  1
  Pt  Pt28  1  0.119347  0.490914  0.639521  1
  Pt  Pt29  1  0.880838  0.509081  0.360437  1
  Pt  Pt30  1  0.656714  0.172826  0.999580  1
  Pt  Pt31  1  0.343253  0.827179  0.000414  1
  Pt  Pt32  1  0.536657  0.167406  0.361195  1
  Pt  Pt33  1  0.463228  0.832733  0.638744  1
  Pt  Pt34  1  0.778208  0.176415  0.637812  1
  Pt  Pt35  1  0.221817  0.823423  0.362135  1
  Pt  Pt36  1  0.000029  0.500008  0.999998  1
