# generated using pymatgen
data_Lu12Mn2FeSn2
_symmetry_space_group_name_H-M   'P 1'
_cell_length_a   8.20303590
_cell_length_b   8.20350984
_cell_length_c   8.20303716
_cell_angle_alpha   108.61206928
_cell_angle_beta   108.63828891
_cell_angle_gamma   111.17447548
_symmetry_Int_Tables_number   1
_chemical_formula_structural   Lu12Mn2FeSn2
_chemical_formula_sum   'Lu12 Mn2 Fe1 Sn2'
_cell_volume   424.66913773
_cell_formula_units_Z   1
loop_
 _symmetry_equiv_pos_site_id
 _symmetry_equiv_pos_as_xyz
  1  'x, y, z'
loop_
 _atom_site_type_symbol
 _atom_site_label
 _atom_site_symmetry_multiplicity
 _atom_site_fract_x
 _atom_site_fract_y
 _atom_site_fract_z
 _atom_site_occupancy
  Lu  Lu0  1  0.308058  0.308014  0.616062  1
  Lu  Lu1  1  0.691942  0.691986  0.383938  1
  Lu  Lu2  1  0.691952  0.308014  0.999956  1
  Lu  Lu3  1  0.308048  0.691986  0.000044  1
  Lu  Lu4  1  0.191613  0.426805  0.235193  1
  Lu  Lu5  1  0.808387  0.573195  0.764807  1
  Lu  Lu6  1  0.191614  0.956434  0.764821  1
  Lu  Lu7  1  0.956543  0.191644  0.764907  1
  Lu  Lu8  1  0.808386  0.043566  0.235179  1
  Lu  Lu9  1  0.043457  0.808356  0.235093  1
  Lu  Lu10  1  0.426735  0.191644  0.235099  1
  Lu  Lu11  1  0.573265  0.808356  0.764901  1
  Mn  Mn12  1  0.384632  0.384655  0.000023  1
  Mn  Mn13  1  0.615368  0.615345  0.999977  1
  Fe  Fe14  1  0.000000  0.000000  0.000000  1
  Sn  Sn15  1  0.000000  0.500000  0.500000  1
  Sn  Sn16  1  0.500000  0.000000  0.500000  1
