# generated using pymatgen
data_Ho5Er11(AgRh)4
_symmetry_space_group_name_H-M   'P 1'
_cell_length_a   9.44563798
_cell_length_b   9.43931593
_cell_length_c   9.44694417
_cell_angle_alpha   60.33415605
_cell_angle_beta   60.39822236
_cell_angle_gamma   60.33933333
_symmetry_Int_Tables_number   1
_chemical_formula_structural   Ho5Er11(AgRh)4
_chemical_formula_sum   'Ho5 Er11 Ag4 Rh4'
_cell_volume   600.40358171
_cell_formula_units_Z   1
loop_
 _symmetry_equiv_pos_site_id
 _symmetry_equiv_pos_as_xyz
  1  'x, y, z'
loop_
 _atom_site_type_symbol
 _atom_site_label
 _atom_site_symmetry_multiplicity
 _atom_site_fract_x
 _atom_site_fract_y
 _atom_site_fract_z
 _atom_site_occupancy
  Ho  Ho0  1  0.187813  0.188227  0.812475  1
  Ho  Ho1  1  0.435131  0.064563  0.065473  1
  Ho  Ho2  1  0.435152  0.065758  0.435110  1
  Ho  Ho3  1  0.064661  0.435040  0.065162  1
  Ho  Ho4  1  0.647327  0.058482  0.646679  1
  Er  Er5  1  0.187692  0.812986  0.812802  1
  Er  Er6  1  0.065181  0.064648  0.435193  1
  Er  Er7  1  0.812721  0.187857  0.187967  1
  Er  Er8  1  0.813091  0.813019  0.187567  1
  Er  Er9  1  0.646972  0.646924  0.058279  1
  Er  Er10  1  0.646795  0.646659  0.646331  1
  Er  Er11  1  0.065359  0.435308  0.435097  1
  Er  Er12  1  0.057851  0.647305  0.646821  1
  Er  Er13  1  0.812968  0.187709  0.812793  1
  Er  Er14  1  0.435375  0.435559  0.065321  1
  Er  Er15  1  0.187859  0.812588  0.188302  1
  Ag  Ag16  1  0.417385  0.746313  0.417726  1
  Ag  Ag17  1  0.417399  0.418044  0.746450  1
  Ag  Ag18  1  0.746688  0.417690  0.417471  1
  Ag  Ag19  1  0.417087  0.417650  0.417101  1
  Rh  Rh20  1  0.855340  0.431097  0.855985  1
  Rh  Rh21  1  0.856189  0.855273  0.430601  1
  Rh  Rh22  1  0.430823  0.854779  0.856326  1
  Rh  Rh23  1  0.857144  0.856522  0.856967  1
