# generated using pymatgen
data_Dy9Er(Sn3Cl)2
_symmetry_space_group_name_H-M   'P 1'
_cell_length_a   9.11227200
_cell_length_b   9.11227023
_cell_length_c   6.54364100
_cell_angle_alpha   90.00000000
_cell_angle_beta   90.00000000
_cell_angle_gamma   120.00000641
_symmetry_Int_Tables_number   1
_chemical_formula_structural   Dy9Er(Sn3Cl)2
_chemical_formula_sum   'Dy9 Er1 Sn6 Cl2'
_cell_volume   470.54735244
_cell_formula_units_Z   1
loop_
 _symmetry_equiv_pos_site_id
 _symmetry_equiv_pos_as_xyz
  1  'x, y, z'
loop_
 _atom_site_type_symbol
 _atom_site_label
 _atom_site_symmetry_multiplicity
 _atom_site_fract_x
 _atom_site_fract_y
 _atom_site_fract_z
 _atom_site_occupancy
  Dy  Dy0  1  0.262252  0.262309  0.749923  1
  Dy  Dy1  1  0.000057  0.737748  0.749923  1
  Dy  Dy2  1  0.737691  0.999943  0.749923  1
  Dy  Dy3  1  0.000057  0.262309  0.250077  1
  Dy  Dy4  1  0.737691  0.737748  0.250077  1
  Dy  Dy5  1  0.666667  0.333333  0.500000  1
  Dy  Dy6  1  0.262252  0.999943  0.250077  1
  Dy  Dy7  1  0.333333  0.666667  0.000000  1
  Dy  Dy8  1  0.666667  0.333333  0.000000  1
  Er  Er9  1  0.333333  0.666667  0.500000  1
  Sn  Sn10  1  0.610794  0.999727  0.250211  1
  Sn  Sn11  1  0.000273  0.389206  0.749789  1
  Sn  Sn12  1  0.388933  0.999727  0.749789  1
  Sn  Sn13  1  0.610794  0.611067  0.749789  1
  Sn  Sn14  1  0.000273  0.611067  0.250211  1
  Sn  Sn15  1  0.388933  0.389206  0.250211  1
  Cl  Cl16  1  0.000000  0.000000  0.000000  1
  Cl  Cl17  1  0.000000  0.000000  0.500000  1
