# generated using pymatgen
data_Ce2Zn3Os
_symmetry_space_group_name_H-M   'P 1'
_cell_length_a   5.26876200
_cell_length_b   5.26876223
_cell_length_c   9.32038300
_cell_angle_alpha   90.00000000
_cell_angle_beta   90.00000000
_cell_angle_gamma   119.99999858
_symmetry_Int_Tables_number   1
_chemical_formula_structural   Ce2Zn3Os
_chemical_formula_sum   'Ce4 Zn6 Os2'
_cell_volume   224.06889781
_cell_formula_units_Z   2
loop_
 _symmetry_equiv_pos_site_id
 _symmetry_equiv_pos_as_xyz
  1  'x, y, z'
loop_
 _atom_site_type_symbol
 _atom_site_label
 _atom_site_symmetry_multiplicity
 _atom_site_fract_x
 _atom_site_fract_y
 _atom_site_fract_z
 _atom_site_occupancy
  Ce  Ce0  1  0.666668  0.333334  0.039081  1
  Ce  Ce1  1  0.666668  0.333334  0.460920  1
  Ce  Ce2  1  0.333333  0.666666  0.539081  1
  Ce  Ce3  1  0.333333  0.666666  0.960919  1
  Zn  Zn4  1  0.164313  0.328627  0.250000  1
  Zn  Zn5  1  0.164313  0.835687  0.250000  1
  Zn  Zn6  1  0.671374  0.835687  0.250000  1
  Zn  Zn7  1  0.328627  0.164312  0.750000  1
  Zn  Zn8  1  0.835686  0.164312  0.750000  1
  Zn  Zn9  1  0.835687  0.671373  0.750000  1
  Os  Os10  1  0.000000  0.000000  0.000000  1
  Os  Os11  1  0.000000  0.000000  0.500000  1
