# generated using pymatgen
data_LuBiI18
_symmetry_space_group_name_H-M   'P 1'
_cell_length_a   10.39733641
_cell_length_b   10.42923797
_cell_length_c   10.38072614
_cell_angle_alpha   88.43563366
_cell_angle_beta   88.54952018
_cell_angle_gamma   88.31525394
_symmetry_Int_Tables_number   1
_chemical_formula_structural   LuBiI18
_chemical_formula_sum   'Lu1 Bi1 I18'
_cell_volume   1124.40309199
_cell_formula_units_Z   1
loop_
 _symmetry_equiv_pos_site_id
 _symmetry_equiv_pos_as_xyz
  1  'x, y, z'
loop_
 _atom_site_type_symbol
 _atom_site_label
 _atom_site_symmetry_multiplicity
 _atom_site_fract_x
 _atom_site_fract_y
 _atom_site_fract_z
 _atom_site_occupancy
  Lu  Lu0  1  0.500000  0.500000  0.500000  1
  Bi  Bi1  1  0.000000  0.000000  0.000000  1
  I  I2  1  0.787155  0.466202  0.501005  1
  I  I3  1  0.499596  0.786149  0.465316  1
  I  I4  1  0.466462  0.500946  0.787481  1
  I  I5  1  0.212845  0.533798  0.498995  1
  I  I6  1  0.500404  0.213851  0.534684  1
  I  I7  1  0.533538  0.499054  0.212519  1
  I  I8  1  0.896756  0.378665  0.748803  1
  I  I9  1  0.746833  0.895175  0.378937  1
  I  I10  1  0.379127  0.747690  0.896660  1
  I  I11  1  0.103244  0.621335  0.251197  1
  I  I12  1  0.253167  0.104825  0.621063  1
  I  I13  1  0.620873  0.252310  0.103340  1
  I  I14  1  0.015168  0.978593  0.699860  1
  I  I15  1  0.700666  0.014748  0.976444  1
  I  I16  1  0.976599  0.701589  0.012381  1
  I  I17  1  0.984832  0.021407  0.300140  1
  I  I18  1  0.299334  0.985252  0.023556  1
  I  I19  1  0.023401  0.298411  0.987619  1
