# generated using pymatgen
data_Y4Er6TlIn7Pd4
_symmetry_space_group_name_H-M   'P 1'
_cell_length_a   3.62321900
_cell_length_b   8.15188616
_cell_length_c   18.20500983
_cell_angle_alpha   89.81928379
_cell_angle_beta   90.00000000
_cell_angle_gamma   90.00000000
_symmetry_Int_Tables_number   1
_chemical_formula_structural   Y4Er6TlIn7Pd4
_chemical_formula_sum   'Y4 Er6 Tl1 In7 Pd4'
_cell_volume   537.70174883
_cell_formula_units_Z   1
loop_
 _symmetry_equiv_pos_site_id
 _symmetry_equiv_pos_as_xyz
  1  'x, y, z'
loop_
 _atom_site_type_symbol
 _atom_site_label
 _atom_site_symmetry_multiplicity
 _atom_site_fract_x
 _atom_site_fract_y
 _atom_site_fract_z
 _atom_site_occupancy
  Y  Y0  1  0.000000  0.499801  0.499924  1
  Y  Y1  1  0.000000  0.001573  0.000035  1
  Y  Y2  1  0.000000  0.738725  0.282077  1
  Y  Y3  1  0.000000  0.261794  0.717309  1
  Er  Er4  1  0.000000  0.760707  0.781543  1
  Er  Er5  1  0.000000  0.238731  0.218542  1
  Er  Er6  1  0.000000  0.616042  0.085137  1
  Er  Er7  1  0.000000  0.383199  0.915834  1
  Er  Er8  1  0.000000  0.882159  0.584140  1
  Er  Er9  1  0.000000  0.117268  0.415814  1
  Tl  Tl10  1  0.500000  0.707760  0.934327  1
  In  In11  1  0.500000  0.292592  0.066965  1
  In  In12  1  0.500000  0.794838  0.433801  1
  In  In13  1  0.500000  0.204295  0.566273  1
  In  In14  1  0.500000  0.583430  0.650714  1
  In  In15  1  0.500000  0.416690  0.349366  1
  In  In16  1  0.500000  0.919840  0.150501  1
  In  In17  1  0.500000  0.085157  0.848780  1
  Pd  Pd18  1  0.500000  0.519550  0.194794  1
  Pd  Pd19  1  0.500000  0.476701  0.804235  1
  Pd  Pd20  1  0.500000  0.972045  0.696204  1
  Pd  Pd21  1  0.500000  0.027104  0.303683  1
