# generated using pymatgen
data_Yb3CrCoC6
_symmetry_space_group_name_H-M   'P 1'
_cell_length_a   8.05159700
_cell_length_b   8.05159715
_cell_length_c   4.99344900
_cell_angle_alpha   90.00000000
_cell_angle_beta   90.00000000
_cell_angle_gamma   120.00000241
_symmetry_Int_Tables_number   1
_chemical_formula_structural   Yb3CrCoC6
_chemical_formula_sum   'Yb6 Cr2 Co2 C12'
_cell_volume   280.34660837
_cell_formula_units_Z   2
loop_
 _symmetry_equiv_pos_site_id
 _symmetry_equiv_pos_as_xyz
  1  'x, y, z'
loop_
 _atom_site_type_symbol
 _atom_site_label
 _atom_site_symmetry_multiplicity
 _atom_site_fract_x
 _atom_site_fract_y
 _atom_site_fract_z
 _atom_site_occupancy
  Yb  Yb0  1  0.612190  0.680199  0.750000  1
  Yb  Yb1  1  0.931991  0.612190  0.250000  1
  Yb  Yb2  1  0.680199  0.068009  0.250000  1
  Yb  Yb3  1  0.319801  0.931991  0.750000  1
  Yb  Yb4  1  0.068009  0.387810  0.750000  1
  Yb  Yb5  1  0.387810  0.319801  0.250000  1
  Cr  Cr6  1  0.000000  0.000000  0.500000  1
  Cr  Cr7  1  0.000000  0.000000  0.000000  1
  Co  Co8  1  0.666667  0.333333  0.750000  1
  Co  Co9  1  0.333333  0.666667  0.250000  1
  C  C10  1  0.954358  0.767995  0.750000  1
  C  C11  1  0.186364  0.954358  0.250000  1
  C  C12  1  0.767995  0.813636  0.250000  1
  C  C13  1  0.232005  0.186364  0.750000  1
  C  C14  1  0.813636  0.045642  0.750000  1
  C  C15  1  0.045642  0.232005  0.250000  1
  C  C16  1  0.863209  0.577809  0.750000  1
  C  C17  1  0.285401  0.863209  0.250000  1
  C  C18  1  0.577809  0.714599  0.250000  1
  C  C19  1  0.422191  0.285401  0.750000  1
  C  C20  1  0.136791  0.422191  0.250000  1
  C  C21  1  0.714599  0.136791  0.750000  1
