# generated using pymatgen
data_Tb5Si2Pb
_symmetry_space_group_name_H-M   'P 1'
_cell_length_a   7.73476164
_cell_length_b   7.73476244
_cell_length_c   8.91694539
_cell_angle_alpha   115.70333092
_cell_angle_beta   115.70333608
_cell_angle_gamma   90.00000022
_symmetry_Int_Tables_number   1
_chemical_formula_structural   Tb5Si2Pb
_chemical_formula_sum   'Tb10 Si4 Pb2'
_cell_volume   421.33618305
_cell_formula_units_Z   2
loop_
 _symmetry_equiv_pos_site_id
 _symmetry_equiv_pos_as_xyz
  1  'x, y, z'
loop_
 _atom_site_type_symbol
 _atom_site_label
 _atom_site_symmetry_multiplicity
 _atom_site_fract_x
 _atom_site_fract_y
 _atom_site_fract_z
 _atom_site_occupancy
  Tb  Tb0  1  0.500000  0.500000  0.000000  1
  Tb  Tb1  1  0.000000  0.000000  0.000000  1
  Tb  Tb2  1  0.972018  0.804735  0.276753  1
  Tb  Tb3  1  0.304735  0.472018  0.276753  1
  Tb  Tb4  1  0.804735  0.304735  0.276753  1
  Tb  Tb5  1  0.472018  0.972018  0.276753  1
  Tb  Tb6  1  0.027982  0.195265  0.723247  1
  Tb  Tb7  1  0.695265  0.527982  0.723247  1
  Tb  Tb8  1  0.195265  0.695265  0.723247  1
  Tb  Tb9  1  0.527982  0.027982  0.723247  1
  Si  Si10  1  0.629663  0.870337  0.000000  1
  Si  Si11  1  0.370337  0.129663  0.000000  1
  Si  Si12  1  0.870337  0.370337  0.000000  1
  Si  Si13  1  0.129663  0.629663  0.000000  1
  Pb  Pb14  1  0.750000  0.750000  0.500000  1
  Pb  Pb15  1  0.250000  0.250000  0.500000  1
