# generated using pymatgen
data_Hf8Pt4C
_symmetry_space_group_name_H-M   'P 1'
_cell_length_a   8.84754043
_cell_length_b   8.84753872
_cell_length_c   8.84753875
_cell_angle_alpha   120.09328418
_cell_angle_beta   119.93648128
_cell_angle_gamma   89.97427983
_symmetry_Int_Tables_number   1
_chemical_formula_structural   Hf8Pt4C
_chemical_formula_sum   'Hf16 Pt8 C2'
_cell_volume   489.61388466
_cell_formula_units_Z   2
loop_
 _symmetry_equiv_pos_site_id
 _symmetry_equiv_pos_as_xyz
  1  'x, y, z'
loop_
 _atom_site_type_symbol
 _atom_site_label
 _atom_site_symmetry_multiplicity
 _atom_site_fract_x
 _atom_site_fract_y
 _atom_site_fract_z
 _atom_site_occupancy
  Hf  Hf0  1  0.941779  0.191779  0.750000  1
  Hf  Hf1  1  0.311893  0.561893  0.750000  1
  Hf  Hf2  1  0.940808  0.560828  0.758374  1
  Hf  Hf3  1  0.302453  0.182434  0.741626  1
  Hf  Hf4  1  0.940808  0.182434  0.379980  1
  Hf  Hf5  1  0.302453  0.560828  0.120020  1
  Hf  Hf6  1  0.058221  0.808221  0.250000  1
  Hf  Hf7  1  0.688107  0.438107  0.250000  1
  Hf  Hf8  1  0.059192  0.439172  0.241626  1
  Hf  Hf9  1  0.697547  0.817566  0.258374  1
  Hf  Hf10  1  0.059192  0.817566  0.620020  1
  Hf  Hf11  1  0.697547  0.439172  0.879980  1
  Hf  Hf12  1  0.500000  0.000000  0.000000  1
  Hf  Hf13  1  0.500000  0.500000  0.500000  1
  Hf  Hf14  1  0.500000  0.000000  0.500000  1
  Hf  Hf15  1  0.000000  0.000000  0.000000  1
  Pt  Pt16  1  0.719372  0.775177  0.555806  1
  Pt  Pt17  1  0.719372  0.163565  0.944194  1
  Pt  Pt18  1  0.716609  0.778745  0.937864  1
  Pt  Pt19  1  0.340881  0.778745  0.562136  1
  Pt  Pt20  1  0.280628  0.224823  0.444194  1
  Pt  Pt21  1  0.280628  0.836435  0.055806  1
  Pt  Pt22  1  0.283391  0.221255  0.062136  1
  Pt  Pt23  1  0.659119  0.221255  0.437864  1
  C  C24  1  0.000000  0.500000  0.000000  1
  C  C25  1  0.000000  0.000000  0.500000  1
