# generated using pymatgen
data_EuZnIn3Rh
_symmetry_space_group_name_H-M   'P 1'
_cell_length_a   4.25120100
_cell_length_b   7.70922500
_cell_length_c   8.31682300
_cell_angle_alpha   90.00000000
_cell_angle_beta   90.00000000
_cell_angle_gamma   90.00000000
_symmetry_Int_Tables_number   1
_chemical_formula_structural   EuZnIn3Rh
_chemical_formula_sum   'Eu2 Zn2 In6 Rh2'
_cell_volume   272.57110774
_cell_formula_units_Z   2
loop_
 _symmetry_equiv_pos_site_id
 _symmetry_equiv_pos_as_xyz
  1  'x, y, z'
loop_
 _atom_site_type_symbol
 _atom_site_label
 _atom_site_symmetry_multiplicity
 _atom_site_fract_x
 _atom_site_fract_y
 _atom_site_fract_z
 _atom_site_occupancy
  Eu  Eu0  1  0.000000  0.394477  0.250000  1
  Eu  Eu1  1  0.000000  0.605523  0.750000  1
  Zn  Zn2  1  0.000000  0.000000  0.000000  1
  Zn  Zn3  1  0.000000  0.000000  0.500000  1
  In  In4  1  0.500000  0.060901  0.250000  1
  In  In5  1  0.500000  0.939099  0.750000  1
  In  In6  1  0.500000  0.694023  0.060587  1
  In  In7  1  0.500000  0.305977  0.939413  1
  In  In8  1  0.500000  0.694023  0.439413  1
  In  In9  1  0.500000  0.305977  0.560587  1
  Rh  Rh10  1  0.000000  0.816931  0.250000  1
  Rh  Rh11  1  0.000000  0.183069  0.750000  1
