# generated using pymatgen
data_Dy13Lu3(InPt)4
_symmetry_space_group_name_H-M   'P 1'
_cell_length_a   9.67145016
_cell_length_b   9.67145058
_cell_length_c   9.69442660
_cell_angle_alpha   60.07836874
_cell_angle_beta   60.07836632
_cell_angle_gamma   59.99999723
_symmetry_Int_Tables_number   1
_chemical_formula_structural   Dy13Lu3(InPt)4
_chemical_formula_sum   'Dy13 Lu3 In4 Pt4'
_cell_volume   641.95376918
_cell_formula_units_Z   1
loop_
 _symmetry_equiv_pos_site_id
 _symmetry_equiv_pos_as_xyz
  1  'x, y, z'
loop_
 _atom_site_type_symbol
 _atom_site_label
 _atom_site_symmetry_multiplicity
 _atom_site_fract_x
 _atom_site_fract_y
 _atom_site_fract_z
 _atom_site_occupancy
  Dy  Dy0  1  0.938316  0.938316  0.561056  1
  Dy  Dy1  1  0.149445  0.149445  0.551666  1
  Dy  Dy2  1  0.562311  0.938316  0.561056  1
  Dy  Dy3  1  0.148613  0.148613  0.150046  1
  Dy  Dy4  1  0.310992  0.310992  0.688337  1
  Dy  Dy5  1  0.938316  0.562311  0.561056  1
  Dy  Dy6  1  0.561660  0.561660  0.939542  1
  Dy  Dy7  1  0.561660  0.937139  0.939542  1
  Dy  Dy8  1  0.937139  0.561660  0.939542  1
  Dy  Dy9  1  0.148613  0.552729  0.150046  1
  Dy  Dy10  1  0.310992  0.689680  0.688337  1
  Dy  Dy11  1  0.689680  0.310992  0.688337  1
  Dy  Dy12  1  0.552729  0.148613  0.150046  1
  Lu  Lu13  1  0.688985  0.311610  0.310419  1
  Lu  Lu14  1  0.688985  0.688985  0.310419  1
  Lu  Lu15  1  0.311610  0.688985  0.310419  1
  In  In16  1  0.916861  0.916861  0.249418  1
  In  In17  1  0.249054  0.916795  0.917355  1
  In  In18  1  0.916795  0.249054  0.917355  1
  In  In19  1  0.916795  0.916795  0.917355  1
  Pt  Pt20  1  0.359093  0.359093  0.356377  1
  Pt  Pt21  1  0.925438  0.359093  0.356377  1
  Pt  Pt22  1  0.356827  0.356827  0.929520  1
  Pt  Pt23  1  0.359093  0.925438  0.356377  1
