# generated using pymatgen
data_CePa3(GeIr)4
_symmetry_space_group_name_H-M   'P 1'
_cell_length_a   4.33370000
_cell_length_b   6.99629477
_cell_length_c   7.70124849
_cell_angle_alpha   90.27159074
_cell_angle_beta   90.00000000
_cell_angle_gamma   90.00000000
_symmetry_Int_Tables_number   1
_chemical_formula_structural   CePa3(GeIr)4
_chemical_formula_sum   'Ce1 Pa3 Ge4 Ir4'
_cell_volume   233.49801937
_cell_formula_units_Z   1
loop_
 _symmetry_equiv_pos_site_id
 _symmetry_equiv_pos_as_xyz
  1  'x, y, z'
loop_
 _atom_site_type_symbol
 _atom_site_label
 _atom_site_symmetry_multiplicity
 _atom_site_fract_x
 _atom_site_fract_y
 _atom_site_fract_z
 _atom_site_occupancy
  Ce  Ce0  1  0.250000  0.490488  0.202826  1
  Pa  Pa1  1  0.750000  0.508408  0.797669  1
  Pa  Pa2  1  0.250000  0.991074  0.299112  1
  Pa  Pa3  1  0.750000  0.008147  0.701904  1
  Ge  Ge4  1  0.250000  0.818053  0.917844  1
  Ge  Ge5  1  0.250000  0.323385  0.583771  1
  Ge  Ge6  1  0.750000  0.181585  0.084005  1
  Ge  Ge7  1  0.750000  0.681485  0.413347  1
  Ir  Ir8  1  0.250000  0.221717  0.906103  1
  Ir  Ir9  1  0.250000  0.730574  0.590092  1
  Ir  Ir10  1  0.750000  0.261886  0.417069  1
  Ir  Ir11  1  0.750000  0.783199  0.086258  1
