# generated using pymatgen
data_Ca3Nd(Ni5C3)2
_symmetry_space_group_name_H-M   'P 1'
_cell_length_a   8.23519322
_cell_length_b   8.23519311
_cell_length_c   3.90404000
_cell_angle_alpha   90.00000000
_cell_angle_beta   90.00000000
_cell_angle_gamma   90.04290647
_symmetry_Int_Tables_number   1
_chemical_formula_structural   Ca3Nd(Ni5C3)2
_chemical_formula_sum   'Ca3 Nd1 Ni10 C6'
_cell_volume   264.76569728
_cell_formula_units_Z   1
loop_
 _symmetry_equiv_pos_site_id
 _symmetry_equiv_pos_as_xyz
  1  'x, y, z'
loop_
 _atom_site_type_symbol
 _atom_site_label
 _atom_site_symmetry_multiplicity
 _atom_site_fract_x
 _atom_site_fract_y
 _atom_site_fract_z
 _atom_site_occupancy
  Ca  Ca0  1  0.344042  0.154283  0.000000  1
  Ca  Ca1  1  0.654283  0.844042  0.000000  1
  Ca  Ca2  1  0.157760  0.657760  0.000000  1
  Nd  Nd3  1  0.842484  0.342484  0.000000  1
  Ni  Ni4  1  0.921490  0.787488  0.500000  1
  Ni  Ni5  1  0.711856  0.576423  0.500000  1
  Ni  Ni6  1  0.422645  0.713606  0.500000  1
  Ni  Ni7  1  0.287488  0.421490  0.500000  1
  Ni  Ni8  1  0.577544  0.288032  0.500000  1
  Ni  Ni9  1  0.788032  0.077544  0.500000  1
  Ni  Ni10  1  0.076423  0.211856  0.500000  1
  Ni  Ni11  1  0.213606  0.922645  0.500000  1
  Ni  Ni12  1  0.499439  0.498920  0.000000  1
  Ni  Ni13  1  0.998920  0.999439  0.000000  1
  C  C14  1  0.443061  0.943061  0.500000  1
  C  C15  1  0.059493  0.443568  0.500000  1
  C  C16  1  0.943568  0.559493  0.500000  1
  C  C17  1  0.498389  0.501075  0.500000  1
  C  C18  1  0.558401  0.058401  0.500000  1
  C  C19  1  0.001075  0.998389  0.500000  1
