# generated using pymatgen
data_La4Y4Te3WO24
_symmetry_space_group_name_H-M   'P 1'
_cell_length_a   5.47043165
_cell_length_b   9.37217544
_cell_length_c   10.25009301
_cell_angle_alpha   89.96549162
_cell_angle_beta   89.93553114
_cell_angle_gamma   90.15559949
_symmetry_Int_Tables_number   1
_chemical_formula_structural   La4Y4Te3WO24
_chemical_formula_sum   'La4 Y4 Te3 W1 O24'
_cell_volume   525.51831487
_cell_formula_units_Z   1
loop_
 _symmetry_equiv_pos_site_id
 _symmetry_equiv_pos_as_xyz
  1  'x, y, z'
loop_
 _atom_site_type_symbol
 _atom_site_label
 _atom_site_symmetry_multiplicity
 _atom_site_fract_x
 _atom_site_fract_y
 _atom_site_fract_z
 _atom_site_occupancy
  La  La0  1  0.529696  0.218816  0.357814  1
  La  La1  1  0.033049  0.277835  0.641496  1
  La  La2  1  0.469497  0.719891  0.143382  1
  La  La3  1  0.969621  0.779643  0.856707  1
  Y  Y4  1  0.518184  0.104515  0.955223  1
  Y  Y5  1  0.018853  0.396287  0.044595  1
  Y  Y6  1  0.482072  0.602589  0.543563  1
  Y  Y7  1  0.979217  0.897930  0.456596  1
  Te  Te8  1  0.967296  0.510281  0.358248  1
  Te  Te9  1  0.533950  0.489642  0.858111  1
  Te  Te10  1  0.033091  0.009611  0.141693  1
  W  W11  1  0.466020  0.990700  0.642833  1
  O  O12  1  0.304868  0.143186  0.167080  1
  O  O13  1  0.804259  0.356267  0.831433  1
  O  O14  1  0.694497  0.641527  0.331343  1
  O  O15  1  0.193389  0.858591  0.665917  1
  O  O16  1  0.724277  0.106816  0.560124  1
  O  O17  1  0.229930  0.394968  0.436414  1
  O  O18  1  0.272336  0.606944  0.935262  1
  O  O19  1  0.773850  0.891506  0.063492  1
  O  O20  1  0.672162  0.634186  0.744383  1
  O  O21  1  0.175632  0.868157  0.256985  1
  O  O22  1  0.320260  0.130926  0.758211  1
  O  O23  1  0.827633  0.365809  0.244748  1
  O  O24  1  0.666505  0.953755  0.792689  1
  O  O25  1  0.163549  0.550956  0.205638  1
  O  O26  1  0.337647  0.447251  0.706028  1
  O  O27  1  0.832163  0.048509  0.292793  1
  O  O28  1  0.255600  0.078017  0.504337  1
  O  O29  1  0.760967  0.426022  0.497750  1
  O  O30  1  0.741999  0.574237  0.996345  1
  O  O31  1  0.241421  0.926007  0.002657  1
  O  O32  1  0.107098  0.662260  0.465362  1
  O  O33  1  0.609873  0.835875  0.539037  1
  O  O34  1  0.893801  0.160739  0.033600  1
  O  O35  1  0.395736  0.339747  0.968110  1
