# generated using pymatgen
data_Lu12Fe3SbPt
_symmetry_space_group_name_H-M   'P 1'
_cell_length_a   8.06525842
_cell_length_b   8.06525694
_cell_length_c   8.06525800
_cell_angle_alpha   107.16565797
_cell_angle_beta   110.75056386
_cell_angle_gamma   110.52183495
_symmetry_Int_Tables_number   1
_chemical_formula_structural   Lu12Fe3SbPt
_chemical_formula_sum   'Lu12 Fe3 Sb1 Pt1'
_cell_volume   403.37222190
_cell_formula_units_Z   1
loop_
 _symmetry_equiv_pos_site_id
 _symmetry_equiv_pos_as_xyz
  1  'x, y, z'
loop_
 _atom_site_type_symbol
 _atom_site_label
 _atom_site_symmetry_multiplicity
 _atom_site_fract_x
 _atom_site_fract_y
 _atom_site_fract_z
 _atom_site_occupancy
  Lu  Lu0  1  0.313531  0.302894  0.616474  1
  Lu  Lu1  1  0.686469  0.697106  0.383526  1
  Lu  Lu2  1  0.686422  0.302894  0.989362  1
  Lu  Lu3  1  0.313578  0.697106  0.010638  1
  Lu  Lu4  1  0.190145  0.409791  0.219645  1
  Lu  Lu5  1  0.809855  0.590209  0.780355  1
  Lu  Lu6  1  0.190131  0.970453  0.780322  1
  Lu  Lu7  1  0.925781  0.192098  0.733701  1
  Lu  Lu8  1  0.809869  0.029547  0.219678  1
  Lu  Lu9  1  0.074219  0.807902  0.266299  1
  Lu  Lu10  1  0.458396  0.192098  0.266315  1
  Lu  Lu11  1  0.541604  0.807902  0.733685  1
  Fe  Fe12  1  0.382123  0.382114  0.999991  1
  Fe  Fe13  1  0.617877  0.617886  0.000009  1
  Fe  Fe14  1  0.000000  0.000000  0.000000  1
  Sb  Sb15  1  0.000000  0.500000  0.500000  1
  Pt  Pt16  1  0.500000  0.000000  0.500000  1
