# generated using pymatgen
data_LiGd6IrI12
_symmetry_space_group_name_H-M   'P 1'
_cell_length_a   9.80182559
_cell_length_b   9.80182487
_cell_length_c   9.80182400
_cell_angle_alpha   107.03931215
_cell_angle_beta   107.03931087
_cell_angle_gamma   107.03931730
_symmetry_Int_Tables_number   1
_chemical_formula_structural   LiGd6IrI12
_chemical_formula_sum   'Li1 Gd6 Ir1 I12'
_cell_volume   783.42905656
_cell_formula_units_Z   1
loop_
 _symmetry_equiv_pos_site_id
 _symmetry_equiv_pos_as_xyz
  1  'x, y, z'
loop_
 _atom_site_type_symbol
 _atom_site_label
 _atom_site_symmetry_multiplicity
 _atom_site_fract_x
 _atom_site_fract_y
 _atom_site_fract_z
 _atom_site_occupancy
  Li  Li0  1  0.500000  0.500000  0.500000  1
  Gd  Gd1  1  0.103696  0.032608  0.310073  1
  Gd  Gd2  1  0.310073  0.103696  0.032608  1
  Gd  Gd3  1  0.032608  0.310073  0.103696  1
  Gd  Gd4  1  0.896304  0.967392  0.689927  1
  Gd  Gd5  1  0.689927  0.896304  0.967392  1
  Gd  Gd6  1  0.967392  0.689927  0.896304  1
  Ir  Ir7  1  0.000000  0.000000  0.000000  1
  I  I8  1  0.074551  0.682702  0.227198  1
  I  I9  1  0.227198  0.074551  0.682702  1
  I  I10  1  0.682702  0.227198  0.074551  1
  I  I11  1  0.925449  0.317298  0.772802  1
  I  I12  1  0.772802  0.925449  0.317298  1
  I  I13  1  0.317298  0.772802  0.925449  1
  I  I14  1  0.460131  0.160863  0.383228  1
  I  I15  1  0.383228  0.460131  0.160863  1
  I  I16  1  0.160863  0.383228  0.460131  1
  I  I17  1  0.539869  0.839137  0.616772  1
  I  I18  1  0.616772  0.539869  0.839137  1
  I  I19  1  0.839137  0.616772  0.539869  1
