# generated using pymatgen
data_Dy4Ni2B16PtRh
_symmetry_space_group_name_H-M   'P 1'
_cell_length_a   6.93176217
_cell_length_b   6.93176287
_cell_length_c   6.93176299
_cell_angle_alpha   111.30380872
_cell_angle_beta   113.38136681
_cell_angle_gamma   103.87694462
_symmetry_Int_Tables_number   1
_chemical_formula_structural   Dy4Ni2B16PtRh
_chemical_formula_sum   'Dy4 Ni2 B16 Pt1 Rh1'
_cell_volume   254.49257402
_cell_formula_units_Z   1
loop_
 _symmetry_equiv_pos_site_id
 _symmetry_equiv_pos_as_xyz
  1  'x, y, z'
loop_
 _atom_site_type_symbol
 _atom_site_label
 _atom_site_symmetry_multiplicity
 _atom_site_fract_x
 _atom_site_fract_y
 _atom_site_fract_z
 _atom_site_occupancy
  Dy  Dy0  1  0.796422  0.794122  0.002300  1
  Dy  Dy1  1  0.208178  0.205878  0.002300  1
  Dy  Dy2  1  0.747883  0.250044  0.497838  1
  Dy  Dy3  1  0.247794  0.749956  0.497838  1
  Ni  Ni4  1  0.500505  0.744582  0.245087  1
  Ni  Ni5  1  0.500505  0.255418  0.755923  1
  B  B6  1  0.272655  0.107875  0.380529  1
  B  B7  1  0.727196  0.891428  0.618623  1
  B  B8  1  0.272655  0.892125  0.164780  1
  B  B9  1  0.727196  0.108572  0.835768  1
  B  B10  1  0.109917  0.733391  0.843309  1
  B  B11  1  0.888802  0.269295  0.158096  1
  B  B12  1  0.109917  0.266609  0.376527  1
  B  B13  1  0.888802  0.730705  0.619507  1
  B  B14  1  0.113691  0.106296  0.525372  1
  B  B15  1  0.581254  0.586233  0.472622  1
  B  B16  1  0.113691  0.588317  0.007395  1
  B  B17  1  0.581254  0.108633  0.995020  1
  B  B18  1  0.886387  0.891367  0.472622  1
  B  B19  1  0.419077  0.411683  0.525372  1
  B  B20  1  0.886387  0.413767  0.995020  1
  B  B21  1  0.419077  0.893704  0.007395  1
  Pt  Pt22  1  0.276232  0.500000  0.776232  1
  Rh  Rh23  1  0.724524  0.500000  0.224524  1
