# generated using pymatgen
data_Ce6Al24Ru7Au
_symmetry_space_group_name_H-M   'P 1'
_cell_length_a   8.91745156
_cell_length_b   8.91745078
_cell_length_c   9.54408147
_cell_angle_alpha   89.96877484
_cell_angle_beta   90.03122633
_cell_angle_gamma   119.78826782
_symmetry_Int_Tables_number   1
_chemical_formula_structural   Ce6Al24Ru7Au
_chemical_formula_sum   'Ce6 Al24 Ru7 Au1'
_cell_volume   658.67139815
_cell_formula_units_Z   1
loop_
 _symmetry_equiv_pos_site_id
 _symmetry_equiv_pos_as_xyz
  1  'x, y, z'
loop_
 _atom_site_type_symbol
 _atom_site_label
 _atom_site_symmetry_multiplicity
 _atom_site_fract_x
 _atom_site_fract_y
 _atom_site_fract_z
 _atom_site_occupancy
  Ce  Ce0  1  0.810081  0.614221  0.748364  1
  Ce  Ce1  1  0.194002  0.805998  0.255005  1
  Ce  Ce2  1  0.614221  0.810081  0.251636  1
  Ce  Ce3  1  0.385779  0.189919  0.748364  1
  Ce  Ce4  1  0.805998  0.194002  0.744995  1
  Ce  Ce5  1  0.189919  0.385779  0.251636  1
  Al  Al6  1  0.333642  0.666358  0.482869  1
  Al  Al7  1  0.671468  0.328532  0.976644  1
  Al  Al8  1  0.666358  0.333642  0.517131  1
  Al  Al9  1  0.328532  0.671468  0.023356  1
  Al  Al10  1  0.162375  0.324000  0.576771  1
  Al  Al11  1  0.676000  0.837625  0.576771  1
  Al  Al12  1  0.162783  0.837217  0.578620  1
  Al  Al13  1  0.837295  0.162705  0.078207  1
  Al  Al14  1  0.837217  0.162783  0.421380  1
  Al  Al15  1  0.848996  0.679111  0.078818  1
  Al  Al16  1  0.320889  0.151004  0.078818  1
  Al  Al17  1  0.679111  0.848996  0.921182  1
  Al  Al18  1  0.151004  0.320889  0.921182  1
  Al  Al19  1  0.837625  0.676000  0.423229  1
  Al  Al20  1  0.999190  0.000810  0.250386  1
  Al  Al21  1  0.000810  0.999190  0.749614  1
  Al  Al22  1  0.561953  0.124792  0.249258  1
  Al  Al23  1  0.436179  0.563821  0.743284  1
  Al  Al24  1  0.124792  0.561953  0.750742  1
  Al  Al25  1  0.875208  0.438047  0.249258  1
  Al  Al26  1  0.563821  0.436179  0.256716  1
  Al  Al27  1  0.438047  0.875208  0.750742  1
  Al  Al28  1  0.162705  0.837295  0.921793  1
  Al  Al29  1  0.324000  0.162375  0.423229  1
  Ru  Ru30  1  0.000000  0.000000  0.500000  1
  Ru  Ru31  1  0.000000  0.000000  0.000000  1
  Ru  Ru32  1  0.500000  0.000000  0.500000  1
  Ru  Ru33  1  0.000000  0.500000  0.000000  1
  Ru  Ru34  1  0.000000  0.500000  0.500000  1
  Ru  Ru35  1  0.500000  0.500000  0.500000  1
  Ru  Ru36  1  0.500000  0.000000  0.000000  1
  Au  Au37  1  0.500000  0.500000  0.000000  1
