# generated using pymatgen
data_Lu5Sc3P12(IrRh3)4
_symmetry_space_group_name_H-M   'P 1'
_cell_length_a   12.83146600
_cell_length_b   12.83146641
_cell_length_c   3.90520900
_cell_angle_alpha   90.00000000
_cell_angle_beta   90.00000000
_cell_angle_gamma   119.99999894
_symmetry_Int_Tables_number   1
_chemical_formula_structural   Lu5Sc3P12(IrRh3)4
_chemical_formula_sum   'Lu5 Sc3 P12 Ir4 Rh12'
_cell_volume   556.83623309
_cell_formula_units_Z   1
loop_
 _symmetry_equiv_pos_site_id
 _symmetry_equiv_pos_as_xyz
  1  'x, y, z'
loop_
 _atom_site_type_symbol
 _atom_site_label
 _atom_site_symmetry_multiplicity
 _atom_site_fract_x
 _atom_site_fract_y
 _atom_site_fract_z
 _atom_site_occupancy
  Lu  Lu0  1  0.333333  0.666667  0.500000  1
  Lu  Lu1  1  0.666667  0.333333  0.500000  1
  Lu  Lu2  1  0.000000  0.810849  0.000000  1
  Lu  Lu3  1  0.189151  0.189151  0.000000  1
  Lu  Lu4  1  0.810849  0.000000  0.000000  1
  Sc  Sc5  1  0.000000  0.444299  0.500000  1
  Sc  Sc6  1  0.555701  0.555701  0.500000  1
  Sc  Sc7  1  0.444299  0.000000  0.500000  1
  P  P8  1  0.000000  0.646389  0.500000  1
  P  P9  1  0.353611  0.353611  0.500000  1
  P  P10  1  0.646389  0.000000  0.500000  1
  P  P11  1  0.516168  0.686965  0.000000  1
  P  P12  1  0.313035  0.829202  0.000000  1
  P  P13  1  0.170798  0.483832  0.000000  1
  P  P14  1  0.483832  0.170798  0.000000  1
  P  P15  1  0.686965  0.516168  0.000000  1
  P  P16  1  0.829202  0.313035  0.000000  1
  P  P17  1  0.000000  0.176080  0.500000  1
  P  P18  1  0.823920  0.823920  0.500000  1
  P  P19  1  0.176080  0.000000  0.500000  1
  Ir  Ir20  1  0.000000  0.275841  0.000000  1
  Ir  Ir21  1  0.724159  0.724159  0.000000  1
  Ir  Ir22  1  0.275841  0.000000  0.000000  1
  Ir  Ir23  1  0.000000  0.000000  0.500000  1
  Rh  Rh24  1  0.512208  0.869460  0.000000  1
  Rh  Rh25  1  0.130540  0.642750  0.000000  1
  Rh  Rh26  1  0.357250  0.487792  0.000000  1
  Rh  Rh27  1  0.487792  0.357250  0.000000  1
  Rh  Rh28  1  0.869460  0.512208  0.000000  1
  Rh  Rh29  1  0.642750  0.130540  0.000000  1
  Rh  Rh30  1  0.626163  0.805465  0.500000  1
  Rh  Rh31  1  0.194535  0.820698  0.500000  1
  Rh  Rh32  1  0.179302  0.373837  0.500000  1
  Rh  Rh33  1  0.373837  0.179302  0.500000  1
  Rh  Rh34  1  0.805465  0.626163  0.500000  1
  Rh  Rh35  1  0.820698  0.194535  0.500000  1
