# generated using pymatgen
data_Lu2Ti2SiAs
_symmetry_space_group_name_H-M   'P 1'
_cell_length_a   3.97291800
_cell_length_b   3.97291800
_cell_length_c   7.40766200
_cell_angle_alpha   90.00000000
_cell_angle_beta   90.00000000
_cell_angle_gamma   90.00000000
_symmetry_Int_Tables_number   1
_chemical_formula_structural   Lu2Ti2SiAs
_chemical_formula_sum   'Lu2 Ti2 Si1 As1'
_cell_volume   116.92311062
_cell_formula_units_Z   1
loop_
 _symmetry_equiv_pos_site_id
 _symmetry_equiv_pos_as_xyz
  1  'x, y, z'
loop_
 _atom_site_type_symbol
 _atom_site_label
 _atom_site_symmetry_multiplicity
 _atom_site_fract_x
 _atom_site_fract_y
 _atom_site_fract_z
 _atom_site_occupancy
  Lu  Lu0  1  0.000000  0.500000  0.343217  1
  Lu  Lu1  1  0.500000  0.000000  0.649793  1
  Ti  Ti2  1  0.000000  0.000000  0.004904  1
  Ti  Ti3  1  0.500000  0.500000  0.004904  1
  Si  Si4  1  0.500000  0.000000  0.248121  1
  As  As5  1  0.000000  0.500000  0.749060  1
