# generated using pymatgen
data_Ta12Al8Re3NiC4
_symmetry_space_group_name_H-M   'P 1'
_cell_length_a   8.33971788
_cell_length_b   8.33971868
_cell_length_c   8.29571003
_cell_angle_alpha   59.82436817
_cell_angle_beta   59.82436912
_cell_angle_gamma   59.99999911
_symmetry_Int_Tables_number   1
_chemical_formula_structural   Ta12Al8Re3NiC4
_chemical_formula_sum   'Ta12 Al8 Re3 Ni1 C4'
_cell_volume   406.89588742
_cell_formula_units_Z   1
loop_
 _symmetry_equiv_pos_site_id
 _symmetry_equiv_pos_as_xyz
  1  'x, y, z'
loop_
 _atom_site_type_symbol
 _atom_site_label
 _atom_site_symmetry_multiplicity
 _atom_site_fract_x
 _atom_site_fract_y
 _atom_site_fract_z
 _atom_site_occupancy
  Ta  Ta0  1  0.567288  0.939342  0.554028  1
  Ta  Ta1  1  0.310658  0.682712  0.695972  1
  Ta  Ta2  1  0.693589  0.306686  0.306134  1
  Ta  Ta3  1  0.306686  0.693589  0.306134  1
  Ta  Ta4  1  0.693589  0.693589  0.306134  1
  Ta  Ta5  1  0.310658  0.310658  0.695972  1
  Ta  Ta6  1  0.556411  0.556411  0.943866  1
  Ta  Ta7  1  0.939342  0.567288  0.554028  1
  Ta  Ta8  1  0.556411  0.943314  0.943866  1
  Ta  Ta9  1  0.939342  0.939342  0.554028  1
  Ta  Ta10  1  0.682712  0.310658  0.695972  1
  Ta  Ta11  1  0.943314  0.556411  0.943866  1
  Al  Al12  1  0.921048  0.921048  0.905034  1
  Al  Al13  1  0.997130  0.328952  0.344966  1
  Al  Al14  1  0.328952  0.997130  0.344966  1
  Al  Al15  1  0.332285  0.332285  0.003144  1
  Al  Al16  1  0.921048  0.252870  0.905034  1
  Al  Al17  1  0.917715  0.917715  0.246856  1
  Al  Al18  1  0.252870  0.921048  0.905034  1
  Al  Al19  1  0.328952  0.328952  0.344966  1
  Re  Re20  1  0.125000  0.125000  0.125000  1
  Re  Re21  1  0.625000  0.125000  0.125000  1
  Re  Re22  1  0.125000  0.625000  0.125000  1
  Ni  Ni23  1  0.125000  0.125000  0.625000  1
  C  C24  1  0.625000  0.625000  0.625000  1
  C  C25  1  0.125000  0.625000  0.625000  1
  C  C26  1  0.625000  0.125000  0.625000  1
  C  C27  1  0.625000  0.625000  0.125000  1
