# generated using pymatgen
data_Ho5Zr3(P3Ir4)4
_symmetry_space_group_name_H-M   'P 1'
_cell_length_a   12.88765300
_cell_length_b   12.88765198
_cell_length_c   3.97692400
_cell_angle_alpha   90.00000000
_cell_angle_beta   90.00000000
_cell_angle_gamma   120.00000006
_symmetry_Int_Tables_number   1
_chemical_formula_structural   Ho5Zr3(P3Ir4)4
_chemical_formula_sum   'Ho5 Zr3 P12 Ir16'
_cell_volume   572.03889218
_cell_formula_units_Z   1
loop_
 _symmetry_equiv_pos_site_id
 _symmetry_equiv_pos_as_xyz
  1  'x, y, z'
loop_
 _atom_site_type_symbol
 _atom_site_label
 _atom_site_symmetry_multiplicity
 _atom_site_fract_x
 _atom_site_fract_y
 _atom_site_fract_z
 _atom_site_occupancy
  Ho  Ho0  1  0.333333  0.666667  0.000000  1
  Ho  Ho1  1  0.666667  0.333333  0.000000  1
  Ho  Ho2  1  0.815667  0.000000  0.500000  1
  Ho  Ho3  1  0.000000  0.815667  0.500000  1
  Ho  Ho4  1  0.184333  0.184333  0.500000  1
  Zr  Zr5  1  0.449241  0.000000  0.000000  1
  Zr  Zr6  1  0.000000  0.449241  0.000000  1
  Zr  Zr7  1  0.550759  0.550759  0.000000  1
  P  P8  1  0.175635  0.000000  0.000000  1
  P  P9  1  0.000000  0.175635  0.000000  1
  P  P10  1  0.824365  0.824365  0.000000  1
  P  P11  1  0.169561  0.482725  0.500000  1
  P  P12  1  0.517275  0.686835  0.500000  1
  P  P13  1  0.313165  0.830439  0.500000  1
  P  P14  1  0.686835  0.517275  0.500000  1
  P  P15  1  0.830439  0.313165  0.500000  1
  P  P16  1  0.482725  0.169561  0.500000  1
  P  P17  1  0.649722  0.000000  0.000000  1
  P  P18  1  0.000000  0.649722  0.000000  1
  P  P19  1  0.350278  0.350278  0.000000  1
  Ir  Ir20  1  0.356619  0.493085  0.500000  1
  Ir  Ir21  1  0.506915  0.863534  0.500000  1
  Ir  Ir22  1  0.136466  0.643381  0.500000  1
  Ir  Ir23  1  0.863534  0.506915  0.500000  1
  Ir  Ir24  1  0.643381  0.136466  0.500000  1
  Ir  Ir25  1  0.493085  0.356619  0.500000  1
  Ir  Ir26  1  0.178287  0.370513  0.000000  1
  Ir  Ir27  1  0.629487  0.807775  0.000000  1
  Ir  Ir28  1  0.192225  0.821713  0.000000  1
  Ir  Ir29  1  0.807775  0.629487  0.000000  1
  Ir  Ir30  1  0.821713  0.192225  0.000000  1
  Ir  Ir31  1  0.370513  0.178287  0.000000  1
  Ir  Ir32  1  0.277799  0.000000  0.500000  1
  Ir  Ir33  1  0.000000  0.277799  0.500000  1
  Ir  Ir34  1  0.722201  0.722201  0.500000  1
  Ir  Ir35  1  0.000000  0.000000  0.000000  1
