# generated using pymatgen
data_Hf4AlP
_symmetry_space_group_name_H-M   'P 1'
_cell_length_a   5.34732641
_cell_length_b   5.34732626
_cell_length_c   5.34732617
_cell_angle_alpha   103.68156923
_cell_angle_beta   103.68156663
_cell_angle_gamma   121.79951868
_symmetry_Int_Tables_number   1
_chemical_formula_structural   Hf4AlP
_chemical_formula_sum   'Hf4 Al1 P1'
_cell_volume   113.54648078
_cell_formula_units_Z   1
loop_
 _symmetry_equiv_pos_site_id
 _symmetry_equiv_pos_as_xyz
  1  'x, y, z'
loop_
 _atom_site_type_symbol
 _atom_site_label
 _atom_site_symmetry_multiplicity
 _atom_site_fract_x
 _atom_site_fract_y
 _atom_site_fract_z
 _atom_site_occupancy
  Hf  Hf0  1  0.655035  0.844965  0.500000  1
  Hf  Hf1  1  0.844965  0.344965  0.189930  1
  Hf  Hf2  1  0.344965  0.155035  0.500000  1
  Hf  Hf3  1  0.155035  0.655035  0.810070  1
  Al  Al4  1  0.250000  0.250000  0.000000  1
  P  P5  1  0.750000  0.750000  0.000000  1
