# generated using pymatgen
data_Tb4Ga18Co4NiPd
_symmetry_space_group_name_H-M   'P 1'
_cell_length_a   7.43925571
_cell_length_b   7.43925531
_cell_length_c   9.43496633
_cell_angle_alpha   90.17540786
_cell_angle_beta   90.17540860
_cell_angle_gamma   119.72384291
_symmetry_Int_Tables_number   1
_chemical_formula_structural   Tb4Ga18Co4NiPd
_chemical_formula_sum   'Tb4 Ga18 Co4 Ni1 Pd1'
_cell_volume   453.44402065
_cell_formula_units_Z   1
loop_
 _symmetry_equiv_pos_site_id
 _symmetry_equiv_pos_as_xyz
  1  'x, y, z'
loop_
 _atom_site_type_symbol
 _atom_site_label
 _atom_site_symmetry_multiplicity
 _atom_site_fract_x
 _atom_site_fract_y
 _atom_site_fract_z
 _atom_site_occupancy
  Tb  Tb0  1  0.328218  0.003152  0.250885  1
  Tb  Tb1  1  0.996848  0.671782  0.749115  1
  Tb  Tb2  1  0.671782  0.996848  0.749115  1
  Tb  Tb3  1  0.003152  0.328218  0.250885  1
  Ga  Ga4  1  0.343578  0.999871  0.924880  1
  Ga  Ga5  1  0.000129  0.656422  0.075120  1
  Ga  Ga6  1  0.337893  0.998449  0.572235  1
  Ga  Ga7  1  0.001551  0.662107  0.427765  1
  Ga  Ga8  1  0.656422  0.000129  0.075120  1
  Ga  Ga9  1  0.999871  0.343578  0.924880  1
  Ga  Ga10  1  0.662107  0.001551  0.427765  1
  Ga  Ga11  1  0.998449  0.337893  0.572235  1
  Ga  Ga12  1  0.656568  0.656568  0.937268  1
  Ga  Ga13  1  0.343432  0.343432  0.062732  1
  Ga  Ga14  1  0.664198  0.664198  0.557690  1
  Ga  Ga15  1  0.335802  0.335802  0.442310  1
  Ga  Ga16  1  0.131153  0.131153  0.743804  1
  Ga  Ga17  1  0.868847  0.868847  0.256196  1
  Ga  Ga18  1  0.447793  0.664563  0.251511  1
  Ga  Ga19  1  0.335437  0.552207  0.748489  1
  Ga  Ga20  1  0.552207  0.335437  0.748489  1
  Ga  Ga21  1  0.664563  0.447793  0.251511  1
  Co  Co22  1  0.329301  0.670699  0.000000  1
  Co  Co23  1  0.329273  0.670727  0.500000  1
  Co  Co24  1  0.670699  0.329301  0.000000  1
  Co  Co25  1  0.670727  0.329273  0.500000  1
  Ni  Ni26  1  0.000000  0.000000  0.500000  1
  Pd  Pd27  1  0.000000  0.000000  0.000000  1
