# generated using pymatgen
data_Dy3ErGa18(RuPt2)2
_symmetry_space_group_name_H-M   'P 1'
_cell_length_a   7.64106771
_cell_length_b   7.64084656
_cell_length_c   9.50850511
_cell_angle_alpha   90.01702228
_cell_angle_beta   89.98975382
_cell_angle_gamma   119.80724360
_symmetry_Int_Tables_number   1
_chemical_formula_structural   Dy3ErGa18(RuPt2)2
_chemical_formula_sum   'Dy3 Er1 Ga18 Ru2 Pt4'
_cell_volume   481.70223168
_cell_formula_units_Z   1
loop_
 _symmetry_equiv_pos_site_id
 _symmetry_equiv_pos_as_xyz
  1  'x, y, z'
loop_
 _atom_site_type_symbol
 _atom_site_label
 _atom_site_symmetry_multiplicity
 _atom_site_fract_x
 _atom_site_fract_y
 _atom_site_fract_z
 _atom_site_occupancy
  Dy  Dy0  1  0.673387  0.997717  0.250343  1
  Dy  Dy1  1  0.002184  0.326468  0.749655  1
  Dy  Dy2  1  0.997722  0.673432  0.249785  1
  Er  Er3  1  0.326377  0.002211  0.750147  1
  Ga  Ga4  1  0.864667  0.864465  0.750045  1
  Ga  Ga5  1  0.135613  0.135571  0.249962  1
  Ga  Ga6  1  0.662004  0.667902  0.432086  1
  Ga  Ga7  1  0.338171  0.331965  0.931942  1
  Ga  Ga8  1  0.667753  0.661818  0.067900  1
  Ga  Ga9  1  0.332204  0.337674  0.568065  1
  Ga  Ga10  1  0.450275  0.661326  0.746671  1
  Ga  Ga11  1  0.549662  0.338819  0.246686  1
  Ga  Ga12  1  0.660951  0.450023  0.753361  1
  Ga  Ga13  1  0.338828  0.549662  0.253304  1
  Ga  Ga14  1  0.993595  0.335455  0.082119  1
  Ga  Ga15  1  0.006732  0.664925  0.582197  1
  Ga  Ga16  1  0.335535  0.993738  0.418151  1
  Ga  Ga17  1  0.664140  0.006375  0.917835  1
  Ga  Ga18  1  0.995229  0.658685  0.918268  1
  Ga  Ga19  1  0.005106  0.341827  0.418351  1
  Ga  Ga20  1  0.657895  0.994858  0.581746  1
  Ga  Ga21  1  0.341749  0.005020  0.081434  1
  Ru  Ru22  1  0.328446  0.671658  0.500135  1
  Ru  Ru23  1  0.671544  0.328315  0.999847  1
  Pt  Pt24  1  0.000418  0.999667  0.500136  1
  Pt  Pt25  1  0.999796  0.000366  0.999848  1
  Pt  Pt26  1  0.671466  0.328503  0.500091  1
  Pt  Pt27  1  0.328548  0.671553  0.999889  1
