# generated using pymatgen
data_Pr3Gd(SeO3)6
_symmetry_space_group_name_H-M   'P 1'
_cell_length_a   7.35671170
_cell_length_b   8.39302901
_cell_length_c   9.35320133
_cell_angle_alpha   70.88184327
_cell_angle_beta   70.10215838
_cell_angle_gamma   66.17144934
_symmetry_Int_Tables_number   1
_chemical_formula_structural   Pr3Gd(SeO3)6
_chemical_formula_sum   'Pr3 Gd1 Se6 O18'
_cell_volume   484.47502826
_cell_formula_units_Z   1
loop_
 _symmetry_equiv_pos_site_id
 _symmetry_equiv_pos_as_xyz
  1  'x, y, z'
loop_
 _atom_site_type_symbol
 _atom_site_label
 _atom_site_symmetry_multiplicity
 _atom_site_fract_x
 _atom_site_fract_y
 _atom_site_fract_z
 _atom_site_occupancy
  Pr  Pr0  1  0.259045  0.266694  0.196979  1
  Pr  Pr1  1  0.335431  0.729060  0.589352  1
  Pr  Pr2  1  0.667640  0.265718  0.412159  1
  Gd  Gd3  1  0.739915  0.737167  0.802952  1
  Se  Se4  1  0.111340  0.241524  0.583117  1
  Se  Se5  1  0.427614  0.771980  0.198191  1
  Se  Se6  1  0.150510  0.756608  0.960752  1
  Se  Se7  1  0.847647  0.254357  0.032912  1
  Se  Se8  1  0.574955  0.220590  0.801489  1
  Se  Se9  1  0.887710  0.755566  0.422980  1
  O  O10  1  0.153038  0.020876  0.654674  1
  O  O11  1  0.167123  0.578688  0.114725  1
  O  O12  1  0.025913  0.709342  0.560019  1
  O  O13  1  0.338044  0.249615  0.442009  1
  O  O14  1  0.061637  0.702288  0.837854  1
  O  O15  1  0.598372  0.287035  0.147507  1
  O  O16  1  0.358065  0.205674  0.940306  1
  O  O17  1  0.365237  0.935899  0.299566  1
  O  O18  1  0.516777  0.593756  0.346263  1
  O  O19  1  0.489890  0.399467  0.652569  1
  O  O20  1  0.641785  0.055186  0.700241  1
  O  O21  1  0.640216  0.789217  0.053412  1
  O  O22  1  0.402806  0.715062  0.848672  1
  O  O23  1  0.933268  0.302972  0.160523  1
  O  O24  1  0.661166  0.751528  0.565627  1
  O  O25  1  0.970840  0.291141  0.446432  1
  O  O26  1  0.825470  0.437450  0.883451  1
  O  O27  1  0.848544  0.975539  0.345266  1
