# generated using pymatgen
data_Dy4TaTc3B16
_symmetry_space_group_name_H-M   'P 1'
_cell_length_a   6.00647502
_cell_length_b   11.61991380
_cell_length_c   3.60958900
_cell_angle_alpha   90.00000000
_cell_angle_beta   90.00000000
_cell_angle_gamma   89.94788111
_symmetry_Int_Tables_number   1
_chemical_formula_structural   Dy4TaTc3B16
_chemical_formula_sum   'Dy4 Ta1 Tc3 B16'
_cell_volume   251.93015652
_cell_formula_units_Z   1
loop_
 _symmetry_equiv_pos_site_id
 _symmetry_equiv_pos_as_xyz
  1  'x, y, z'
loop_
 _atom_site_type_symbol
 _atom_site_label
 _atom_site_symmetry_multiplicity
 _atom_site_fract_x
 _atom_site_fract_y
 _atom_site_fract_z
 _atom_site_occupancy
  Dy  Dy0  1  0.624754  0.347217  0.000000  1
  Dy  Dy1  1  0.371875  0.651904  0.000000  1
  Dy  Dy2  1  0.128365  0.149652  0.000000  1
  Dy  Dy3  1  0.872315  0.852457  0.000000  1
  Ta  Ta4  1  0.868764  0.585005  0.000000  1
  Tc  Tc5  1  0.634570  0.087560  0.000000  1
  Tc  Tc6  1  0.365732  0.915534  0.000000  1
  Tc  Tc7  1  0.130000  0.412457  0.000000  1
  B  B8  1  0.785773  0.184932  0.500000  1
  B  B9  1  0.215923  0.816590  0.500000  1
  B  B10  1  0.286887  0.314051  0.500000  1
  B  B11  1  0.706845  0.689386  0.500000  1
  B  B12  1  0.863912  0.031518  0.500000  1
  B  B13  1  0.136522  0.969466  0.500000  1
  B  B14  1  0.364482  0.465441  0.500000  1
  B  B15  1  0.629777  0.529793  0.500000  1
  B  B16  1  0.889028  0.449506  0.500000  1
  B  B17  1  0.118760  0.544343  0.500000  1
  B  B18  1  0.387732  0.047531  0.500000  1
  B  B19  1  0.612968  0.953657  0.500000  1
  B  B20  1  0.978098  0.305923  0.500000  1
  B  B21  1  0.028671  0.694965  0.500000  1
  B  B22  1  0.476429  0.191509  0.500000  1
  B  B23  1  0.521817  0.809601  0.500000  1
