# generated using pymatgen
data_Yb3Sb(Pt2O7)2
_symmetry_space_group_name_H-M   'P 1'
_cell_length_a   7.14864510
_cell_length_b   7.22443488
_cell_length_c   7.14864500
_cell_angle_alpha   60.34642472
_cell_angle_beta   59.99999584
_cell_angle_gamma   60.34642609
_symmetry_Int_Tables_number   1
_chemical_formula_structural   Yb3Sb(Pt2O7)2
_chemical_formula_sum   'Yb3 Sb1 Pt4 O14'
_cell_volume   262.41621132
_cell_formula_units_Z   1
loop_
 _symmetry_equiv_pos_site_id
 _symmetry_equiv_pos_as_xyz
  1  'x, y, z'
loop_
 _atom_site_type_symbol
 _atom_site_label
 _atom_site_symmetry_multiplicity
 _atom_site_fract_x
 _atom_site_fract_y
 _atom_site_fract_z
 _atom_site_occupancy
  Yb  Yb0  1  0.125000  0.125000  0.125000  1
  Yb  Yb1  1  0.625000  0.125000  0.125000  1
  Yb  Yb2  1  0.125000  0.125000  0.625000  1
  Sb  Sb3  1  0.125000  0.625000  0.125000  1
  Pt  Pt4  1  0.625000  0.625000  0.625000  1
  Pt  Pt5  1  0.125000  0.625000  0.625000  1
  Pt  Pt6  1  0.625000  0.625000  0.125000  1
  Pt  Pt7  1  0.625000  0.125000  0.625000  1
  O  O8  1  0.015229  0.954312  0.015229  1
  O  O9  1  0.234771  0.295688  0.234771  1
  O  O10  1  0.521422  0.546586  0.965996  1
  O  O11  1  0.284272  0.288568  0.713580  1
  O  O12  1  0.965996  0.546586  0.965996  1
  O  O13  1  0.965996  0.546586  0.521422  1
  O  O14  1  0.536420  0.961432  0.965728  1
  O  O15  1  0.536420  0.961432  0.536420  1
  O  O16  1  0.965728  0.961432  0.536420  1
  O  O17  1  0.713580  0.288568  0.284272  1
  O  O18  1  0.284004  0.703414  0.728578  1
  O  O19  1  0.728578  0.703414  0.284004  1
  O  O20  1  0.713580  0.288568  0.713580  1
  O  O21  1  0.284004  0.703414  0.284004  1
