# generated using pymatgen
data_Zr6B4Ru9Pt
_symmetry_space_group_name_H-M   'P 1'
_cell_length_a   9.58511225
_cell_length_b   9.60966825
_cell_length_c   3.15652300
_cell_angle_alpha   90.00000000
_cell_angle_beta   90.00000000
_cell_angle_gamma   90.02605875
_symmetry_Int_Tables_number   1
_chemical_formula_structural   Zr6B4Ru9Pt
_chemical_formula_sum   'Zr6 B4 Ru9 Pt1'
_cell_volume   290.74651062
_cell_formula_units_Z   1
loop_
 _symmetry_equiv_pos_site_id
 _symmetry_equiv_pos_as_xyz
  1  'x, y, z'
loop_
 _atom_site_type_symbol
 _atom_site_label
 _atom_site_symmetry_multiplicity
 _atom_site_fract_x
 _atom_site_fract_y
 _atom_site_fract_z
 _atom_site_occupancy
  Zr  Zr0  1  0.678711  0.176271  0.000000  1
  Zr  Zr1  1  0.327346  0.815452  0.000000  1
  Zr  Zr2  1  0.173226  0.333430  0.000000  1
  Zr  Zr3  1  0.823090  0.675751  0.000000  1
  Zr  Zr4  1  0.993671  0.997558  0.000000  1
  Zr  Zr5  1  0.501965  0.498953  0.000000  1
  B  B6  1  0.120947  0.622061  0.000000  1
  B  B7  1  0.878813  0.378555  0.000000  1
  B  B8  1  0.620408  0.874484  0.000000  1
  B  B9  1  0.396651  0.127180  0.000000  1
  Ru  Ru10  1  0.773712  0.930304  0.500000  1
  Ru  Ru11  1  0.072364  0.778726  0.500000  1
  Ru  Ru12  1  0.722481  0.426274  0.500000  1
  Ru  Ru13  1  0.931214  0.222731  0.500000  1
  Ru  Ru14  1  0.277639  0.570975  0.500000  1
  Ru  Ru15  1  0.570339  0.721705  0.500000  1
  Ru  Ru16  1  0.423081  0.277730  0.500000  1
  Ru  Ru17  1  0.495882  0.999024  0.500000  1
  Ru  Ru18  1  0.998809  0.501786  0.500000  1
  Pt  Pt19  1  0.219650  0.071049  0.500000  1
