# generated using pymatgen
data_CsUF7
_symmetry_space_group_name_H-M   'P 1'
_cell_length_a   9.75415200
_cell_length_b   5.82626604
_cell_length_c   10.16086500
_cell_angle_alpha   87.52908850
_cell_angle_beta   90.00000000
_cell_angle_gamma   90.00000000
_symmetry_Int_Tables_number   1
_chemical_formula_structural   CsUF7
_chemical_formula_sum   'Cs4 U4 F28'
_cell_volume   576.90796299
_cell_formula_units_Z   4
loop_
 _symmetry_equiv_pos_site_id
 _symmetry_equiv_pos_as_xyz
  1  'x, y, z'
loop_
 _atom_site_type_symbol
 _atom_site_label
 _atom_site_symmetry_multiplicity
 _atom_site_fract_x
 _atom_site_fract_y
 _atom_site_fract_z
 _atom_site_occupancy
  Cs  Cs0  1  0.305365  0.259859  0.503786  1
  Cs  Cs1  1  0.805365  0.740141  0.996214  1
  Cs  Cs2  1  0.694635  0.740141  0.496214  1
  Cs  Cs3  1  0.194635  0.259859  0.003786  1
  U  U4  1  0.613302  0.231354  0.208448  1
  U  U5  1  0.386698  0.768646  0.791552  1
  U  U6  1  0.886698  0.231354  0.708448  1
  U  U7  1  0.113302  0.768646  0.291552  1
  F  F8  1  0.446269  0.064161  0.880054  1
  F  F9  1  0.039693  0.377300  0.598341  1
  F  F10  1  0.747382  0.499154  0.243310  1
  F  F11  1  0.252618  0.500846  0.756690  1
  F  F12  1  0.483467  0.966899  0.642656  1
  F  F13  1  0.773739  0.256620  0.533171  1
  F  F14  1  0.778732  0.045953  0.279646  1
  F  F15  1  0.983467  0.033101  0.857344  1
  F  F16  1  0.460307  0.377300  0.098341  1
  F  F17  1  0.247382  0.500846  0.256690  1
  F  F18  1  0.053731  0.064161  0.380054  1
  F  F19  1  0.553731  0.935839  0.119946  1
  F  F20  1  0.278732  0.954047  0.220354  1
  F  F21  1  0.017146  0.541482  0.164029  1
  F  F22  1  0.516533  0.033101  0.357344  1
  F  F23  1  0.016533  0.966899  0.142656  1
  F  F24  1  0.221268  0.954047  0.720354  1
  F  F25  1  0.946269  0.935839  0.619946  1
  F  F26  1  0.517146  0.458518  0.335971  1
  F  F27  1  0.960307  0.622700  0.401659  1
  F  F28  1  0.982854  0.458518  0.835971  1
  F  F29  1  0.721268  0.045953  0.779646  1
  F  F30  1  0.482854  0.541482  0.664029  1
  F  F31  1  0.273739  0.743380  0.966829  1
  F  F32  1  0.226261  0.743380  0.466829  1
  F  F33  1  0.726261  0.256620  0.033171  1
  F  F34  1  0.539693  0.622700  0.901659  1
  F  F35  1  0.752618  0.499154  0.743310  1
