# generated using pymatgen
data_Gd5(AlTe)2
_symmetry_space_group_name_H-M   'P 1'
_cell_length_a   8.85205500
_cell_length_b   8.85205516
_cell_length_c   8.14443100
_cell_angle_alpha   90.00000000
_cell_angle_beta   90.00000000
_cell_angle_gamma   126.25500343
_symmetry_Int_Tables_number   1
_chemical_formula_structural   Gd5(AlTe)2
_chemical_formula_sum   'Gd10 Al4 Te4'
_cell_volume   514.63070366
_cell_formula_units_Z   2
loop_
 _symmetry_equiv_pos_site_id
 _symmetry_equiv_pos_as_xyz
  1  'x, y, z'
loop_
 _atom_site_type_symbol
 _atom_site_label
 _atom_site_symmetry_multiplicity
 _atom_site_fract_x
 _atom_site_fract_y
 _atom_site_fract_z
 _atom_site_occupancy
  Gd  Gd0  1  0.000000  0.000000  0.000000  1
  Gd  Gd1  1  0.500000  0.500000  0.500000  1
  Gd  Gd2  1  0.800361  0.537009  0.168938  1
  Gd  Gd3  1  0.462991  0.199639  0.831062  1
  Gd  Gd4  1  0.962991  0.699639  0.668938  1
  Gd  Gd5  1  0.300361  0.037009  0.331062  1
  Gd  Gd6  1  0.199639  0.462991  0.831062  1
  Gd  Gd7  1  0.537009  0.800361  0.168938  1
  Gd  Gd8  1  0.037009  0.300361  0.331062  1
  Gd  Gd9  1  0.699639  0.962991  0.668938  1
  Al  Al10  1  0.878004  0.878004  0.379601  1
  Al  Al11  1  0.121996  0.121996  0.620399  1
  Al  Al12  1  0.621996  0.621996  0.879601  1
  Al  Al13  1  0.378004  0.378004  0.120399  1
  Te  Te14  1  0.203298  0.796702  0.000000  1
  Te  Te15  1  0.703298  0.296702  0.500000  1
  Te  Te16  1  0.796702  0.203298  0.000000  1
  Te  Te17  1  0.296702  0.703298  0.500000  1
