# generated using pymatgen
data_Tb4Dy(ReO6)2
_symmetry_space_group_name_H-M   'P 1'
_cell_length_a   6.87473025
_cell_length_b   6.87472997
_cell_length_c   7.58972637
_cell_angle_alpha   73.75134310
_cell_angle_beta   73.75134201
_cell_angle_gamma   48.90082812
_symmetry_Int_Tables_number   1
_chemical_formula_structural   Tb4Dy(ReO6)2
_chemical_formula_sum   'Tb4 Dy1 Re2 O12'
_cell_volume   257.22451398
_cell_formula_units_Z   1
loop_
 _symmetry_equiv_pos_site_id
 _symmetry_equiv_pos_as_xyz
  1  'x, y, z'
loop_
 _atom_site_type_symbol
 _atom_site_label
 _atom_site_symmetry_multiplicity
 _atom_site_fract_x
 _atom_site_fract_y
 _atom_site_fract_z
 _atom_site_occupancy
  Tb  Tb0  1  0.196165  0.196165  0.641734  1
  Tb  Tb1  1  0.185331  0.185331  0.175332  1
  Tb  Tb2  1  0.803835  0.803835  0.358266  1
  Tb  Tb3  1  0.814669  0.814669  0.824668  1
  Dy  Dy4  1  0.500000  0.500000  0.500000  1
  Re  Re5  1  0.713733  0.286267  0.000000  1
  Re  Re6  1  0.286267  0.713733  0.000000  1
  O  O7  1  0.413261  0.915925  0.915361  1
  O  O8  1  0.915925  0.413261  0.915361  1
  O  O9  1  0.904973  0.401827  0.426483  1
  O  O10  1  0.401827  0.904973  0.426483  1
  O  O11  1  0.501883  0.501883  0.205377  1
  O  O12  1  0.999070  0.999070  0.175215  1
  O  O13  1  0.000930  0.000930  0.824785  1
  O  O14  1  0.498117  0.498117  0.794623  1
  O  O15  1  0.084075  0.586739  0.084639  1
  O  O16  1  0.586739  0.084075  0.084639  1
  O  O17  1  0.095027  0.598173  0.573517  1
  O  O18  1  0.598173  0.095027  0.573517  1
