# generated using pymatgen
data_Dy16Tl2CdInNi4
_symmetry_space_group_name_H-M   'P 1'
_cell_length_a   9.55947537
_cell_length_b   9.56412670
_cell_length_c   9.56685800
_cell_angle_alpha   59.99055272
_cell_angle_beta   59.97444977
_cell_angle_gamma   60.00943138
_symmetry_Int_Tables_number   1
_chemical_formula_structural   Dy16Tl2CdInNi4
_chemical_formula_sum   'Dy16 Tl2 Cd1 In1 Ni4'
_cell_volume   618.37183856
_cell_formula_units_Z   1
loop_
 _symmetry_equiv_pos_site_id
 _symmetry_equiv_pos_as_xyz
  1  'x, y, z'
loop_
 _atom_site_type_symbol
 _atom_site_label
 _atom_site_symmetry_multiplicity
 _atom_site_fract_x
 _atom_site_fract_y
 _atom_site_fract_z
 _atom_site_occupancy
  Dy  Dy0  1  0.596596  0.596713  0.597859  1
  Dy  Dy1  1  0.596596  0.596713  0.208834  1
  Dy  Dy2  1  0.598073  0.204962  0.598483  1
  Dy  Dy3  1  0.203339  0.598205  0.599228  1
  Dy  Dy4  1  0.062394  0.437717  0.438569  1
  Dy  Dy5  1  0.436887  0.063147  0.062542  1
  Dy  Dy6  1  0.436887  0.063147  0.437425  1
  Dy  Dy7  1  0.062394  0.437717  0.061320  1
  Dy  Dy8  1  0.438254  0.437186  0.062281  1
  Dy  Dy9  1  0.062588  0.062039  0.437687  1
  Dy  Dy10  1  0.190493  0.812694  0.812963  1
  Dy  Dy11  1  0.813903  0.187785  0.185559  1
  Dy  Dy12  1  0.813903  0.187785  0.812753  1
  Dy  Dy13  1  0.190493  0.812694  0.183851  1
  Dy  Dy14  1  0.814255  0.812335  0.186705  1
  Dy  Dy15  1  0.188617  0.186494  0.812445  1
  Tl  Tl16  1  0.832184  0.834527  0.836449  1
  Tl  Tl17  1  0.832184  0.834527  0.496840  1
  Cd  Cd18  1  0.504170  0.830262  0.832783  1
  In  In19  1  0.829410  0.504250  0.833171  1
  Ni  Ni20  1  0.391450  0.392474  0.393915  1
  Ni  Ni21  1  0.391450  0.392474  0.822160  1
  Ni  Ni22  1  0.391016  0.822498  0.393243  1
  Ni  Ni23  1  0.822463  0.391659  0.392939  1
