# generated using pymatgen
data_Nb12Al8Tc2NiAuC4
_symmetry_space_group_name_H-M   'P 1'
_cell_length_a   8.33509640
_cell_length_b   8.32664794
_cell_length_c   8.32664800
_cell_angle_alpha   60.00000769
_cell_angle_beta   60.03353169
_cell_angle_gamma   60.03352586
_symmetry_Int_Tables_number   1
_chemical_formula_structural   Nb12Al8Tc2NiAuC4
_chemical_formula_sum   'Nb12 Al8 Tc2 Ni1 Au1 C4'
_cell_volume   408.84244019
_cell_formula_units_Z   1
loop_
 _symmetry_equiv_pos_site_id
 _symmetry_equiv_pos_as_xyz
  1  'x, y, z'
loop_
 _atom_site_type_symbol
 _atom_site_label
 _atom_site_symmetry_multiplicity
 _atom_site_fract_x
 _atom_site_fract_y
 _atom_site_fract_z
 _atom_site_occupancy
  Nb  Nb0  1  0.810232  0.811324  0.196244  1
  Nb  Nb1  1  0.196118  0.179634  0.811454  1
  Nb  Nb2  1  0.807195  0.193085  0.806635  1
  Nb  Nb3  1  0.185095  0.815906  0.183091  1
  Nb  Nb4  1  0.196118  0.812792  0.811454  1
  Nb  Nb5  1  0.810232  0.182198  0.196244  1
  Nb  Nb6  1  0.439768  0.438676  0.053756  1
  Nb  Nb7  1  0.053882  0.070366  0.438546  1
  Nb  Nb8  1  0.442805  0.056915  0.443365  1
  Nb  Nb9  1  0.064905  0.434094  0.066909  1
  Nb  Nb10  1  0.053882  0.437208  0.438546  1
  Nb  Nb11  1  0.439768  0.067802  0.053756  1
  Al  Al12  1  0.746790  0.422436  0.408338  1
  Al  Al13  1  0.423616  0.755244  0.403664  1
  Al  Al14  1  0.419726  0.415474  0.749327  1
  Al  Al15  1  0.423616  0.417475  0.403664  1
  Al  Al16  1  0.503210  0.827564  0.841662  1
  Al  Al17  1  0.826384  0.494756  0.846336  1
  Al  Al18  1  0.830274  0.834526  0.500673  1
  Al  Al19  1  0.826384  0.832525  0.846336  1
  Tc  Tc20  1  0.625000  0.125000  0.625000  1
  Tc  Tc21  1  0.625000  0.625000  0.625000  1
  Ni  Ni22  1  0.625000  0.625000  0.125000  1
  Au  Au23  1  0.125000  0.625000  0.625000  1
  C  C24  1  0.625000  0.125000  0.125000  1
  C  C25  1  0.125000  0.625000  0.125000  1
  C  C26  1  0.125000  0.125000  0.625000  1
  C  C27  1  0.125000  0.125000  0.125000  1
