# generated using pymatgen
data_Er9Th7(FeAg)4
_symmetry_space_group_name_H-M   'P 1'
_cell_length_a   9.52823164
_cell_length_b   9.52380062
_cell_length_c   9.62655400
_cell_angle_alpha   59.67302696
_cell_angle_beta   60.27202124
_cell_angle_gamma   60.69947205
_symmetry_Int_Tables_number   1
_chemical_formula_structural   Er9Th7(FeAg)4
_chemical_formula_sum   'Er9 Th7 Fe4 Ag4'
_cell_volume   620.60619273
_cell_formula_units_Z   1
loop_
 _symmetry_equiv_pos_site_id
 _symmetry_equiv_pos_as_xyz
  1  'x, y, z'
loop_
 _atom_site_type_symbol
 _atom_site_label
 _atom_site_symmetry_multiplicity
 _atom_site_fract_x
 _atom_site_fract_y
 _atom_site_fract_z
 _atom_site_occupancy
  Er  Er0  1  0.060621  0.439379  0.060621  1
  Er  Er1  1  0.440460  0.445497  0.054267  1
  Er  Er2  1  0.054267  0.059776  0.440460  1
  Er  Er3  1  0.181712  0.819063  0.816137  1
  Er  Er4  1  0.816137  0.183088  0.181712  1
  Er  Er5  1  0.813037  0.186963  0.813037  1
  Er  Er6  1  0.184720  0.815280  0.184720  1
  Er  Er7  1  0.811704  0.811394  0.185504  1
  Er  Er8  1  0.185504  0.191398  0.811704  1
  Th  Th9  1  0.594630  0.595639  0.600045  1
  Th  Th10  1  0.599074  0.594153  0.210713  1
  Th  Th11  1  0.600045  0.209687  0.594630  1
  Th  Th12  1  0.210713  0.596060  0.599074  1
  Th  Th13  1  0.062668  0.435434  0.431593  1
  Th  Th14  1  0.431593  0.070305  0.062668  1
  Th  Th15  1  0.432079  0.067921  0.432079  1
  Fe  Fe16  1  0.380968  0.378669  0.405487  1
  Fe  Fe17  1  0.402727  0.364535  0.825545  1
  Fe  Fe18  1  0.405487  0.834876  0.380968  1
  Fe  Fe19  1  0.825545  0.407192  0.402727  1
  Ag  Ag20  1  0.838368  0.831389  0.834140  1
  Ag  Ag21  1  0.837221  0.834305  0.496578  1
  Ag  Ag22  1  0.834140  0.496104  0.838368  1
  Ag  Ag23  1  0.496578  0.831896  0.837221  1
