# generated using pymatgen
data_Ba6Sn8PCl
_symmetry_space_group_name_H-M   'P 1'
_cell_length_a   9.17657529
_cell_length_b   9.17657464
_cell_length_c   9.26816800
_cell_angle_alpha   119.67363473
_cell_angle_beta   119.67363243
_cell_angle_gamma   89.99999484
_symmetry_Int_Tables_number   1
_chemical_formula_structural   Ba6Sn8PCl
_chemical_formula_sum   'Ba6 Sn8 P1 Cl1'
_cell_volume   557.27465119
_cell_formula_units_Z   1
loop_
 _symmetry_equiv_pos_site_id
 _symmetry_equiv_pos_as_xyz
  1  'x, y, z'
loop_
 _atom_site_type_symbol
 _atom_site_label
 _atom_site_symmetry_multiplicity
 _atom_site_fract_x
 _atom_site_fract_y
 _atom_site_fract_z
 _atom_site_occupancy
  Ba  Ba0  1  0.241440  0.241440  0.482880  1
  Ba  Ba1  1  0.758560  0.758560  0.517120  1
  Ba  Ba2  1  0.681121  0.158378  0.000000  1
  Ba  Ba3  1  0.318879  0.841622  0.000000  1
  Ba  Ba4  1  0.841622  0.681121  0.000000  1
  Ba  Ba5  1  0.158378  0.318879  0.000000  1
  Sn  Sn6  1  0.335112  0.830530  0.385720  1
  Sn  Sn7  1  0.664888  0.169470  0.614280  1
  Sn  Sn8  1  0.050609  0.555191  0.385720  1
  Sn  Sn9  1  0.555191  0.335112  0.385720  1
  Sn  Sn10  1  0.169470  0.949391  0.614280  1
  Sn  Sn11  1  0.949391  0.444809  0.614280  1
  Sn  Sn12  1  0.444809  0.664888  0.614280  1
  Sn  Sn13  1  0.830530  0.050609  0.385720  1
  P  P14  1  0.000000  0.000000  0.000000  1
  Cl  Cl15  1  0.500000  0.500000  0.000000  1
