# generated using pymatgen
data_Th2Si2Ir4PdPt
_symmetry_space_group_name_H-M   'P 1'
_cell_length_a   4.10590300
_cell_length_b   4.10590300
_cell_length_c   10.82608100
_cell_angle_alpha   90.00000000
_cell_angle_beta   90.00000000
_cell_angle_gamma   90.00000000
_symmetry_Int_Tables_number   1
_chemical_formula_structural   Th2Si2Ir4PdPt
_chemical_formula_sum   'Th2 Si2 Ir4 Pd1 Pt1'
_cell_volume   182.51083097
_cell_formula_units_Z   1
loop_
 _symmetry_equiv_pos_site_id
 _symmetry_equiv_pos_as_xyz
  1  'x, y, z'
loop_
 _atom_site_type_symbol
 _atom_site_label
 _atom_site_symmetry_multiplicity
 _atom_site_fract_x
 _atom_site_fract_y
 _atom_site_fract_z
 _atom_site_occupancy
  Th  Th0  1  0.000000  0.500000  0.263873  1
  Th  Th1  1  0.500000  0.000000  0.736127  1
  Si  Si2  1  0.000000  0.500000  0.883382  1
  Si  Si3  1  0.500000  0.000000  0.116618  1
  Ir  Ir4  1  0.000000  0.000000  0.000000  1
  Ir  Ir5  1  0.500000  0.500000  0.000000  1
  Ir  Ir6  1  0.000000  0.500000  0.671403  1
  Ir  Ir7  1  0.500000  0.000000  0.328597  1
  Pd  Pd8  1  0.500000  0.500000  0.500000  1
  Pt  Pt9  1  0.000000  0.000000  0.500000  1
