# generated using pymatgen
data_CaErSn(AsRh2)6
_symmetry_space_group_name_H-M   'P 1'
_cell_length_a   10.06316800
_cell_length_b   10.06316652
_cell_length_c   3.94478200
_cell_angle_alpha   90.00000000
_cell_angle_beta   90.00000000
_cell_angle_gamma   119.99999829
_symmetry_Int_Tables_number   1
_chemical_formula_structural   CaErSn(AsRh2)6
_chemical_formula_sum   'Ca1 Er1 Sn1 As6 Rh12'
_cell_volume   345.95772249
_cell_formula_units_Z   1
loop_
 _symmetry_equiv_pos_site_id
 _symmetry_equiv_pos_as_xyz
  1  'x, y, z'
loop_
 _atom_site_type_symbol
 _atom_site_label
 _atom_site_symmetry_multiplicity
 _atom_site_fract_x
 _atom_site_fract_y
 _atom_site_fract_z
 _atom_site_occupancy
  Ca  Ca0  1  0.666667  0.333333  0.751873  1
  Er  Er1  1  0.333333  0.666667  0.245655  1
  Sn  Sn2  1  0.000000  0.000000  0.609431  1
  As  As3  1  0.289298  0.883822  0.747759  1
  As  As4  1  0.116178  0.405476  0.747759  1
  As  As5  1  0.594524  0.710702  0.747759  1
  As  As6  1  0.710830  0.117487  0.252249  1
  As  As7  1  0.882513  0.593342  0.252249  1
  As  As8  1  0.406658  0.289170  0.252249  1
  Rh  Rh9  1  0.070723  0.620389  0.748995  1
  Rh  Rh10  1  0.379611  0.450334  0.748995  1
  Rh  Rh11  1  0.549666  0.929277  0.748995  1
  Rh  Rh12  1  0.942174  0.388466  0.250591  1
  Rh  Rh13  1  0.611534  0.553709  0.250591  1
  Rh  Rh14  1  0.446291  0.057826  0.250591  1
  Rh  Rh15  1  0.288241  0.127754  0.754659  1
  Rh  Rh16  1  0.872246  0.160487  0.754659  1
  Rh  Rh17  1  0.839513  0.711759  0.754659  1
  Rh  Rh18  1  0.729125  0.881578  0.244636  1
  Rh  Rh19  1  0.118422  0.847547  0.244636  1
  Rh  Rh20  1  0.152453  0.270875  0.244636  1
