# generated using pymatgen
data_Ho10Tl5Te
_symmetry_space_group_name_H-M   'P 1'
_cell_length_a   8.96331200
_cell_length_b   8.95081046
_cell_length_c   6.63671600
_cell_angle_alpha   90.00000000
_cell_angle_beta   90.00000000
_cell_angle_gamma   120.04621301
_symmetry_Int_Tables_number   1
_chemical_formula_structural   Ho10Tl5Te
_chemical_formula_sum   'Ho10 Tl5 Te1'
_cell_volume   460.90594763
_cell_formula_units_Z   1
loop_
 _symmetry_equiv_pos_site_id
 _symmetry_equiv_pos_as_xyz
  1  'x, y, z'
loop_
 _atom_site_type_symbol
 _atom_site_label
 _atom_site_symmetry_multiplicity
 _atom_site_fract_x
 _atom_site_fract_y
 _atom_site_fract_z
 _atom_site_occupancy
  Ho  Ho0  1  0.992350  0.756422  0.750000  1
  Ho  Ho1  1  0.000294  0.237593  0.250000  1
  Ho  Ho2  1  0.762701  0.762407  0.250000  1
  Ho  Ho3  1  0.767750  0.000000  0.750000  1
  Ho  Ho4  1  0.235927  0.243578  0.750000  1
  Ho  Ho5  1  0.237694  0.000000  0.250000  1
  Ho  Ho6  1  0.334340  0.662686  0.495388  1
  Ho  Ho7  1  0.671654  0.337314  0.004612  1
  Ho  Ho8  1  0.671654  0.337314  0.495388  1
  Ho  Ho9  1  0.334340  0.662686  0.004612  1
  Tl  Tl10  1  0.398629  0.394941  0.250000  1
  Tl  Tl11  1  0.003688  0.605059  0.250000  1
  Tl  Tl12  1  0.997502  0.399095  0.750000  1
  Tl  Tl13  1  0.598406  0.600905  0.750000  1
  Tl  Tl14  1  0.603043  0.000000  0.250000  1
  Te  Te15  1  0.390032  0.000000  0.750000  1
