# generated using pymatgen
data_Ca9LaPr2(GaRh)8
_symmetry_space_group_name_H-M   'P 1'
_cell_length_a   5.82796225
_cell_length_b   7.83876043
_cell_length_c   13.90333686
_cell_angle_alpha   89.91783288
_cell_angle_beta   90.11253296
_cell_angle_gamma   90.47712178
_symmetry_Int_Tables_number   1
_chemical_formula_structural   Ca9LaPr2(GaRh)8
_chemical_formula_sum   'Ca9 La1 Pr2 Ga8 Rh8'
_cell_volume   635.13615331
_cell_formula_units_Z   1
loop_
 _symmetry_equiv_pos_site_id
 _symmetry_equiv_pos_as_xyz
  1  'x, y, z'
loop_
 _atom_site_type_symbol
 _atom_site_label
 _atom_site_symmetry_multiplicity
 _atom_site_fract_x
 _atom_site_fract_y
 _atom_site_fract_z
 _atom_site_occupancy
  Ca  Ca0  1  0.371981  0.746157  0.253608  1
  Ca  Ca1  1  0.629295  0.251772  0.748590  1
  Ca  Ca2  1  0.136737  0.398348  0.095314  1
  Ca  Ca3  1  0.857278  0.594243  0.900299  1
  Ca  Ca4  1  0.861515  0.603307  0.595995  1
  Ca  Ca5  1  0.857775  0.897045  0.405286  1
  Ca  Ca6  1  0.140154  0.396969  0.406222  1
  Ca  Ca7  1  0.141969  0.103729  0.595912  1
  Ca  Ca8  1  0.151978  0.108759  0.900612  1
  La  La9  1  0.851501  0.895129  0.088180  1
  Pr  Pr10  1  0.614353  0.249552  0.252408  1
  Pr  Pr11  1  0.384501  0.751844  0.749987  1
  Ga  Ga12  1  0.132253  0.089411  0.251986  1
  Ga  Ga13  1  0.869961  0.910272  0.750198  1
  Ga  Ga14  1  0.855270  0.600813  0.252707  1
  Ga  Ga15  1  0.147039  0.398943  0.747863  1
  Ga  Ga16  1  0.608781  0.253922  0.997607  1
  Ga  Ga17  1  0.376627  0.746595  0.000498  1
  Ga  Ga18  1  0.391266  0.750351  0.497377  1
  Ga  Ga19  1  0.610430  0.249823  0.504495  1
  Rh  Rh20  1  0.363255  0.032336  0.094176  1
  Rh  Rh21  1  0.642390  0.965125  0.908451  1
  Rh  Rh22  1  0.632085  0.966091  0.595775  1
  Rh  Rh23  1  0.640938  0.523961  0.406353  1
  Rh  Rh24  1  0.367583  0.034179  0.406825  1
  Rh  Rh25  1  0.362373  0.475973  0.594620  1
  Rh  Rh26  1  0.359683  0.473179  0.904353  1
  Rh  Rh27  1  0.641030  0.532172  0.094305  1
