# generated using pymatgen
data_Zr15Sc
_symmetry_space_group_name_H-M   'P 1'
_cell_length_a   6.49876900
_cell_length_b   6.49876921
_cell_length_c   10.30345500
_cell_angle_alpha   90.00000000
_cell_angle_beta   90.00000000
_cell_angle_gamma   120.00000403
_symmetry_Int_Tables_number   1
_chemical_formula_structural   Zr15Sc
_chemical_formula_sum   'Zr15 Sc1'
_cell_volume   376.85623679
_cell_formula_units_Z   1
loop_
 _symmetry_equiv_pos_site_id
 _symmetry_equiv_pos_as_xyz
  1  'x, y, z'
loop_
 _atom_site_type_symbol
 _atom_site_label
 _atom_site_symmetry_multiplicity
 _atom_site_fract_x
 _atom_site_fract_y
 _atom_site_fract_z
 _atom_site_occupancy
  Zr  Zr0  1  0.666667  0.333333  0.500000  1
  Zr  Zr1  1  0.166208  0.332414  0.000000  1
  Zr  Zr2  1  0.167115  0.334230  0.500000  1
  Zr  Zr3  1  0.166208  0.833792  0.000000  1
  Zr  Zr4  1  0.167115  0.832885  0.500000  1
  Zr  Zr5  1  0.667586  0.833792  0.000000  1
  Zr  Zr6  1  0.665770  0.832885  0.500000  1
  Zr  Zr7  1  0.001800  0.500901  0.249603  1
  Zr  Zr8  1  0.001800  0.500901  0.750397  1
  Zr  Zr9  1  0.499099  0.500901  0.249603  1
  Zr  Zr10  1  0.499099  0.500901  0.750397  1
  Zr  Zr11  1  0.499099  0.998200  0.249603  1
  Zr  Zr12  1  0.499099  0.998200  0.750397  1
  Zr  Zr13  1  0.000000  0.000000  0.249982  1
  Zr  Zr14  1  0.000000  0.000000  0.750018  1
  Sc  Sc15  1  0.666667  0.333333  0.000000  1
