# generated using pymatgen
data_Lu2Pa(Co3P2)3
_symmetry_space_group_name_H-M   'P 1'
_cell_length_a   3.69188000
_cell_length_b   10.49182300
_cell_length_c   12.09148900
_cell_angle_alpha   90.00000000
_cell_angle_beta   90.00000000
_cell_angle_gamma   90.00000000
_symmetry_Int_Tables_number   1
_chemical_formula_structural   Lu2Pa(Co3P2)3
_chemical_formula_sum   'Lu4 Pa2 Co18 P12'
_cell_volume   468.35840335
_cell_formula_units_Z   2
loop_
 _symmetry_equiv_pos_site_id
 _symmetry_equiv_pos_as_xyz
  1  'x, y, z'
loop_
 _atom_site_type_symbol
 _atom_site_label
 _atom_site_symmetry_multiplicity
 _atom_site_fract_x
 _atom_site_fract_y
 _atom_site_fract_z
 _atom_site_occupancy
  Lu  Lu0  1  0.500000  0.816596  0.204747  1
  Lu  Lu1  1  0.500000  0.183404  0.204747  1
  Lu  Lu2  1  0.000000  0.683404  0.795253  1
  Lu  Lu3  1  0.000000  0.316596  0.795253  1
  Pa  Pa4  1  0.000000  0.500000  0.529771  1
  Pa  Pa5  1  0.500000  0.000000  0.470229  1
  Co  Co6  1  0.500000  0.500000  0.158672  1
  Co  Co7  1  0.000000  0.000000  0.841328  1
  Co  Co8  1  0.500000  0.500000  0.698749  1
  Co  Co9  1  0.000000  0.000000  0.301251  1
  Co  Co10  1  0.000000  0.500000  0.985585  1
  Co  Co11  1  0.500000  0.000000  0.014415  1
  Co  Co12  1  0.500000  0.333723  0.993634  1
  Co  Co13  1  0.500000  0.666277  0.993634  1
  Co  Co14  1  0.000000  0.166277  0.006366  1
  Co  Co15  1  0.000000  0.833723  0.006366  1
  Co  Co16  1  0.500000  0.300819  0.431536  1
  Co  Co17  1  0.500000  0.699181  0.431536  1
  Co  Co18  1  0.000000  0.199181  0.568464  1
  Co  Co19  1  0.000000  0.800819  0.568464  1
  Co  Co20  1  0.500000  0.878908  0.711180  1
  Co  Co21  1  0.500000  0.121092  0.711180  1
  Co  Co22  1  0.000000  0.621092  0.288820  1
  Co  Co23  1  0.000000  0.378908  0.288820  1
  P  P24  1  0.500000  0.500000  0.879293  1
  P  P25  1  0.000000  0.000000  0.120707  1
  P  P26  1  0.500000  0.500000  0.343802  1
  P  P27  1  0.000000  0.000000  0.656198  1
  P  P28  1  0.500000  0.307491  0.618788  1
  P  P29  1  0.500000  0.692509  0.618788  1
  P  P30  1  0.000000  0.192509  0.381212  1
  P  P31  1  0.000000  0.807491  0.381212  1
  P  P32  1  0.500000  0.846063  0.893548  1
  P  P33  1  0.500000  0.153937  0.893548  1
  P  P34  1  0.000000  0.653937  0.106452  1
  P  P35  1  0.000000  0.346063  0.106452  1
