# generated using pymatgen
data_DyHo3(FeC4)2
_symmetry_space_group_name_H-M   'P 1'
_cell_length_a   5.02046379
_cell_length_b   6.56970125
_cell_length_c   6.58418688
_cell_angle_alpha   69.16137234
_cell_angle_beta   67.58876689
_cell_angle_gamma   67.53666147
_symmetry_Int_Tables_number   1
_chemical_formula_structural   DyHo3(FeC4)2
_chemical_formula_sum   'Dy1 Ho3 Fe2 C8'
_cell_volume   179.83468121
_cell_formula_units_Z   1
loop_
 _symmetry_equiv_pos_site_id
 _symmetry_equiv_pos_as_xyz
  1  'x, y, z'
loop_
 _atom_site_type_symbol
 _atom_site_label
 _atom_site_symmetry_multiplicity
 _atom_site_fract_x
 _atom_site_fract_y
 _atom_site_fract_z
 _atom_site_occupancy
  Dy  Dy0  1  0.854988  0.488192  0.801833  1
  Ho  Ho1  1  0.643953  0.198919  0.513175  1
  Ho  Ho2  1  0.355920  0.800955  0.487206  1
  Ho  Ho3  1  0.144049  0.511910  0.199991  1
  Fe  Fe4  1  0.250217  0.999955  0.999338  1
  Fe  Fe5  1  0.750490  0.999955  0.999338  1
  C  C6  1  0.871095  0.792245  0.465564  1
  C  C7  1  0.129637  0.207820  0.532907  1
  C  C8  1  0.370892  0.467031  0.791184  1
  C  C9  1  0.628281  0.533175  0.210264  1
  C  C10  1  0.922193  0.913267  0.242346  1
  C  C11  1  0.078640  0.086524  0.756198  1
  C  C12  1  0.421950  0.243600  0.912499  1
  C  C13  1  0.577696  0.756453  0.088157  1
