# generated using pymatgen
data_Pr6Nd2Si12IrPd3
_symmetry_space_group_name_H-M   'P 1'
_cell_length_a   8.27807502
_cell_length_b   8.27807618
_cell_length_c   8.58126200
_cell_angle_alpha   89.99888137
_cell_angle_beta   90.00112151
_cell_angle_gamma   120.00698028
_symmetry_Int_Tables_number   1
_chemical_formula_structural   Pr6Nd2Si12IrPd3
_chemical_formula_sum   'Pr6 Nd2 Si12 Ir1 Pd3'
_cell_volume   509.22535346
_cell_formula_units_Z   1
loop_
 _symmetry_equiv_pos_site_id
 _symmetry_equiv_pos_as_xyz
  1  'x, y, z'
loop_
 _atom_site_type_symbol
 _atom_site_label
 _atom_site_symmetry_multiplicity
 _atom_site_fract_x
 _atom_site_fract_y
 _atom_site_fract_z
 _atom_site_occupancy
  Pr  Pr0  1  0.997796  0.498906  0.752252  1
  Pr  Pr1  1  0.995683  0.497873  0.247912  1
  Pr  Pr2  1  0.501094  0.002204  0.752252  1
  Pr  Pr3  1  0.502127  0.004317  0.247912  1
  Pr  Pr4  1  0.999980  0.000020  0.749103  1
  Pr  Pr5  1  0.999980  0.000020  0.250718  1
  Nd  Nd6  1  0.501397  0.498603  0.752549  1
  Nd  Nd7  1  0.502333  0.497667  0.247561  1
  Si  Si8  1  0.832343  0.167657  0.000633  1
  Si  Si9  1  0.165223  0.834777  0.999412  1
  Si  Si10  1  0.335202  0.168120  0.000724  1
  Si  Si11  1  0.165560  0.834440  0.500692  1
  Si  Si12  1  0.669198  0.834175  0.999331  1
  Si  Si13  1  0.834963  0.165037  0.499081  1
  Si  Si14  1  0.831880  0.664798  0.000724  1
  Si  Si15  1  0.668575  0.833824  0.500790  1
  Si  Si16  1  0.165825  0.330802  0.999331  1
  Si  Si17  1  0.330369  0.165661  0.499015  1
  Si  Si18  1  0.166176  0.331425  0.500790  1
  Si  Si19  1  0.834339  0.669631  0.499015  1
  Ir  Ir20  1  0.666234  0.333766  0.997365  1
  Pd  Pd21  1  0.333694  0.666306  0.002761  1
  Pd  Pd22  1  0.333769  0.666231  0.498080  1
  Pd  Pd23  1  0.666259  0.333741  0.501996  1
