# generated using pymatgen
data_K2Ho(BO3)2
_symmetry_space_group_name_H-M   'P 1'
_cell_length_a   6.90750688
_cell_length_b   6.90750714
_cell_length_c   6.90750630
_cell_angle_alpha   46.64788531
_cell_angle_beta   46.64788176
_cell_angle_gamma   46.64788388
_symmetry_Int_Tables_number   1
_chemical_formula_structural   K2Ho(BO3)2
_chemical_formula_sum   'K2 Ho1 B2 O6'
_cell_volume   159.17481515
_cell_formula_units_Z   1
loop_
 _symmetry_equiv_pos_site_id
 _symmetry_equiv_pos_as_xyz
  1  'x, y, z'
loop_
 _atom_site_type_symbol
 _atom_site_label
 _atom_site_symmetry_multiplicity
 _atom_site_fract_x
 _atom_site_fract_y
 _atom_site_fract_z
 _atom_site_occupancy
  K  K0  1  0.793442  0.793442  0.793442  1
  K  K1  1  0.206558  0.206558  0.206558  1
  Ho  Ho2  1  0.000000  0.000000  0.000000  1
  B  B3  1  0.591935  0.591935  0.591935  1
  B  B4  1  0.408065  0.408065  0.408065  1
  O  O5  1  0.300588  0.737381  0.737381  1
  O  O6  1  0.262619  0.262619  0.699412  1
  O  O7  1  0.262619  0.699412  0.262619  1
  O  O8  1  0.699412  0.262619  0.262619  1
  O  O9  1  0.737381  0.737381  0.300588  1
  O  O10  1  0.737381  0.300588  0.737381  1
