# generated using pymatgen
data_Ta8Fe8Si13P
_symmetry_space_group_name_H-M   'P 1'
_cell_length_a   9.19590724
_cell_length_b   9.19590742
_cell_length_c   9.21744100
_cell_angle_alpha   94.23536281
_cell_angle_beta   94.23536289
_cell_angle_gamma   148.42403905
_symmetry_Int_Tables_number   1
_chemical_formula_structural   Ta8Fe8Si13P
_chemical_formula_sum   'Ta8 Fe8 Si13 P1'
_cell_volume   392.82856529
_cell_formula_units_Z   1
loop_
 _symmetry_equiv_pos_site_id
 _symmetry_equiv_pos_as_xyz
  1  'x, y, z'
loop_
 _atom_site_type_symbol
 _atom_site_label
 _atom_site_symmetry_multiplicity
 _atom_site_fract_x
 _atom_site_fract_y
 _atom_site_fract_z
 _atom_site_occupancy
  Ta  Ta0  1  0.308249  0.497855  0.806104  1
  Ta  Ta1  1  0.691395  0.499233  0.190628  1
  Ta  Ta2  1  0.499233  0.691395  0.190628  1
  Ta  Ta3  1  0.497855  0.308249  0.806104  1
  Ta  Ta4  1  0.135037  0.135037  0.270074  1
  Ta  Ta5  1  0.865030  0.865030  0.730061  1
  Ta  Ta6  1  0.134848  0.865612  0.000460  1
  Ta  Ta7  1  0.865612  0.134848  0.000460  1
  Fe  Fe8  1  0.399394  0.899394  0.798787  1
  Fe  Fe9  1  0.100476  0.600476  0.200952  1
  Fe  Fe10  1  0.905051  0.100647  0.502263  1
  Fe  Fe11  1  0.597213  0.401616  0.502263  1
  Fe  Fe12  1  0.600476  0.100476  0.200952  1
  Fe  Fe13  1  0.899394  0.399394  0.798787  1
  Fe  Fe14  1  0.100647  0.905051  0.502263  1
  Fe  Fe15  1  0.401616  0.597213  0.502263  1
  Si  Si16  1  0.706638  0.706638  0.413276  1
  Si  Si17  1  0.290515  0.708905  0.999420  1
  Si  Si18  1  0.708905  0.290515  0.999420  1
  Si  Si19  1  0.094049  0.499492  0.593541  1
  Si  Si20  1  0.905085  0.501114  0.406199  1
  Si  Si21  1  0.501114  0.905085  0.406199  1
  Si  Si22  1  0.499492  0.094049  0.593541  1
  Si  Si23  1  0.248925  0.248925  0.999683  1
  Si  Si24  1  0.750758  0.750758  0.999683  1
  Si  Si25  1  0.299153  0.000738  0.299891  1
  Si  Si26  1  0.701555  0.999775  0.701330  1
  Si  Si27  1  0.999775  0.701555  0.701330  1
  Si  Si28  1  0.000738  0.299153  0.299891  1
  P  P29  1  0.291772  0.291772  0.583545  1
