# generated using pymatgen
data_Tb2Ho17MgIr12
_symmetry_space_group_name_H-M   'P 1'
_cell_length_a   10.83360151
_cell_length_b   10.83068106
_cell_length_c   6.30194729
_cell_angle_alpha   89.99231486
_cell_angle_beta   90.03390466
_cell_angle_gamma   89.99112548
_symmetry_Int_Tables_number   1
_chemical_formula_structural   Tb2Ho17MgIr12
_chemical_formula_sum   'Tb2 Ho17 Mg1 Ir12'
_cell_volume   739.44062131
_cell_formula_units_Z   1
loop_
 _symmetry_equiv_pos_site_id
 _symmetry_equiv_pos_as_xyz
  1  'x, y, z'
loop_
 _atom_site_type_symbol
 _atom_site_label
 _atom_site_symmetry_multiplicity
 _atom_site_fract_x
 _atom_site_fract_y
 _atom_site_fract_z
 _atom_site_occupancy
  Tb  Tb0  1  0.283900  0.085170  0.378489  1
  Tb  Tb1  1  0.289974  0.911532  0.878711  1
  Ho  Ho2  1  0.709442  0.088197  0.879420  1
  Ho  Ho3  1  0.715575  0.915256  0.379221  1
  Ho  Ho4  1  0.589250  0.791838  0.879611  1
  Ho  Ho5  1  0.588135  0.208081  0.377798  1
  Ho  Ho6  1  0.412600  0.791698  0.377782  1
  Ho  Ho7  1  0.411431  0.208361  0.879623  1
  Ho  Ho8  1  0.207961  0.412317  0.622281  1
  Ho  Ho9  1  0.208014  0.588776  0.120425  1
  Ho  Ho10  1  0.791951  0.411148  0.120345  1
  Ho  Ho11  1  0.792032  0.587723  0.622155  1
  Ho  Ho12  1  0.911845  0.709372  0.120536  1
  Ho  Ho13  1  0.915225  0.284529  0.620741  1
  Ho  Ho14  1  0.084443  0.715232  0.620699  1
  Ho  Ho15  1  0.087833  0.290940  0.120425  1
  Ho  Ho16  1  0.999626  0.000106  0.000227  1
  Ho  Ho17  1  0.500047  0.500012  0.000071  1
  Ho  Ho18  1  0.500084  0.499967  0.500096  1
  Mg  Mg19  1  0.999725  0.999935  0.500141  1
  Ir  Ir20  1  0.846497  0.154152  0.247882  1
  Ir  Ir21  1  0.845903  0.846278  0.752107  1
  Ir  Ir22  1  0.153581  0.154299  0.753055  1
  Ir  Ir23  1  0.152961  0.845086  0.248623  1
  Ir  Ir24  1  0.654370  0.346127  0.748353  1
  Ir  Ir25  1  0.653874  0.654384  0.251689  1
  Ir  Ir26  1  0.346239  0.346200  0.251339  1
  Ir  Ir27  1  0.345730  0.653294  0.748048  1
  Ir  Ir28  1  0.500958  0.999966  0.124043  1
  Ir  Ir29  1  0.500936  0.000009  0.620538  1
  Ir  Ir30  1  0.999926  0.499971  0.876020  1
  Ir  Ir31  1  0.999930  0.500041  0.379507  1
