# generated using pymatgen
data_Zr6Ti6Si5B
_symmetry_space_group_name_H-M   'P 1'
_cell_length_a   7.84608791
_cell_length_b   7.84633025
_cell_length_c   7.84608900
_cell_angle_alpha   127.27465792
_cell_angle_beta   125.34712529
_cell_angle_gamma   79.38677040
_symmetry_Int_Tables_number   1
_chemical_formula_structural   Zr6Ti6Si5B
_chemical_formula_sum   'Zr6 Ti6 Si5 B1'
_cell_volume   303.06019140
_cell_formula_units_Z   1
loop_
 _symmetry_equiv_pos_site_id
 _symmetry_equiv_pos_as_xyz
  1  'x, y, z'
loop_
 _atom_site_type_symbol
 _atom_site_label
 _atom_site_symmetry_multiplicity
 _atom_site_fract_x
 _atom_site_fract_y
 _atom_site_fract_z
 _atom_site_occupancy
  Zr  Zr0  1  0.453817  0.658932  0.705115  1
  Zr  Zr1  1  0.549332  0.255688  0.206356  1
  Zr  Zr2  1  0.750007  0.847904  0.597897  1
  Zr  Zr3  1  0.250014  0.851391  0.101376  1
  Zr  Zr4  1  0.046142  0.251319  0.705178  1
  Zr  Zr5  1  0.950643  0.656954  0.206312  1
  Ti  Ti6  1  0.482834  0.492086  0.974936  1
  Ti  Ti7  1  0.017150  0.492086  0.509252  1
  Ti  Ti8  1  0.135245  0.253664  0.148734  1
  Ti  Ti9  1  0.895132  0.013525  0.148810  1
  Ti  Ti10  1  0.364715  0.013525  0.618393  1
  Ti  Ti11  1  0.604930  0.253664  0.618419  1
  Si  Si12  1  0.749993  0.252007  0.002016  1
  Si  Si13  1  0.332585  0.586907  0.252601  1
  Si  Si14  1  0.665695  0.920019  0.252607  1
  Si  Si15  1  0.167411  0.920019  0.754323  1
  Si  Si16  1  0.834307  0.586907  0.754322  1
  B  B17  1  0.250050  0.253002  0.502954  1
