# generated using pymatgen
data_FeReClO4
_symmetry_space_group_name_H-M   'P 1'
_cell_length_a   5.98258355
_cell_length_b   6.02356557
_cell_length_c   8.50584504
_cell_angle_alpha   105.43321639
_cell_angle_beta   109.52961528
_cell_angle_gamma   93.95336316
_symmetry_Int_Tables_number   1
_chemical_formula_structural   FeReClO4
_chemical_formula_sum   'Fe2 Re2 Cl2 O8'
_cell_volume   274.23078483
_cell_formula_units_Z   2
loop_
 _symmetry_equiv_pos_site_id
 _symmetry_equiv_pos_as_xyz
  1  'x, y, z'
loop_
 _atom_site_type_symbol
 _atom_site_label
 _atom_site_symmetry_multiplicity
 _atom_site_fract_x
 _atom_site_fract_y
 _atom_site_fract_z
 _atom_site_occupancy
  Fe  Fe0  1  0.999796  0.999877  0.999863  1
  Fe  Fe1  1  0.500022  0.499841  0.499850  1
  Re  Re2  1  0.627616  0.937596  0.268114  1
  Re  Re3  1  0.372375  0.062427  0.731957  1
  Cl  Cl4  1  0.155638  0.380628  0.223691  1
  Cl  Cl5  1  0.844473  0.619390  0.776203  1
  O  O6  1  0.338729  0.877515  0.106674  1
  O  O7  1  0.842963  0.889843  0.169974  1
  O  O8  1  0.682370  0.231716  0.394098  1
  O  O9  1  0.643902  0.758770  0.403042  1
  O  O10  1  0.356060  0.241217  0.596938  1
  O  O11  1  0.317780  0.768360  0.606069  1
  O  O12  1  0.156992  0.110120  0.830008  1
  O  O13  1  0.661286  0.122697  0.893517  1
