# generated using pymatgen
data_V4Se9I4
_symmetry_space_group_name_H-M   'P 1'
_cell_length_a   11.68936700
_cell_length_b   11.68936700
_cell_length_c   8.01502000
_cell_angle_alpha   90.00000000
_cell_angle_beta   90.00000000
_cell_angle_gamma   90.00000000
_symmetry_Int_Tables_number   1
_chemical_formula_structural   V4Se9I4
_chemical_formula_sum   'V8 Se18 I8'
_cell_volume   1095.18275922
_cell_formula_units_Z   2
loop_
 _symmetry_equiv_pos_site_id
 _symmetry_equiv_pos_as_xyz
  1  'x, y, z'
loop_
 _atom_site_type_symbol
 _atom_site_label
 _atom_site_symmetry_multiplicity
 _atom_site_fract_x
 _atom_site_fract_y
 _atom_site_fract_z
 _atom_site_occupancy
  V  V0  1  0.632579  0.132579  0.374120  1
  V  V1  1  0.132579  0.632579  0.625880  1
  V  V2  1  0.367421  0.867421  0.374120  1
  V  V3  1  0.132579  0.367421  0.625880  1
  V  V4  1  0.867421  0.632579  0.625880  1
  V  V5  1  0.632579  0.867421  0.374120  1
  V  V6  1  0.367421  0.132579  0.374120  1
  V  V7  1  0.867421  0.367421  0.625880  1
  Se  Se8  1  0.000000  0.293025  0.851181  1
  Se  Se9  1  0.803506  0.000000  0.402067  1
  Se  Se10  1  0.196494  0.000000  0.402067  1
  Se  Se11  1  0.696494  0.500000  0.597933  1
  Se  Se12  1  0.793025  0.500000  0.851181  1
  Se  Se13  1  0.706975  0.000000  0.148819  1
  Se  Se14  1  0.500000  0.000000  0.522881  1
  Se  Se15  1  0.293025  0.000000  0.148819  1
  Se  Se16  1  0.500000  0.303506  0.402067  1
  Se  Se17  1  0.303506  0.500000  0.597933  1
  Se  Se18  1  0.500000  0.793025  0.148819  1
  Se  Se19  1  0.000000  0.803506  0.597933  1
  Se  Se20  1  0.000000  0.500000  0.477119  1
  Se  Se21  1  0.500000  0.696494  0.402067  1
  Se  Se22  1  0.500000  0.206975  0.148819  1
  Se  Se23  1  0.000000  0.196494  0.597933  1
  Se  Se24  1  0.206975  0.500000  0.851181  1
  Se  Se25  1  0.000000  0.706975  0.851181  1
  I  I26  1  0.303065  0.803065  0.707572  1
  I  I27  1  0.803065  0.696935  0.292428  1
  I  I28  1  0.696935  0.196935  0.707572  1
  I  I29  1  0.803065  0.303065  0.292428  1
  I  I30  1  0.196935  0.303065  0.292428  1
  I  I31  1  0.303065  0.196935  0.707572  1
  I  I32  1  0.696935  0.803065  0.707572  1
  I  I33  1  0.196935  0.696935  0.292428  1
