# generated using pymatgen
data_Y12Ho4MgHg3Pd4
_symmetry_space_group_name_H-M   'P 1'
_cell_length_a   9.69360967
_cell_length_b   9.70819015
_cell_length_c   9.70819000
_cell_angle_alpha   60.00000050
_cell_angle_beta   59.95023171
_cell_angle_gamma   59.95023308
_symmetry_Int_Tables_number   1
_chemical_formula_structural   Y12Ho4MgHg3Pd4
_chemical_formula_sum   'Y12 Ho4 Mg1 Hg3 Pd4'
_cell_volume   645.53526292
_cell_formula_units_Z   1
loop_
 _symmetry_equiv_pos_site_id
 _symmetry_equiv_pos_as_xyz
  1  'x, y, z'
loop_
 _atom_site_type_symbol
 _atom_site_label
 _atom_site_symmetry_multiplicity
 _atom_site_fract_x
 _atom_site_fract_y
 _atom_site_fract_z
 _atom_site_occupancy
  Y  Y0  1  0.809326  0.189990  0.189990  1
  Y  Y1  1  0.186083  0.812557  0.812557  1
  Y  Y2  1  0.186083  0.812557  0.188803  1
  Y  Y3  1  0.809326  0.189990  0.810694  1
  Y  Y4  1  0.186083  0.188803  0.812557  1
  Y  Y5  1  0.809326  0.810694  0.189990  1
  Y  Y6  1  0.933045  0.566063  0.566063  1
  Y  Y7  1  0.564961  0.934686  0.934686  1
  Y  Y8  1  0.564961  0.934686  0.565667  1
  Y  Y9  1  0.933045  0.566063  0.934829  1
  Y  Y10  1  0.564961  0.565667  0.934686  1
  Y  Y11  1  0.933045  0.934829  0.566063  1
  Ho  Ho12  1  0.356731  0.352890  0.352890  1
  Ho  Ho13  1  0.356731  0.352890  0.937490  1
  Ho  Ho14  1  0.356731  0.937490  0.352890  1
  Ho  Ho15  1  0.925958  0.358014  0.358014  1
  Mg  Mg16  1  0.279369  0.573543  0.573543  1
  Hg  Hg17  1  0.583124  0.589161  0.589161  1
  Hg  Hg18  1  0.583124  0.589161  0.238553  1
  Hg  Hg19  1  0.583124  0.238553  0.589161  1
  Pd  Pd20  1  0.143623  0.146986  0.146986  1
  Pd  Pd21  1  0.143623  0.146986  0.562405  1
  Pd  Pd22  1  0.143623  0.562405  0.146986  1
  Pd  Pd23  1  0.563991  0.145336  0.145336  1
