# generated using pymatgen
data_Tm4Al18ZnRuRh4
_symmetry_space_group_name_H-M   'P 1'
_cell_length_a   7.56523007
_cell_length_b   7.56523064
_cell_length_c   9.42469335
_cell_angle_alpha   90.05969169
_cell_angle_beta   90.05969441
_cell_angle_gamma   119.50161784
_symmetry_Int_Tables_number   1
_chemical_formula_structural   Tm4Al18ZnRuRh4
_chemical_formula_sum   'Tm4 Al18 Zn1 Ru1 Rh4'
_cell_volume   469.46200602
_cell_formula_units_Z   1
loop_
 _symmetry_equiv_pos_site_id
 _symmetry_equiv_pos_as_xyz
  1  'x, y, z'
loop_
 _atom_site_type_symbol
 _atom_site_label
 _atom_site_symmetry_multiplicity
 _atom_site_fract_x
 _atom_site_fract_y
 _atom_site_fract_z
 _atom_site_occupancy
  Tm  Tm0  1  0.995477  0.675076  0.248903  1
  Tm  Tm1  1  0.004556  0.324587  0.751042  1
  Tm  Tm2  1  0.675413  0.995444  0.248958  1
  Tm  Tm3  1  0.324924  0.004523  0.751097  1
  Al  Al4  1  0.133748  0.134369  0.256021  1
  Al  Al5  1  0.865631  0.866252  0.743979  1
  Al  Al6  1  0.000171  0.344241  0.079429  1
  Al  Al7  1  0.997565  0.654133  0.920626  1
  Al  Al8  1  0.001129  0.664295  0.574456  1
  Al  Al9  1  0.335705  0.998871  0.425544  1
  Al  Al10  1  0.998947  0.336467  0.425786  1
  Al  Al11  1  0.663533  0.001053  0.574214  1
  Al  Al12  1  0.655759  0.999829  0.920571  1
  Al  Al13  1  0.345867  0.002435  0.079374  1
  Al  Al14  1  0.332555  0.332875  0.552759  1
  Al  Al15  1  0.667125  0.667445  0.447241  1
  Al  Al16  1  0.658751  0.656706  0.057179  1
  Al  Al17  1  0.343294  0.341249  0.942821  1
  Al  Al18  1  0.337918  0.551941  0.251008  1
  Al  Al19  1  0.661433  0.447305  0.749894  1
  Al  Al20  1  0.552695  0.338567  0.250106  1
  Al  Al21  1  0.448059  0.662082  0.748992  1
  Zn  Zn22  1  0.999933  0.000067  0.000000  1
  Ru  Ru23  1  0.672301  0.327699  0.000000  1
  Rh  Rh24  1  0.327972  0.672028  0.000000  1
  Rh  Rh25  1  0.327954  0.672046  0.500000  1
  Rh  Rh26  1  0.671774  0.328226  0.500000  1
  Rh  Rh27  1  0.999810  0.000190  0.500000  1
