# generated using pymatgen
data_Lu8Tc(B8Os)3
_symmetry_space_group_name_H-M   'P 1'
_cell_length_a   3.60116500
_cell_length_b   9.03493799
_cell_length_c   11.40617224
_cell_angle_alpha   89.94648483
_cell_angle_beta   90.00000000
_cell_angle_gamma   90.00000000
_symmetry_Int_Tables_number   1
_chemical_formula_structural   Lu8Tc(B8Os)3
_chemical_formula_sum   'Lu8 Tc1 B24 Os3'
_cell_volume   371.11450804
_cell_formula_units_Z   1
loop_
 _symmetry_equiv_pos_site_id
 _symmetry_equiv_pos_as_xyz
  1  'x, y, z'
loop_
 _atom_site_type_symbol
 _atom_site_label
 _atom_site_symmetry_multiplicity
 _atom_site_fract_x
 _atom_site_fract_y
 _atom_site_fract_z
 _atom_site_occupancy
  Lu  Lu0  1  0.000000  0.323417  0.412941  1
  Lu  Lu1  1  0.000000  0.677942  0.583088  1
  Lu  Lu2  1  0.000000  0.819211  0.088300  1
  Lu  Lu3  1  0.000000  0.178480  0.914927  1
  Lu  Lu4  1  0.000000  0.942974  0.372833  1
  Lu  Lu5  1  0.000000  0.056504  0.626995  1
  Lu  Lu6  1  0.000000  0.445041  0.127970  1
  Lu  Lu7  1  0.000000  0.556326  0.872693  1
  Tc  Tc8  1  0.000000  0.637727  0.321163  1
  B  B9  1  0.500000  0.552549  0.433897  1
  B  B10  1  0.500000  0.446723  0.566739  1
  B  B11  1  0.500000  0.053421  0.066220  1
  B  B12  1  0.500000  0.946627  0.933889  1
  B  B13  1  0.500000  0.749348  0.420012  1
  B  B14  1  0.500000  0.250770  0.579839  1
  B  B15  1  0.500000  0.249600  0.079737  1
  B  B16  1  0.500000  0.750673  0.920172  1
  B  B17  1  0.500000  0.792545  0.265590  1
  B  B18  1  0.500000  0.207734  0.734540  1
  B  B19  1  0.500000  0.291967  0.233747  1
  B  B20  1  0.500000  0.708194  0.765559  1
  B  B21  1  0.500000  0.631117  0.184659  1
  B  B22  1  0.500000  0.368618  0.815884  1
  B  B23  1  0.500000  0.131018  0.315100  1
  B  B24  1  0.500000  0.869196  0.684404  1
  B  B25  1  0.500000  0.981631  0.212878  1
  B  B26  1  0.500000  0.018397  0.787434  1
  B  B27  1  0.500000  0.481060  0.287122  1
  B  B28  1  0.500000  0.518132  0.713168  1
  B  B29  1  0.500000  0.604929  0.028610  1
  B  B30  1  0.500000  0.394947  0.970879  1
  B  B31  1  0.500000  0.105543  0.470839  1
  B  B32  1  0.500000  0.895866  0.529243  1
  Os  Os33  1  0.000000  0.361728  0.679509  1
  Os  Os34  1  0.000000  0.137631  0.178198  1
  Os  Os35  1  0.000000  0.862410  0.821220  1
