# generated using pymatgen
data_Y3Ho5Ti12Si15As
_symmetry_space_group_name_H-M   'P 1'
_cell_length_a   7.04948804
_cell_length_b   7.04292946
_cell_length_c   12.94974005
_cell_angle_alpha   89.97977540
_cell_angle_beta   89.82528165
_cell_angle_gamma   89.92986163
_symmetry_Int_Tables_number   1
_chemical_formula_structural   Y3Ho5Ti12Si15As
_chemical_formula_sum   'Y3 Ho5 Ti12 Si15 As1'
_cell_volume   642.93874155
_cell_formula_units_Z   1
loop_
 _symmetry_equiv_pos_site_id
 _symmetry_equiv_pos_as_xyz
  1  'x, y, z'
loop_
 _atom_site_type_symbol
 _atom_site_label
 _atom_site_symmetry_multiplicity
 _atom_site_fract_x
 _atom_site_fract_y
 _atom_site_fract_z
 _atom_site_occupancy
  Y  Y0  1  0.341513  0.002234  0.466140  1
  Y  Y1  1  0.497009  0.842000  0.717445  1
  Y  Y2  1  0.502701  0.159070  0.216463  1
  Ho  Ho3  1  0.840914  0.497339  0.283240  1
  Ho  Ho4  1  0.158536  0.501597  0.783448  1
  Ho  Ho5  1  0.660239  0.995492  0.967373  1
  Ho  Ho6  1  0.999850  0.343489  0.532080  1
  Ho  Ho7  1  0.997949  0.659061  0.033498  1
  Ti  Ti8  1  0.325823  0.326623  0.999614  1
  Ti  Ti9  1  0.172968  0.826745  0.249930  1
  Ti  Ti10  1  0.823845  0.173803  0.750241  1
  Ti  Ti11  1  0.673412  0.672772  0.499991  1
  Ti  Ti12  1  0.153496  0.008971  0.875623  1
  Ti  Ti13  1  0.491934  0.651662  0.125764  1
  Ti  Ti14  1  0.509104  0.348020  0.626968  1
  Ti  Ti15  1  0.653985  0.494205  0.874738  1
  Ti  Ti16  1  0.347579  0.507717  0.374039  1
  Ti  Ti17  1  0.847815  0.992267  0.375792  1
  Ti  Ti18  1  0.007858  0.151571  0.124112  1
  Ti  Ti19  1  0.989903  0.844340  0.623336  1
  Si  Si20  1  0.368376  0.703018  0.933885  1
  Si  Si21  1  0.630527  0.298078  0.434540  1
  Si  Si22  1  0.703127  0.369619  0.065921  1
  Si  Si23  1  0.297179  0.630208  0.565977  1
  Si  Si24  1  0.797386  0.868883  0.184348  1
  Si  Si25  1  0.130356  0.203041  0.316010  1
  Si  Si26  1  0.870175  0.797620  0.815695  1
  Si  Si27  1  0.290658  0.952442  0.064402  1
  Si  Si28  1  0.547550  0.789912  0.314477  1
  Si  Si29  1  0.460960  0.211448  0.819330  1
  Si  Si30  1  0.791095  0.546657  0.685185  1
  Si  Si31  1  0.208700  0.453013  0.185362  1
  Si  Si32  1  0.709412  0.046806  0.564237  1
  Si  Si33  1  0.953344  0.290809  0.935452  1
  Si  Si34  1  0.046890  0.709363  0.434914  1
  As  As35  1  0.197832  0.130106  0.680432  1
