# generated using pymatgen
data_CeTc2PC
_symmetry_space_group_name_H-M   'P 1'
_cell_length_a   3.84803600
_cell_length_b   5.86225644
_cell_length_c   7.26386800
_cell_angle_alpha   90.00000000
_cell_angle_beta   90.00000000
_cell_angle_gamma   70.84017763
_symmetry_Int_Tables_number   1
_chemical_formula_structural   CeTc2PC
_chemical_formula_sum   'Ce2 Tc4 P2 C2'
_cell_volume   154.78288125
_cell_formula_units_Z   2
loop_
 _symmetry_equiv_pos_site_id
 _symmetry_equiv_pos_as_xyz
  1  'x, y, z'
loop_
 _atom_site_type_symbol
 _atom_site_label
 _atom_site_symmetry_multiplicity
 _atom_site_fract_x
 _atom_site_fract_y
 _atom_site_fract_z
 _atom_site_occupancy
  Ce  Ce0  1  0.955432  0.089137  0.250000  1
  Ce  Ce1  1  0.044568  0.910864  0.750000  1
  Tc  Tc2  1  0.670155  0.659693  0.060748  1
  Tc  Tc3  1  0.670155  0.659693  0.439253  1
  Tc  Tc4  1  0.329845  0.340308  0.560748  1
  Tc  Tc5  1  0.329845  0.340308  0.939252  1
  P  P6  1  0.231664  0.536673  0.250000  1
  P  P7  1  0.768338  0.463326  0.750000  1
  C  C8  1  0.500000  0.000000  0.000000  1
  C  C9  1  0.500000  0.000000  0.500000  1
