# generated using pymatgen
data_GdErMn2Al2O10
_symmetry_space_group_name_H-M   'P 1'
_cell_length_a   5.65929700
_cell_length_b   7.29585852
_cell_length_c   8.43787327
_cell_angle_alpha   89.87189393
_cell_angle_beta   90.00000000
_cell_angle_gamma   90.00000000
_symmetry_Int_Tables_number   1
_chemical_formula_structural   GdErMn2Al2O10
_chemical_formula_sum   'Gd2 Er2 Mn4 Al4 O20'
_cell_volume   348.39410879
_cell_formula_units_Z   2
loop_
 _symmetry_equiv_pos_site_id
 _symmetry_equiv_pos_as_xyz
  1  'x, y, z'
loop_
 _atom_site_type_symbol
 _atom_site_label
 _atom_site_symmetry_multiplicity
 _atom_site_fract_x
 _atom_site_fract_y
 _atom_site_fract_z
 _atom_site_occupancy
  Gd  Gd0  1  0.000000  0.365380  0.668941  1
  Gd  Gd1  1  0.000000  0.634620  0.331059  1
  Er  Er2  1  0.000000  0.866590  0.830603  1
  Er  Er3  1  0.000000  0.133410  0.169397  1
  Mn  Mn4  1  0.254202  0.500000  0.000000  1
  Mn  Mn5  1  0.745221  0.000000  0.500000  1
  Mn  Mn6  1  0.745798  0.500000  0.000000  1
  Mn  Mn7  1  0.254779  0.000000  0.500000  1
  Al  Al8  1  0.500000  0.106029  0.859001  1
  Al  Al9  1  0.500000  0.893971  0.140999  1
  Al  Al10  1  0.500000  0.609000  0.642193  1
  Al  Al11  1  0.500000  0.391000  0.357807  1
  O  O12  1  0.251535  0.901340  0.289408  1
  O  O13  1  0.251535  0.098660  0.710592  1
  O  O14  1  0.748461  0.390435  0.209219  1
  O  O15  1  0.748461  0.609565  0.790781  1
  O  O16  1  0.748465  0.098660  0.710592  1
  O  O17  1  0.748465  0.901340  0.289408  1
  O  O18  1  0.251539  0.609565  0.790781  1
  O  O19  1  0.251539  0.390435  0.209219  1
  O  O20  1  0.500000  0.342674  0.925974  1
  O  O21  1  0.500000  0.657326  0.074026  1
  O  O22  1  0.500000  0.840682  0.566181  1
  O  O23  1  0.500000  0.159318  0.433819  1
  O  O24  1  0.278039  0.000000  0.000000  1
  O  O25  1  0.717584  0.500000  0.500000  1
  O  O26  1  0.721961  0.000000  0.000000  1
  O  O27  1  0.282416  0.500000  0.500000  1
  O  O28  1  0.000000  0.161577  0.442776  1
  O  O29  1  0.000000  0.838423  0.557224  1
  O  O30  1  0.000000  0.663155  0.053718  1
  O  O31  1  0.000000  0.336845  0.946282  1
