# generated using pymatgen
data_TbDy4Er(Si3Ru)8
_symmetry_space_group_name_H-M   'P 1'
_cell_length_a   10.11808922
_cell_length_b   10.11840046
_cell_length_c   8.14065413
_cell_angle_alpha   90.06116443
_cell_angle_beta   89.93406609
_cell_angle_gamma   132.55638104
_symmetry_Int_Tables_number   1
_chemical_formula_structural   TbDy4Er(Si3Ru)8
_chemical_formula_sum   'Tb1 Dy4 Er1 Si24 Ru8'
_cell_volume   613.91499870
_cell_formula_units_Z   1
loop_
 _symmetry_equiv_pos_site_id
 _symmetry_equiv_pos_as_xyz
  1  'x, y, z'
loop_
 _atom_site_type_symbol
 _atom_site_label
 _atom_site_symmetry_multiplicity
 _atom_site_fract_x
 _atom_site_fract_y
 _atom_site_fract_z
 _atom_site_occupancy
  Tb  Tb0  1  0.497600  0.997600  0.249972  1
  Dy  Dy1  1  0.002097  0.502093  0.750018  1
  Dy  Dy2  1  0.502316  0.002315  0.750022  1
  Dy  Dy3  1  0.997367  0.497374  0.249977  1
  Dy  Dy4  1  0.499989  0.499954  0.500066  1
  Er  Er5  1  0.999920  0.999943  0.999954  1
  Si  Si6  1  0.387213  0.152805  0.004493  1
  Si  Si7  1  0.652887  0.887390  0.495539  1
  Si  Si8  1  0.110501  0.343201  0.503537  1
  Si  Si9  1  0.843275  0.610673  0.996419  1
  Si  Si10  1  0.613003  0.847810  0.993536  1
  Si  Si11  1  0.347727  0.112833  0.506421  1
  Si  Si12  1  0.889386  0.656621  0.495345  1
  Si  Si13  1  0.156554  0.389222  0.004691  1
  Si  Si14  1  0.612720  0.378091  0.228436  1
  Si  Si15  1  0.878073  0.112586  0.271413  1
  Si  Si16  1  0.886520  0.120276  0.728040  1
  Si  Si17  1  0.620282  0.386402  0.772110  1
  Si  Si18  1  0.388773  0.623009  0.772030  1
  Si  Si19  1  0.123024  0.888898  0.728118  1
  Si  Si20  1  0.704390  0.293809  0.999774  1
  Si  Si21  1  0.793824  0.204399  0.500214  1
  Si  Si22  1  0.295491  0.706039  0.999979  1
  Si  Si23  1  0.206019  0.795482  0.500032  1
  Si  Si24  1  0.168080  0.166516  0.332893  1
  Si  Si25  1  0.666735  0.668291  0.166864  1
  Si  Si26  1  0.332532  0.332418  0.833333  1
  Si  Si27  1  0.832645  0.832768  0.666920  1
  Si  Si28  1  0.378018  0.612555  0.228999  1
  Si  Si29  1  0.112447  0.878028  0.270841  1
  Ru  Ru30  1  0.626552  0.626868  0.873451  1
  Ru  Ru31  1  0.126245  0.125940  0.627259  1
  Ru  Ru32  1  0.873784  0.874421  0.372413  1
  Ru  Ru33  1  0.373815  0.373197  0.126875  1
  Ru  Ru34  1  0.327664  0.665977  0.501135  1
  Ru  Ru35  1  0.165715  0.827908  0.998852  1
  Ru  Ru36  1  0.672390  0.334150  0.500765  1
  Ru  Ru37  1  0.834427  0.172135  0.999264  1
