# generated using pymatgen
data_Y20Cd3TcHg3Pd
_symmetry_space_group_name_H-M   'P 1'
_cell_length_a   9.67965000
_cell_length_b   9.67964958
_cell_length_c   9.80624600
_cell_angle_alpha   90.00000000
_cell_angle_beta   90.00000000
_cell_angle_gamma   120.00002879
_symmetry_Int_Tables_number   1
_chemical_formula_structural   Y20Cd3TcHg3Pd
_chemical_formula_sum   'Y20 Cd3 Tc1 Hg3 Pd1'
_cell_volume   795.70590111
_cell_formula_units_Z   1
loop_
 _symmetry_equiv_pos_site_id
 _symmetry_equiv_pos_as_xyz
  1  'x, y, z'
loop_
 _atom_site_type_symbol
 _atom_site_label
 _atom_site_symmetry_multiplicity
 _atom_site_fract_x
 _atom_site_fract_y
 _atom_site_fract_z
 _atom_site_occupancy
  Y  Y0  1  0.209145  0.790855  0.939482  1
  Y  Y1  1  0.209145  0.418289  0.939481  1
  Y  Y2  1  0.581711  0.790855  0.939481  1
  Y  Y3  1  0.792535  0.207465  0.057848  1
  Y  Y4  1  0.792535  0.585071  0.057848  1
  Y  Y5  1  0.414929  0.207465  0.057848  1
  Y  Y6  1  0.792535  0.207465  0.442152  1
  Y  Y7  1  0.792535  0.585071  0.442152  1
  Y  Y8  1  0.414929  0.207465  0.442152  1
  Y  Y9  1  0.209145  0.790855  0.560518  1
  Y  Y10  1  0.209145  0.418289  0.560519  1
  Y  Y11  1  0.581711  0.790855  0.560519  1
  Y  Y12  1  0.539689  0.460311  0.750000  1
  Y  Y13  1  0.539689  0.079379  0.750000  1
  Y  Y14  1  0.920621  0.460311  0.750000  1
  Y  Y15  1  0.457055  0.542945  0.250000  1
  Y  Y16  1  0.457056  0.914110  0.250000  1
  Y  Y17  1  0.085889  0.542944  0.250000  1
  Y  Y18  1  0.000000  0.000000  0.989550  1
  Y  Y19  1  0.000000  0.000000  0.510450  1
  Cd  Cd20  1  0.112605  0.887395  0.250000  1
  Cd  Cd21  1  0.112605  0.225211  0.250000  1
  Cd  Cd22  1  0.774789  0.887395  0.250000  1
  Tc  Tc23  1  0.333333  0.666667  0.750000  1
  Hg  Hg24  1  0.878292  0.121709  0.750000  1
  Hg  Hg25  1  0.878291  0.756583  0.750000  1
  Hg  Hg26  1  0.243417  0.121709  0.750000  1
  Pd  Pd27  1  0.666666  0.333333  0.250000  1
