# generated using pymatgen
data_Dy2CrFeO6
_symmetry_space_group_name_H-M   'P 1'
_cell_length_a   5.32198262
_cell_length_b   5.61952900
_cell_length_c   7.68077003
_cell_angle_alpha   90.00001342
_cell_angle_beta   90.06161195
_cell_angle_gamma   90.00003465
_symmetry_Int_Tables_number   1
_chemical_formula_structural   Dy2CrFeO6
_chemical_formula_sum   'Dy4 Cr2 Fe2 O12'
_cell_volume   229.70893065
_cell_formula_units_Z   2
loop_
 _symmetry_equiv_pos_site_id
 _symmetry_equiv_pos_as_xyz
  1  'x, y, z'
loop_
 _atom_site_type_symbol
 _atom_site_label
 _atom_site_symmetry_multiplicity
 _atom_site_fract_x
 _atom_site_fract_y
 _atom_site_fract_z
 _atom_site_occupancy
  Dy  Dy0  1  0.518657  0.567262  0.250001  1
  Dy  Dy1  1  0.981374  0.067281  0.249987  1
  Dy  Dy2  1  0.481371  0.432716  0.749987  1
  Dy  Dy3  1  0.018660  0.932735  0.749998  1
  Cr  Cr4  1  0.000061  0.500268  0.500037  1
  Cr  Cr5  1  0.499757  0.999805  0.000069  1
  Fe  Fe6  1  0.999989  0.499939  0.999971  1
  Fe  Fe7  1  0.499973  0.000004  0.500005  1
  O  O8  1  0.387220  0.959287  0.249574  1
  O  O9  1  0.112805  0.459292  0.250419  1
  O  O10  1  0.612808  0.040702  0.750413  1
  O  O11  1  0.887216  0.540710  0.749580  1
  O  O12  1  0.806775  0.803739  0.058173  1
  O  O13  1  0.693251  0.303742  0.441817  1
  O  O14  1  0.193249  0.196259  0.941822  1
  O  O15  1  0.306777  0.696262  0.558173  1
  O  O16  1  0.192456  0.196595  0.557904  1
  O  O17  1  0.307575  0.696596  0.942083  1
  O  O18  1  0.807568  0.803403  0.442080  1
  O  O19  1  0.692459  0.303403  0.057907  1
