# generated using pymatgen
data_Sm3Gd(AuO3)4
_symmetry_space_group_name_H-M   'P 1'
_cell_length_a   3.93416676
_cell_length_b   5.65347700
_cell_length_c   13.01539073
_cell_angle_alpha   90.00000000
_cell_angle_beta   90.00849367
_cell_angle_gamma   90.00000000
_symmetry_Int_Tables_number   1
_chemical_formula_structural   Sm3Gd(AuO3)4
_chemical_formula_sum   'Sm3 Gd1 Au4 O12'
_cell_volume   289.48468949
_cell_formula_units_Z   1
loop_
 _symmetry_equiv_pos_site_id
 _symmetry_equiv_pos_as_xyz
  1  'x, y, z'
loop_
 _atom_site_type_symbol
 _atom_site_label
 _atom_site_symmetry_multiplicity
 _atom_site_fract_x
 _atom_site_fract_y
 _atom_site_fract_z
 _atom_site_occupancy
  Sm  Sm0  1  0.261199  0.750000  0.077775  1
  Sm  Sm1  1  0.259350  0.250000  0.422654  1
  Sm  Sm2  1  0.740026  0.250000  0.922231  1
  Gd  Gd3  1  0.736573  0.750000  0.576384  1
  Au  Au4  1  0.067694  0.750000  0.830187  1
  Au  Au5  1  0.067781  0.250000  0.669204  1
  Au  Au6  1  0.934156  0.250000  0.169923  1
  Au  Au7  1  0.932746  0.750000  0.330622  1
  O  O8  1  0.191138  0.499977  0.250405  1
  O  O9  1  0.810833  0.999985  0.749607  1
  O  O10  1  0.810833  0.500015  0.749607  1
  O  O11  1  0.191138  0.000023  0.250405  1
  O  O12  1  0.743179  0.498579  0.075873  1
  O  O13  1  0.741279  0.501792  0.424986  1
  O  O14  1  0.258290  0.998864  0.924424  1
  O  O15  1  0.255518  0.998764  0.575215  1
  O  O16  1  0.741279  0.998208  0.424986  1
  O  O17  1  0.743179  0.001421  0.075873  1
  O  O18  1  0.255518  0.501236  0.575215  1
  O  O19  1  0.258290  0.501136  0.924424  1
