# generated using pymatgen
data_Sm3Y3Zn4Pd13
_symmetry_space_group_name_H-M   'P 1'
_cell_length_a   8.30432709
_cell_length_b   8.30432763
_cell_length_c   8.31651700
_cell_angle_alpha   109.50095499
_cell_angle_beta   109.50095632
_cell_angle_gamma   109.44147071
_symmetry_Int_Tables_number   1
_chemical_formula_structural   Sm3Y3Zn4Pd13
_chemical_formula_sum   'Sm3 Y3 Zn4 Pd13'
_cell_volume   441.33563796
_cell_formula_units_Z   1
loop_
 _symmetry_equiv_pos_site_id
 _symmetry_equiv_pos_as_xyz
  1  'x, y, z'
loop_
 _atom_site_type_symbol
 _atom_site_label
 _atom_site_symmetry_multiplicity
 _atom_site_fract_x
 _atom_site_fract_y
 _atom_site_fract_z
 _atom_site_occupancy
  Sm  Sm0  1  0.299706  0.299706  0.000189  1
  Sm  Sm1  1  0.700294  0.000000  0.700483  1
  Sm  Sm2  1  0.000000  0.700294  0.700483  1
  Y  Y3  1  0.695929  0.695929  0.999589  1
  Y  Y4  1  0.304071  0.000000  0.303661  1
  Y  Y5  1  0.000000  0.304071  0.303661  1
  Zn  Zn6  1  0.000000  0.000000  0.490618  1
  Zn  Zn7  1  0.000000  0.503006  0.000277  1
  Zn  Zn8  1  0.503006  0.000000  0.000277  1
  Zn  Zn9  1  0.496994  0.496994  0.497271  1
  Pd  Pd10  1  0.332331  0.332331  0.664171  1
  Pd  Pd11  1  0.667669  0.000000  0.331839  1
  Pd  Pd12  1  0.000000  0.667669  0.331839  1
  Pd  Pd13  1  0.667533  0.333260  0.000364  1
  Pd  Pd14  1  0.332467  0.665728  0.332831  1
  Pd  Pd15  1  0.000000  0.333530  0.666000  1
  Pd  Pd16  1  0.333260  0.667533  0.000364  1
  Pd  Pd17  1  0.333530  0.000000  0.666000  1
  Pd  Pd18  1  0.665728  0.332467  0.332831  1
  Pd  Pd19  1  0.666470  0.666470  0.332469  1
  Pd  Pd20  1  0.666740  0.334272  0.667104  1
  Pd  Pd21  1  0.334272  0.666740  0.667104  1
  Pd  Pd22  1  0.000000  0.000000  0.010579  1
