# generated using pymatgen
data_TbScV3P7Rh9
_symmetry_space_group_name_H-M   'P 1'
_cell_length_a   3.84190400
_cell_length_b   9.50865569
_cell_length_c   9.53118186
_cell_angle_alpha   119.99285995
_cell_angle_beta   90.00135618
_cell_angle_gamma   90.00104045
_symmetry_Int_Tables_number   1
_chemical_formula_structural   TbScV3P7Rh9
_chemical_formula_sum   'Tb1 Sc1 V3 P7 Rh9'
_cell_volume   301.56036487
_cell_formula_units_Z   1
loop_
 _symmetry_equiv_pos_site_id
 _symmetry_equiv_pos_as_xyz
  1  'x, y, z'
loop_
 _atom_site_type_symbol
 _atom_site_label
 _atom_site_symmetry_multiplicity
 _atom_site_fract_x
 _atom_site_fract_y
 _atom_site_fract_z
 _atom_site_occupancy
  Tb  Tb0  1  0.261892  0.666696  0.333344  1
  Sc  Sc1  1  0.761651  0.333329  0.666623  1
  V  V2  1  0.761965  0.093005  0.875679  1
  V  V3  1  0.761918  0.124382  0.217483  1
  V  V4  1  0.761942  0.782489  0.906946  1
  P  P5  1  0.261984  0.999910  0.999973  1
  P  P6  1  0.761913  0.884404  0.596743  1
  P  P7  1  0.761912  0.403282  0.287681  1
  P  P8  1  0.761912  0.712348  0.115437  1
  P  P9  1  0.261840  0.118779  0.415570  1
  P  P10  1  0.261815  0.584319  0.703287  1
  P  P11  1  0.261840  0.296642  0.881149  1
  Rh  Rh12  1  0.261951  0.885424  0.159388  1
  Rh  Rh13  1  0.261952  0.840767  0.726252  1
  Rh  Rh14  1  0.261950  0.274098  0.114698  1
  Rh  Rh15  1  0.761910  0.610565  0.561513  1
  Rh  Rh16  1  0.761930  0.438548  0.048990  1
  Rh  Rh17  1  0.761924  0.950900  0.389433  1
  Rh  Rh18  1  0.261894  0.366348  0.439177  1
  Rh  Rh19  1  0.261937  0.560790  0.926873  1
  Rh  Rh20  1  0.261970  0.072977  0.633760  1
