# generated using pymatgen
data_Hf4Mn4SiP3
_symmetry_space_group_name_H-M   'P 1'
_cell_length_a   3.61288500
_cell_length_b   6.42479200
_cell_length_c   7.50701700
_cell_angle_alpha   90.00332386
_cell_angle_beta   90.00000000
_cell_angle_gamma   90.00000000
_symmetry_Int_Tables_number   1
_chemical_formula_structural   Hf4Mn4SiP3
_chemical_formula_sum   'Hf4 Mn4 Si1 P3'
_cell_volume   174.25313854
_cell_formula_units_Z   1
loop_
 _symmetry_equiv_pos_site_id
 _symmetry_equiv_pos_as_xyz
  1  'x, y, z'
loop_
 _atom_site_type_symbol
 _atom_site_label
 _atom_site_symmetry_multiplicity
 _atom_site_fract_x
 _atom_site_fract_y
 _atom_site_fract_z
 _atom_site_occupancy
  Hf  Hf0  1  0.250000  0.530498  0.176978  1
  Hf  Hf1  1  0.750000  0.464197  0.825094  1
  Hf  Hf2  1  0.750000  0.969753  0.672113  1
  Hf  Hf3  1  0.250000  0.030937  0.324400  1
  Mn  Mn4  1  0.250000  0.635169  0.557191  1
  Mn  Mn5  1  0.750000  0.362877  0.439099  1
  Mn  Mn6  1  0.750000  0.865675  0.064145  1
  Mn  Mn7  1  0.250000  0.140053  0.939497  1
  Si  Si8  1  0.250000  0.768054  0.873986  1
  P  P9  1  0.750000  0.232423  0.128686  1
  P  P10  1  0.750000  0.732803  0.371740  1
  P  P11  1  0.250000  0.267563  0.627070  1
