# generated using pymatgen
data_Tm2Al9OsPt2
_symmetry_space_group_name_H-M   'P 1'
_cell_length_a   7.57583836
_cell_length_b   7.57583681
_cell_length_c   9.42766400
_cell_angle_alpha   90.00000000
_cell_angle_beta   90.00000000
_cell_angle_gamma   119.39681878
_symmetry_Int_Tables_number   1
_chemical_formula_structural   Tm2Al9OsPt2
_chemical_formula_sum   'Tm4 Al18 Os2 Pt4'
_cell_volume   471.41537653
_cell_formula_units_Z   2
loop_
 _symmetry_equiv_pos_site_id
 _symmetry_equiv_pos_as_xyz
  1  'x, y, z'
loop_
 _atom_site_type_symbol
 _atom_site_label
 _atom_site_symmetry_multiplicity
 _atom_site_fract_x
 _atom_site_fract_y
 _atom_site_fract_z
 _atom_site_occupancy
  Tm  Tm0  1  0.994531  0.673488  0.250000  1
  Tm  Tm1  1  0.005469  0.326512  0.750000  1
  Tm  Tm2  1  0.673488  0.994531  0.250000  1
  Tm  Tm3  1  0.326512  0.005469  0.750000  1
  Al  Al4  1  0.125170  0.125170  0.250000  1
  Al  Al5  1  0.874830  0.874830  0.750000  1
  Al  Al6  1  0.999816  0.330960  0.076594  1
  Al  Al7  1  0.000184  0.669040  0.923406  1
  Al  Al8  1  0.000184  0.669040  0.576594  1
  Al  Al9  1  0.330960  0.999816  0.423406  1
  Al  Al10  1  0.999816  0.330960  0.423406  1
  Al  Al11  1  0.669040  0.000184  0.576594  1
  Al  Al12  1  0.669040  0.000184  0.923406  1
  Al  Al13  1  0.330960  0.999816  0.076594  1
  Al  Al14  1  0.328279  0.328279  0.556823  1
  Al  Al15  1  0.671721  0.671721  0.443177  1
  Al  Al16  1  0.671721  0.671721  0.056823  1
  Al  Al17  1  0.328279  0.328279  0.943177  1
  Al  Al18  1  0.341349  0.547342  0.250000  1
  Al  Al19  1  0.658651  0.452658  0.750000  1
  Al  Al20  1  0.547342  0.341349  0.250000  1
  Al  Al21  1  0.452658  0.658651  0.750000  1
  Os  Os22  1  0.000000  0.000000  0.000000  1
  Os  Os23  1  0.000000  0.000000  0.500000  1
  Pt  Pt24  1  0.672293  0.327707  0.000000  1
  Pt  Pt25  1  0.327707  0.672293  0.000000  1
  Pt  Pt26  1  0.327707  0.672293  0.500000  1
  Pt  Pt27  1  0.672293  0.327707  0.500000  1
