# generated using pymatgen
data_CsK2Rb(MnI4)2
_symmetry_space_group_name_H-M   'P 1'
_cell_length_a   8.40950800
_cell_length_b   8.15627496
_cell_length_c   10.31900623
_cell_angle_alpha   71.61641667
_cell_angle_beta   90.00000000
_cell_angle_gamma   90.00000000
_symmetry_Int_Tables_number   1
_chemical_formula_structural   CsK2Rb(MnI4)2
_chemical_formula_sum   'Cs1 K2 Rb1 Mn2 I8'
_cell_volume   671.66259453
_cell_formula_units_Z   1
loop_
 _symmetry_equiv_pos_site_id
 _symmetry_equiv_pos_as_xyz
  1  'x, y, z'
loop_
 _atom_site_type_symbol
 _atom_site_label
 _atom_site_symmetry_multiplicity
 _atom_site_fract_x
 _atom_site_fract_y
 _atom_site_fract_z
 _atom_site_occupancy
  Cs  Cs0  1  0.750000  0.733594  0.069281  1
  K  K1  1  0.750000  0.780546  0.550730  1
  K  K2  1  0.250000  0.219554  0.449479  1
  Rb  Rb3  1  0.250000  0.263132  0.930534  1
  Mn  Mn4  1  0.750000  0.221154  0.695087  1
  Mn  Mn5  1  0.250000  0.777145  0.305524  1
  I  I6  1  0.750000  0.406773  0.430156  1
  I  I7  1  0.250000  0.591552  0.571345  1
  I  I8  1  0.002329  0.000162  0.250963  1
  I  I9  1  0.001481  0.004174  0.748400  1
  I  I10  1  0.498519  0.004174  0.748400  1
  I  I11  1  0.497671  0.000162  0.250963  1
  I  I12  1  0.750000  0.417648  0.859756  1
  I  I13  1  0.250000  0.580230  0.139384  1
