# generated using pymatgen
data_Ta6AlV4Si5B
_symmetry_space_group_name_H-M   'P 1'
_cell_length_a   7.49048991
_cell_length_b   7.48688360
_cell_length_c   5.02873793
_cell_angle_alpha   90.07183029
_cell_angle_beta   89.85640082
_cell_angle_gamma   120.01593528
_symmetry_Int_Tables_number   1
_chemical_formula_structural   Ta6AlV4Si5B
_chemical_formula_sum   'Ta6 Al1 V4 Si5 B1'
_cell_volume   244.19109144
_cell_formula_units_Z   1
loop_
 _symmetry_equiv_pos_site_id
 _symmetry_equiv_pos_as_xyz
  1  'x, y, z'
loop_
 _atom_site_type_symbol
 _atom_site_label
 _atom_site_symmetry_multiplicity
 _atom_site_fract_x
 _atom_site_fract_y
 _atom_site_fract_z
 _atom_site_occupancy
  Ta  Ta0  1  0.000771  0.755361  0.245172  1
  Ta  Ta1  1  0.245411  0.244639  0.245172  1
  Ta  Ta2  1  0.758959  0.000000  0.241708  1
  Ta  Ta3  1  0.004676  0.247475  0.756373  1
  Ta  Ta4  1  0.757201  0.752525  0.756373  1
  Ta  Ta5  1  0.240063  0.000000  0.756693  1
  Al  Al6  1  0.593510  0.000000  0.748321  1
  V  V7  1  0.328417  0.660873  0.498411  1
  V  V8  1  0.667546  0.339127  0.498411  1
  V  V9  1  0.667560  0.338253  0.001548  1
  V  V10  1  0.329305  0.661747  0.001548  1
  Si  Si11  1  0.997669  0.402649  0.248086  1
  Si  Si12  1  0.595020  0.597351  0.248086  1
  Si  Si13  1  0.408163  0.000000  0.246967  1
  Si  Si14  1  0.000980  0.595073  0.753353  1
  Si  Si15  1  0.405907  0.404927  0.753353  1
  B  B16  1  0.998841  0.000000  0.500423  1
