# generated using pymatgen
data_Pr3Nd3Al2SiSe14
_symmetry_space_group_name_H-M   'P 1'
_cell_length_a   10.58256000
_cell_length_b   10.58255944
_cell_length_c   6.21146800
_cell_angle_alpha   90.00000000
_cell_angle_beta   90.00000000
_cell_angle_gamma   120.00001424
_symmetry_Int_Tables_number   1
_chemical_formula_structural   Pr3Nd3Al2SiSe14
_chemical_formula_sum   'Pr3 Nd3 Al2 Si1 Se14'
_cell_volume   602.42956555
_cell_formula_units_Z   1
loop_
 _symmetry_equiv_pos_site_id
 _symmetry_equiv_pos_as_xyz
  1  'x, y, z'
loop_
 _atom_site_type_symbol
 _atom_site_label
 _atom_site_symmetry_multiplicity
 _atom_site_fract_x
 _atom_site_fract_y
 _atom_site_fract_z
 _atom_site_occupancy
  Pr  Pr0  1  0.522192  0.965701  0.042336  1
  Pr  Pr1  1  0.443508  0.477808  0.042336  1
  Pr  Pr2  1  0.034299  0.556492  0.042336  1
  Nd  Nd3  1  0.803479  0.697236  0.522711  1
  Nd  Nd4  1  0.893757  0.196521  0.522711  1
  Nd  Nd5  1  0.302764  0.106243  0.522711  1
  Al  Al6  1  0.666667  0.333333  0.317018  1
  Al  Al7  1  0.333333  0.666667  0.451036  1
  Si  Si8  1  0.000000  0.000000  0.942960  1
  Se  Se9  1  0.000000  0.000000  0.310011  1
  Se  Se10  1  0.333333  0.666667  0.830397  1
  Se  Se11  1  0.084044  0.855238  0.799245  1
  Se  Se12  1  0.771194  0.915956  0.799245  1
  Se  Se13  1  0.144762  0.228806  0.799245  1
  Se  Se14  1  0.240124  0.814372  0.303940  1
  Se  Se15  1  0.574247  0.759876  0.303940  1
  Se  Se16  1  0.185628  0.425753  0.303940  1
  Se  Se17  1  0.908784  0.484309  0.545951  1
  Se  Se18  1  0.575527  0.091216  0.545951  1
  Se  Se19  1  0.515691  0.424473  0.545951  1
  Se  Se20  1  0.430273  0.191881  0.082680  1
  Se  Se21  1  0.761608  0.569727  0.082680  1
  Se  Se22  1  0.808119  0.238392  0.082680  1
