# generated using pymatgen
data_Dy5Co17(ReP6)2
_symmetry_space_group_name_H-M   'P 1'
_cell_length_a   12.03700910
_cell_length_b   11.98052785
_cell_length_c   3.70605800
_cell_angle_alpha   90.00000000
_cell_angle_beta   90.00000000
_cell_angle_gamma   119.84489591
_symmetry_Int_Tables_number   1
_chemical_formula_structural   Dy5Co17(ReP6)2
_chemical_formula_sum   'Dy5 Co17 Re2 P12'
_cell_volume   463.56862908
_cell_formula_units_Z   1
loop_
 _symmetry_equiv_pos_site_id
 _symmetry_equiv_pos_as_xyz
  1  'x, y, z'
loop_
 _atom_site_type_symbol
 _atom_site_label
 _atom_site_symmetry_multiplicity
 _atom_site_fract_x
 _atom_site_fract_y
 _atom_site_fract_z
 _atom_site_occupancy
  Dy  Dy0  1  0.665574  0.331814  0.000000  1
  Dy  Dy1  1  0.334426  0.666241  0.000000  1
  Dy  Dy2  1  0.184729  0.184730  0.500000  1
  Dy  Dy3  1  0.815271  0.000000  0.500000  1
  Dy  Dy4  1  0.000000  0.812816  0.500000  1
  Co  Co5  1  0.000000  0.448525  0.000000  1
  Co  Co6  1  0.823119  0.201171  0.000000  1
  Co  Co7  1  0.802367  0.624124  0.000000  1
  Co  Co8  1  0.374536  0.177611  0.000000  1
  Co  Co9  1  0.197633  0.821757  0.000000  1
  Co  Co10  1  0.625464  0.803075  0.000000  1
  Co  Co11  1  0.176881  0.378053  0.000000  1
  Co  Co12  1  0.642463  0.123962  0.500000  1
  Co  Co13  1  0.873493  0.515652  0.500000  1
  Co  Co14  1  0.483514  0.356442  0.500000  1
  Co  Co15  1  0.126507  0.642159  0.500000  1
  Co  Co16  1  0.516486  0.872928  0.500000  1
  Co  Co17  1  0.357537  0.481499  0.500000  1
  Co  Co18  1  0.717138  0.717718  0.500000  1
  Co  Co19  1  0.282862  0.000580  0.500000  1
  Co  Co20  1  0.000000  0.286027  0.500000  1
  Co  Co21  1  0.000000  0.001623  0.000000  1
  Re  Re22  1  0.554250  0.553975  0.000000  1
  Re  Re23  1  0.445750  0.999724  0.000000  1
  P  P24  1  0.361171  0.362725  0.000000  1
  P  P25  1  0.638829  0.001554  0.000000  1
  P  P26  1  0.000000  0.632786  0.000000  1
  P  P27  1  0.834343  0.314166  0.500000  1
  P  P28  1  0.686520  0.520441  0.500000  1
  P  P29  1  0.479315  0.164399  0.500000  1
  P  P30  1  0.313480  0.833921  0.500000  1
  P  P31  1  0.520685  0.685084  0.500000  1
  P  P32  1  0.165657  0.479823  0.500000  1
  P  P33  1  0.822631  0.822233  0.000000  1
  P  P34  1  0.177369  0.999602  0.000000  1
  P  P35  1  0.000000  0.181058  0.000000  1
