# generated using pymatgen
data_Dy2Nb3Ni9As7
_symmetry_space_group_name_H-M   'P 1'
_cell_length_a   3.85402400
_cell_length_b   9.63293525
_cell_length_c   9.63293600
_cell_angle_alpha   119.99999571
_cell_angle_beta   90.00000000
_cell_angle_gamma   90.00000000
_symmetry_Int_Tables_number   1
_chemical_formula_structural   Dy2Nb3Ni9As7
_chemical_formula_sum   'Dy2 Nb3 Ni9 As7'
_cell_volume   309.71510111
_cell_formula_units_Z   1
loop_
 _symmetry_equiv_pos_site_id
 _symmetry_equiv_pos_as_xyz
  1  'x, y, z'
loop_
 _atom_site_type_symbol
 _atom_site_label
 _atom_site_symmetry_multiplicity
 _atom_site_fract_x
 _atom_site_fract_y
 _atom_site_fract_z
 _atom_site_occupancy
  Dy  Dy0  1  0.000000  0.666667  0.333333  1
  Dy  Dy1  1  0.500000  0.333333  0.666667  1
  Nb  Nb2  1  0.500000  0.776924  0.893109  1
  Nb  Nb3  1  0.500000  0.116186  0.223076  1
  Nb  Nb4  1  0.500000  0.106891  0.883814  1
  Ni  Ni5  1  0.000000  0.571385  0.934504  1
  Ni  Ni6  1  0.000000  0.363119  0.428615  1
  Ni  Ni7  1  0.000000  0.065496  0.636881  1
  Ni  Ni8  1  0.000000  0.869686  0.154400  1
  Ni  Ni9  1  0.000000  0.284715  0.130314  1
  Ni  Ni10  1  0.000000  0.845600  0.715285  1
  Ni  Ni11  1  0.500000  0.939883  0.378668  1
  Ni  Ni12  1  0.500000  0.438785  0.060117  1
  Ni  Ni13  1  0.500000  0.621332  0.561215  1
  As  As14  1  0.500000  0.705046  0.117528  1
  As  As15  1  0.500000  0.412484  0.294954  1
  As  As16  1  0.500000  0.882472  0.587516  1
  As  As17  1  0.000000  0.000000  0.000000  1
  As  As18  1  0.000000  0.582180  0.692495  1
  As  As19  1  0.000000  0.110315  0.417820  1
  As  As20  1  0.000000  0.307505  0.889685  1
