# generated using pymatgen
data_Tb2Pr6SiAsBr12
_symmetry_space_group_name_H-M   'P 1'
_cell_length_a   4.22270500
_cell_length_b   13.72088957
_cell_length_c   14.51338375
_cell_angle_alpha   90.92409336
_cell_angle_beta   90.00000000
_cell_angle_gamma   90.00000000
_symmetry_Int_Tables_number   1
_chemical_formula_structural   Tb2Pr6SiAsBr12
_chemical_formula_sum   'Tb2 Pr6 Si1 As1 Br12'
_cell_volume   840.78547728
_cell_formula_units_Z   1
loop_
 _symmetry_equiv_pos_site_id
 _symmetry_equiv_pos_as_xyz
  1  'x, y, z'
loop_
 _atom_site_type_symbol
 _atom_site_label
 _atom_site_symmetry_multiplicity
 _atom_site_fract_x
 _atom_site_fract_y
 _atom_site_fract_z
 _atom_site_occupancy
  Tb  Tb0  1  0.500000  0.616864  0.156927  1
  Tb  Tb1  1  0.500000  0.383136  0.843073  1
  Pr  Pr2  1  0.500000  0.119396  0.339990  1
  Pr  Pr3  1  0.500000  0.880604  0.660010  1
  Pr  Pr4  1  0.000000  0.120051  0.580143  1
  Pr  Pr5  1  0.000000  0.879949  0.419857  1
  Pr  Pr6  1  0.000000  0.619779  0.920712  1
  Pr  Pr7  1  0.000000  0.380221  0.079288  1
  Si  Si8  1  0.500000  0.500000  0.000000  1
  As  As9  1  0.500000  0.000000  0.500000  1
  Br  Br10  1  0.500000  0.241709  0.162361  1
  Br  Br11  1  0.500000  0.758291  0.837639  1
  Br  Br12  1  0.500000  0.740307  0.332533  1
  Br  Br13  1  0.500000  0.259693  0.667467  1
  Br  Br14  1  0.000000  0.257393  0.412566  1
  Br  Br15  1  0.000000  0.742607  0.587434  1
  Br  Br16  1  0.000000  0.748631  0.096509  1
  Br  Br17  1  0.000000  0.251369  0.903491  1
  Br  Br18  1  0.000000  0.000006  0.241645  1
  Br  Br19  1  0.000000  0.999994  0.758355  1
  Br  Br20  1  0.000000  0.510983  0.253583  1
  Br  Br21  1  0.000000  0.489017  0.746417  1
