# generated using pymatgen
data_SmYLu8(In2Pt)4
_symmetry_space_group_name_H-M   'P 1'
_cell_length_a   3.59298200
_cell_length_b   8.07619496
_cell_length_c   18.08408614
_cell_angle_alpha   89.94422392
_cell_angle_beta   90.00000000
_cell_angle_gamma   90.00000000
_symmetry_Int_Tables_number   1
_chemical_formula_structural   SmYLu8(In2Pt)4
_chemical_formula_sum   'Sm1 Y1 Lu8 In8 Pt4'
_cell_volume   524.75694728
_cell_formula_units_Z   1
loop_
 _symmetry_equiv_pos_site_id
 _symmetry_equiv_pos_as_xyz
  1  'x, y, z'
loop_
 _atom_site_type_symbol
 _atom_site_label
 _atom_site_symmetry_multiplicity
 _atom_site_fract_x
 _atom_site_fract_y
 _atom_site_fract_z
 _atom_site_occupancy
  Sm  Sm0  1  0.000000  0.000000  0.000000  1
  Y  Y1  1  0.000000  0.500000  0.500000  1
  Lu  Lu2  1  0.000000  0.116391  0.413569  1
  Lu  Lu3  1  0.000000  0.883609  0.586431  1
  Lu  Lu4  1  0.000000  0.383384  0.913664  1
  Lu  Lu5  1  0.000000  0.616616  0.086336  1
  Lu  Lu6  1  0.000000  0.244257  0.221173  1
  Lu  Lu7  1  0.000000  0.755743  0.778827  1
  Lu  Lu8  1  0.000000  0.255777  0.721237  1
  Lu  Lu9  1  0.000000  0.744223  0.278763  1
  In  In10  1  0.500000  0.423274  0.351062  1
  In  In11  1  0.500000  0.576726  0.648938  1
  In  In12  1  0.500000  0.077113  0.850416  1
  In  In13  1  0.500000  0.922887  0.149584  1
  In  In14  1  0.500000  0.296561  0.066850  1
  In  In15  1  0.500000  0.703439  0.933150  1
  In  In16  1  0.500000  0.205173  0.566505  1
  In  In17  1  0.500000  0.794827  0.433495  1
  Pt  Pt18  1  0.500000  0.025606  0.303920  1
  Pt  Pt19  1  0.500000  0.974394  0.696080  1
  Pt  Pt20  1  0.500000  0.474577  0.803677  1
  Pt  Pt21  1  0.500000  0.525423  0.196323  1
