# generated using pymatgen
data_AcC6
_symmetry_space_group_name_H-M   'P 1'
_cell_length_a   4.33389400
_cell_length_b   4.33389547
_cell_length_c   10.25252800
_cell_angle_alpha   90.00000000
_cell_angle_beta   90.00000000
_cell_angle_gamma   119.99998877
_symmetry_Int_Tables_number   1
_chemical_formula_structural   AcC6
_chemical_formula_sum   'Ac2 C12'
_cell_volume   166.77016646
_cell_formula_units_Z   2
loop_
 _symmetry_equiv_pos_site_id
 _symmetry_equiv_pos_as_xyz
  1  'x, y, z'
loop_
 _atom_site_type_symbol
 _atom_site_label
 _atom_site_symmetry_multiplicity
 _atom_site_fract_x
 _atom_site_fract_y
 _atom_site_fract_z
 _atom_site_occupancy
  Ac  Ac0  1  0.333333  0.666667  0.250000  1
  Ac  Ac1  1  0.666667  0.333333  0.750000  1
  C  C2  1  0.333636  0.333636  0.500000  1
  C  C3  1  0.666364  0.000000  0.500000  1
  C  C4  1  0.000000  0.666364  0.500000  1
  C  C5  1  0.666364  0.666364  0.500000  1
  C  C6  1  0.000000  0.333636  0.500000  1
  C  C7  1  0.333636  0.000000  0.500000  1
  C  C8  1  0.666364  0.666364  0.000000  1
  C  C9  1  0.333636  0.000000  0.000000  1
  C  C10  1  0.000000  0.333636  0.000000  1
  C  C11  1  0.333636  0.333636  0.000000  1
  C  C12  1  0.000000  0.666364  0.000000  1
  C  C13  1  0.666364  0.000000  0.000000  1
