# generated using pymatgen
data_LiAc(S2O7)2
_symmetry_space_group_name_H-M   'P 1'
_cell_length_a   6.36414194
_cell_length_b   5.86180500
_cell_length_c   10.27566988
_cell_angle_alpha   118.17540971
_cell_angle_beta   71.16626016
_cell_angle_gamma   107.01673714
_symmetry_Int_Tables_number   1
_chemical_formula_structural   LiAc(S2O7)2
_chemical_formula_sum   'Li1 Ac1 S4 O14'
_cell_volume   315.27277763
_cell_formula_units_Z   1
loop_
 _symmetry_equiv_pos_site_id
 _symmetry_equiv_pos_as_xyz
  1  'x, y, z'
loop_
 _atom_site_type_symbol
 _atom_site_label
 _atom_site_symmetry_multiplicity
 _atom_site_fract_x
 _atom_site_fract_y
 _atom_site_fract_z
 _atom_site_occupancy
  Li  Li0  1  0.500000  0.000000  0.000000  1
  Ac  Ac1  1  0.500000  0.500000  0.500000  1
  S  S2  1  0.926524  0.703472  0.742526  1
  S  S3  1  0.073476  0.296528  0.257474  1
  S  S4  1  0.590907  0.241073  0.744713  1
  S  S5  1  0.409093  0.758927  0.255287  1
  O  O6  1  0.850713  0.665533  0.612300  1
  O  O7  1  0.149287  0.334467  0.387700  1
  O  O8  1  0.459564  0.401076  0.736649  1
  O  O9  1  0.540436  0.598924  0.263351  1
  O  O10  1  0.170780  0.725440  0.712937  1
  O  O11  1  0.829220  0.274560  0.287063  1
  O  O12  1  0.827120  0.896071  0.884813  1
  O  O13  1  0.172880  0.103929  0.115187  1
  O  O14  1  0.518892  0.194872  0.879454  1
  O  O15  1  0.481108  0.805128  0.120546  1
  O  O16  1  0.847147  0.414615  0.753740  1
  O  O17  1  0.152853  0.585385  0.246260  1
  O  O18  1  0.629242  0.006774  0.602574  1
  O  O19  1  0.370758  0.993226  0.397426  1
