# generated using pymatgen
data_Zr11Ta9Si16
_symmetry_space_group_name_H-M   'P 1'
_cell_length_a   6.95081985
_cell_length_b   6.94390946
_cell_length_c   12.80682119
_cell_angle_alpha   90.09394836
_cell_angle_beta   89.80820774
_cell_angle_gamma   89.98026943
_symmetry_Int_Tables_number   1
_chemical_formula_structural   Zr11Ta9Si16
_chemical_formula_sum   'Zr11 Ta9 Si16'
_cell_volume   618.12795408
_cell_formula_units_Z   1
loop_
 _symmetry_equiv_pos_site_id
 _symmetry_equiv_pos_as_xyz
  1  'x, y, z'
loop_
 _atom_site_type_symbol
 _atom_site_label
 _atom_site_symmetry_multiplicity
 _atom_site_fract_x
 _atom_site_fract_y
 _atom_site_fract_z
 _atom_site_occupancy
  Zr  Zr0  1  0.500408  0.351043  0.622313  1
  Zr  Zr1  1  0.501759  0.649583  0.124676  1
  Zr  Zr2  1  0.147638  0.998594  0.873928  1
  Zr  Zr3  1  0.001593  0.653916  0.033515  1
  Zr  Zr4  1  0.998917  0.344284  0.529975  1
  Zr  Zr5  1  0.655945  0.999823  0.968698  1
  Zr  Zr6  1  0.153227  0.498865  0.781336  1
  Zr  Zr7  1  0.845544  0.501100  0.282023  1
  Zr  Zr8  1  0.501518  0.156149  0.220238  1
  Zr  Zr9  1  0.501649  0.844334  0.717350  1
  Zr  Zr10  1  0.342482  0.001571  0.468113  1
  Ta  Ta11  1  0.347665  0.508300  0.376127  1
  Ta  Ta12  1  0.852123  0.997648  0.374022  1
  Ta  Ta13  1  0.007307  0.152406  0.126376  1
  Ta  Ta14  1  0.992135  0.849145  0.626006  1
  Ta  Ta15  1  0.651609  0.491199  0.875800  1
  Ta  Ta16  1  0.671217  0.673721  0.499101  1
  Ta  Ta17  1  0.826945  0.169591  0.749566  1
  Ta  Ta18  1  0.171903  0.832604  0.252154  1
  Ta  Ta19  1  0.330110  0.326846  0.000537  1
  Si  Si20  1  0.045055  0.703385  0.436736  1
  Si  Si21  1  0.953766  0.299776  0.936687  1
  Si  Si22  1  0.702768  0.044610  0.562013  1
  Si  Si23  1  0.201627  0.452860  0.187405  1
  Si  Si24  1  0.799584  0.546580  0.685807  1
  Si  Si25  1  0.455007  0.200033  0.814304  1
  Si  Si26  1  0.548077  0.800745  0.315501  1
  Si  Si27  1  0.299804  0.955956  0.065571  1
  Si  Si28  1  0.854775  0.789714  0.820999  1
  Si  Si29  1  0.138266  0.209631  0.323079  1
  Si  Si30  1  0.800121  0.865221  0.179578  1
  Si  Si31  1  0.289460  0.644451  0.571248  1
  Si  Si32  1  0.709681  0.355216  0.071579  1
  Si  Si33  1  0.636890  0.293981  0.424313  1
  Si  Si34  1  0.363070  0.699636  0.926996  1
  Si  Si35  1  0.200357  0.137483  0.676326  1
