# generated using pymatgen
data_Sm3DyCo8(PRu)12
_symmetry_space_group_name_H-M   'P 1'
_cell_length_a   3.79976900
_cell_length_b   10.66272005
_cell_length_c   12.13991305
_cell_angle_alpha   89.98919294
_cell_angle_beta   90.00000000
_cell_angle_gamma   90.00000000
_symmetry_Int_Tables_number   1
_chemical_formula_structural   Sm3DyCo8(PRu)12
_chemical_formula_sum   'Sm3 Dy1 Co8 P12 Ru12'
_cell_volume   491.85916789
_cell_formula_units_Z   1
loop_
 _symmetry_equiv_pos_site_id
 _symmetry_equiv_pos_as_xyz
  1  'x, y, z'
loop_
 _atom_site_type_symbol
 _atom_site_label
 _atom_site_symmetry_multiplicity
 _atom_site_fract_x
 _atom_site_fract_y
 _atom_site_fract_z
 _atom_site_occupancy
  Sm  Sm0  1  0.250000  0.584548  0.706739  1
  Sm  Sm1  1  0.250000  0.915774  0.206641  1
  Sm  Sm2  1  0.750000  0.415316  0.293419  1
  Dy  Dy3  1  0.750000  0.084505  0.793477  1
  Co  Co4  1  0.250000  0.888394  0.695980  1
  Co  Co5  1  0.250000  0.612740  0.194810  1
  Co  Co6  1  0.750000  0.112780  0.305529  1
  Co  Co7  1  0.750000  0.386615  0.804841  1
  Co  Co8  1  0.250000  0.462457  0.934941  1
  Co  Co9  1  0.250000  0.037018  0.436210  1
  Co  Co10  1  0.750000  0.536791  0.064315  1
  Co  Co11  1  0.750000  0.963521  0.565822  1
  P  P12  1  0.250000  0.425322  0.111240  1
  P  P13  1  0.250000  0.074133  0.613327  1
  P  P14  1  0.750000  0.574479  0.888285  1
  P  P15  1  0.750000  0.925619  0.389044  1
  P  P16  1  0.250000  0.272091  0.870848  1
  P  P17  1  0.250000  0.226292  0.371661  1
  P  P18  1  0.750000  0.726838  0.128120  1
  P  P19  1  0.750000  0.773384  0.628380  1
  P  P20  1  0.250000  0.602866  0.387895  1
  P  P21  1  0.250000  0.898652  0.886901  1
  P  P22  1  0.750000  0.397111  0.612197  1
  P  P23  1  0.750000  0.102960  0.112025  1
  Ru  Ru24  1  0.250000  0.706182  0.985634  1
  Ru  Ru25  1  0.250000  0.794505  0.486423  1
  Ru  Ru26  1  0.750000  0.293985  0.013543  1
  Ru  Ru27  1  0.750000  0.205749  0.514070  1
  Ru  Ru28  1  0.250000  0.404762  0.487176  1
  Ru  Ru29  1  0.250000  0.095143  0.984870  1
  Ru  Ru30  1  0.750000  0.595085  0.513165  1
  Ru  Ru31  1  0.750000  0.905697  0.012672  1
  Ru  Ru32  1  0.250000  0.222546  0.179759  1
  Ru  Ru33  1  0.250000  0.275318  0.680435  1
  Ru  Ru34  1  0.750000  0.777463  0.819683  1
  Ru  Ru35  1  0.750000  0.723359  0.319926  1
