# generated using pymatgen
data_DyPa3(Pt2Pb)2
_symmetry_space_group_name_H-M   'P 1'
_cell_length_a   7.94098534
_cell_length_b   7.94098544
_cell_length_c   3.63729900
_cell_angle_alpha   90.00000000
_cell_angle_beta   90.00000000
_cell_angle_gamma   89.46161777
_symmetry_Int_Tables_number   1
_chemical_formula_structural   DyPa3(Pt2Pb)2
_chemical_formula_sum   'Dy1 Pa3 Pt4 Pb2'
_cell_volume   229.35521757
_cell_formula_units_Z   1
loop_
 _symmetry_equiv_pos_site_id
 _symmetry_equiv_pos_as_xyz
  1  'x, y, z'
loop_
 _atom_site_type_symbol
 _atom_site_label
 _atom_site_symmetry_multiplicity
 _atom_site_fract_x
 _atom_site_fract_y
 _atom_site_fract_z
 _atom_site_occupancy
  Dy  Dy0  1  0.326928  0.826928  0.500000  1
  Pa  Pa1  1  0.669502  0.169502  0.500000  1
  Pa  Pa2  1  0.172983  0.327425  0.500000  1
  Pa  Pa3  1  0.827425  0.672983  0.500000  1
  Pt  Pt4  1  0.377434  0.135947  0.000000  1
  Pt  Pt5  1  0.116916  0.616916  0.000000  1
  Pt  Pt6  1  0.635947  0.877434  0.000000  1
  Pt  Pt7  1  0.867158  0.367158  0.000000  1
  Pb  Pb8  1  0.009288  0.996419  0.000000  1
  Pb  Pb9  1  0.496419  0.509288  0.000000  1
