# generated using pymatgen
data_Ir7OsRu
_symmetry_space_group_name_H-M   'P 1'
_cell_length_a   6.11537289
_cell_length_b   6.11537363
_cell_length_c   6.12548168
_cell_angle_alpha   95.71989293
_cell_angle_beta   95.71988776
_cell_angle_gamma   143.16261119
_symmetry_Int_Tables_number   1
_chemical_formula_structural   Ir7OsRu
_chemical_formula_sum   'Ir7 Os1 Ru1'
_cell_volume   130.33179029
_cell_formula_units_Z   1
loop_
 _symmetry_equiv_pos_site_id
 _symmetry_equiv_pos_as_xyz
  1  'x, y, z'
loop_
 _atom_site_type_symbol
 _atom_site_label
 _atom_site_symmetry_multiplicity
 _atom_site_fract_x
 _atom_site_fract_y
 _atom_site_fract_z
 _atom_site_occupancy
  Ir  Ir0  1  0.334487  0.665512  0.000000  1
  Ir  Ir1  1  0.664103  0.662736  0.326840  1
  Ir  Ir2  1  0.330235  0.998411  0.328646  1
  Ir  Ir3  1  0.999044  0.332055  0.331098  1
  Ir  Ir4  1  0.667944  0.000956  0.668901  1
  Ir  Ir5  1  0.001589  0.669764  0.671353  1
  Ir  Ir6  1  0.337264  0.335897  0.673161  1
  Os  Os7  1  0.001621  0.998379  0.000000  1
  Ru  Ru8  1  0.663712  0.336287  0.000000  1
