# generated using pymatgen
data_MnCu(Sb6Ru)2
_symmetry_space_group_name_H-M   'P 1'
_cell_length_a   8.16123090
_cell_length_b   8.14887129
_cell_length_c   9.39032246
_cell_angle_alpha   54.68572609
_cell_angle_beta   54.84924990
_cell_angle_gamma   70.49265873
_symmetry_Int_Tables_number   1
_chemical_formula_structural   MnCu(Sb6Ru)2
_chemical_formula_sum   'Mn1 Cu1 Sb12 Ru2'
_cell_volume   416.66012966
_cell_formula_units_Z   1
loop_
 _symmetry_equiv_pos_site_id
 _symmetry_equiv_pos_as_xyz
  1  'x, y, z'
loop_
 _atom_site_type_symbol
 _atom_site_label
 _atom_site_symmetry_multiplicity
 _atom_site_fract_x
 _atom_site_fract_y
 _atom_site_fract_z
 _atom_site_occupancy
  Mn  Mn0  1  0.000000  0.500000  0.500000  1
  Cu  Cu1  1  0.500000  0.000000  0.500000  1
  Sb  Sb2  1  0.155835  0.154634  0.177572  1
  Sb  Sb3  1  0.844165  0.845366  0.822428  1
  Sb  Sb4  1  0.847861  0.842441  0.500730  1
  Sb  Sb5  1  0.152139  0.157559  0.499270  1
  Sb  Sb6  1  0.819350  0.504728  0.336739  1
  Sb  Sb7  1  0.180650  0.495272  0.663261  1
  Sb  Sb8  1  0.504020  0.813724  0.337726  1
  Sb  Sb9  1  0.495980  0.186276  0.662274  1
  Sb  Sb10  1  0.660202  0.337497  0.844000  1
  Sb  Sb11  1  0.339798  0.662503  0.156000  1
  Sb  Sb12  1  0.663132  0.344704  0.150783  1
  Sb  Sb13  1  0.336868  0.655296  0.849217  1
  Ru  Ru14  1  0.000000  0.500000  0.000000  1
  Ru  Ru15  1  0.500000  0.000000  0.000000  1
