# generated using pymatgen
data_Tm3Pa(CdPt2)2
_symmetry_space_group_name_H-M   'P 1'
_cell_length_a   7.72892989
_cell_length_b   7.72892970
_cell_length_c   3.65466700
_cell_angle_alpha   90.00000000
_cell_angle_beta   90.00000000
_cell_angle_gamma   91.32047160
_symmetry_Int_Tables_number   1
_chemical_formula_structural   Tm3Pa(CdPt2)2
_chemical_formula_sum   'Tm3 Pa1 Cd2 Pt4'
_cell_volume   218.25851198
_cell_formula_units_Z   1
loop_
 _symmetry_equiv_pos_site_id
 _symmetry_equiv_pos_as_xyz
  1  'x, y, z'
loop_
 _atom_site_type_symbol
 _atom_site_label
 _atom_site_symmetry_multiplicity
 _atom_site_fract_x
 _atom_site_fract_y
 _atom_site_fract_z
 _atom_site_occupancy
  Tm  Tm0  1  0.328193  0.828193  0.500000  1
  Tm  Tm1  1  0.168489  0.334937  0.500000  1
  Tm  Tm2  1  0.834937  0.668489  0.500000  1
  Pa  Pa3  1  0.665483  0.165483  0.500000  1
  Cd  Cd4  1  0.006892  0.998739  0.000000  1
  Cd  Cd5  1  0.498739  0.506892  0.000000  1
  Pt  Pt6  1  0.126132  0.626132  0.000000  1
  Pt  Pt7  1  0.859684  0.359684  0.000000  1
  Pt  Pt8  1  0.635468  0.875985  0.000000  1
  Pt  Pt9  1  0.375985  0.135468  0.000000  1
