# generated using pymatgen
data_Ho3Er13Cd4TcNi3
_symmetry_space_group_name_H-M   'P 1'
_cell_length_a   9.52782368
_cell_length_b   9.52695040
_cell_length_c   9.52596333
_cell_angle_alpha   59.45099132
_cell_angle_beta   59.44428329
_cell_angle_gamma   59.44506681
_symmetry_Int_Tables_number   1
_chemical_formula_structural   Ho3Er13Cd4TcNi3
_chemical_formula_sum   'Ho3 Er13 Cd4 Tc1 Ni3'
_cell_volume   603.72743220
_cell_formula_units_Z   1
loop_
 _symmetry_equiv_pos_site_id
 _symmetry_equiv_pos_as_xyz
  1  'x, y, z'
loop_
 _atom_site_type_symbol
 _atom_site_label
 _atom_site_symmetry_multiplicity
 _atom_site_fract_x
 _atom_site_fract_y
 _atom_site_fract_z
 _atom_site_occupancy
  Ho  Ho0  1  0.939527  0.555405  0.939451  1
  Ho  Ho1  1  0.565551  0.565713  0.935903  1
  Ho  Ho2  1  0.939366  0.939469  0.555456  1
  Er  Er3  1  0.346810  0.346865  0.346993  1
  Er  Er4  1  0.352134  0.351948  0.953790  1
  Er  Er5  1  0.352201  0.953683  0.352046  1
  Er  Er6  1  0.953677  0.352122  0.352155  1
  Er  Er7  1  0.810713  0.187287  0.187503  1
  Er  Er8  1  0.186986  0.811325  0.811213  1
  Er  Er9  1  0.187404  0.810770  0.187416  1
  Er  Er10  1  0.811283  0.186879  0.811240  1
  Er  Er11  1  0.187524  0.187329  0.810723  1
  Er  Er12  1  0.811215  0.811285  0.186981  1
  Er  Er13  1  0.936078  0.565487  0.565362  1
  Er  Er14  1  0.555185  0.939660  0.939490  1
  Er  Er15  1  0.565476  0.936106  0.565506  1
  Cd  Cd16  1  0.579829  0.579789  0.579623  1
  Cd  Cd17  1  0.579571  0.579740  0.256018  1
  Cd  Cd18  1  0.579608  0.255782  0.579801  1
  Cd  Cd19  1  0.255947  0.579597  0.579630  1
  Tc  Tc20  1  0.144110  0.143967  0.143945  1
  Ni  Ni21  1  0.142246  0.142251  0.575263  1
  Ni  Ni22  1  0.142378  0.575164  0.142248  1
  Ni  Ni23  1  0.575179  0.142375  0.142243  1
