# generated using pymatgen
data_Ca8Tl2In2Cu3N5
_symmetry_space_group_name_H-M   'P 1'
_cell_length_a   10.93359351
_cell_length_b   10.93359232
_cell_length_c   10.93259458
_cell_angle_alpha   160.49961566
_cell_angle_beta   112.86424924
_cell_angle_gamma   70.66645926
_symmetry_Int_Tables_number   1
_chemical_formula_structural   Ca8Tl2In2Cu3N5
_chemical_formula_sum   'Ca8 Tl2 In2 Cu3 N5'
_cell_volume   399.34857708
_cell_formula_units_Z   1
loop_
 _symmetry_equiv_pos_site_id
 _symmetry_equiv_pos_as_xyz
  1  'x, y, z'
loop_
 _atom_site_type_symbol
 _atom_site_label
 _atom_site_symmetry_multiplicity
 _atom_site_fract_x
 _atom_site_fract_y
 _atom_site_fract_z
 _atom_site_occupancy
  Ca  Ca0  1  0.560659  0.712784  0.847744  1
  Ca  Ca1  1  0.748969  0.899900  0.848994  1
  Ca  Ca2  1  0.439341  0.287216  0.152256  1
  Ca  Ca3  1  0.865040  0.712915  0.152256  1
  Ca  Ca4  1  0.134960  0.287085  0.847744  1
  Ca  Ca5  1  0.251031  0.100100  0.151006  1
  Ca  Ca6  1  0.050906  0.899976  0.151006  1
  Ca  Ca7  1  0.949094  0.100024  0.848994  1
  Tl  Tl8  1  0.662722  0.499924  0.162646  1
  Tl  Tl9  1  0.337278  0.500076  0.837354  1
  In  In10  1  0.410334  0.910334  0.500000  1
  In  In11  1  0.589666  0.089666  0.500000  1
  Cu  Cu12  1  0.192399  0.692399  0.500000  1
  Cu  Cu13  1  0.807601  0.307601  0.500000  1
  Cu  Cu14  1  0.000000  0.500000  0.500000  1
  N  N15  1  0.348618  0.693166  0.655702  1
  N  N16  1  0.962537  0.307084  0.655702  1
  N  N17  1  0.037463  0.692916  0.344298  1
  N  N18  1  0.000000  0.000000  0.000000  1
  N  N19  1  0.651382  0.306834  0.344298  1
