# generated using pymatgen
data_Nd6Ag7Rh
_symmetry_space_group_name_H-M   'P 1'
_cell_length_a   8.40835701
_cell_length_b   8.40835781
_cell_length_c   8.40835743
_cell_angle_alpha   114.36967214
_cell_angle_beta   114.36966670
_cell_angle_gamma   114.36968079
_symmetry_Int_Tables_number   1
_chemical_formula_structural   Nd6Ag7Rh
_chemical_formula_sum   'Nd6 Ag7 Rh1'
_cell_volume   351.05466960
_cell_formula_units_Z   1
loop_
 _symmetry_equiv_pos_site_id
 _symmetry_equiv_pos_as_xyz
  1  'x, y, z'
loop_
 _atom_site_type_symbol
 _atom_site_label
 _atom_site_symmetry_multiplicity
 _atom_site_fract_x
 _atom_site_fract_y
 _atom_site_fract_z
 _atom_site_occupancy
  Nd  Nd0  1  0.739941  0.623500  0.988111  1
  Nd  Nd1  1  0.988111  0.739941  0.623500  1
  Nd  Nd2  1  0.623500  0.988111  0.739941  1
  Nd  Nd3  1  0.260059  0.376500  0.011889  1
  Nd  Nd4  1  0.011889  0.260059  0.376500  1
  Nd  Nd5  1  0.376500  0.011889  0.260059  1
  Ag  Ag6  1  0.571500  0.234114  0.069723  1
  Ag  Ag7  1  0.069723  0.571500  0.234114  1
  Ag  Ag8  1  0.234114  0.069723  0.571500  1
  Ag  Ag9  1  0.428500  0.765886  0.930277  1
  Ag  Ag10  1  0.930277  0.428500  0.765886  1
  Ag  Ag11  1  0.765886  0.930277  0.428500  1
  Ag  Ag12  1  0.500000  0.500000  0.500000  1
  Rh  Rh13  1  0.000000  0.000000  0.000000  1
