# generated using pymatgen
data_Ta3Ga2NiC
_symmetry_space_group_name_H-M   'P 1'
_cell_length_a   8.21582734
_cell_length_b   8.21582754
_cell_length_c   8.21582600
_cell_angle_alpha   59.99999816
_cell_angle_beta   59.99999735
_cell_angle_gamma   59.99999904
_symmetry_Int_Tables_number   1
_chemical_formula_structural   Ta3Ga2NiC
_chemical_formula_sum   'Ta12 Ga8 Ni4 C4'
_cell_volume   392.13791503
_cell_formula_units_Z   4
loop_
 _symmetry_equiv_pos_site_id
 _symmetry_equiv_pos_as_xyz
  1  'x, y, z'
loop_
 _atom_site_type_symbol
 _atom_site_label
 _atom_site_symmetry_multiplicity
 _atom_site_fract_x
 _atom_site_fract_y
 _atom_site_fract_z
 _atom_site_occupancy
  Ta  Ta0  1  0.563479  0.936521  0.563479  1
  Ta  Ta1  1  0.313479  0.686521  0.686521  1
  Ta  Ta2  1  0.686521  0.313479  0.313479  1
  Ta  Ta3  1  0.313479  0.686521  0.313479  1
  Ta  Ta4  1  0.686521  0.686521  0.313479  1
  Ta  Ta5  1  0.313479  0.313479  0.686521  1
  Ta  Ta6  1  0.563479  0.563479  0.936521  1
  Ta  Ta7  1  0.936521  0.563479  0.563479  1
  Ta  Ta8  1  0.563479  0.936521  0.936521  1
  Ta  Ta9  1  0.936521  0.936521  0.563479  1
  Ta  Ta10  1  0.686521  0.313479  0.686521  1
  Ta  Ta11  1  0.936521  0.563479  0.936521  1
  Ga  Ga12  1  0.916317  0.916317  0.916317  1
  Ga  Ga13  1  0.998949  0.333683  0.333683  1
  Ga  Ga14  1  0.333683  0.998949  0.333683  1
  Ga  Ga15  1  0.333683  0.333683  0.998949  1
  Ga  Ga16  1  0.916317  0.251051  0.916317  1
  Ga  Ga17  1  0.916317  0.916317  0.251051  1
  Ga  Ga18  1  0.251051  0.916317  0.916317  1
  Ga  Ga19  1  0.333683  0.333683  0.333683  1
  Ni  Ni20  1  0.125000  0.125000  0.125000  1
  Ni  Ni21  1  0.625000  0.125000  0.125000  1
  Ni  Ni22  1  0.125000  0.625000  0.125000  1
  Ni  Ni23  1  0.125000  0.125000  0.625000  1
  C  C24  1  0.625000  0.625000  0.625000  1
  C  C25  1  0.125000  0.625000  0.625000  1
  C  C26  1  0.625000  0.125000  0.625000  1
  C  C27  1  0.625000  0.625000  0.125000  1
