# generated using pymatgen
data_TbHo5(Er3Co2)2
_symmetry_space_group_name_H-M   'P 1'
_cell_length_a   6.16956253
_cell_length_b   6.92474734
_cell_length_c   9.36793297
_cell_angle_alpha   89.99391186
_cell_angle_beta   89.60889224
_cell_angle_gamma   89.96443267
_symmetry_Int_Tables_number   1
_chemical_formula_structural   TbHo5(Er3Co2)2
_chemical_formula_sum   'Tb1 Ho5 Er6 Co4'
_cell_volume   400.21362733
_cell_formula_units_Z   1
loop_
 _symmetry_equiv_pos_site_id
 _symmetry_equiv_pos_as_xyz
  1  'x, y, z'
loop_
 _atom_site_type_symbol
 _atom_site_label
 _atom_site_symmetry_multiplicity
 _atom_site_fract_x
 _atom_site_fract_y
 _atom_site_fract_z
 _atom_site_occupancy
  Tb  Tb0  1  0.359869  0.958351  0.750140  1
  Ho  Ho1  1  0.322024  0.674479  0.431013  1
  Ho  Ho2  1  0.177729  0.175390  0.069318  1
  Ho  Ho3  1  0.857789  0.541718  0.249557  1
  Ho  Ho4  1  0.641873  0.041830  0.250447  1
  Ho  Ho5  1  0.140502  0.458661  0.750068  1
  Er  Er6  1  0.325057  0.673712  0.067369  1
  Er  Er7  1  0.174637  0.174985  0.432660  1
  Er  Er8  1  0.674833  0.326293  0.568355  1
  Er  Er9  1  0.825604  0.825309  0.931766  1
  Er  Er10  1  0.677259  0.325156  0.932113  1
  Er  Er11  1  0.823140  0.824277  0.567362  1
  Co  Co12  1  0.049227  0.886030  0.250622  1
  Co  Co13  1  0.451159  0.385813  0.249442  1
  Co  Co14  1  0.949169  0.114425  0.745607  1
  Co  Co15  1  0.550130  0.613573  0.754161  1
