# generated using pymatgen
data_HoTm2Pa(Si3Rh)2
_symmetry_space_group_name_H-M   'P 1'
_cell_length_a   8.14792100
_cell_length_b   8.14792017
_cell_length_c   7.83118000
_cell_angle_alpha   90.00000000
_cell_angle_beta   90.00000000
_cell_angle_gamma   119.98325769
_symmetry_Int_Tables_number   1
_chemical_formula_structural   HoTm2Pa(Si3Rh)2
_chemical_formula_sum   'Ho2 Tm4 Pa2 Si12 Rh4'
_cell_volume   450.32354717
_cell_formula_units_Z   2
loop_
 _symmetry_equiv_pos_site_id
 _symmetry_equiv_pos_as_xyz
  1  'x, y, z'
loop_
 _atom_site_type_symbol
 _atom_site_label
 _atom_site_symmetry_multiplicity
 _atom_site_fract_x
 _atom_site_fract_y
 _atom_site_fract_z
 _atom_site_occupancy
  Ho  Ho0  1  0.491261  0.982371  0.750000  1
  Ho  Ho1  1  0.017629  0.508739  0.750000  1
  Tm  Tm2  1  0.509112  0.490888  0.250000  1
  Tm  Tm3  1  0.509116  0.018311  0.250000  1
  Tm  Tm4  1  0.981689  0.490884  0.250000  1
  Tm  Tm5  1  0.491566  0.508434  0.750000  1
  Pa  Pa6  1  0.999955  0.000045  0.250000  1
  Pa  Pa7  1  0.999979  0.000021  0.750000  1
  Si  Si8  1  0.166812  0.833188  0.496346  1
  Si  Si9  1  0.167077  0.333698  0.497246  1
  Si  Si10  1  0.666302  0.832923  0.497246  1
  Si  Si11  1  0.833315  0.166685  0.501627  1
  Si  Si12  1  0.833262  0.666882  0.502093  1
  Si  Si13  1  0.333118  0.166738  0.502093  1
  Si  Si14  1  0.833315  0.166685  0.998373  1
  Si  Si15  1  0.833262  0.666882  0.997907  1
  Si  Si16  1  0.333118  0.166738  0.997907  1
  Si  Si17  1  0.166812  0.833188  0.003654  1
  Si  Si18  1  0.167077  0.333698  0.002754  1
  Si  Si19  1  0.666302  0.832923  0.002754  1
  Rh  Rh20  1  0.333722  0.666278  0.471147  1
  Rh  Rh21  1  0.666241  0.333759  0.524376  1
  Rh  Rh22  1  0.666241  0.333759  0.975624  1
  Rh  Rh23  1  0.333722  0.666278  0.028853  1
