# generated using pymatgen
data_Hf9Zr5Nb2(Ir2N)4
_symmetry_space_group_name_H-M   'P 1'
_cell_length_a   8.73036409
_cell_length_b   8.73036360
_cell_length_c   8.78427600
_cell_angle_alpha   59.79550482
_cell_angle_beta   59.79550669
_cell_angle_gamma   59.45457232
_symmetry_Int_Tables_number   1
_chemical_formula_structural   Hf9Zr5Nb2(Ir2N)4
_chemical_formula_sum   'Hf9 Zr5 Nb2 Ir8 N4'
_cell_volume   469.99708377
_cell_formula_units_Z   1
loop_
 _symmetry_equiv_pos_site_id
 _symmetry_equiv_pos_as_xyz
  1  'x, y, z'
loop_
 _atom_site_type_symbol
 _atom_site_label
 _atom_site_symmetry_multiplicity
 _atom_site_fract_x
 _atom_site_fract_y
 _atom_site_fract_z
 _atom_site_occupancy
  Hf  Hf0  1  0.124452  0.624997  0.625275  1
  Hf  Hf1  1  0.624997  0.124452  0.625275  1
  Hf  Hf2  1  0.814847  0.814847  0.185153  1
  Hf  Hf3  1  0.182429  0.182429  0.817571  1
  Hf  Hf4  1  0.815446  0.185085  0.815985  1
  Hf  Hf5  1  0.185085  0.815446  0.183484  1
  Hf  Hf6  1  0.185085  0.815446  0.815985  1
  Hf  Hf7  1  0.815446  0.185085  0.183484  1
  Hf  Hf8  1  0.436590  0.436590  0.063410  1
  Zr  Zr9  1  0.065507  0.065507  0.434493  1
  Zr  Zr10  1  0.435754  0.063678  0.435766  1
  Zr  Zr11  1  0.063678  0.435754  0.064803  1
  Zr  Zr12  1  0.063678  0.435754  0.435766  1
  Zr  Zr13  1  0.435754  0.063678  0.064803  1
  Nb  Nb14  1  0.625042  0.625042  0.124217  1
  Nb  Nb15  1  0.625042  0.625042  0.625698  1
  Ir  Ir16  1  0.758493  0.418666  0.411420  1
  Ir  Ir17  1  0.418666  0.758493  0.411420  1
  Ir  Ir18  1  0.414160  0.414160  0.769589  1
  Ir  Ir19  1  0.414160  0.414160  0.402091  1
  Ir  Ir20  1  0.486973  0.832383  0.840322  1
  Ir  Ir21  1  0.832383  0.486973  0.840322  1
  Ir  Ir22  1  0.837674  0.837674  0.477181  1
  Ir  Ir23  1  0.837674  0.837674  0.847470  1
  N  N24  1  0.628780  0.126410  0.122405  1
  N  N25  1  0.126410  0.628780  0.122405  1
  N  N26  1  0.122897  0.122897  0.631426  1
  N  N27  1  0.122897  0.122897  0.122780  1
