# generated using pymatgen
data_ZnCdBi3Sb3O14
_symmetry_space_group_name_H-M   'P 1'
_cell_length_a   7.40567455
_cell_length_b   7.40566992
_cell_length_c   7.40567666
_cell_angle_alpha   61.52377538
_cell_angle_beta   61.52375568
_cell_angle_gamma   61.52383576
_symmetry_Int_Tables_number   1
_chemical_formula_structural   ZnCdBi3Sb3O14
_chemical_formula_sum   'Zn1 Cd1 Bi3 Sb3 O14'
_cell_volume   297.01817393
_cell_formula_units_Z   1
loop_
 _symmetry_equiv_pos_site_id
 _symmetry_equiv_pos_as_xyz
  1  'x, y, z'
loop_
 _atom_site_type_symbol
 _atom_site_label
 _atom_site_symmetry_multiplicity
 _atom_site_fract_x
 _atom_site_fract_y
 _atom_site_fract_z
 _atom_site_occupancy
  Zn  Zn0  1  0.000000  0.500000  0.999999  1
  Cd  Cd1  1  0.499997  0.999979  0.500025  1
  Bi  Bi2  1  0.000000  0.000002  0.499993  1
  Bi  Bi3  1  0.500012  0.000014  0.000007  1
  Bi  Bi4  1  0.499994  0.499992  0.499988  1
  Sb  Sb5  1  0.499999  0.500008  0.999992  1
  Sb  Sb6  1  0.999996  0.500001  0.500004  1
  Sb  Sb7  1  0.000005  0.999998  0.999998  1
  O  O8  1  0.619475  0.119477  0.619470  1
  O  O9  1  0.380528  0.880530  0.380523  1
  O  O10  1  0.076389  0.179124  0.679124  1
  O  O11  1  0.679121  0.179121  0.076384  1
  O  O12  1  0.679124  0.576393  0.679125  1
  O  O13  1  0.923611  0.820878  0.320876  1
  O  O14  1  0.320875  0.820875  0.923605  1
  O  O15  1  0.320877  0.423615  0.320878  1
  O  O16  1  0.655913  0.585476  0.085486  1
  O  O17  1  0.085484  0.585481  0.655909  1
  O  O18  1  0.085476  0.155915  0.085485  1
  O  O19  1  0.344088  0.414513  0.914522  1
  O  O20  1  0.914521  0.414517  0.344083  1
  O  O21  1  0.914514  0.844090  0.914523  1
