# generated using pymatgen
data_CaCd2Mo4(PO4)6
_symmetry_space_group_name_H-M   'P 1'
_cell_length_a   6.65271200
_cell_length_b   9.15025592
_cell_length_c   9.22269146
_cell_angle_alpha   90.34340240
_cell_angle_beta   108.34255606
_cell_angle_gamma   107.41756620
_symmetry_Int_Tables_number   1
_chemical_formula_structural   CaCd2Mo4(PO4)6
_chemical_formula_sum   'Ca1 Cd2 Mo4 P6 O24'
_cell_volume   505.34240349
_cell_formula_units_Z   1
loop_
 _symmetry_equiv_pos_site_id
 _symmetry_equiv_pos_as_xyz
  1  'x, y, z'
loop_
 _atom_site_type_symbol
 _atom_site_label
 _atom_site_symmetry_multiplicity
 _atom_site_fract_x
 _atom_site_fract_y
 _atom_site_fract_z
 _atom_site_occupancy
  Ca  Ca0  1  0.262929  0.758666  0.245285  1
  Cd  Cd1  1  0.748437  0.238315  0.764720  1
  Cd  Cd2  1  0.027757  0.984750  0.986601  1
  Mo  Mo3  1  0.139794  0.882148  0.567616  1
  Mo  Mo4  1  0.360412  0.432997  0.116550  1
  Mo  Mo5  1  0.857261  0.119095  0.429734  1
  Mo  Mo6  1  0.637939  0.565365  0.881906  1
  P  P7  1  0.244803  0.214852  0.780123  1
  P  P8  1  0.755543  0.784983  0.218103  1
  P  P9  1  0.351283  0.146338  0.357701  1
  P  P10  1  0.133353  0.642465  0.853641  1
  P  P11  1  0.650735  0.854970  0.642662  1
  P  P12  1  0.864750  0.357082  0.142448  1
  O  O13  1  0.261480  0.051307  0.763856  1
  O  O14  1  0.221765  0.232704  0.943168  1
  O  O15  1  0.722915  0.942553  0.237719  1
  O  O16  1  0.784742  0.767174  0.056726  1
  O  O17  1  0.968652  0.763364  0.336724  1
  O  O18  1  0.545902  0.661070  0.233995  1
  O  O19  1  0.033200  0.240734  0.662724  1
  O  O20  1  0.457453  0.333791  0.761752  1
  O  O21  1  0.137364  0.693922  0.697730  1
  O  O22  1  0.351550  0.302714  0.303689  1
  O  O23  1  0.859298  0.306158  0.298758  1
  O  O24  1  0.650884  0.698094  0.695706  1
  O  O25  1  0.420656  0.845285  0.523937  1
  O  O26  1  0.090192  0.488880  0.162401  1
  O  O27  1  0.580553  0.156053  0.478936  1
  O  O28  1  0.908637  0.512384  0.837353  1
  O  O29  1  0.287864  0.020116  0.223807  1
  O  O30  1  0.168975  0.773097  0.974540  1
  O  O31  1  0.722378  0.979149  0.780584  1
  O  O32  1  0.831151  0.227224  0.023342  1
  O  O33  1  0.176262  0.091713  0.445911  1
  O  O34  1  0.323641  0.563273  0.915149  1
  O  O35  1  0.821655  0.908803  0.551746  1
  O  O36  1  0.674134  0.437309  0.082158  1
