# generated using pymatgen
data_Sm7Th3(Pb3Cl)2
_symmetry_space_group_name_H-M   'P 1'
_cell_length_a   9.49817000
_cell_length_b   9.49816906
_cell_length_c   6.66581300
_cell_angle_alpha   90.00000000
_cell_angle_beta   90.00000000
_cell_angle_gamma   119.99999631
_symmetry_Int_Tables_number   1
_chemical_formula_structural   Sm7Th3(Pb3Cl)2
_chemical_formula_sum   'Sm7 Th3 Pb6 Cl2'
_cell_volume   520.79116448
_cell_formula_units_Z   1
loop_
 _symmetry_equiv_pos_site_id
 _symmetry_equiv_pos_as_xyz
  1  'x, y, z'
loop_
 _atom_site_type_symbol
 _atom_site_label
 _atom_site_symmetry_multiplicity
 _atom_site_fract_x
 _atom_site_fract_y
 _atom_site_fract_z
 _atom_site_occupancy
  Sm  Sm0  1  0.333333  0.666667  0.500000  1
  Sm  Sm1  1  0.262558  0.002060  0.250120  1
  Sm  Sm2  1  0.739502  0.002060  0.749880  1
  Sm  Sm3  1  0.997940  0.260498  0.250120  1
  Sm  Sm4  1  0.997940  0.737442  0.749880  1
  Sm  Sm5  1  0.739502  0.737442  0.250120  1
  Sm  Sm6  1  0.262558  0.260498  0.749880  1
  Th  Th7  1  0.333333  0.666667  0.000000  1
  Th  Th8  1  0.666667  0.333333  0.000000  1
  Th  Th9  1  0.666667  0.333333  0.500000  1
  Pb  Pb10  1  0.612113  0.996794  0.251773  1
  Pb  Pb11  1  0.384681  0.996794  0.748227  1
  Pb  Pb12  1  0.003206  0.615319  0.251773  1
  Pb  Pb13  1  0.003206  0.387887  0.748227  1
  Pb  Pb14  1  0.384681  0.387887  0.251773  1
  Pb  Pb15  1  0.612113  0.615319  0.748227  1
  Cl  Cl16  1  0.000000  0.000000  0.000000  1
  Cl  Cl17  1  0.000000  0.000000  0.500000  1
