# generated using pymatgen
data_Tb6Co14Ni(P4Rh)3
_symmetry_space_group_name_H-M   'P 1'
_cell_length_a   3.73559300
_cell_length_b   10.59333800
_cell_length_c   12.35713300
_cell_angle_alpha   90.00000000
_cell_angle_beta   90.00000000
_cell_angle_gamma   90.00000000
_symmetry_Int_Tables_number   1
_chemical_formula_structural   Tb6Co14Ni(P4Rh)3
_chemical_formula_sum   'Tb6 Co14 Ni1 P12 Rh3'
_cell_volume   489.00140103
_cell_formula_units_Z   1
loop_
 _symmetry_equiv_pos_site_id
 _symmetry_equiv_pos_as_xyz
  1  'x, y, z'
loop_
 _atom_site_type_symbol
 _atom_site_label
 _atom_site_symmetry_multiplicity
 _atom_site_fract_x
 _atom_site_fract_y
 _atom_site_fract_z
 _atom_site_occupancy
  Tb  Tb0  1  0.000000  0.500000  0.520107  1
  Tb  Tb1  1  0.500000  0.000000  0.476745  1
  Tb  Tb2  1  0.500000  0.816267  0.206463  1
  Tb  Tb3  1  0.500000  0.183733  0.206463  1
  Tb  Tb4  1  0.000000  0.687089  0.794051  1
  Tb  Tb5  1  0.000000  0.312911  0.794051  1
  Co  Co6  1  0.000000  0.500000  0.988463  1
  Co  Co7  1  0.500000  0.000000  0.014550  1
  Co  Co8  1  0.500000  0.331631  0.994575  1
  Co  Co9  1  0.500000  0.668369  0.994575  1
  Co  Co10  1  0.000000  0.166693  0.008212  1
  Co  Co11  1  0.000000  0.833307  0.008212  1
  Co  Co12  1  0.500000  0.298045  0.428774  1
  Co  Co13  1  0.500000  0.701955  0.428774  1
  Co  Co14  1  0.000000  0.198301  0.568268  1
  Co  Co15  1  0.000000  0.801699  0.568268  1
  Co  Co16  1  0.500000  0.881137  0.709253  1
  Co  Co17  1  0.500000  0.118863  0.709253  1
  Co  Co18  1  0.000000  0.621210  0.290602  1
  Co  Co19  1  0.000000  0.378790  0.290602  1
  Ni  Ni20  1  0.000000  0.000000  0.294686  1
  P  P21  1  0.500000  0.500000  0.890291  1
  P  P22  1  0.000000  0.000000  0.116138  1
  P  P23  1  0.500000  0.500000  0.349478  1
  P  P24  1  0.000000  0.000000  0.649766  1
  P  P25  1  0.500000  0.301095  0.612102  1
  P  P26  1  0.500000  0.698905  0.612102  1
  P  P27  1  0.000000  0.190004  0.384033  1
  P  P28  1  0.000000  0.809996  0.384033  1
  P  P29  1  0.500000  0.845514  0.896073  1
  P  P30  1  0.500000  0.154486  0.896073  1
  P  P31  1  0.000000  0.655692  0.105733  1
  P  P32  1  0.000000  0.344308  0.105733  1
  Rh  Rh33  1  0.500000  0.500000  0.160088  1
  Rh  Rh34  1  0.000000  0.000000  0.840486  1
  Rh  Rh35  1  0.500000  0.500000  0.702923  1
