# generated using pymatgen
data_Eu4Zn(Ga2Pt)5
_symmetry_space_group_name_H-M   'P 1'
_cell_length_a   8.75966455
_cell_length_b   8.75966532
_cell_length_c   8.75966460
_cell_angle_alpha   140.03086666
_cell_angle_beta   106.93733566
_cell_angle_gamma   86.69125858
_symmetry_Int_Tables_number   1
_chemical_formula_structural   Eu4Zn(Ga2Pt)5
_chemical_formula_sum   'Eu4 Zn1 Ga10 Pt5'
_cell_volume   397.76867413
_cell_formula_units_Z   1
loop_
 _symmetry_equiv_pos_site_id
 _symmetry_equiv_pos_as_xyz
  1  'x, y, z'
loop_
 _atom_site_type_symbol
 _atom_site_label
 _atom_site_symmetry_multiplicity
 _atom_site_fract_x
 _atom_site_fract_y
 _atom_site_fract_z
 _atom_site_occupancy
  Eu  Eu0  1  0.096554  0.865724  0.228246  1
  Eu  Eu1  1  0.903446  0.131692  0.769170  1
  Eu  Eu2  1  0.637477  0.368308  0.271754  1
  Eu  Eu3  1  0.362523  0.634276  0.730830  1
  Zn  Zn4  1  0.500000  0.750000  0.250000  1
  Ga  Ga5  1  0.000000  0.750000  0.750000  1
  Ga  Ga6  1  0.000000  0.250000  0.250000  1
  Ga  Ga7  1  0.282493  0.032493  0.750000  1
  Ga  Ga8  1  0.717507  0.467507  0.750000  1
  Ga  Ga9  1  0.722636  0.972636  0.250000  1
  Ga  Ga10  1  0.277364  0.527364  0.250000  1
  Ga  Ga11  1  0.763929  0.600348  0.156652  1
  Ga  Ga12  1  0.236071  0.392722  0.836418  1
  Ga  Ga13  1  0.443697  0.107278  0.343348  1
  Ga  Ga14  1  0.556303  0.899652  0.663582  1
  Pt  Pt15  1  0.500000  0.250000  0.750000  1
  Pt  Pt16  1  0.035640  0.643423  0.398774  1
  Pt  Pt17  1  0.964360  0.363133  0.607783  1
  Pt  Pt18  1  0.244649  0.136867  0.101226  1
  Pt  Pt19  1  0.755351  0.856577  0.892217  1
