# generated using pymatgen
data_Sr5Dy3(Al4Au3)4
_symmetry_space_group_name_H-M   'P 1'
_cell_length_a   14.21349600
_cell_length_b   14.21349684
_cell_length_c   4.43700100
_cell_angle_alpha   90.00000000
_cell_angle_beta   90.00000000
_cell_angle_gamma   120.00000271
_symmetry_Int_Tables_number   1
_chemical_formula_structural   Sr5Dy3(Al4Au3)4
_chemical_formula_sum   'Sr5 Dy3 Al16 Au12'
_cell_volume   776.28643130
_cell_formula_units_Z   1
loop_
 _symmetry_equiv_pos_site_id
 _symmetry_equiv_pos_as_xyz
  1  'x, y, z'
loop_
 _atom_site_type_symbol
 _atom_site_label
 _atom_site_symmetry_multiplicity
 _atom_site_fract_x
 _atom_site_fract_y
 _atom_site_fract_z
 _atom_site_occupancy
  Sr  Sr0  1  0.333333  0.666667  0.000000  1
  Sr  Sr1  1  0.666667  0.333333  0.000000  1
  Sr  Sr2  1  0.816282  0.000000  0.500000  1
  Sr  Sr3  1  0.000000  0.816282  0.500000  1
  Sr  Sr4  1  0.183718  0.183718  0.500000  1
  Dy  Dy5  1  0.436900  0.000000  0.000000  1
  Dy  Dy6  1  0.000000  0.436900  0.000000  1
  Dy  Dy7  1  0.563100  0.563100  0.000000  1
  Al  Al8  1  0.190105  0.383626  0.000000  1
  Al  Al9  1  0.616374  0.806480  0.000000  1
  Al  Al10  1  0.383626  0.190105  0.000000  1
  Al  Al11  1  0.193520  0.809895  0.000000  1
  Al  Al12  1  0.806480  0.616374  0.000000  1
  Al  Al13  1  0.809895  0.193520  0.000000  1
  Al  Al14  1  0.279357  0.000000  0.500000  1
  Al  Al15  1  0.000000  0.279357  0.500000  1
  Al  Al16  1  0.720643  0.720643  0.500000  1
  Al  Al17  1  0.360489  0.477213  0.500000  1
  Al  Al18  1  0.522787  0.883276  0.500000  1
  Al  Al19  1  0.477213  0.360489  0.500000  1
  Al  Al20  1  0.116724  0.639511  0.500000  1
  Al  Al21  1  0.883276  0.522787  0.500000  1
  Al  Al22  1  0.639511  0.116724  0.500000  1
  Al  Al23  1  0.000000  0.000000  0.000000  1
  Au  Au24  1  0.172190  0.477601  0.500000  1
  Au  Au25  1  0.522399  0.694590  0.500000  1
  Au  Au26  1  0.477601  0.172190  0.500000  1
  Au  Au27  1  0.305410  0.827810  0.500000  1
  Au  Au28  1  0.694590  0.522399  0.500000  1
  Au  Au29  1  0.827810  0.305410  0.500000  1
  Au  Au30  1  0.182611  0.000000  0.000000  1
  Au  Au31  1  0.000000  0.182611  0.000000  1
  Au  Au32  1  0.817389  0.817389  0.000000  1
  Au  Au33  1  0.639923  0.000000  0.000000  1
  Au  Au34  1  0.000000  0.639923  0.000000  1
  Au  Au35  1  0.360077  0.360077  0.000000  1
