# generated using pymatgen
data_TbHo15In4NiRh3
_symmetry_space_group_name_H-M   'P 1'
_cell_length_a   9.60884450
_cell_length_b   9.62618315
_cell_length_c   9.62025110
_cell_angle_alpha   60.00129383
_cell_angle_beta   60.03920444
_cell_angle_gamma   60.05964191
_symmetry_Int_Tables_number   1
_chemical_formula_structural   TbHo15In4NiRh3
_chemical_formula_sum   'Tb1 Ho15 In4 Ni1 Rh3'
_cell_volume   629.68732074
_cell_formula_units_Z   1
loop_
 _symmetry_equiv_pos_site_id
 _symmetry_equiv_pos_as_xyz
  1  'x, y, z'
loop_
 _atom_site_type_symbol
 _atom_site_label
 _atom_site_symmetry_multiplicity
 _atom_site_fract_x
 _atom_site_fract_y
 _atom_site_fract_z
 _atom_site_occupancy
  Tb  Tb0  1  0.063661  0.437443  0.435235  1
  Ho  Ho1  1  0.809572  0.811604  0.189726  1
  Ho  Ho2  1  0.810398  0.190749  0.811334  1
  Ho  Ho3  1  0.187520  0.190748  0.811334  1
  Ho  Ho4  1  0.650449  0.049645  0.649458  1
  Ho  Ho5  1  0.061967  0.060696  0.438068  1
  Ho  Ho6  1  0.437366  0.438232  0.061967  1
  Ho  Ho7  1  0.653324  0.648909  0.652217  1
  Ho  Ho8  1  0.810693  0.190433  0.188182  1
  Ho  Ho9  1  0.189469  0.811147  0.809916  1
  Ho  Ho10  1  0.045548  0.648910  0.652219  1
  Ho  Ho11  1  0.438641  0.061137  0.061582  1
  Ho  Ho12  1  0.439269  0.060695  0.438069  1
  Ho  Ho13  1  0.062436  0.438233  0.061967  1
  Ho  Ho14  1  0.652060  0.648256  0.047628  1
  Ho  Ho15  1  0.189098  0.811602  0.189726  1
  In  In16  1  0.416924  0.417859  0.416914  1
  In  In17  1  0.416765  0.418019  0.748450  1
  In  In18  1  0.417426  0.747571  0.417573  1
  In  In19  1  0.748301  0.417860  0.416915  1
  Ni  Ni20  1  0.857687  0.425709  0.858910  1
  Rh  Rh21  1  0.857358  0.857942  0.857947  1
  Rh  Rh22  1  0.857313  0.858656  0.426715  1
  Rh  Rh23  1  0.426753  0.857943  0.857945  1
