# generated using pymatgen
data_TbHo2Nb(Co4P3)2
_symmetry_space_group_name_H-M   'P 1'
_cell_length_a   3.70869000
_cell_length_b   10.63525900
_cell_length_c   12.33236300
_cell_angle_alpha   90.00000000
_cell_angle_beta   90.00000000
_cell_angle_gamma   90.00000000
_symmetry_Int_Tables_number   1
_chemical_formula_structural   TbHo2Nb(Co4P3)2
_chemical_formula_sum   'Tb2 Ho4 Nb2 Co16 P12'
_cell_volume   486.42389790
_cell_formula_units_Z   2
loop_
 _symmetry_equiv_pos_site_id
 _symmetry_equiv_pos_as_xyz
  1  'x, y, z'
loop_
 _atom_site_type_symbol
 _atom_site_label
 _atom_site_symmetry_multiplicity
 _atom_site_fract_x
 _atom_site_fract_y
 _atom_site_fract_z
 _atom_site_occupancy
  Tb  Tb0  1  0.000000  0.500000  0.526862  1
  Tb  Tb1  1  0.500000  0.000000  0.473138  1
  Ho  Ho2  1  0.500000  0.820007  0.204920  1
  Ho  Ho3  1  0.500000  0.179993  0.204920  1
  Ho  Ho4  1  0.000000  0.679993  0.795080  1
  Ho  Ho5  1  0.000000  0.320007  0.795080  1
  Nb  Nb6  1  0.500000  0.500000  0.156655  1
  Nb  Nb7  1  0.000000  0.000000  0.843345  1
  Co  Co8  1  0.000000  0.500000  0.985698  1
  Co  Co9  1  0.500000  0.000000  0.014302  1
  Co  Co10  1  0.500000  0.295245  0.432203  1
  Co  Co11  1  0.500000  0.704755  0.432203  1
  Co  Co12  1  0.000000  0.204755  0.567797  1
  Co  Co13  1  0.000000  0.795245  0.567797  1
  Co  Co14  1  0.500000  0.877268  0.704956  1
  Co  Co15  1  0.500000  0.122732  0.704956  1
  Co  Co16  1  0.000000  0.622732  0.295044  1
  Co  Co17  1  0.000000  0.377268  0.295044  1
  Co  Co18  1  0.500000  0.332444  0.991432  1
  Co  Co19  1  0.500000  0.667556  0.991432  1
  Co  Co20  1  0.000000  0.167556  0.008568  1
  Co  Co21  1  0.000000  0.832444  0.008568  1
  Co  Co22  1  0.500000  0.500000  0.703059  1
  Co  Co23  1  0.000000  0.000000  0.296941  1
  P  P24  1  0.500000  0.310501  0.616057  1
  P  P25  1  0.500000  0.689499  0.616057  1
  P  P26  1  0.000000  0.189499  0.383943  1
  P  P27  1  0.000000  0.810501  0.383943  1
  P  P28  1  0.500000  0.500000  0.882000  1
  P  P29  1  0.000000  0.000000  0.118000  1
  P  P30  1  0.500000  0.841285  0.893223  1
  P  P31  1  0.500000  0.158715  0.893223  1
  P  P32  1  0.000000  0.658715  0.106777  1
  P  P33  1  0.000000  0.341285  0.106777  1
  P  P34  1  0.500000  0.500000  0.355261  1
  P  P35  1  0.000000  0.000000  0.644739  1
