# generated using pymatgen
data_Y9Tm(Sc2Ir3)2
_symmetry_space_group_name_H-M   'P 1'
_cell_length_a   8.56417339
_cell_length_b   8.56417341
_cell_length_c   8.56417300
_cell_angle_alpha   109.46014792
_cell_angle_beta   109.46014087
_cell_angle_gamma   109.46013636
_symmetry_Int_Tables_number   1
_chemical_formula_structural   Y9Tm(Sc2Ir3)2
_chemical_formula_sum   'Y9 Tm1 Sc4 Ir6'
_cell_volume   483.74051079
_cell_formula_units_Z   1
loop_
 _symmetry_equiv_pos_site_id
 _symmetry_equiv_pos_as_xyz
  1  'x, y, z'
loop_
 _atom_site_type_symbol
 _atom_site_label
 _atom_site_symmetry_multiplicity
 _atom_site_fract_x
 _atom_site_fract_y
 _atom_site_fract_z
 _atom_site_occupancy
  Y  Y0  1  0.342547  0.592179  0.750076  1
  Y  Y1  1  0.750076  0.342547  0.592179  1
  Y  Y2  1  0.592179  0.750076  0.342547  1
  Y  Y3  1  0.705429  0.500088  0.998858  1
  Y  Y4  1  0.998858  0.705429  0.500088  1
  Y  Y5  1  0.500088  0.998858  0.705429  1
  Y  Y6  1  0.249944  0.157981  0.909281  1
  Y  Y7  1  0.909281  0.249944  0.157981  1
  Y  Y8  1  0.157981  0.909281  0.249944  1
  Tm  Tm9  1  0.799861  0.799861  0.799861  1
  Sc  Sc10  1  0.374289  0.374289  0.374289  1
  Sc  Sc11  1  0.128011  0.499082  0.999267  1
  Sc  Sc12  1  0.999267  0.128011  0.499082  1
  Sc  Sc13  1  0.499082  0.999267  0.128011  1
  Ir  Ir14  1  0.871975  0.120203  0.749117  1
  Ir  Ir15  1  0.749117  0.871975  0.120203  1
  Ir  Ir16  1  0.120203  0.749117  0.871975  1
  Ir  Ir17  1  0.249198  0.626735  0.375880  1
  Ir  Ir18  1  0.375880  0.249198  0.626735  1
  Ir  Ir19  1  0.626735  0.375880  0.249198  1
