# generated using pymatgen
data_Pr2PaSn3PtRh2
_symmetry_space_group_name_H-M   'P 1'
_cell_length_a   7.65012629
_cell_length_b   7.58050889
_cell_length_c   4.08255100
_cell_angle_alpha   90.00000000
_cell_angle_beta   90.00000000
_cell_angle_gamma   120.06006903
_symmetry_Int_Tables_number   1
_chemical_formula_structural   Pr2PaSn3PtRh2
_chemical_formula_sum   'Pr2 Pa1 Sn3 Pt1 Rh2'
_cell_volume   204.91135328
_cell_formula_units_Z   1
loop_
 _symmetry_equiv_pos_site_id
 _symmetry_equiv_pos_as_xyz
  1  'x, y, z'
loop_
 _atom_site_type_symbol
 _atom_site_label
 _atom_site_symmetry_multiplicity
 _atom_site_fract_x
 _atom_site_fract_y
 _atom_site_fract_z
 _atom_site_occupancy
  Pr  Pr0  1  0.411197  0.410067  0.500000  1
  Pr  Pr1  1  0.999241  0.588506  0.500000  1
  Pa  Pa2  1  0.591378  0.008467  0.500000  1
  Sn  Sn3  1  0.242124  0.003471  0.000000  1
  Sn  Sn4  1  0.750354  0.741325  0.000000  1
  Sn  Sn5  1  0.006354  0.257210  0.000000  1
  Pt  Pt6  1  0.361472  0.699182  0.000000  1
  Rh  Rh7  1  0.976436  0.999050  0.500000  1
  Rh  Rh8  1  0.661444  0.292723  0.000000  1
