# generated using pymatgen
data_YEr13(Tm3Pt8)2
_symmetry_space_group_name_H-M   'P 1'
_cell_length_a   7.41512933
_cell_length_b   7.50005702
_cell_length_c   14.62776406
_cell_angle_alpha   89.87852049
_cell_angle_beta   89.97622088
_cell_angle_gamma   90.00518276
_symmetry_Int_Tables_number   1
_chemical_formula_structural   YEr13(Tm3Pt8)2
_chemical_formula_sum   'Y1 Er13 Tm6 Pt16'
_cell_volume   813.50499949
_cell_formula_units_Z   1
loop_
 _symmetry_equiv_pos_site_id
 _symmetry_equiv_pos_as_xyz
  1  'x, y, z'
loop_
 _atom_site_type_symbol
 _atom_site_label
 _atom_site_symmetry_multiplicity
 _atom_site_fract_x
 _atom_site_fract_y
 _atom_site_fract_z
 _atom_site_occupancy
  Y  Y0  1  0.000014  0.821564  0.092333  1
  Er  Er1  1  0.844645  0.332060  0.378088  1
  Er  Er2  1  0.345350  0.168147  0.122383  1
  Er  Er3  1  0.345297  0.167556  0.377966  1
  Er  Er4  1  0.845045  0.332481  0.122320  1
  Er  Er5  1  0.155203  0.667806  0.622313  1
  Er  Er6  1  0.655295  0.832065  0.877593  1
  Er  Er7  1  0.999302  0.820914  0.406589  1
  Er  Er8  1  0.498988  0.679334  0.093021  1
  Er  Er9  1  0.500759  0.320239  0.593308  1
  Er  Er10  1  0.001466  0.180742  0.906680  1
  Er  Er11  1  0.000411  0.178691  0.593622  1
  Er  Er12  1  0.500343  0.321315  0.906820  1
  Er  Er13  1  0.499325  0.679441  0.407515  1
  Tm  Tm14  1  0.682326  0.989014  0.250213  1
  Tm  Tm15  1  0.181748  0.510894  0.250523  1
  Tm  Tm16  1  0.817930  0.489584  0.749710  1
  Tm  Tm17  1  0.318025  0.010399  0.750076  1
  Tm  Tm18  1  0.654945  0.832566  0.622788  1
  Tm  Tm19  1  0.155568  0.667302  0.877064  1
  Pt  Pt20  1  0.818655  0.643686  0.251264  1
  Pt  Pt21  1  0.321087  0.855096  0.250618  1
  Pt  Pt22  1  0.679966  0.144396  0.749521  1
  Pt  Pt23  1  0.179965  0.355460  0.749766  1
  Pt  Pt24  1  0.547151  0.387797  0.250202  1
  Pt  Pt25  1  0.048027  0.112898  0.250719  1
  Pt  Pt26  1  0.952242  0.887504  0.749777  1
  Pt  Pt27  1  0.452238  0.612334  0.749862  1
  Pt  Pt28  1  0.814382  0.532970  0.542068  1
  Pt  Pt29  1  0.314905  0.967863  0.957290  1
  Pt  Pt30  1  0.685080  0.030995  0.458597  1
  Pt  Pt31  1  0.185900  0.466115  0.040336  1
  Pt  Pt32  1  0.184647  0.467622  0.458401  1
  Pt  Pt33  1  0.681951  0.034161  0.041142  1
  Pt  Pt34  1  0.315987  0.968249  0.542476  1
  Pt  Pt35  1  0.815832  0.530742  0.957034  1
