# generated using pymatgen
data_Nd4ReI4
_symmetry_space_group_name_H-M   'P 1'
_cell_length_a   10.68171983
_cell_length_b   10.68172015
_cell_length_c   6.49229695
_cell_angle_alpha   89.47092242
_cell_angle_beta   89.47092456
_cell_angle_gamma   89.86206318
_symmetry_Int_Tables_number   1
_chemical_formula_structural   Nd4ReI4
_chemical_formula_sum   'Nd8 Re2 I8'
_cell_volume   740.70035153
_cell_formula_units_Z   2
loop_
 _symmetry_equiv_pos_site_id
 _symmetry_equiv_pos_as_xyz
  1  'x, y, z'
loop_
 _atom_site_type_symbol
 _atom_site_label
 _atom_site_symmetry_multiplicity
 _atom_site_fract_x
 _atom_site_fract_y
 _atom_site_fract_z
 _atom_site_occupancy
  Nd  Nd0  1  0.779724  0.089530  0.002100  1
  Nd  Nd1  1  0.089530  0.779724  0.502100  1
  Nd  Nd2  1  0.088828  0.219459  0.995838  1
  Nd  Nd3  1  0.219459  0.088828  0.495838  1
  Nd  Nd4  1  0.911172  0.780541  0.004162  1
  Nd  Nd5  1  0.910470  0.220276  0.497900  1
  Nd  Nd6  1  0.220276  0.910470  0.997900  1
  Nd  Nd7  1  0.780541  0.911172  0.504162  1
  Re  Re8  1  0.000260  0.999740  0.250000  1
  Re  Re9  1  0.999740  0.000260  0.750000  1
  I  I10  1  0.615286  0.166751  0.496735  1
  I  I11  1  0.835349  0.614949  0.503128  1
  I  I12  1  0.385051  0.164651  0.996872  1
  I  I13  1  0.164651  0.385051  0.496872  1
  I  I14  1  0.614949  0.835349  0.003128  1
  I  I15  1  0.384714  0.833249  0.503265  1
  I  I16  1  0.166751  0.615286  0.996735  1
  I  I17  1  0.833249  0.384714  0.003265  1
