# generated using pymatgen
data_Nb4Fe2(CoOs)3
_symmetry_space_group_name_H-M   'P 1'
_cell_length_a   4.93321717
_cell_length_b   4.93321730
_cell_length_c   8.05970400
_cell_angle_alpha   90.00000000
_cell_angle_beta   90.00000000
_cell_angle_gamma   121.14146574
_symmetry_Int_Tables_number   1
_chemical_formula_structural   Nb4Fe2(CoOs)3
_chemical_formula_sum   'Nb4 Fe2 Co3 Os3'
_cell_volume   167.88004080
_cell_formula_units_Z   1
loop_
 _symmetry_equiv_pos_site_id
 _symmetry_equiv_pos_as_xyz
  1  'x, y, z'
loop_
 _atom_site_type_symbol
 _atom_site_label
 _atom_site_symmetry_multiplicity
 _atom_site_fract_x
 _atom_site_fract_y
 _atom_site_fract_z
 _atom_site_occupancy
  Nb  Nb0  1  0.337011  0.662989  0.429623  1
  Nb  Nb1  1  0.670177  0.329823  0.565994  1
  Nb  Nb2  1  0.670177  0.329823  0.934006  1
  Nb  Nb3  1  0.337011  0.662989  0.070377  1
  Fe  Fe4  1  0.821872  0.652519  0.250000  1
  Fe  Fe5  1  0.347481  0.178128  0.250000  1
  Co  Co6  1  0.169678  0.342017  0.750000  1
  Co  Co7  1  0.657983  0.830322  0.750000  1
  Co  Co8  1  0.821590  0.178410  0.250000  1
  Os  Os9  1  0.997112  0.002888  0.493972  1
  Os  Os10  1  0.997112  0.002888  0.006028  1
  Os  Os11  1  0.172796  0.827204  0.750000  1
