# generated using pymatgen
data_Dy3Zr4NpF28
_symmetry_space_group_name_H-M   'P 1'
_cell_length_a   5.79248914
_cell_length_b   9.19367809
_cell_length_c   12.35290487
_cell_angle_alpha   62.22072542
_cell_angle_beta   89.95417862
_cell_angle_gamma   90.01687579
_symmetry_Int_Tables_number   1
_chemical_formula_structural   Dy3Zr4NpF28
_chemical_formula_sum   'Dy3 Zr4 Np1 F28'
_cell_volume   582.02781690
_cell_formula_units_Z   1
loop_
 _symmetry_equiv_pos_site_id
 _symmetry_equiv_pos_as_xyz
  1  'x, y, z'
loop_
 _atom_site_type_symbol
 _atom_site_label
 _atom_site_symmetry_multiplicity
 _atom_site_fract_x
 _atom_site_fract_y
 _atom_site_fract_z
 _atom_site_occupancy
  Dy  Dy0  1  0.743848  0.817814  0.266361  1
  Dy  Dy1  1  0.243602  0.184585  0.233928  1
  Dy  Dy2  1  0.257331  0.191195  0.733151  1
  Zr  Zr3  1  0.743631  0.278485  0.452104  1
  Zr  Zr4  1  0.244842  0.724722  0.050362  1
  Zr  Zr5  1  0.254729  0.725922  0.540400  1
  Zr  Zr6  1  0.755283  0.270378  0.957243  1
  Np  Np7  1  0.758080  0.817985  0.767208  1
  F  F8  1  0.457032  0.708390  0.925088  1
  F  F9  1  0.965752  0.287585  0.577209  1
  F  F10  1  0.531575  0.286002  0.078867  1
  F  F11  1  0.031551  0.711372  0.418202  1
  F  F12  1  0.456683  0.281044  0.549957  1
  F  F13  1  0.954568  0.713794  0.959322  1
  F  F14  1  0.545785  0.719574  0.447028  1
  F  F15  1  0.043576  0.278030  0.052040  1
  F  F16  1  0.769362  0.518393  0.860499  1
  F  F17  1  0.266744  0.474904  0.639031  1
  F  F18  1  0.235592  0.473891  0.144143  1
  F  F19  1  0.732932  0.527428  0.356709  1
  F  F20  1  0.759299  0.021185  0.059951  1
  F  F21  1  0.259069  0.975642  0.439413  1
  F  F22  1  0.240012  0.973127  0.941984  1
  F  F23  1  0.737990  0.028798  0.553265  1
  F  F24  1  0.983994  0.732402  0.642787  1
  F  F25  1  0.485724  0.265139  0.851752  1
  F  F26  1  0.011359  0.265308  0.348902  1
  F  F27  1  0.514508  0.735319  0.152687  1
  F  F28  1  0.032100  0.747354  0.174900  1
  F  F29  1  0.530187  0.254404  0.327699  1
  F  F30  1  0.967427  0.250435  0.829979  1
  F  F31  1  0.461312  0.741188  0.668906  1
  F  F32  1  0.433001  0.976252  0.235672  1
  F  F33  1  0.933547  0.025645  0.264235  1
  F  F34  1  0.570956  0.037703  0.766026  1
  F  F35  1  0.087015  0.978604  0.732990  1
