# generated using pymatgen
data_U4Re5Si8
_symmetry_space_group_name_H-M   'P 1'
_cell_length_a   7.07229972
_cell_length_b   7.12517774
_cell_length_c   7.07230100
_cell_angle_alpha   109.88679807
_cell_angle_beta   108.33592114
_cell_angle_gamma   109.88680461
_symmetry_Int_Tables_number   1
_chemical_formula_structural   U4Re5Si8
_chemical_formula_sum   'U4 Re5 Si8'
_cell_volume   275.31847571
_cell_formula_units_Z   1
loop_
 _symmetry_equiv_pos_site_id
 _symmetry_equiv_pos_as_xyz
  1  'x, y, z'
loop_
 _atom_site_type_symbol
 _atom_site_label
 _atom_site_symmetry_multiplicity
 _atom_site_fract_x
 _atom_site_fract_y
 _atom_site_fract_z
 _atom_site_occupancy
  U  U0  1  0.498564  0.500000  0.501436  1
  U  U1  1  0.998564  0.500000  0.001436  1
  U  U2  1  0.504768  0.000000  0.004163  1
  U  U3  1  0.995837  0.000000  0.495232  1
  Re  Re4  1  0.254275  0.752737  0.498463  1
  Re  Re5  1  0.247917  0.500000  0.752083  1
  Re  Re6  1  0.998247  0.000000  0.001753  1
  Re  Re7  1  0.501537  0.247263  0.745725  1
  Re  Re8  1  0.747917  0.500000  0.252083  1
  Si  Si9  1  0.697479  0.000000  0.698341  1
  Si  Si10  1  0.689826  0.688016  0.998190  1
  Si  Si11  1  0.306381  0.300217  0.993836  1
  Si  Si12  1  0.006164  0.699783  0.693619  1
  Si  Si13  1  0.001810  0.311984  0.310174  1
  Si  Si14  1  0.301659  0.000000  0.302521  1
  Si  Si15  1  0.495191  0.741326  0.246136  1
  Si  Si16  1  0.753864  0.258674  0.504809  1
