# generated using pymatgen
data_Ce8Si12Os3Au
_symmetry_space_group_name_H-M   'P 1'
_cell_length_a   8.26110802
_cell_length_b   8.26014700
_cell_length_c   8.21915000
_cell_angle_alpha   90.00136226
_cell_angle_beta   89.99906091
_cell_angle_gamma   119.99708060
_symmetry_Int_Tables_number   1
_chemical_formula_structural   Ce8Si12Os3Au
_chemical_formula_sum   'Ce8 Si12 Os3 Au1'
_cell_volume   485.73163647
_cell_formula_units_Z   1
loop_
 _symmetry_equiv_pos_site_id
 _symmetry_equiv_pos_as_xyz
  1  'x, y, z'
loop_
 _atom_site_type_symbol
 _atom_site_label
 _atom_site_symmetry_multiplicity
 _atom_site_fract_x
 _atom_site_fract_y
 _atom_site_fract_z
 _atom_site_occupancy
  Ce  Ce0  1  0.000002  0.999999  0.249882  1
  Ce  Ce1  1  0.000004  0.000010  0.748345  1
  Ce  Ce2  1  0.506089  0.493929  0.257248  1
  Ce  Ce3  1  0.506079  0.012164  0.257263  1
  Ce  Ce4  1  0.987819  0.493915  0.257271  1
  Ce  Ce5  1  0.502974  0.497030  0.743366  1
  Ce  Ce6  1  0.502974  0.005959  0.743372  1
  Ce  Ce7  1  0.994041  0.497027  0.743362  1
  Si  Si8  1  0.165993  0.834023  0.498774  1
  Si  Si9  1  0.166013  0.331995  0.498734  1
  Si  Si10  1  0.668023  0.834002  0.498744  1
  Si  Si11  1  0.835887  0.164112  0.500670  1
  Si  Si12  1  0.835866  0.671769  0.500638  1
  Si  Si13  1  0.328233  0.164136  0.500636  1
  Si  Si14  1  0.833085  0.166911  0.002648  1
  Si  Si15  1  0.833061  0.666152  0.002683  1
  Si  Si16  1  0.333842  0.166933  0.002691  1
  Si  Si17  1  0.161230  0.838775  0.997133  1
  Si  Si18  1  0.161234  0.322427  0.997180  1
  Si  Si19  1  0.677560  0.838762  0.997170  1
  Os  Os20  1  0.333351  0.666707  0.499253  1
  Os  Os21  1  0.666655  0.333301  0.503634  1
  Os  Os22  1  0.666657  0.333291  0.989257  1
  Au  Au23  1  0.333331  0.666671  0.010042  1
