# generated using pymatgen
data_Pr8Ho12Si15As
_symmetry_space_group_name_H-M   'P 1'
_cell_length_a   7.51788361
_cell_length_b   7.80262644
_cell_length_c   14.80124300
_cell_angle_alpha   90.00000000
_cell_angle_beta   90.00000000
_cell_angle_gamma   90.15789860
_symmetry_Int_Tables_number   1
_chemical_formula_structural   Pr8Ho12Si15As
_chemical_formula_sum   'Pr8 Ho12 Si15 As1'
_cell_volume   868.22633043
_cell_formula_units_Z   1
loop_
 _symmetry_equiv_pos_site_id
 _symmetry_equiv_pos_as_xyz
  1  'x, y, z'
loop_
 _atom_site_type_symbol
 _atom_site_label
 _atom_site_symmetry_multiplicity
 _atom_site_fract_x
 _atom_site_fract_y
 _atom_site_fract_z
 _atom_site_occupancy
  Pr  Pr0  1  0.016906  0.178847  0.402117  1
  Pr  Pr1  1  0.515973  0.321601  0.401842  1
  Pr  Pr2  1  0.488304  0.673484  0.904200  1
  Pr  Pr3  1  0.488304  0.673484  0.595800  1
  Pr  Pr4  1  0.984389  0.822954  0.600113  1
  Pr  Pr5  1  0.984389  0.822954  0.899887  1
  Pr  Pr6  1  0.515973  0.321601  0.098158  1
  Pr  Pr7  1  0.016906  0.178847  0.097883  1
  Ho  Ho8  1  0.323654  0.175338  0.624570  1
  Ho  Ho9  1  0.674016  0.823202  0.376480  1
  Ho  Ho10  1  0.663113  0.991989  0.750000  1
  Ho  Ho11  1  0.172895  0.678257  0.377126  1
  Ho  Ho12  1  0.823130  0.324977  0.877653  1
  Ho  Ho13  1  0.823130  0.324977  0.622347  1
  Ho  Ho14  1  0.838692  0.490147  0.250000  1
  Ho  Ho15  1  0.340013  0.009750  0.250000  1
  Ho  Ho16  1  0.323654  0.175338  0.875430  1
  Ho  Ho17  1  0.172895  0.678257  0.122874  1
  Ho  Ho18  1  0.674016  0.823202  0.123520  1
  Ho  Ho19  1  0.158406  0.504367  0.750000  1
  Si  Si20  1  0.464987  0.614048  0.250000  1
  Si  Si21  1  0.021614  0.131197  0.750000  1
  Si  Si22  1  0.530833  0.382848  0.750000  1
  Si  Si23  1  0.149870  0.467748  0.539721  1
  Si  Si24  1  0.966722  0.886632  0.250000  1
  Si  Si25  1  0.721958  0.120828  0.250000  1
  Si  Si26  1  0.850463  0.534586  0.039397  1
  Si  Si27  1  0.351670  0.967160  0.038408  1
  Si  Si28  1  0.149870  0.467748  0.960279  1
  Si  Si29  1  0.647348  0.031792  0.539610  1
  Si  Si30  1  0.351670  0.967160  0.461592  1
  Si  Si31  1  0.850463  0.534586  0.460603  1
  Si  Si32  1  0.780957  0.624778  0.750000  1
  Si  Si33  1  0.221472  0.379773  0.250000  1
  Si  Si34  1  0.647348  0.031792  0.960390  1
  As  As35  1  0.293991  0.863752  0.750000  1
