# generated using pymatgen
data_Tm2ZnCo(BIr2)2
_symmetry_space_group_name_H-M   'P 1'
_cell_length_a   9.40532400
_cell_length_b   9.40532400
_cell_length_c   3.12282200
_cell_angle_alpha   90.00000000
_cell_angle_beta   90.00000000
_cell_angle_gamma   90.00000000
_symmetry_Int_Tables_number   1
_chemical_formula_structural   Tm2ZnCo(BIr2)2
_chemical_formula_sum   'Tm4 Zn2 Co2 B4 Ir8'
_cell_volume   276.24520744
_cell_formula_units_Z   2
loop_
 _symmetry_equiv_pos_site_id
 _symmetry_equiv_pos_as_xyz
  1  'x, y, z'
loop_
 _atom_site_type_symbol
 _atom_site_label
 _atom_site_symmetry_multiplicity
 _atom_site_fract_x
 _atom_site_fract_y
 _atom_site_fract_z
 _atom_site_occupancy
  Tm  Tm0  1  0.324302  0.824302  0.000000  1
  Tm  Tm1  1  0.675698  0.175698  0.000000  1
  Tm  Tm2  1  0.175698  0.324302  0.000000  1
  Tm  Tm3  1  0.824302  0.675698  0.000000  1
  Zn  Zn4  1  0.500000  0.500000  0.000000  1
  Zn  Zn5  1  0.000000  0.000000  0.000000  1
  Co  Co6  1  0.000000  0.500000  0.500000  1
  Co  Co7  1  0.500000  0.000000  0.500000  1
  B  B8  1  0.115188  0.615188  0.000000  1
  B  B9  1  0.884812  0.384812  0.000000  1
  B  B10  1  0.384812  0.115188  0.000000  1
  B  B11  1  0.615188  0.884812  0.000000  1
  Ir  Ir12  1  0.564010  0.724468  0.500000  1
  Ir  Ir13  1  0.435990  0.275532  0.500000  1
  Ir  Ir14  1  0.935990  0.224468  0.500000  1
  Ir  Ir15  1  0.064010  0.775532  0.500000  1
  Ir  Ir16  1  0.775532  0.935990  0.500000  1
  Ir  Ir17  1  0.224468  0.064010  0.500000  1
  Ir  Ir18  1  0.275532  0.564010  0.500000  1
  Ir  Ir19  1  0.724468  0.435990  0.500000  1
