# generated using pymatgen
data_Tm4Os2Ru5W
_symmetry_space_group_name_H-M   'P 1'
_cell_length_a   5.47157486
_cell_length_b   5.14393012
_cell_length_c   8.97136000
_cell_angle_alpha   90.00000000
_cell_angle_beta   90.00000000
_cell_angle_gamma   121.47181277
_symmetry_Int_Tables_number   1
_chemical_formula_structural   Tm4Os2Ru5W
_chemical_formula_sum   'Tm4 Os2 Ru5 W1'
_cell_volume   215.35865581
_cell_formula_units_Z   1
loop_
 _symmetry_equiv_pos_site_id
 _symmetry_equiv_pos_as_xyz
  1  'x, y, z'
loop_
 _atom_site_type_symbol
 _atom_site_label
 _atom_site_symmetry_multiplicity
 _atom_site_fract_x
 _atom_site_fract_y
 _atom_site_fract_z
 _atom_site_occupancy
  Tm  Tm0  1  0.673132  0.345238  0.563227  1
  Tm  Tm1  1  0.332786  0.667878  0.432017  1
  Tm  Tm2  1  0.332786  0.667878  0.067983  1
  Tm  Tm3  1  0.673132  0.345238  0.936773  1
  Os  Os4  1  0.828212  0.651032  0.250000  1
  Os  Os5  1  0.833829  0.167223  0.250000  1
  Ru  Ru6  1  0.003691  0.014267  0.498879  1
  Ru  Ru7  1  0.003691  0.014267  0.001121  1
  Ru  Ru8  1  0.169714  0.818371  0.750000  1
  Ru  Ru9  1  0.650012  0.820292  0.750000  1
  Ru  Ru10  1  0.338740  0.167625  0.250000  1
  W  W11  1  0.160277  0.320693  0.750000  1
