# generated using pymatgen
data_Tb6Y2Re(B8Ru)3
_symmetry_space_group_name_H-M   'P 1'
_cell_length_a   3.68206200
_cell_length_b   9.16827903
_cell_length_c   11.55524117
_cell_angle_alpha   89.85631855
_cell_angle_beta   90.00000000
_cell_angle_gamma   90.00000000
_symmetry_Int_Tables_number   1
_chemical_formula_structural   Tb6Y2Re(B8Ru)3
_chemical_formula_sum   'Tb6 Y2 Re1 B24 Ru3'
_cell_volume   390.08259015
_cell_formula_units_Z   1
loop_
 _symmetry_equiv_pos_site_id
 _symmetry_equiv_pos_as_xyz
  1  'x, y, z'
loop_
 _atom_site_type_symbol
 _atom_site_label
 _atom_site_symmetry_multiplicity
 _atom_site_fract_x
 _atom_site_fract_y
 _atom_site_fract_z
 _atom_site_occupancy
  Tb  Tb0  1  0.000000  0.823654  0.085080  1
  Tb  Tb1  1  0.000000  0.179310  0.911875  1
  Tb  Tb2  1  0.000000  0.323127  0.416229  1
  Tb  Tb3  1  0.000000  0.675803  0.586662  1
  Tb  Tb4  1  0.000000  0.442839  0.129130  1
  Tb  Tb5  1  0.000000  0.556806  0.872280  1
  Y  Y6  1  0.000000  0.942464  0.371572  1
  Y  Y7  1  0.000000  0.056108  0.627305  1
  Re  Re8  1  0.000000  0.362361  0.678592  1
  B  B9  1  0.500000  0.054044  0.067124  1
  B  B10  1  0.500000  0.946440  0.932453  1
  B  B11  1  0.500000  0.553653  0.432206  1
  B  B12  1  0.500000  0.447102  0.567124  1
  B  B13  1  0.500000  0.247486  0.080772  1
  B  B14  1  0.500000  0.753031  0.919490  1
  B  B15  1  0.500000  0.747345  0.419074  1
  B  B16  1  0.500000  0.252070  0.580815  1
  B  B17  1  0.500000  0.289312  0.233752  1
  B  B18  1  0.500000  0.710076  0.767241  1
  B  B19  1  0.500000  0.790110  0.266152  1
  B  B20  1  0.500000  0.208924  0.733709  1
  B  B21  1  0.500000  0.130888  0.314293  1
  B  B22  1  0.500000  0.868360  0.686015  1
  B  B23  1  0.500000  0.631936  0.185661  1
  B  B24  1  0.500000  0.368583  0.814096  1
  B  B25  1  0.500000  0.484035  0.287687  1
  B  B26  1  0.500000  0.517295  0.712584  1
  B  B27  1  0.500000  0.983535  0.211914  1
  B  B28  1  0.500000  0.016472  0.787342  1
  B  B29  1  0.500000  0.106382  0.469590  1
  B  B30  1  0.500000  0.891438  0.529481  1
  B  B31  1  0.500000  0.608929  0.030732  1
  B  B32  1  0.500000  0.392103  0.970774  1
  Ru  Ru33  1  0.000000  0.137369  0.178730  1
  Ru  Ru34  1  0.000000  0.862753  0.821604  1
  Ru  Ru35  1  0.000000  0.637860  0.320858  1
