# generated using pymatgen
data_Ta4Ga(Si5Pt4)3
_symmetry_space_group_name_H-M   'P 1'
_cell_length_a   3.57794300
_cell_length_b   5.57181813
_cell_length_c   24.95058744
_cell_angle_alpha   90.04634073
_cell_angle_beta   90.00000000
_cell_angle_gamma   90.00000000
_symmetry_Int_Tables_number   1
_chemical_formula_structural   Ta4Ga(Si5Pt4)3
_chemical_formula_sum   'Ta4 Ga1 Si15 Pt12'
_cell_volume   497.40595742
_cell_formula_units_Z   1
loop_
 _symmetry_equiv_pos_site_id
 _symmetry_equiv_pos_as_xyz
  1  'x, y, z'
loop_
 _atom_site_type_symbol
 _atom_site_label
 _atom_site_symmetry_multiplicity
 _atom_site_fract_x
 _atom_site_fract_y
 _atom_site_fract_z
 _atom_site_occupancy
  Ta  Ta0  1  0.250000  0.500325  0.711064  1
  Ta  Ta1  1  0.750000  0.997439  0.209894  1
  Ta  Ta2  1  0.250000  0.001410  0.790276  1
  Ta  Ta3  1  0.750000  0.497181  0.288482  1
  Ga  Ga4  1  0.250000  0.185445  0.520651  1
  Si  Si5  1  0.750000  0.318110  0.019920  1
  Si  Si6  1  0.250000  0.681717  0.980024  1
  Si  Si7  1  0.750000  0.822757  0.480757  1
  Si  Si8  1  0.750000  0.316846  0.643759  1
  Si  Si9  1  0.250000  0.184285  0.144242  1
  Si  Si10  1  0.750000  0.814829  0.855765  1
  Si  Si11  1  0.250000  0.681524  0.355015  1
  Si  Si12  1  0.250000  0.662499  0.608988  1
  Si  Si13  1  0.750000  0.843435  0.108503  1
  Si  Si14  1  0.250000  0.156371  0.891564  1
  Si  Si15  1  0.750000  0.338649  0.390853  1
  Si  Si16  1  0.750000  0.834438  0.725210  1
  Si  Si17  1  0.250000  0.664719  0.223836  1
  Si  Si18  1  0.750000  0.333450  0.775895  1
  Si  Si19  1  0.250000  0.163130  0.275103  1
  Pt  Pt20  1  0.750000  0.992074  0.576787  1
  Pt  Pt21  1  0.250000  0.497244  0.072420  1
  Pt  Pt22  1  0.750000  0.502535  0.927520  1
  Pt  Pt23  1  0.250000  0.998975  0.424779  1
  Pt  Pt24  1  0.250000  0.004821  0.670241  1
  Pt  Pt25  1  0.750000  0.495269  0.167075  1
  Pt  Pt26  1  0.250000  0.503744  0.832706  1
  Pt  Pt27  1  0.750000  0.993633  0.330582  1
  Pt  Pt28  1  0.750000  0.509470  0.548922  1
  Pt  Pt29  1  0.250000  0.994715  0.047565  1
  Pt  Pt30  1  0.750000  0.005035  0.952576  1
  Pt  Pt31  1  0.250000  0.503927  0.449027  1
