# generated using pymatgen
data_Sr10Mn4SbO19
_symmetry_space_group_name_H-M   'P 1'
_cell_length_a   8.84282125
_cell_length_b   8.84282147
_cell_length_c   8.75500000
_cell_angle_alpha   60.79808398
_cell_angle_beta   60.79807574
_cell_angle_gamma   91.48518317
_symmetry_Int_Tables_number   1
_chemical_formula_structural   Sr10Mn4SbO19
_chemical_formula_sum   'Sr10 Mn4 Sb1 O19'
_cell_volume   489.34310030
_cell_formula_units_Z   1
loop_
 _symmetry_equiv_pos_site_id
 _symmetry_equiv_pos_as_xyz
  1  'x, y, z'
loop_
 _atom_site_type_symbol
 _atom_site_label
 _atom_site_symmetry_multiplicity
 _atom_site_fract_x
 _atom_site_fract_y
 _atom_site_fract_z
 _atom_site_occupancy
  Sr  Sr0  1  0.860097  0.139903  0.000000  1
  Sr  Sr1  1  0.649788  0.949770  0.807900  1
  Sr  Sr2  1  0.460274  0.749600  0.582732  1
  Sr  Sr3  1  0.250400  0.539726  0.417268  1
  Sr  Sr4  1  0.050230  0.350212  0.192100  1
  Sr  Sr5  1  0.539726  0.250400  0.417268  1
  Sr  Sr6  1  0.350212  0.050230  0.192100  1
  Sr  Sr7  1  0.139903  0.860097  0.000000  1
  Sr  Sr8  1  0.949770  0.649788  0.807900  1
  Sr  Sr9  1  0.749600  0.460274  0.582732  1
  Mn  Mn10  1  0.900403  0.900403  0.399107  1
  Mn  Mn11  1  0.699610  0.699610  0.199352  1
  Mn  Mn12  1  0.300390  0.300390  0.800648  1
  Mn  Mn13  1  0.099597  0.099597  0.600893  1
  Sb  Sb14  1  0.500000  0.500000  0.000000  1
  O  O15  1  0.100711  0.100711  0.123586  1
  O  O16  1  0.500000  0.500000  0.500000  1
  O  O17  1  0.899289  0.899289  0.876414  1
  O  O18  1  0.288922  0.288922  0.294182  1
  O  O19  1  0.711078  0.711078  0.705818  1
  O  O20  1  0.660045  0.339955  0.000000  1
  O  O21  1  0.456978  0.141169  0.802177  1
  O  O22  1  0.250037  0.937890  0.588474  1
  O  O23  1  0.062110  0.749963  0.411526  1
  O  O24  1  0.858831  0.543022  0.197823  1
  O  O25  1  0.749963  0.062110  0.411526  1
  O  O26  1  0.543022  0.858831  0.197823  1
  O  O27  1  0.339955  0.660045  0.000000  1
  O  O28  1  0.141169  0.456978  0.802177  1
  O  O29  1  0.937890  0.250037  0.588474  1
  O  O30  1  0.416472  0.416472  0.876311  1
  O  O31  1  0.803076  0.803076  0.286381  1
  O  O32  1  0.196924  0.196924  0.713619  1
  O  O33  1  0.583528  0.583528  0.123689  1
