# generated using pymatgen
data_Ba3ErTm3O9
_symmetry_space_group_name_H-M   'P 1'
_cell_length_a   9.11254960
_cell_length_b   9.11254903
_cell_length_c   9.11254801
_cell_angle_alpha   38.99113653
_cell_angle_beta   38.99113825
_cell_angle_gamma   38.99113893
_symmetry_Int_Tables_number   1
_chemical_formula_structural   Ba3ErTm3O9
_chemical_formula_sum   'Ba3 Er1 Tm3 O9'
_cell_volume   269.40287074
_cell_formula_units_Z   1
loop_
 _symmetry_equiv_pos_site_id
 _symmetry_equiv_pos_as_xyz
  1  'x, y, z'
loop_
 _atom_site_type_symbol
 _atom_site_label
 _atom_site_symmetry_multiplicity
 _atom_site_fract_x
 _atom_site_fract_y
 _atom_site_fract_z
 _atom_site_occupancy
  Ba  Ba0  1  0.000302  0.000302  0.000302  1
  Ba  Ba1  1  0.835825  0.835825  0.835825  1
  Ba  Ba2  1  0.417364  0.417364  0.417364  1
  Er  Er3  1  0.574719  0.574719  0.574719  1
  Tm  Tm4  1  0.136158  0.136158  0.136158  1
  Tm  Tm5  1  0.261524  0.261524  0.261524  1
  Tm  Tm6  1  0.699952  0.699952  0.699952  1
  O  O7  1  0.531809  0.429625  0.962855  1
  O  O8  1  0.429625  0.962855  0.531809  1
  O  O9  1  0.962855  0.531809  0.429625  1
  O  O10  1  0.406568  0.302885  0.876461  1
  O  O11  1  0.302885  0.876461  0.406568  1
  O  O12  1  0.876461  0.406568  0.302885  1
  O  O13  1  0.971541  0.418337  0.864573  1
  O  O14  1  0.864573  0.971541  0.418337  1
  O  O15  1  0.418337  0.864573  0.971541  1
