# generated using pymatgen
data_CsK3(SiP)12
_symmetry_space_group_name_H-M   'P 1'
_cell_length_a   3.55384400
_cell_length_b   9.92033313
_cell_length_c   19.68550444
_cell_angle_alpha   91.13236939
_cell_angle_beta   90.00000000
_cell_angle_gamma   90.00000000
_symmetry_Int_Tables_number   1
_chemical_formula_structural   CsK3(SiP)12
_chemical_formula_sum   'Cs1 K3 Si12 P12'
_cell_volume   693.88314987
_cell_formula_units_Z   1
loop_
 _symmetry_equiv_pos_site_id
 _symmetry_equiv_pos_as_xyz
  1  'x, y, z'
loop_
 _atom_site_type_symbol
 _atom_site_label
 _atom_site_symmetry_multiplicity
 _atom_site_fract_x
 _atom_site_fract_y
 _atom_site_fract_z
 _atom_site_occupancy
  Cs  Cs0  1  0.000000  0.800684  0.194253  1
  K  K1  1  0.000000  0.303379  0.309892  1
  K  K2  1  0.000000  0.691375  0.693314  1
  K  K3  1  0.000000  0.192566  0.805289  1
  Si  Si4  1  0.500000  0.408146  0.031430  1
  Si  Si5  1  0.500000  0.596272  0.960172  1
  Si  Si6  1  0.500000  0.097037  0.535558  1
  Si  Si7  1  0.500000  0.901626  0.466070  1
  Si  Si8  1  0.000000  0.116383  0.014735  1
  Si  Si9  1  0.000000  0.887894  0.981426  1
  Si  Si10  1  0.000000  0.385598  0.518412  1
  Si  Si11  1  0.000000  0.613327  0.489334  1
  Si  Si12  1  0.000000  0.190847  0.129609  1
  Si  Si13  1  0.000000  0.820321  0.866102  1
  Si  Si14  1  0.000000  0.321068  0.632735  1
  Si  Si15  1  0.000000  0.668546  0.374213  1
  P  P16  1  0.500000  0.128985  0.190617  1
  P  P17  1  0.500000  0.886200  0.805827  1
  P  P18  1  0.500000  0.388530  0.693841  1
  P  P19  1  0.500000  0.595900  0.315164  1
  P  P20  1  0.500000  0.281781  0.465770  1
  P  P21  1  0.500000  0.721623  0.539392  1
  P  P22  1  0.500000  0.216952  0.962437  1
  P  P23  1  0.500000  0.784064  0.031356  1
  P  P24  1  0.000000  0.418847  0.104083  1
  P  P25  1  0.000000  0.590014  0.887447  1
  P  P26  1  0.000000  0.091384  0.608104  1
  P  P27  1  0.000000  0.900650  0.393417  1
