# generated using pymatgen
data_Cs4TcP4W
_symmetry_space_group_name_H-M   'P 1'
_cell_length_a   8.76858504
_cell_length_b   8.76858537
_cell_length_c   8.76858600
_cell_angle_alpha   139.11774327
_cell_angle_beta   125.17469370
_cell_angle_gamma   70.60203698
_symmetry_Int_Tables_number   1
_chemical_formula_structural   Cs4TcP4W
_chemical_formula_sum   'Cs4 Tc1 P4 W1'
_cell_volume   353.88961245
_cell_formula_units_Z   1
loop_
 _symmetry_equiv_pos_site_id
 _symmetry_equiv_pos_as_xyz
  1  'x, y, z'
loop_
 _atom_site_type_symbol
 _atom_site_label
 _atom_site_symmetry_multiplicity
 _atom_site_fract_x
 _atom_site_fract_y
 _atom_site_fract_z
 _atom_site_occupancy
  Cs  Cs0  1  0.988447  0.151524  0.836519  1
  Cs  Cs1  1  0.011553  0.848074  0.163079  1
  Cs  Cs2  1  0.684995  0.348476  0.336921  1
  Cs  Cs3  1  0.315005  0.651926  0.663481  1
  Tc  Tc4  1  0.500000  0.250000  0.750000  1
  P  P5  1  0.743825  0.585329  0.154134  1
  P  P6  1  0.568805  0.914671  0.658496  1
  P  P7  1  0.431195  0.089692  0.345866  1
  P  P8  1  0.256175  0.410308  0.841504  1
  W  W9  1  0.500000  0.750000  0.250000  1
