# generated using pymatgen
data_Rb3Li2TaAs3
_symmetry_space_group_name_H-M   'P 1'
_cell_length_a   10.19138248
_cell_length_b   10.19138261
_cell_length_c   16.16296200
_cell_angle_alpha   90.00000000
_cell_angle_beta   90.00000000
_cell_angle_gamma   142.47925083
_symmetry_Int_Tables_number   1
_chemical_formula_structural   Rb3Li2TaAs3
_chemical_formula_sum   'Rb12 Li8 Ta4 As12'
_cell_volume   1022.44316508
_cell_formula_units_Z   4
loop_
 _symmetry_equiv_pos_site_id
 _symmetry_equiv_pos_as_xyz
  1  'x, y, z'
loop_
 _atom_site_type_symbol
 _atom_site_label
 _atom_site_symmetry_multiplicity
 _atom_site_fract_x
 _atom_site_fract_y
 _atom_site_fract_z
 _atom_site_occupancy
  Rb  Rb0  1  0.608067  0.946673  0.828669  1
  Rb  Rb1  1  0.284523  0.284523  0.318111  1
  Rb  Rb2  1  0.215477  0.215477  0.818111  1
  Rb  Rb3  1  0.715477  0.715477  0.681889  1
  Rb  Rb4  1  0.446673  0.108067  0.671331  1
  Rb  Rb5  1  0.891933  0.553327  0.328669  1
  Rb  Rb6  1  0.053327  0.391933  0.171331  1
  Rb  Rb7  1  0.391933  0.053327  0.171331  1
  Rb  Rb8  1  0.553327  0.891933  0.328669  1
  Rb  Rb9  1  0.108067  0.446673  0.671331  1
  Rb  Rb10  1  0.946673  0.608067  0.828669  1
  Rb  Rb11  1  0.784523  0.784523  0.181889  1
  Li  Li12  1  0.082384  0.917616  0.000000  1
  Li  Li13  1  0.582384  0.417616  0.500000  1
  Li  Li14  1  0.917616  0.082384  0.000000  1
  Li  Li15  1  0.749562  0.250438  0.000000  1
  Li  Li16  1  0.750438  0.249562  0.500000  1
  Li  Li17  1  0.250438  0.749562  0.000000  1
  Li  Li18  1  0.249562  0.750438  0.500000  1
  Li  Li19  1  0.417616  0.582384  0.500000  1
  Ta  Ta20  1  0.082304  0.917696  0.500000  1
  Ta  Ta21  1  0.417696  0.582304  0.000000  1
  Ta  Ta22  1  0.917696  0.082304  0.500000  1
  Ta  Ta23  1  0.582304  0.417696  0.000000  1
  As  As24  1  0.065018  0.383909  0.413327  1
  As  As25  1  0.883909  0.565018  0.086673  1
  As  As26  1  0.434982  0.116091  0.913327  1
  As  As27  1  0.616091  0.934982  0.586673  1
  As  As28  1  0.934982  0.616091  0.586673  1
  As  As29  1  0.116091  0.434982  0.913327  1
  As  As30  1  0.565018  0.883909  0.086673  1
  As  As31  1  0.383909  0.065018  0.413327  1
  As  As32  1  0.225247  0.225247  0.587601  1
  As  As33  1  0.725247  0.725247  0.912399  1
  As  As34  1  0.274753  0.274753  0.087601  1
  As  As35  1  0.774753  0.774753  0.412399  1
