# generated using pymatgen
data_Tb3BC2N
_symmetry_space_group_name_H-M   'P 1'
_cell_length_a   3.62285517
_cell_length_b   3.62285427
_cell_length_c   15.85278700
_cell_angle_alpha   90.00000000
_cell_angle_beta   90.00000000
_cell_angle_gamma   90.21727052
_symmetry_Int_Tables_number   1
_chemical_formula_structural   Tb3BC2N
_chemical_formula_sum   'Tb6 B2 C4 N2'
_cell_volume   208.06754341
_cell_formula_units_Z   2
loop_
 _symmetry_equiv_pos_site_id
 _symmetry_equiv_pos_as_xyz
  1  'x, y, z'
loop_
 _atom_site_type_symbol
 _atom_site_label
 _atom_site_symmetry_multiplicity
 _atom_site_fract_x
 _atom_site_fract_y
 _atom_site_fract_z
 _atom_site_occupancy
  Tb  Tb0  1  0.554579  0.445419  0.104399  1
  Tb  Tb1  1  0.057885  0.942113  0.250000  1
  Tb  Tb2  1  0.554579  0.445419  0.395601  1
  Tb  Tb3  1  0.445419  0.554579  0.604399  1
  Tb  Tb4  1  0.942113  0.057885  0.750000  1
  Tb  Tb5  1  0.445419  0.554579  0.895601  1
  B  B6  1  0.000000  0.000000  0.000000  1
  B  B7  1  0.000000  0.000000  0.500000  1
  C  C8  1  0.048686  0.951313  0.092260  1
  C  C9  1  0.048686  0.951313  0.407740  1
  C  C10  1  0.951313  0.048686  0.592260  1
  C  C11  1  0.951313  0.048686  0.907739  1
  N  N12  1  0.562131  0.437867  0.250000  1
  N  N13  1  0.437867  0.562131  0.750000  1
