# generated using pymatgen
data_TbY3Ga5Tc3
_symmetry_space_group_name_H-M   'P 1'
_cell_length_a   5.49608302
_cell_length_b   5.56416155
_cell_length_c   8.69995603
_cell_angle_alpha   89.99999961
_cell_angle_beta   90.00864666
_cell_angle_gamma   120.41060686
_symmetry_Int_Tables_number   1
_chemical_formula_structural   TbY3Ga5Tc3
_chemical_formula_sum   'Tb1 Y3 Ga5 Tc3'
_cell_volume   229.45042844
_cell_formula_units_Z   1
loop_
 _symmetry_equiv_pos_site_id
 _symmetry_equiv_pos_as_xyz
  1  'x, y, z'
loop_
 _atom_site_type_symbol
 _atom_site_label
 _atom_site_symmetry_multiplicity
 _atom_site_fract_x
 _atom_site_fract_y
 _atom_site_fract_z
 _atom_site_occupancy
  Tb  Tb0  1  0.334267  0.667134  0.443101  1
  Y  Y1  1  0.662570  0.331284  0.552782  1
  Y  Y2  1  0.662552  0.331275  0.947200  1
  Y  Y3  1  0.334167  0.667083  0.056956  1
  Ga  Ga4  1  0.836694  0.163750  0.249989  1
  Ga  Ga5  1  0.836694  0.672945  0.249989  1
  Ga  Ga6  1  0.326195  0.163098  0.250008  1
  Ga  Ga7  1  0.187557  0.839815  0.750012  1
  Ga  Ga8  1  0.187557  0.347742  0.750012  1
  Tc  Tc9  1  0.975600  0.987800  0.511079  1
  Tc  Tc10  1  0.975613  0.987807  0.988920  1
  Tc  Tc11  1  0.680533  0.840266  0.749951  1
