# generated using pymatgen
data_Dy4LuCo2
_symmetry_space_group_name_H-M   'P 1'
_cell_length_a   6.28866144
_cell_length_b   6.87527865
_cell_length_c   8.51913168
_cell_angle_alpha   96.19375201
_cell_angle_beta   111.65954367
_cell_angle_gamma   90.00000477
_symmetry_Int_Tables_number   1
_chemical_formula_structural   Dy4LuCo2
_chemical_formula_sum   'Dy8 Lu2 Co4'
_cell_volume   340.01431387
_cell_formula_units_Z   2
loop_
 _symmetry_equiv_pos_site_id
 _symmetry_equiv_pos_as_xyz
  1  'x, y, z'
loop_
 _atom_site_type_symbol
 _atom_site_label
 _atom_site_symmetry_multiplicity
 _atom_site_fract_x
 _atom_site_fract_y
 _atom_site_fract_z
 _atom_site_occupancy
  Dy  Dy0  1  0.519701  0.086201  0.812860  1
  Dy  Dy1  1  0.480299  0.913799  0.187140  1
  Dy  Dy2  1  0.706842  0.413799  0.187140  1
  Dy  Dy3  1  0.293158  0.586201  0.812860  1
  Dy  Dy4  1  0.286323  0.315107  0.430571  1
  Dy  Dy5  1  0.713677  0.684893  0.569429  1
  Dy  Dy6  1  0.855753  0.184893  0.569429  1
  Dy  Dy7  1  0.144247  0.815107  0.430571  1
  Lu  Lu8  1  0.068532  0.250000  0.000000  1
  Lu  Lu9  1  0.931468  0.750000  0.000000  1
  Co  Co10  1  0.318570  0.570737  0.217528  1
  Co  Co11  1  0.681430  0.429263  0.782472  1
  Co  Co12  1  0.101043  0.929263  0.782472  1
  Co  Co13  1  0.898957  0.070737  0.217528  1
