# generated using pymatgen
data_Dy4Ho16Bi11Sb
_symmetry_space_group_name_H-M   'P 1'
_cell_length_a   8.22101339
_cell_length_b   9.49441100
_cell_length_c   12.00033300
_cell_angle_alpha   90.00000000
_cell_angle_beta   90.03335762
_cell_angle_gamma   90.00000000
_symmetry_Int_Tables_number   1
_chemical_formula_structural   Dy4Ho16Bi11Sb
_chemical_formula_sum   'Dy4 Ho16 Bi11 Sb1'
_cell_volume   936.66999236
_cell_formula_units_Z   1
loop_
 _symmetry_equiv_pos_site_id
 _symmetry_equiv_pos_as_xyz
  1  'x, y, z'
loop_
 _atom_site_type_symbol
 _atom_site_label
 _atom_site_symmetry_multiplicity
 _atom_site_fract_x
 _atom_site_fract_y
 _atom_site_fract_z
 _atom_site_occupancy
  Dy  Dy0  1  0.312913  0.250000  0.218810  1
  Dy  Dy1  1  0.812652  0.250000  0.281256  1
  Dy  Dy2  1  0.683130  0.750000  0.783725  1
  Dy  Dy3  1  0.188676  0.750000  0.720365  1
  Ho  Ho4  1  0.353214  0.750000  0.212884  1
  Ho  Ho5  1  0.852532  0.750000  0.284036  1
  Ho  Ho6  1  0.647657  0.250000  0.784167  1
  Ho  Ho7  1  0.147531  0.250000  0.716025  1
  Ho  Ho8  1  0.690193  0.566205  0.057440  1
  Ho  Ho9  1  0.192791  0.935808  0.441227  1
  Ho  Ho10  1  0.308447  0.060409  0.941443  1
  Ho  Ho11  1  0.807239  0.436103  0.558646  1
  Ho  Ho12  1  0.308447  0.439591  0.941443  1
  Ho  Ho13  1  0.807239  0.063897  0.558646  1
  Ho  Ho14  1  0.690193  0.933795  0.057440  1
  Ho  Ho15  1  0.192791  0.564192  0.441227  1
  Ho  Ho16  1  0.475191  0.250000  0.488081  1
  Ho  Ho17  1  0.975799  0.250000  0.011608  1
  Ho  Ho18  1  0.525021  0.750000  0.512006  1
  Ho  Ho19  1  0.028116  0.750000  0.987954  1
  Bi  Bi20  1  0.907587  0.750000  0.543177  1
  Bi  Bi21  1  0.593116  0.250000  0.042763  1
  Bi  Bi22  1  0.092865  0.250000  0.457365  1
  Bi  Bi23  1  0.565305  0.995188  0.325472  1
  Bi  Bi24  1  0.065266  0.504540  0.174297  1
  Bi  Bi25  1  0.434625  0.495218  0.674405  1
  Bi  Bi26  1  0.934389  0.004347  0.825618  1
  Bi  Bi27  1  0.434625  0.004782  0.674405  1
  Bi  Bi28  1  0.934389  0.495653  0.825618  1
  Bi  Bi29  1  0.565305  0.504812  0.325472  1
  Bi  Bi30  1  0.065266  0.995460  0.174297  1
  Sb  Sb31  1  0.407494  0.750000  0.958679  1
