# generated using pymatgen
data_Y2Er2Ga17SiIr6
_symmetry_space_group_name_H-M   'P 1'
_cell_length_a   7.57987935
_cell_length_b   7.55936636
_cell_length_c   9.47773011
_cell_angle_alpha   90.06951036
_cell_angle_beta   89.79317411
_cell_angle_gamma   119.86405682
_symmetry_Int_Tables_number   1
_chemical_formula_structural   Y2Er2Ga17SiIr6
_chemical_formula_sum   'Y2 Er2 Ga17 Si1 Ir6'
_cell_volume   470.94806766
_cell_formula_units_Z   1
loop_
 _symmetry_equiv_pos_site_id
 _symmetry_equiv_pos_as_xyz
  1  'x, y, z'
loop_
 _atom_site_type_symbol
 _atom_site_label
 _atom_site_symmetry_multiplicity
 _atom_site_fract_x
 _atom_site_fract_y
 _atom_site_fract_z
 _atom_site_occupancy
  Y  Y0  1  0.675752  0.004030  0.248158  1
  Y  Y1  1  0.329125  0.001843  0.749112  1
  Er  Er2  1  0.997448  0.664347  0.247989  1
  Er  Er3  1  0.002176  0.330489  0.751421  1
  Ga  Ga4  1  0.131186  0.129308  0.250798  1
  Ga  Ga5  1  0.871036  0.874003  0.750733  1
  Ga  Ga6  1  0.997770  0.669839  0.917641  1
  Ga  Ga7  1  0.999466  0.664288  0.580030  1
  Ga  Ga8  1  0.333067  0.997045  0.418327  1
  Ga  Ga9  1  0.000936  0.336082  0.420952  1
  Ga  Ga10  1  0.666122  0.000624  0.580803  1
  Ga  Ga11  1  0.658696  0.995013  0.917007  1
  Ga  Ga12  1  0.332465  0.997155  0.082023  1
  Ga  Ga13  1  0.332120  0.332091  0.564638  1
  Ga  Ga14  1  0.669864  0.669279  0.434145  1
  Ga  Ga15  1  0.668901  0.669423  0.068630  1
  Ga  Ga16  1  0.337858  0.332914  0.933967  1
  Ga  Ga17  1  0.341279  0.547306  0.251607  1
  Ga  Ga18  1  0.661920  0.452037  0.751096  1
  Ga  Ga19  1  0.548012  0.340438  0.250710  1
  Ga  Ga20  1  0.450562  0.657312  0.750635  1
  Si  Si21  1  0.999917  0.334958  0.072503  1
  Ir  Ir22  1  0.683896  0.329630  0.003497  1
  Ir  Ir23  1  0.312645  0.656423  0.001671  1
  Ir  Ir24  1  0.328123  0.671140  0.500705  1
  Ir  Ir25  1  0.671784  0.328395  0.500079  1
  Ir  Ir26  1  0.998103  0.014389  0.001258  1
  Ir  Ir27  1  0.999774  0.000196  0.499864  1
