# generated using pymatgen
data_Lu6Ta5Ga11Os7
_symmetry_space_group_name_H-M   'P 1'
_cell_length_a   9.05008865
_cell_length_b   9.05008925
_cell_length_c   8.96231900
_cell_angle_alpha   59.67551345
_cell_angle_beta   59.67551124
_cell_angle_gamma   60.00000112
_symmetry_Int_Tables_number   1
_chemical_formula_structural   Lu6Ta5Ga11Os7
_chemical_formula_sum   'Lu6 Ta5 Ga11 Os7'
_cell_volume   516.49193212
_cell_formula_units_Z   1
loop_
 _symmetry_equiv_pos_site_id
 _symmetry_equiv_pos_as_xyz
  1  'x, y, z'
loop_
 _atom_site_type_symbol
 _atom_site_label
 _atom_site_symmetry_multiplicity
 _atom_site_fract_x
 _atom_site_fract_y
 _atom_site_fract_z
 _atom_site_occupancy
  Lu  Lu0  1  0.707866  0.707866  0.294443  1
  Lu  Lu1  1  0.289825  0.707866  0.294443  1
  Lu  Lu2  1  0.707866  0.289825  0.294443  1
  Lu  Lu3  1  0.296689  0.296689  0.711569  1
  Lu  Lu4  1  0.695054  0.296689  0.711569  1
  Lu  Lu5  1  0.296689  0.695054  0.711569  1
  Ta  Ta6  1  0.878215  0.878215  0.365356  1
  Ta  Ta7  1  0.876093  0.368950  0.878865  1
  Ta  Ta8  1  0.368950  0.876093  0.878865  1
  Ta  Ta9  1  0.876093  0.876093  0.878865  1
  Ta  Ta10  1  0.127235  0.127235  0.618294  1
  Ga  Ga11  1  0.116089  0.647253  0.120569  1
  Ga  Ga12  1  0.647253  0.116089  0.120569  1
  Ga  Ga13  1  0.116089  0.116089  0.120569  1
  Ga  Ga14  1  0.661151  0.661151  0.016548  1
  Ga  Ga15  1  0.661624  0.017098  0.659652  1
  Ga  Ga16  1  0.017098  0.661624  0.659652  1
  Ga  Ga17  1  0.661624  0.661624  0.659652  1
  Ga  Ga18  1  0.333750  0.333750  0.998749  1
  Ga  Ga19  1  0.338345  0.989594  0.333715  1
  Ga  Ga20  1  0.989594  0.338345  0.333715  1
  Ga  Ga21  1  0.338345  0.338345  0.333715  1
  Os  Os22  1  0.006826  0.006826  0.979519  1
  Os  Os23  1  0.998029  0.998029  0.508090  1
  Os  Os24  1  0.495852  0.998029  0.508090  1
  Os  Os25  1  0.998029  0.495852  0.508090  1
  Os  Os26  1  0.502497  0.502497  0.000275  1
  Os  Os27  1  0.994730  0.502497  0.000275  1
  Os  Os28  1  0.502497  0.994730  0.000275  1
