# generated using pymatgen
data_ErLu6Sn23Ir6
_symmetry_space_group_name_H-M   'P 1'
_cell_length_a   9.80341000
_cell_length_b   9.80341041
_cell_length_c   10.09430700
_cell_angle_alpha   90.00000000
_cell_angle_beta   90.00000000
_cell_angle_gamma   120.00000536
_symmetry_Int_Tables_number   1
_chemical_formula_structural   ErLu6Sn23Ir6
_chemical_formula_sum   'Er1 Lu6 Sn23 Ir6'
_cell_volume   840.15896820
_cell_formula_units_Z   1
loop_
 _symmetry_equiv_pos_site_id
 _symmetry_equiv_pos_as_xyz
  1  'x, y, z'
loop_
 _atom_site_type_symbol
 _atom_site_label
 _atom_site_symmetry_multiplicity
 _atom_site_fract_x
 _atom_site_fract_y
 _atom_site_fract_z
 _atom_site_occupancy
  Er  Er0  1  0.000000  0.000000  0.000000  1
  Lu  Lu1  1  0.481294  0.518706  0.306609  1
  Lu  Lu2  1  0.518706  0.481294  0.693391  1
  Lu  Lu3  1  0.481294  0.962589  0.306609  1
  Lu  Lu4  1  0.518706  0.037411  0.693391  1
  Lu  Lu5  1  0.037411  0.518706  0.306609  1
  Lu  Lu6  1  0.962589  0.481294  0.693391  1
  Sn  Sn7  1  0.119953  0.880047  0.284254  1
  Sn  Sn8  1  0.880047  0.119953  0.715746  1
  Sn  Sn9  1  0.119953  0.239905  0.284254  1
  Sn  Sn10  1  0.880047  0.760095  0.715746  1
  Sn  Sn11  1  0.760095  0.880047  0.284254  1
  Sn  Sn12  1  0.239905  0.119953  0.715746  1
  Sn  Sn13  1  0.776940  0.223060  0.457237  1
  Sn  Sn14  1  0.223060  0.776940  0.542763  1
  Sn  Sn15  1  0.776940  0.553880  0.457237  1
  Sn  Sn16  1  0.223060  0.446120  0.542763  1
  Sn  Sn17  1  0.446120  0.223060  0.457237  1
  Sn  Sn18  1  0.553880  0.776940  0.542763  1
  Sn  Sn19  1  0.352105  0.000000  0.000000  1
  Sn  Sn20  1  0.647895  0.000000  0.000000  1
  Sn  Sn21  1  0.000000  0.352105  0.000000  1
  Sn  Sn22  1  0.000000  0.647895  0.000000  1
  Sn  Sn23  1  0.647895  0.647895  0.000000  1
  Sn  Sn24  1  0.352105  0.352105  0.000000  1
  Sn  Sn25  1  0.333333  0.666667  0.127292  1
  Sn  Sn26  1  0.666667  0.333333  0.872708  1
  Sn  Sn27  1  0.333333  0.666667  0.826737  1
  Sn  Sn28  1  0.666667  0.333333  0.173263  1
  Sn  Sn29  1  0.000000  0.000000  0.500000  1
  Ir  Ir30  1  0.830604  0.169396  0.199415  1
  Ir  Ir31  1  0.169396  0.830604  0.800585  1
  Ir  Ir32  1  0.830604  0.661210  0.199415  1
  Ir  Ir33  1  0.169396  0.338790  0.800585  1
  Ir  Ir34  1  0.338790  0.169396  0.199415  1
  Ir  Ir35  1  0.661210  0.830604  0.800585  1
