# generated using pymatgen
data_K10HfZrAs6
_symmetry_space_group_name_H-M   'P 1'
_cell_length_a   8.49908900
_cell_length_b   9.23044280
_cell_length_c   17.87762001
_cell_angle_alpha   59.66113224
_cell_angle_beta   90.00000000
_cell_angle_gamma   90.00000000
_symmetry_Int_Tables_number   1
_chemical_formula_structural   K10HfZrAs6
_chemical_formula_sum   'K20 Hf2 Zr2 As12'
_cell_volume   1210.43682902
_cell_formula_units_Z   2
loop_
 _symmetry_equiv_pos_site_id
 _symmetry_equiv_pos_as_xyz
  1  'x, y, z'
loop_
 _atom_site_type_symbol
 _atom_site_label
 _atom_site_symmetry_multiplicity
 _atom_site_fract_x
 _atom_site_fract_y
 _atom_site_fract_z
 _atom_site_occupancy
  K  K0  1  0.166057  0.841959  0.739588  1
  K  K1  1  0.666057  0.158041  0.760412  1
  K  K2  1  0.834164  0.158285  0.260426  1
  K  K3  1  0.334164  0.841715  0.239574  1
  K  K4  1  0.168778  0.161591  0.419130  1
  K  K5  1  0.668778  0.838409  0.080870  1
  K  K6  1  0.831115  0.838965  0.580646  1
  K  K7  1  0.331115  0.161035  0.919354  1
  K  K8  1  0.006047  0.086418  0.091666  1
  K  K9  1  0.506047  0.913582  0.408334  1
  K  K10  1  0.994145  0.913491  0.908407  1
  K  K11  1  0.494145  0.086509  0.591593  1
  K  K12  1  0.518779  0.261135  0.078187  1
  K  K13  1  0.018779  0.738865  0.421813  1
  K  K14  1  0.480683  0.739276  0.921988  1
  K  K15  1  0.980683  0.260724  0.578012  1
  K  K16  1  0.985294  0.549237  0.257629  1
  K  K17  1  0.485294  0.450763  0.242371  1
  K  K18  1  0.014441  0.450618  0.742428  1
  K  K19  1  0.514441  0.549382  0.757572  1
  Hf  Hf20  1  0.633275  0.507812  0.418565  1
  Hf  Hf21  1  0.133275  0.492188  0.081435  1
  Zr  Zr22  1  0.366532  0.492269  0.581583  1
  Zr  Zr23  1  0.866532  0.507731  0.918417  1
  As  As24  1  0.321219  0.486612  0.434083  1
  As  As25  1  0.821219  0.513388  0.065917  1
  As  As26  1  0.681866  0.513762  0.564120  1
  As  As27  1  0.181866  0.486238  0.935880  1
  As  As28  1  0.217986  0.211701  0.218844  1
  As  As29  1  0.717986  0.788299  0.281156  1
  As  As30  1  0.781077  0.791003  0.779553  1
  As  As31  1  0.281077  0.208997  0.720447  1
  As  As32  1  0.253546  0.756322  0.078319  1
  As  As33  1  0.753546  0.243678  0.421681  1
  As  As34  1  0.744996  0.240741  0.921669  1
  As  As35  1  0.244996  0.759259  0.578331  1
