# generated using pymatgen
data_Li2AcCeAs4
_symmetry_space_group_name_H-M   'P 1'
_cell_length_a   4.06365759
_cell_length_b   4.06365820
_cell_length_c   21.23882358
_cell_angle_alpha   90.31703757
_cell_angle_beta   90.31703680
_cell_angle_gamma   90.21976893
_symmetry_Int_Tables_number   1
_chemical_formula_structural   Li2AcCeAs4
_chemical_formula_sum   'Li4 Ac2 Ce2 As8'
_cell_volume   350.71003473
_cell_formula_units_Z   2
loop_
 _symmetry_equiv_pos_site_id
 _symmetry_equiv_pos_as_xyz
  1  'x, y, z'
loop_
 _atom_site_type_symbol
 _atom_site_label
 _atom_site_symmetry_multiplicity
 _atom_site_fract_x
 _atom_site_fract_y
 _atom_site_fract_z
 _atom_site_occupancy
  Li  Li0  1  0.243109  0.743230  0.762657  1
  Li  Li1  1  0.256770  0.756891  0.237343  1
  Li  Li2  1  0.756891  0.256770  0.237343  1
  Li  Li3  1  0.743230  0.243109  0.762657  1
  Ac  Ac4  1  0.259619  0.259619  0.376752  1
  Ac  Ac5  1  0.740381  0.740381  0.623248  1
  Ce  Ce6  1  0.753017  0.753017  0.107105  1
  Ce  Ce7  1  0.246983  0.246983  0.892895  1
  As  As8  1  0.745654  0.745654  0.843484  1
  As  As9  1  0.254346  0.254346  0.156516  1
  As  As10  1  0.241321  0.241321  0.687658  1
  As  As11  1  0.758679  0.758679  0.312342  1
  As  As12  1  0.249962  0.750038  0.000000  1
  As  As13  1  0.228556  0.771444  0.500000  1
  As  As14  1  0.750038  0.249962  0.000000  1
  As  As15  1  0.771444  0.228556  0.500000  1
