# generated using pymatgen
data_Zr2TiZnFe8
_symmetry_space_group_name_H-M   'P 1'
_cell_length_a   8.44168204
_cell_length_b   8.44168276
_cell_length_c   8.44168253
_cell_angle_alpha   33.50344269
_cell_angle_beta   33.50345001
_cell_angle_gamma   33.50343798
_symmetry_Int_Tables_number   1
_chemical_formula_structural   Zr2TiZnFe8
_chemical_formula_sum   'Zr2 Ti1 Zn1 Fe8'
_cell_volume   163.24856834
_cell_formula_units_Z   1
loop_
 _symmetry_equiv_pos_site_id
 _symmetry_equiv_pos_as_xyz
  1  'x, y, z'
loop_
 _atom_site_type_symbol
 _atom_site_label
 _atom_site_symmetry_multiplicity
 _atom_site_fract_x
 _atom_site_fract_y
 _atom_site_fract_z
 _atom_site_occupancy
  Zr  Zr0  1  0.002297  0.002297  0.002297  1
  Zr  Zr1  1  0.497978  0.497978  0.497978  1
  Ti  Ti2  1  0.624474  0.624474  0.624474  1
  Zn  Zn3  1  0.125605  0.125605  0.125605  1
  Fe  Fe4  1  0.563536  0.059300  0.563536  1
  Fe  Fe5  1  0.063621  0.561317  0.063621  1
  Fe  Fe6  1  0.059300  0.563536  0.563536  1
  Fe  Fe7  1  0.561317  0.063621  0.063621  1
  Fe  Fe8  1  0.812527  0.812527  0.812527  1
  Fe  Fe9  1  0.312187  0.312187  0.312187  1
  Fe  Fe10  1  0.563536  0.563536  0.059300  1
  Fe  Fe11  1  0.063621  0.063621  0.561317  1
