# generated using pymatgen
data_Ce2Sm(ZnPt)3
_symmetry_space_group_name_H-M   'P 1'
_cell_length_a   7.46203352
_cell_length_b   7.46203378
_cell_length_c   3.91274900
_cell_angle_alpha   90.00000000
_cell_angle_beta   90.00000000
_cell_angle_gamma   120.29969570
_symmetry_Int_Tables_number   1
_chemical_formula_structural   Ce2Sm(ZnPt)3
_chemical_formula_sum   'Ce2 Sm1 Zn3 Pt3'
_cell_volume   188.10812295
_cell_formula_units_Z   1
loop_
 _symmetry_equiv_pos_site_id
 _symmetry_equiv_pos_as_xyz
  1  'x, y, z'
loop_
 _atom_site_type_symbol
 _atom_site_label
 _atom_site_symmetry_multiplicity
 _atom_site_fract_x
 _atom_site_fract_y
 _atom_site_fract_z
 _atom_site_occupancy
  Ce  Ce0  1  0.409406  0.000221  0.000000  1
  Ce  Ce1  1  0.000221  0.409405  0.000000  1
  Sm  Sm2  1  0.592139  0.592139  0.000000  1
  Zn  Zn3  1  0.754046  0.997270  0.500000  1
  Zn  Zn4  1  0.248734  0.248733  0.500000  1
  Zn  Zn5  1  0.997270  0.754046  0.500000  1
  Pt  Pt6  1  0.003738  0.003738  0.000000  1
  Pt  Pt7  1  0.669025  0.325422  0.500000  1
  Pt  Pt8  1  0.325422  0.669025  0.500000  1
