# generated using pymatgen
data_Ti3Nb(GaC)2
_symmetry_space_group_name_H-M   'P 1'
_cell_length_a   3.08658700
_cell_length_b   3.08658746
_cell_length_c   13.57465600
_cell_angle_alpha   90.00000000
_cell_angle_beta   90.00000000
_cell_angle_gamma   120.00000575
_symmetry_Int_Tables_number   1
_chemical_formula_structural   Ti3Nb(GaC)2
_chemical_formula_sum   'Ti3 Nb1 Ga2 C2'
_cell_volume   111.99962022
_cell_formula_units_Z   1
loop_
 _symmetry_equiv_pos_site_id
 _symmetry_equiv_pos_as_xyz
  1  'x, y, z'
loop_
 _atom_site_type_symbol
 _atom_site_label
 _atom_site_symmetry_multiplicity
 _atom_site_fract_x
 _atom_site_fract_y
 _atom_site_fract_z
 _atom_site_occupancy
  Ti  Ti0  1  0.333333  0.666667  0.588257  1
  Ti  Ti1  1  0.333333  0.666667  0.914873  1
  Ti  Ti2  1  0.666667  0.333333  0.083902  1
  Nb  Nb3  1  0.666667  0.333333  0.410712  1
  Ga  Ga4  1  0.666667  0.333333  0.752186  1
  Ga  Ga5  1  0.333333  0.666667  0.245051  1
  C  C6  1  0.000000  0.000000  0.505817  1
  C  C7  1  0.000000  0.000000  0.999203  1
