# generated using pymatgen
data_Y6Fe11Co3(P3Rh)4
_symmetry_space_group_name_H-M   'P 1'
_cell_length_a   3.73450500
_cell_length_b   10.77038330
_cell_length_c   12.23321283
_cell_angle_alpha   89.85622866
_cell_angle_beta   90.00000000
_cell_angle_gamma   90.00000000
_symmetry_Int_Tables_number   1
_chemical_formula_structural   Y6Fe11Co3(P3Rh)4
_chemical_formula_sum   'Y6 Fe11 Co3 P12 Rh4'
_cell_volume   492.04335258
_cell_formula_units_Z   1
loop_
 _symmetry_equiv_pos_site_id
 _symmetry_equiv_pos_as_xyz
  1  'x, y, z'
loop_
 _atom_site_type_symbol
 _atom_site_label
 _atom_site_symmetry_multiplicity
 _atom_site_fract_x
 _atom_site_fract_y
 _atom_site_fract_z
 _atom_site_occupancy
  Y  Y0  1  0.000000  0.498767  0.522517  1
  Y  Y1  1  0.500000  0.001943  0.477648  1
  Y  Y2  1  0.500000  0.816706  0.203676  1
  Y  Y3  1  0.500000  0.182704  0.203902  1
  Y  Y4  1  0.000000  0.683415  0.796256  1
  Y  Y5  1  0.000000  0.317058  0.796237  1
  Fe  Fe6  1  0.000000  0.500264  0.992329  1
  Fe  Fe7  1  0.500000  0.999800  0.008077  1
  Fe  Fe8  1  0.500000  0.332758  0.995823  1
  Fe  Fe9  1  0.500000  0.668133  0.995530  1
  Fe  Fe10  1  0.000000  0.168023  0.004942  1
  Fe  Fe11  1  0.000000  0.832244  0.003991  1
  Fe  Fe12  1  0.500000  0.299925  0.429606  1
  Fe  Fe13  1  0.500000  0.699319  0.429679  1
  Fe  Fe14  1  0.000000  0.199162  0.570262  1
  Fe  Fe15  1  0.000000  0.799684  0.568431  1
  Fe  Fe16  1  0.500000  0.883135  0.710315  1
  Co  Co17  1  0.500000  0.118707  0.711873  1
  Co  Co18  1  0.000000  0.617886  0.288538  1
  Co  Co19  1  0.000000  0.381118  0.288579  1
  P  P20  1  0.500000  0.500414  0.893035  1
  P  P21  1  0.000000  0.999685  0.106864  1
  P  P22  1  0.500000  0.499890  0.349192  1
  P  P23  1  0.000000  0.996217  0.652232  1
  P  P24  1  0.500000  0.298231  0.613526  1
  P  P25  1  0.500000  0.702990  0.614430  1
  P  P26  1  0.000000  0.200838  0.386673  1
  P  P27  1  0.000000  0.797902  0.386008  1
  P  P28  1  0.500000  0.842523  0.896831  1
  P  P29  1  0.500000  0.158688  0.899120  1
  P  P30  1  0.000000  0.658484  0.101166  1
  P  P31  1  0.000000  0.341814  0.101486  1
  Rh  Rh32  1  0.500000  0.499894  0.158558  1
  Rh  Rh33  1  0.000000  0.002167  0.842796  1
  Rh  Rh34  1  0.500000  0.500003  0.700250  1
  Rh  Rh35  1  0.000000  0.999511  0.299624  1
