# generated using pymatgen
data_ErTm3ScOs7
_symmetry_space_group_name_H-M   'P 1'
_cell_length_a   5.37821300
_cell_length_b   5.37825883
_cell_length_c   8.83035500
_cell_angle_alpha   89.99906240
_cell_angle_beta   90.00011439
_cell_angle_gamma   120.00013360
_symmetry_Int_Tables_number   1
_chemical_formula_structural   ErTm3ScOs7
_chemical_formula_sum   'Er1 Tm3 Sc1 Os7'
_cell_volume   221.20141829
_cell_formula_units_Z   1
loop_
 _symmetry_equiv_pos_site_id
 _symmetry_equiv_pos_as_xyz
  1  'x, y, z'
loop_
 _atom_site_type_symbol
 _atom_site_label
 _atom_site_symmetry_multiplicity
 _atom_site_fract_x
 _atom_site_fract_y
 _atom_site_fract_z
 _atom_site_occupancy
  Er  Er0  1  0.666673  0.333320  0.576457  1
  Tm  Tm1  1  0.333340  0.666673  0.423183  1
  Tm  Tm2  1  0.333335  0.666669  0.060137  1
  Tm  Tm3  1  0.666668  0.333340  0.940022  1
  Sc  Sc4  1  0.999997  0.000010  0.499962  1
  Os  Os5  1  0.000000  0.000015  0.000018  1
  Os  Os6  1  0.172765  0.345492  0.755027  1
  Os  Os7  1  0.172735  0.827247  0.755021  1
  Os  Os8  1  0.654503  0.827248  0.755016  1
  Os  Os9  1  0.827274  0.654536  0.245052  1
  Os  Os10  1  0.827257  0.172720  0.245053  1
  Os  Os11  1  0.345453  0.172731  0.245052  1
