# generated using pymatgen
data_Ac6NpO11F
_symmetry_space_group_name_H-M   'P 1'
_cell_length_a   7.12622473
_cell_length_b   7.10347675
_cell_length_c   7.09489000
_cell_angle_alpha   98.98297679
_cell_angle_beta   98.86005233
_cell_angle_gamma   98.96847924
_symmetry_Int_Tables_number   1
_chemical_formula_structural   Ac6NpO11F
_chemical_formula_sum   'Ac6 Np1 O11 F1'
_cell_volume   344.50300309
_cell_formula_units_Z   1
loop_
 _symmetry_equiv_pos_site_id
 _symmetry_equiv_pos_as_xyz
  1  'x, y, z'
loop_
 _atom_site_type_symbol
 _atom_site_label
 _atom_site_symmetry_multiplicity
 _atom_site_fract_x
 _atom_site_fract_y
 _atom_site_fract_z
 _atom_site_occupancy
  Ac  Ac0  1  0.301336  0.603295  0.145744  1
  Ac  Ac1  1  0.610934  0.134254  0.281814  1
  Ac  Ac2  1  0.396210  0.848463  0.704465  1
  Ac  Ac3  1  0.707922  0.404904  0.868541  1
  Ac  Ac4  1  0.855860  0.697504  0.398790  1
  Ac  Ac5  1  0.128697  0.305850  0.606189  1
  Np  Np6  1  0.003317  0.001177  0.998731  1
  O  O7  1  0.933115  0.703142  0.047699  1
  O  O8  1  0.174391  0.591547  0.446578  1
  O  O9  1  0.816358  0.401511  0.557887  1
  O  O10  1  0.559802  0.829879  0.415837  1
  O  O11  1  0.591117  0.442015  0.179745  1
  O  O12  1  0.409229  0.551645  0.818984  1
  O  O13  1  0.962484  0.068350  0.290561  1
  O  O14  1  0.047751  0.938115  0.708104  1
  O  O15  1  0.700738  0.051457  0.935154  1
  O  O16  1  0.063917  0.300398  0.952545  1
  O  O17  1  0.300956  0.949317  0.062335  1
  F  F18  1  0.435865  0.177175  0.580298  1
