# generated using pymatgen
data_Pr10Ir2I15
_symmetry_space_group_name_H-M   'P 1'
_cell_length_a   10.15311306
_cell_length_b   11.04078057
_cell_length_c   11.92457414
_cell_angle_alpha   92.48390289
_cell_angle_beta   114.00373084
_cell_angle_gamma   110.33891530
_symmetry_Int_Tables_number   1
_chemical_formula_structural   Pr10Ir2I15
_chemical_formula_sum   'Pr10 Ir2 I15'
_cell_volume   1118.04555180
_cell_formula_units_Z   1
loop_
 _symmetry_equiv_pos_site_id
 _symmetry_equiv_pos_as_xyz
  1  'x, y, z'
loop_
 _atom_site_type_symbol
 _atom_site_label
 _atom_site_symmetry_multiplicity
 _atom_site_fract_x
 _atom_site_fract_y
 _atom_site_fract_z
 _atom_site_occupancy
  Pr  Pr0  1  0.225887  0.577065  0.049756  1
  Pr  Pr1  1  0.774113  0.422935  0.950244  1
  Pr  Pr2  1  0.296774  0.900987  0.273163  1
  Pr  Pr3  1  0.703226  0.099013  0.726837  1
  Pr  Pr4  1  0.087614  0.545260  0.331339  1
  Pr  Pr5  1  0.912386  0.454740  0.668661  1
  Pr  Pr6  1  0.832404  0.750236  0.177668  1
  Pr  Pr7  1  0.167596  0.249764  0.822332  1
  Pr  Pr8  1  0.974216  0.792972  0.902351  1
  Pr  Pr9  1  0.025784  0.207028  0.097649  1
  Ir  Ir10  1  0.032287  0.671512  0.118530  1
  Ir  Ir11  1  0.967713  0.328488  0.881470  1
  I  I12  1  0.339563  0.443650  0.301818  1
  I  I13  1  0.660437  0.556350  0.698182  1
  I  I14  1  0.211801  0.737974  0.816450  1
  I  I15  1  0.788199  0.262026  0.183550  1
  I  I16  1  0.144602  0.385607  0.583865  1
  I  I17  1  0.855398  0.614393  0.416135  1
  I  I18  1  0.389393  0.801686  0.532417  1
  I  I19  1  0.610607  0.198314  0.467583  1
  I  I20  1  0.264762  0.088034  0.055256  1
  I  I21  1  0.735238  0.911966  0.944744  1
  I  I22  1  0.565045  0.845114  0.227858  1
  I  I23  1  0.434955  0.154886  0.772142  1
  I  I24  1  0.092668  0.038389  0.338405  1
  I  I25  1  0.907332  0.961611  0.661595  1
  I  I26  1  0.500000  0.500000  0.000000  1
