# generated using pymatgen
data_Ce5ErAl24Fe5Os3
_symmetry_space_group_name_H-M   'P 1'
_cell_length_a   8.77336300
_cell_length_b   8.79124342
_cell_length_c   9.38088759
_cell_angle_alpha   89.96477329
_cell_angle_beta   90.00000000
_cell_angle_gamma   119.93274602
_symmetry_Int_Tables_number   1
_chemical_formula_structural   Ce5ErAl24Fe5Os3
_chemical_formula_sum   'Ce5 Er1 Al24 Fe5 Os3'
_cell_volume   627.02488767
_cell_formula_units_Z   1
loop_
 _symmetry_equiv_pos_site_id
 _symmetry_equiv_pos_as_xyz
  1  'x, y, z'
loop_
 _atom_site_type_symbol
 _atom_site_label
 _atom_site_symmetry_multiplicity
 _atom_site_fract_x
 _atom_site_fract_y
 _atom_site_fract_z
 _atom_site_occupancy
  Ce  Ce0  1  0.805235  0.610470  0.752530  1
  Ce  Ce1  1  0.610485  0.806105  0.248087  1
  Ce  Ce2  1  0.389102  0.194566  0.752136  1
  Ce  Ce3  1  0.195620  0.806105  0.248087  1
  Ce  Ce4  1  0.805464  0.194566  0.752136  1
  Er  Er5  1  0.194972  0.389944  0.249157  1
  Al  Al6  1  0.331730  0.663462  0.010555  1
  Al  Al7  1  0.666418  0.332835  0.993415  1
  Al  Al8  1  0.666316  0.332631  0.503367  1
  Al  Al9  1  0.332392  0.664785  0.492693  1
  Al  Al10  1  0.158976  0.317951  0.575140  1
  Al  Al11  1  0.841133  0.682265  0.421815  1
  Al  Al12  1  0.681918  0.840930  0.576818  1
  Al  Al13  1  0.839326  0.678651  0.076414  1
  Al  Al14  1  0.317376  0.160164  0.422255  1
  Al  Al15  1  0.160781  0.321561  0.927006  1
  Al  Al16  1  0.159012  0.840930  0.576818  1
  Al  Al17  1  0.320704  0.161928  0.075786  1
  Al  Al18  1  0.842788  0.160164  0.422255  1
  Al  Al19  1  0.678307  0.839296  0.925142  1
  Al  Al20  1  0.841223  0.161928  0.075786  1
  Al  Al21  1  0.160989  0.839296  0.925142  1
  Al  Al22  1  0.561211  0.122420  0.243742  1
  Al  Al23  1  0.438863  0.877728  0.756048  1
  Al  Al24  1  0.881688  0.439559  0.243582  1
  Al  Al25  1  0.122639  0.560757  0.756347  1
  Al  Al26  1  0.557873  0.439559  0.243582  1
  Al  Al27  1  0.438116  0.560757  0.756347  1
  Al  Al28  1  0.001135  0.002269  0.249916  1
  Al  Al29  1  0.999878  0.999756  0.750003  1
  Fe  Fe30  1  0.499664  0.999328  0.999924  1
  Fe  Fe31  1  0.998400  0.499450  0.998381  1
  Fe  Fe32  1  0.501050  0.499450  0.998381  1
  Fe  Fe33  1  0.000101  0.000202  0.000164  1
  Fe  Fe34  1  0.000004  0.000008  0.499775  1
  Os  Os35  1  0.499656  0.999311  0.499695  1
  Os  Os36  1  0.999362  0.499457  0.500787  1
  Os  Os37  1  0.500095  0.499457  0.500787  1
