# generated using pymatgen
data_Th3MgGe2Rh3
_symmetry_space_group_name_H-M   'P 1'
_cell_length_a   7.34093500
_cell_length_b   7.33605693
_cell_length_c   4.07408200
_cell_angle_alpha   90.00000000
_cell_angle_beta   90.00000000
_cell_angle_gamma   120.02201214
_symmetry_Int_Tables_number   1
_chemical_formula_structural   Th3MgGe2Rh3
_chemical_formula_sum   'Th3 Mg1 Ge2 Rh3'
_cell_volume   189.96697022
_cell_formula_units_Z   1
loop_
 _symmetry_equiv_pos_site_id
 _symmetry_equiv_pos_as_xyz
  1  'x, y, z'
loop_
 _atom_site_type_symbol
 _atom_site_label
 _atom_site_symmetry_multiplicity
 _atom_site_fract_x
 _atom_site_fract_y
 _atom_site_fract_z
 _atom_site_occupancy
  Th  Th0  1  0.003562  0.420850  0.500000  1
  Th  Th1  1  0.582712  0.579150  0.500000  1
  Th  Th2  1  0.407147  0.000000  0.500000  1
  Mg  Mg3  1  0.766603  0.000000  0.000000  1
  Ge  Ge4  1  0.991812  0.753995  0.000000  1
  Ge  Ge5  1  0.237816  0.246005  0.000000  1
  Rh  Rh6  1  0.324428  0.660544  0.000000  1
  Rh  Rh7  1  0.663886  0.339456  0.000000  1
  Rh  Rh8  1  0.022032  0.000000  0.500000  1
