# generated using pymatgen
data_Dy6CrCo14(P4Rh)3
_symmetry_space_group_name_H-M   'P 1'
_cell_length_a   3.71060700
_cell_length_b   10.67141400
_cell_length_c   12.35620800
_cell_angle_alpha   90.00000000
_cell_angle_beta   90.00000000
_cell_angle_gamma   90.00000000
_symmetry_Int_Tables_number   1
_chemical_formula_structural   Dy6CrCo14(P4Rh)3
_chemical_formula_sum   'Dy6 Cr1 Co14 P12 Rh3'
_cell_volume   489.27400089
_cell_formula_units_Z   1
loop_
 _symmetry_equiv_pos_site_id
 _symmetry_equiv_pos_as_xyz
  1  'x, y, z'
loop_
 _atom_site_type_symbol
 _atom_site_label
 _atom_site_symmetry_multiplicity
 _atom_site_fract_x
 _atom_site_fract_y
 _atom_site_fract_z
 _atom_site_occupancy
  Dy  Dy0  1  0.000000  0.500000  0.519348  1
  Dy  Dy1  1  0.500000  0.000000  0.479261  1
  Dy  Dy2  1  0.500000  0.814016  0.204996  1
  Dy  Dy3  1  0.500000  0.185984  0.204996  1
  Dy  Dy4  1  0.000000  0.684755  0.796514  1
  Dy  Dy5  1  0.000000  0.315245  0.796514  1
  Cr  Cr6  1  0.500000  0.500000  0.156400  1
  Co  Co7  1  0.000000  0.500000  0.989836  1
  Co  Co8  1  0.500000  0.000000  0.011795  1
  Co  Co9  1  0.500000  0.333456  0.995276  1
  Co  Co10  1  0.500000  0.666544  0.995276  1
  Co  Co11  1  0.000000  0.169365  0.007567  1
  Co  Co12  1  0.000000  0.830635  0.007567  1
  Co  Co13  1  0.500000  0.298874  0.430175  1
  Co  Co14  1  0.500000  0.701126  0.430175  1
  Co  Co15  1  0.000000  0.201312  0.568901  1
  Co  Co16  1  0.000000  0.798688  0.568901  1
  Co  Co17  1  0.500000  0.879782  0.708811  1
  Co  Co18  1  0.500000  0.120218  0.708811  1
  Co  Co19  1  0.000000  0.618684  0.290061  1
  Co  Co20  1  0.000000  0.381316  0.290061  1
  P  P21  1  0.500000  0.500000  0.890112  1
  P  P22  1  0.000000  0.000000  0.109594  1
  P  P23  1  0.500000  0.500000  0.345284  1
  P  P24  1  0.000000  0.000000  0.650158  1
  P  P25  1  0.500000  0.303212  0.613866  1
  P  P26  1  0.500000  0.696788  0.613866  1
  P  P27  1  0.000000  0.197214  0.385769  1
  P  P28  1  0.000000  0.802786  0.385769  1
  P  P29  1  0.500000  0.844548  0.894859  1
  P  P30  1  0.500000  0.155452  0.894859  1
  P  P31  1  0.000000  0.652511  0.107740  1
  P  P32  1  0.000000  0.347489  0.107740  1
  Rh  Rh33  1  0.000000  0.000000  0.839869  1
  Rh  Rh34  1  0.500000  0.500000  0.702636  1
  Rh  Rh35  1  0.000000  0.000000  0.296637  1
