# generated using pymatgen
data_SmBi3(SO6)2
_symmetry_space_group_name_H-M   'P 1'
_cell_length_a   4.24953933
_cell_length_b   7.44318837
_cell_length_c   8.24176815
_cell_angle_alpha   105.95741385
_cell_angle_beta   90.67224793
_cell_angle_gamma   106.37149942
_symmetry_Int_Tables_number   1
_chemical_formula_structural   SmBi3(SO6)2
_chemical_formula_sum   'Sm1 Bi3 S2 O12'
_cell_volume   239.35287572
_cell_formula_units_Z   1
loop_
 _symmetry_equiv_pos_site_id
 _symmetry_equiv_pos_as_xyz
  1  'x, y, z'
loop_
 _atom_site_type_symbol
 _atom_site_label
 _atom_site_symmetry_multiplicity
 _atom_site_fract_x
 _atom_site_fract_y
 _atom_site_fract_z
 _atom_site_occupancy
  Sm  Sm0  1  0.653884  0.320085  0.078880  1
  Bi  Bi1  1  0.668241  0.337144  0.584638  1
  Bi  Bi2  1  0.331780  0.655677  0.409128  1
  Bi  Bi3  1  0.325219  0.656107  0.918064  1
  S  S4  1  0.948045  0.003087  0.755617  1
  S  S5  1  0.055923  0.005948  0.247297  1
  O  O6  1  0.771551  0.499184  0.875206  1
  O  O7  1  0.230830  0.483975  0.120767  1
  O  O8  1  0.264386  0.494167  0.621897  1
  O  O9  1  0.727452  0.500779  0.375842  1
  O  O10  1  0.746876  0.997421  0.604123  1
  O  O11  1  0.260884  0.015019  0.398481  1
  O  O12  1  0.744644  0.018776  0.903132  1
  O  O13  1  0.267402  0.009051  0.103039  1
  O  O14  1  0.240778  0.181826  0.799192  1
  O  O15  1  0.782593  0.819769  0.200897  1
  O  O16  1  0.042887  0.820304  0.720386  1
  O  O17  1  0.936629  0.181681  0.283411  1
