# generated using pymatgen
data_Er3Sc2ZnPt3
_symmetry_space_group_name_H-M   'P 1'
_cell_length_a   7.19361300
_cell_length_b   7.19361268
_cell_length_c   4.28643100
_cell_angle_alpha   90.00000000
_cell_angle_beta   90.00000000
_cell_angle_gamma   121.13733815
_symmetry_Int_Tables_number   1
_chemical_formula_structural   Er3Sc2ZnPt3
_chemical_formula_sum   'Er3 Sc2 Zn1 Pt3'
_cell_volume   189.85776080
_cell_formula_units_Z   1
loop_
 _symmetry_equiv_pos_site_id
 _symmetry_equiv_pos_as_xyz
  1  'x, y, z'
loop_
 _atom_site_type_symbol
 _atom_site_label
 _atom_site_symmetry_multiplicity
 _atom_site_fract_x
 _atom_site_fract_y
 _atom_site_fract_z
 _atom_site_occupancy
  Er  Er0  1  0.980917  0.587753  0.500000  1
  Er  Er1  1  0.587753  0.980917  0.500000  1
  Er  Er2  1  0.433789  0.433789  0.500000  1
  Sc  Sc3  1  0.992470  0.241587  0.000000  1
  Sc  Sc4  1  0.241587  0.992470  0.000000  1
  Zn  Zn5  1  0.756192  0.756192  0.000000  1
  Pt  Pt6  1  0.020382  0.020382  0.500000  1
  Pt  Pt7  1  0.660540  0.326376  0.000000  1
  Pt  Pt8  1  0.326376  0.660540  0.000000  1
