# generated using pymatgen
data_Yb3Lu2Sn3Cl
_symmetry_space_group_name_H-M   'P 1'
_cell_length_a   9.06408700
_cell_length_b   9.06408623
_cell_length_c   6.70394800
_cell_angle_alpha   90.00000000
_cell_angle_beta   90.00000000
_cell_angle_gamma   119.99999917
_symmetry_Int_Tables_number   1
_chemical_formula_structural   Yb3Lu2Sn3Cl
_chemical_formula_sum   'Yb6 Lu4 Sn6 Cl2'
_cell_volume   476.99010078
_cell_formula_units_Z   2
loop_
 _symmetry_equiv_pos_site_id
 _symmetry_equiv_pos_as_xyz
  1  'x, y, z'
loop_
 _atom_site_type_symbol
 _atom_site_label
 _atom_site_symmetry_multiplicity
 _atom_site_fract_x
 _atom_site_fract_y
 _atom_site_fract_z
 _atom_site_occupancy
  Yb  Yb0  1  0.746285  0.000000  0.750000  1
  Yb  Yb1  1  0.746285  0.746285  0.250000  1
  Yb  Yb2  1  0.000000  0.253715  0.250000  1
  Yb  Yb3  1  0.000000  0.746285  0.750000  1
  Yb  Yb4  1  0.253715  0.253715  0.750000  1
  Yb  Yb5  1  0.253715  0.000000  0.250000  1
  Lu  Lu6  1  0.666667  0.333333  0.000000  1
  Lu  Lu7  1  0.333333  0.666667  0.500000  1
  Lu  Lu8  1  0.666667  0.333333  0.500000  1
  Lu  Lu9  1  0.333333  0.666667  0.000000  1
  Sn  Sn10  1  0.597730  0.597730  0.750000  1
  Sn  Sn11  1  0.000000  0.597730  0.250000  1
  Sn  Sn12  1  0.597730  0.000000  0.250000  1
  Sn  Sn13  1  0.402270  0.000000  0.750000  1
  Sn  Sn14  1  0.000000  0.402270  0.750000  1
  Sn  Sn15  1  0.402270  0.402270  0.250000  1
  Cl  Cl16  1  0.000000  0.000000  0.500000  1
  Cl  Cl17  1  0.000000  0.000000  0.000000  1
