# generated using pymatgen
data_Tb6Y13Er(CoSb2)4
_symmetry_space_group_name_H-M   'P 1'
_cell_length_a   7.95405710
_cell_length_b   8.74514003
_cell_length_c   12.24360310
_cell_angle_alpha   90.01189020
_cell_angle_beta   90.00786723
_cell_angle_gamma   90.00604453
_symmetry_Int_Tables_number   1
_chemical_formula_structural   Tb6Y13Er(CoSb2)4
_chemical_formula_sum   'Tb6 Y13 Er1 Co4 Sb8'
_cell_volume   851.65695861
_cell_formula_units_Z   1
loop_
 _symmetry_equiv_pos_site_id
 _symmetry_equiv_pos_as_xyz
  1  'x, y, z'
loop_
 _atom_site_type_symbol
 _atom_site_label
 _atom_site_symmetry_multiplicity
 _atom_site_fract_x
 _atom_site_fract_y
 _atom_site_fract_z
 _atom_site_occupancy
  Tb  Tb0  1  0.178569  0.466499  0.935118  1
  Tb  Tb1  1  0.678653  0.533310  0.564593  1
  Tb  Tb2  1  0.178258  0.033820  0.935167  1
  Tb  Tb3  1  0.678349  0.966388  0.564703  1
  Tb  Tb4  1  0.821416  0.534040  0.064987  1
  Tb  Tb5  1  0.321294  0.465720  0.435064  1
  Y  Y6  1  0.155254  0.749941  0.203983  1
  Y  Y7  1  0.654739  0.249615  0.296417  1
  Y  Y8  1  0.844933  0.249919  0.796327  1
  Y  Y9  1  0.344899  0.750235  0.703577  1
  Y  Y10  1  0.457340  0.749693  0.998519  1
  Y  Y11  1  0.958550  0.249538  0.501381  1
  Y  Y12  1  0.542143  0.250268  0.001268  1
  Y  Y13  1  0.043715  0.750616  0.498459  1
  Y  Y14  1  0.623085  0.750055  0.304912  1
  Y  Y15  1  0.123584  0.250005  0.195432  1
  Y  Y16  1  0.375704  0.249348  0.695121  1
  Y  Y17  1  0.876079  0.750316  0.804674  1
  Y  Y18  1  0.821380  0.965807  0.065722  1
  Er  Er19  1  0.323786  0.034531  0.434928  1
  Co  Co20  1  0.435765  0.750346  0.490065  1
  Co  Co21  1  0.936804  0.251128  0.009743  1
  Co  Co22  1  0.561765  0.249187  0.509508  1
  Co  Co23  1  0.063783  0.749948  0.990078  1
  Sb  Sb24  1  0.929168  0.991805  0.326991  1
  Sb  Sb25  1  0.428460  0.008199  0.173245  1
  Sb  Sb26  1  0.071732  0.491762  0.673119  1
  Sb  Sb27  1  0.571807  0.508203  0.826509  1
  Sb  Sb28  1  0.071369  0.008248  0.673271  1
  Sb  Sb29  1  0.571707  0.991745  0.826905  1
  Sb  Sb30  1  0.927924  0.508233  0.327041  1
  Sb  Sb31  1  0.427991  0.491534  0.173169  1
