# generated using pymatgen
data_Ho7Sn23Os6
_symmetry_space_group_name_H-M   'P 1'
_cell_length_a   9.84618500
_cell_length_b   9.84618396
_cell_length_c   10.12026700
_cell_angle_alpha   90.00000000
_cell_angle_beta   90.00000000
_cell_angle_gamma   119.99999343
_symmetry_Int_Tables_number   1
_chemical_formula_structural   Ho7Sn23Os6
_chemical_formula_sum   'Ho7 Sn23 Os6'
_cell_volume   849.68620590
_cell_formula_units_Z   1
loop_
 _symmetry_equiv_pos_site_id
 _symmetry_equiv_pos_as_xyz
  1  'x, y, z'
loop_
 _atom_site_type_symbol
 _atom_site_label
 _atom_site_symmetry_multiplicity
 _atom_site_fract_x
 _atom_site_fract_y
 _atom_site_fract_z
 _atom_site_occupancy
  Ho  Ho0  1  0.000000  0.000000  0.000000  1
  Ho  Ho1  1  0.514879  0.485121  0.697876  1
  Ho  Ho2  1  0.514879  0.029757  0.697876  1
  Ho  Ho3  1  0.970243  0.485121  0.697876  1
  Ho  Ho4  1  0.029757  0.514879  0.302124  1
  Ho  Ho5  1  0.485121  0.970243  0.302124  1
  Ho  Ho6  1  0.485121  0.514879  0.302124  1
  Sn  Sn7  1  0.666667  0.333333  0.175837  1
  Sn  Sn8  1  0.666667  0.333333  0.870342  1
  Sn  Sn9  1  0.333333  0.666667  0.129658  1
  Sn  Sn10  1  0.349885  0.349885  0.000000  1
  Sn  Sn11  1  0.000000  0.650115  0.000000  1
  Sn  Sn12  1  0.650115  0.000000  0.000000  1
  Sn  Sn13  1  0.650115  0.650115  0.000000  1
  Sn  Sn14  1  0.333333  0.666667  0.824163  1
  Sn  Sn15  1  0.439593  0.219797  0.462890  1
  Sn  Sn16  1  0.219797  0.780203  0.537110  1
  Sn  Sn17  1  0.219797  0.439593  0.537110  1
  Sn  Sn18  1  0.560407  0.780203  0.537110  1
  Sn  Sn19  1  0.117834  0.882166  0.275576  1
  Sn  Sn20  1  0.780203  0.560407  0.462890  1
  Sn  Sn21  1  0.780203  0.219797  0.462890  1
  Sn  Sn22  1  0.349885  0.000000  0.000000  1
  Sn  Sn23  1  0.117834  0.235669  0.275576  1
  Sn  Sn24  1  0.764331  0.882166  0.275576  1
  Sn  Sn25  1  0.235669  0.117834  0.724424  1
  Sn  Sn26  1  0.882166  0.764331  0.724424  1
  Sn  Sn27  1  0.882166  0.117834  0.724424  1
  Sn  Sn28  1  0.000000  0.000000  0.500000  1
  Sn  Sn29  1  0.000000  0.349885  0.000000  1
  Os  Os30  1  0.170286  0.829714  0.797780  1
  Os  Os31  1  0.170286  0.340571  0.797780  1
  Os  Os32  1  0.659429  0.829714  0.797780  1
  Os  Os33  1  0.340571  0.170286  0.202220  1
  Os  Os34  1  0.829714  0.659429  0.202220  1
  Os  Os35  1  0.829714  0.170286  0.202220  1
