# generated using pymatgen
data_Er(S8I)3
_symmetry_space_group_name_H-M   'P 1'
_cell_length_a   15.81753611
_cell_length_b   15.81816101
_cell_length_c   15.81855208
_cell_angle_alpha   119.25985204
_cell_angle_beta   119.25546231
_cell_angle_gamma   119.25268148
_symmetry_Int_Tables_number   1
_chemical_formula_structural   Er(S8I)3
_chemical_formula_sum   'Er1 S24 I3'
_cell_volume   885.28815489
_cell_formula_units_Z   1
loop_
 _symmetry_equiv_pos_site_id
 _symmetry_equiv_pos_as_xyz
  1  'x, y, z'
loop_
 _atom_site_type_symbol
 _atom_site_label
 _atom_site_symmetry_multiplicity
 _atom_site_fract_x
 _atom_site_fract_y
 _atom_site_fract_z
 _atom_site_occupancy
  Er  Er0  1  0.457864  0.457864  0.457844  1
  S  S1  1  0.991845  0.578526  0.578526  1
  S  S2  1  0.578565  0.578563  0.991883  1
  S  S3  1  0.578518  0.991819  0.578509  1
  S  S4  1  0.251506  0.854254  0.730421  1
  S  S5  1  0.854303  0.730460  0.251571  1
  S  S6  1  0.730460  0.251543  0.854293  1
  S  S7  1  0.854304  0.251557  0.730469  1
  S  S8  1  0.251498  0.730396  0.854240  1
  S  S9  1  0.730405  0.854265  0.251515  1
  S  S10  1  0.082982  0.605514  0.429754  1
  S  S11  1  0.605557  0.429799  0.083036  1
  S  S12  1  0.429797  0.083031  0.605573  1
  S  S13  1  0.605566  0.083029  0.429803  1
  S  S14  1  0.083060  0.429801  0.605560  1
  S  S15  1  0.429727  0.605508  0.082971  1
  S  S16  1  0.379971  0.768284  0.643876  1
  S  S17  1  0.768315  0.643928  0.379996  1
  S  S18  1  0.643960  0.380032  0.768380  1
  S  S19  1  0.768316  0.379993  0.643943  1
  S  S20  1  0.380039  0.643949  0.768334  1
  S  S21  1  0.643850  0.768287  0.379944  1
  S  S22  1  0.173099  0.456506  0.456503  1
  S  S23  1  0.456472  0.456496  0.173054  1
  S  S24  1  0.456478  0.173057  0.456509  1
  I  I25  1  0.050033  0.905230  0.905216  1
  I  I26  1  0.905309  0.905307  0.050071  1
  I  I27  1  0.905300  0.050104  0.905306  1
