# generated using pymatgen
data_Sc4Be4Si2Ir7Rh3
_symmetry_space_group_name_H-M   'P 1'
_cell_length_a   9.43931738
_cell_length_b   9.44261238
_cell_length_c   3.07408900
_cell_angle_alpha   90.00000000
_cell_angle_beta   90.00000000
_cell_angle_gamma   90.03247441
_symmetry_Int_Tables_number   1
_chemical_formula_structural   Sc4Be4Si2Ir7Rh3
_chemical_formula_sum   'Sc4 Be4 Si2 Ir7 Rh3'
_cell_volume   273.99908844
_cell_formula_units_Z   1
loop_
 _symmetry_equiv_pos_site_id
 _symmetry_equiv_pos_as_xyz
  1  'x, y, z'
loop_
 _atom_site_type_symbol
 _atom_site_label
 _atom_site_symmetry_multiplicity
 _atom_site_fract_x
 _atom_site_fract_y
 _atom_site_fract_z
 _atom_site_occupancy
  Sc  Sc0  1  0.174275  0.675006  0.000000  1
  Sc  Sc1  1  0.674680  0.825539  0.000000  1
  Sc  Sc2  1  0.324423  0.173492  0.000000  1
  Sc  Sc3  1  0.826429  0.324406  0.000000  1
  Be  Be4  1  0.375377  0.875207  0.000000  1
  Be  Be5  1  0.874624  0.624517  0.000000  1
  Be  Be6  1  0.125308  0.375691  0.000000  1
  Be  Be7  1  0.624392  0.125700  0.000000  1
  Si  Si8  1  0.999813  0.000163  0.000000  1
  Si  Si9  1  0.499974  0.500267  0.000000  1
  Ir  Ir10  1  0.999627  0.499758  0.500000  1
  Ir  Ir11  1  0.500195  0.000463  0.500000  1
  Ir  Ir12  1  0.432262  0.704244  0.500000  1
  Ir  Ir13  1  0.932519  0.794320  0.500000  1
  Ir  Ir14  1  0.794365  0.067584  0.500000  1
  Ir  Ir15  1  0.205533  0.932740  0.500000  1
  Ir  Ir16  1  0.067891  0.205700  0.500000  1
  Rh  Rh17  1  0.295800  0.431347  0.500000  1
  Rh  Rh18  1  0.704428  0.567690  0.500000  1
  Rh  Rh19  1  0.568082  0.296163  0.500000  1
