# generated using pymatgen
data_Tb8Y4Co5Pb
_symmetry_space_group_name_H-M   'P 1'
_cell_length_a   8.36705349
_cell_length_b   8.36705330
_cell_length_c   8.36705338
_cell_angle_alpha   110.70028018
_cell_angle_beta   110.60741669
_cell_angle_gamma   107.13101925
_symmetry_Int_Tables_number   1
_chemical_formula_structural   Tb8Y4Co5Pb
_chemical_formula_sum   'Tb8 Y4 Co5 Pb1'
_cell_volume   450.35449005
_cell_formula_units_Z   1
loop_
 _symmetry_equiv_pos_site_id
 _symmetry_equiv_pos_as_xyz
  1  'x, y, z'
loop_
 _atom_site_type_symbol
 _atom_site_label
 _atom_site_symmetry_multiplicity
 _atom_site_fract_x
 _atom_site_fract_y
 _atom_site_fract_z
 _atom_site_occupancy
  Tb  Tb0  1  0.687414  0.379714  0.692302  1
  Tb  Tb1  1  0.312586  0.620286  0.307698  1
  Tb  Tb2  1  0.687414  0.995112  0.307698  1
  Tb  Tb3  1  0.312586  0.004888  0.692302  1
  Tb  Tb4  1  0.602375  0.795198  0.807178  1
  Tb  Tb5  1  0.397625  0.204802  0.192822  1
  Tb  Tb6  1  0.988019  0.795198  0.192822  1
  Tb  Tb7  1  0.011981  0.204802  0.807178  1
  Y  Y8  1  0.814104  0.706600  0.520702  1
  Y  Y9  1  0.185896  0.293400  0.479298  1
  Y  Y10  1  0.185896  0.706600  0.892497  1
  Y  Y11  1  0.814104  0.293400  0.107503  1
  Co  Co12  1  0.620348  0.000000  0.620348  1
  Co  Co13  1  0.379652  0.000000  0.379652  1
  Co  Co14  1  0.111359  0.611359  0.500000  1
  Co  Co15  1  0.888641  0.388641  0.500000  1
  Co  Co16  1  0.000000  0.000000  0.000000  1
  Pb  Pb17  1  0.500000  0.500000  0.000000  1
