# generated using pymatgen
data_Sc6Sn6HgIr5
_symmetry_space_group_name_H-M   'P 1'
_cell_length_a   7.58801500
_cell_length_b   7.58801496
_cell_length_c   7.14311300
_cell_angle_alpha   90.00000000
_cell_angle_beta   90.00000000
_cell_angle_gamma   119.99999580
_symmetry_Int_Tables_number   1
_chemical_formula_structural   Sc6Sn6HgIr5
_chemical_formula_sum   'Sc6 Sn6 Hg1 Ir5'
_cell_volume   356.18410094
_cell_formula_units_Z   1
loop_
 _symmetry_equiv_pos_site_id
 _symmetry_equiv_pos_as_xyz
  1  'x, y, z'
loop_
 _atom_site_type_symbol
 _atom_site_label
 _atom_site_symmetry_multiplicity
 _atom_site_fract_x
 _atom_site_fract_y
 _atom_site_fract_z
 _atom_site_occupancy
  Sc  Sc0  1  0.386298  0.988529  0.238920  1
  Sc  Sc1  1  0.602230  0.613702  0.238920  1
  Sc  Sc2  1  0.011471  0.397770  0.238920  1
  Sc  Sc3  1  0.379472  0.973817  0.761674  1
  Sc  Sc4  1  0.594345  0.620528  0.761674  1
  Sc  Sc5  1  0.026183  0.405655  0.761674  1
  Sn  Sn6  1  0.287735  0.277485  0.999416  1
  Sn  Sn7  1  0.989749  0.712265  0.999416  1
  Sn  Sn8  1  0.009961  0.746535  0.498201  1
  Sn  Sn9  1  0.736572  0.990039  0.498201  1
  Sn  Sn10  1  0.253465  0.263428  0.498201  1
  Sn  Sn11  1  0.722515  0.010251  0.999416  1
  Hg  Hg12  1  0.666667  0.333333  0.519593  1
  Ir  Ir13  1  0.000000  0.000000  0.769891  1
  Ir  Ir14  1  0.000000  0.000000  0.227790  1
  Ir  Ir15  1  0.666667  0.333333  0.989158  1
  Ir  Ir16  1  0.333333  0.666667  0.488301  1
  Ir  Ir17  1  0.333333  0.666667  0.010636  1
