# generated using pymatgen
data_TbPrErGa8Ag3
_symmetry_space_group_name_H-M   'P 1'
_cell_length_a   4.36739800
_cell_length_b   8.41957009
_cell_length_c   8.41956917
_cell_angle_alpha   69.00498887
_cell_angle_beta   74.96789836
_cell_angle_gamma   74.96789899
_symmetry_Int_Tables_number   1
_chemical_formula_structural   TbPrErGa8Ag3
_chemical_formula_sum   'Tb1 Pr1 Er1 Ga8 Ag3'
_cell_volume   274.35928630
_cell_formula_units_Z   1
loop_
 _symmetry_equiv_pos_site_id
 _symmetry_equiv_pos_as_xyz
  1  'x, y, z'
loop_
 _atom_site_type_symbol
 _atom_site_label
 _atom_site_symmetry_multiplicity
 _atom_site_fract_x
 _atom_site_fract_y
 _atom_site_fract_z
 _atom_site_occupancy
  Tb  Tb0  1  0.200214  0.799786  0.799786  1
  Pr  Pr1  1  0.500098  0.499902  0.499902  1
  Er  Er2  1  0.799928  0.200072  0.200072  1
  Ga  Ga3  1  0.355113  0.360664  0.929109  1
  Ga  Ga4  1  0.644799  0.638906  0.071498  1
  Ga  Ga5  1  0.355113  0.929109  0.360664  1
  Ga  Ga6  1  0.644799  0.071498  0.638906  1
  Ga  Ga7  1  0.160791  0.471690  0.206728  1
  Ga  Ga8  1  0.839566  0.527725  0.793143  1
  Ga  Ga9  1  0.160791  0.206728  0.471690  1
  Ga  Ga10  1  0.839566  0.793143  0.527725  1
  Ag  Ag11  1  0.499764  0.000236  0.000236  1
  Ag  Ag12  1  0.999729  0.807329  0.193212  1
  Ag  Ag13  1  0.999729  0.193212  0.807329  1
