# generated using pymatgen
data_Tm4Al5Tc2Mo
_symmetry_space_group_name_H-M   'P 1'
_cell_length_a   5.51558941
_cell_length_b   5.55336949
_cell_length_c   8.73375900
_cell_angle_alpha   90.00000000
_cell_angle_beta   90.00000000
_cell_angle_gamma   120.22685383
_symmetry_Int_Tables_number   1
_chemical_formula_structural   Tm4Al5Tc2Mo
_chemical_formula_sum   'Tm4 Al5 Tc2 Mo1'
_cell_volume   231.14421190
_cell_formula_units_Z   1
loop_
 _symmetry_equiv_pos_site_id
 _symmetry_equiv_pos_as_xyz
  1  'x, y, z'
loop_
 _atom_site_type_symbol
 _atom_site_label
 _atom_site_symmetry_multiplicity
 _atom_site_fract_x
 _atom_site_fract_y
 _atom_site_fract_z
 _atom_site_occupancy
  Tm  Tm0  1  0.336375  0.668188  0.443529  1
  Tm  Tm1  1  0.665152  0.332576  0.554406  1
  Tm  Tm2  1  0.665152  0.332576  0.945594  1
  Tm  Tm3  1  0.336375  0.668188  0.056471  1
  Al  Al4  1  0.836120  0.163584  0.250000  1
  Al  Al5  1  0.836120  0.672537  0.250000  1
  Al  Al6  1  0.323913  0.161957  0.250000  1
  Al  Al7  1  0.184650  0.845214  0.750000  1
  Al  Al8  1  0.184650  0.339436  0.750000  1
  Tc  Tc9  1  0.975299  0.987649  0.508565  1
  Tc  Tc10  1  0.975299  0.987649  0.991435  1
  Mo  Mo11  1  0.680895  0.840448  0.750000  1
