# generated using pymatgen
data_Ho3Cd3Hg2Pt
_symmetry_space_group_name_H-M   'P 1'
_cell_length_a   8.03873900
_cell_length_b   8.03873809
_cell_length_c   3.80537500
_cell_angle_alpha   90.00000000
_cell_angle_beta   90.00000000
_cell_angle_gamma   119.99999854
_symmetry_Int_Tables_number   1
_chemical_formula_structural   Ho3Cd3Hg2Pt
_chemical_formula_sum   'Ho3 Cd3 Hg2 Pt1'
_cell_volume   212.96287741
_cell_formula_units_Z   1
loop_
 _symmetry_equiv_pos_site_id
 _symmetry_equiv_pos_as_xyz
  1  'x, y, z'
loop_
 _atom_site_type_symbol
 _atom_site_label
 _atom_site_symmetry_multiplicity
 _atom_site_fract_x
 _atom_site_fract_y
 _atom_site_fract_z
 _atom_site_occupancy
  Ho  Ho0  1  0.579783  0.966742  0.000000  1
  Ho  Ho1  1  0.033258  0.613041  0.000000  1
  Ho  Ho2  1  0.386959  0.420217  0.000000  1
  Cd  Cd3  1  0.278154  0.003804  0.500000  1
  Cd  Cd4  1  0.996196  0.274348  0.500000  1
  Cd  Cd5  1  0.725652  0.721846  0.500000  1
  Hg  Hg6  1  0.666667  0.333333  0.500000  1
  Hg  Hg7  1  0.000000  0.000000  0.000000  1
  Pt  Pt8  1  0.333333  0.666667  0.500000  1
