# generated using pymatgen
data_Y20CdTc2Ag5
_symmetry_space_group_name_H-M   'P 1'
_cell_length_a   9.50428995
_cell_length_b   9.52926426
_cell_length_c   9.86943600
_cell_angle_alpha   90.00000000
_cell_angle_beta   90.00000000
_cell_angle_gamma   120.08696502
_symmetry_Int_Tables_number   1
_chemical_formula_structural   Y20CdTc2Ag5
_chemical_formula_sum   'Y20 Cd1 Tc2 Ag5'
_cell_volume   773.42956115
_cell_formula_units_Z   1
loop_
 _symmetry_equiv_pos_site_id
 _symmetry_equiv_pos_as_xyz
  1  'x, y, z'
loop_
 _atom_site_type_symbol
 _atom_site_label
 _atom_site_symmetry_multiplicity
 _atom_site_fract_x
 _atom_site_fract_y
 _atom_site_fract_z
 _atom_site_occupancy
  Y  Y0  1  0.004021  0.002011  0.494769  1
  Y  Y1  1  0.004021  0.002011  0.005231  1
  Y  Y2  1  0.208663  0.790852  0.440365  1
  Y  Y3  1  0.208663  0.417811  0.440365  1
  Y  Y4  1  0.582930  0.791465  0.441925  1
  Y  Y5  1  0.791471  0.208752  0.559201  1
  Y  Y6  1  0.791471  0.582719  0.559201  1
  Y  Y7  1  0.417797  0.208899  0.557844  1
  Y  Y8  1  0.791471  0.208752  0.940799  1
  Y  Y9  1  0.791471  0.582719  0.940799  1
  Y  Y10  1  0.417797  0.208899  0.942156  1
  Y  Y11  1  0.208663  0.790852  0.059635  1
  Y  Y12  1  0.208663  0.417811  0.059635  1
  Y  Y13  1  0.582930  0.791465  0.058075  1
  Y  Y14  1  0.539219  0.460380  0.250000  1
  Y  Y15  1  0.539219  0.078840  0.250000  1
  Y  Y16  1  0.920935  0.460468  0.250000  1
  Y  Y17  1  0.454635  0.533635  0.750000  1
  Y  Y18  1  0.454635  0.921000  0.750000  1
  Y  Y19  1  0.077478  0.538738  0.750000  1
  Cd  Cd20  1  0.775160  0.887579  0.750000  1
  Tc  Tc21  1  0.333351  0.666676  0.250000  1
  Tc  Tc22  1  0.667670  0.333834  0.750000  1
  Ag  Ag23  1  0.884697  0.115630  0.250000  1
  Ag  Ag24  1  0.884697  0.769068  0.250000  1
  Ag  Ag25  1  0.232020  0.116011  0.250000  1
  Ag  Ag26  1  0.113125  0.885488  0.750000  1
  Ag  Ag27  1  0.113125  0.227637  0.750000  1
