# generated using pymatgen
data_NaDy(CO3)2
_symmetry_space_group_name_H-M   'P 1'
_cell_length_a   6.39102508
_cell_length_b   6.39102545
_cell_length_c   6.39102489
_cell_angle_alpha   46.77478018
_cell_angle_beta   46.77478329
_cell_angle_gamma   46.77479134
_symmetry_Int_Tables_number   1
_chemical_formula_structural   NaDy(CO3)2
_chemical_formula_sum   'Na1 Dy1 C2 O6'
_cell_volume   126.63514379
_cell_formula_units_Z   1
loop_
 _symmetry_equiv_pos_site_id
 _symmetry_equiv_pos_as_xyz
  1  'x, y, z'
loop_
 _atom_site_type_symbol
 _atom_site_label
 _atom_site_symmetry_multiplicity
 _atom_site_fract_x
 _atom_site_fract_y
 _atom_site_fract_z
 _atom_site_occupancy
  Na  Na0  1  0.500000  0.500000  0.500000  1
  Dy  Dy1  1  0.000000  0.000000  0.000000  1
  C  C2  1  0.254549  0.254549  0.254549  1
  C  C3  1  0.745451  0.745451  0.745451  1
  O  O4  1  0.479007  0.767633  0.989357  1
  O  O5  1  0.010642  0.520994  0.232368  1
  O  O6  1  0.232368  0.010642  0.520993  1
  O  O7  1  0.767632  0.989358  0.479007  1
  O  O8  1  0.989358  0.479006  0.767632  1
  O  O9  1  0.520993  0.232367  0.010643  1
