# generated using pymatgen
data_Pr6Nd6Fe2Br17
_symmetry_space_group_name_H-M   'P 1'
_cell_length_a   9.55346595
_cell_length_b   11.56613906
_cell_length_c   11.60435219
_cell_angle_alpha   73.95369854
_cell_angle_beta   75.02978936
_cell_angle_gamma   65.06581994
_symmetry_Int_Tables_number   1
_chemical_formula_structural   Pr6Nd6Fe2Br17
_chemical_formula_sum   'Pr6 Nd6 Fe2 Br17'
_cell_volume   1102.53784112
_cell_formula_units_Z   1
loop_
 _symmetry_equiv_pos_site_id
 _symmetry_equiv_pos_as_xyz
  1  'x, y, z'
loop_
 _atom_site_type_symbol
 _atom_site_label
 _atom_site_symmetry_multiplicity
 _atom_site_fract_x
 _atom_site_fract_y
 _atom_site_fract_z
 _atom_site_occupancy
  Pr  Pr0  1  0.456569  0.483176  0.321991  1
  Pr  Pr1  1  0.559554  0.672731  0.004398  1
  Pr  Pr2  1  0.264411  0.993791  0.108415  1
  Pr  Pr3  1  0.863628  0.287243  0.851761  1
  Pr  Pr4  1  0.405879  0.240617  0.715110  1
  Pr  Pr5  1  0.736943  0.002710  0.893386  1
  Nd  Nd6  1  0.542041  0.519694  0.678056  1
  Nd  Nd7  1  0.438522  0.327660  0.997570  1
  Nd  Nd8  1  0.597145  0.760768  0.286276  1
  Nd  Nd9  1  0.830990  0.191650  0.575038  1
  Nd  Nd10  1  0.171577  0.807770  0.420652  1
  Nd  Nd11  1  0.131811  0.712230  0.147721  1
  Fe  Fe12  1  0.365090  0.738650  0.212775  1
  Fe  Fe13  1  0.634831  0.261533  0.787174  1
  Br  Br14  1  0.054019  0.095885  0.329867  1
  Br  Br15  1  0.465639  0.952741  0.849157  1
  Br  Br16  1  0.423375  0.811983  0.531833  1
  Br  Br17  1  0.580493  0.184872  0.468516  1
  Br  Br18  1  0.838689  0.706435  0.053254  1
  Br  Br19  1  0.222143  0.425234  0.238490  1
  Br  Br20  1  0.677400  0.372513  0.097340  1
  Br  Br21  1  0.535581  0.049413  0.150076  1
  Br  Br22  1  0.733493  0.475855  0.424725  1
  Br  Br23  1  0.892139  0.785971  0.362289  1
  Br  Br24  1  0.945025  0.905256  0.670552  1
  Br  Br25  1  0.162857  0.294710  0.949679  1
  Br  Br26  1  0.319802  0.624284  0.902609  1
  Br  Br27  1  0.999636  0.999333  0.999802  1
  Br  Br28  1  0.107430  0.213032  0.635694  1
  Br  Br29  1  0.775517  0.575617  0.756535  1
  Br  Br30  1  0.267772  0.526641  0.579257  1
