# generated using pymatgen
data_Ca2TmPuO6
_symmetry_space_group_name_H-M   'P 1'
_cell_length_a   6.77002868
_cell_length_b   6.76703685
_cell_length_c   6.73953300
_cell_angle_alpha   91.35089946
_cell_angle_beta   91.22950255
_cell_angle_gamma   91.28028553
_symmetry_Int_Tables_number   1
_chemical_formula_structural   Ca2TmPuO6
_chemical_formula_sum   'Ca4 Tm2 Pu2 O12'
_cell_volume   308.52091813
_cell_formula_units_Z   2
loop_
 _symmetry_equiv_pos_site_id
 _symmetry_equiv_pos_as_xyz
  1  'x, y, z'
loop_
 _atom_site_type_symbol
 _atom_site_label
 _atom_site_symmetry_multiplicity
 _atom_site_fract_x
 _atom_site_fract_y
 _atom_site_fract_z
 _atom_site_occupancy
  Ca  Ca0  1  0.551962  0.248941  0.060686  1
  Ca  Ca1  1  0.249998  0.061244  0.554142  1
  Ca  Ca2  1  0.062717  0.555291  0.252671  1
  Ca  Ca3  1  0.443447  0.748452  0.939340  1
  Tm  Tm4  1  0.938169  0.440319  0.745169  1
  Tm  Tm5  1  0.753303  0.937085  0.441840  1
  Pu  Pu6  1  0.994312  0.996295  0.996154  1
  Pu  Pu7  1  0.501831  0.499369  0.501443  1
  O  O8  1  0.287372  0.059132  0.923029  1
  O  O9  1  0.054314  0.921317  0.303992  1
  O  O10  1  0.926030  0.298961  0.049613  1
  O  O11  1  0.701130  0.934769  0.094728  1
  O  O12  1  0.918882  0.090849  0.685435  1
  O  O13  1  0.064834  0.693232  0.923774  1
  O  O14  1  0.193921  0.409642  0.552757  1
  O  O15  1  0.413821  0.539049  0.206752  1
  O  O16  1  0.476230  0.804450  0.583114  1
  O  O17  1  0.602268  0.459399  0.795907  1
  O  O18  1  0.812787  0.602843  0.475683  1
  O  O19  1  0.552670  0.199362  0.413771  1
