# generated using pymatgen
data_Zr6Zn19Cu4C
_symmetry_space_group_name_H-M   'P 1'
_cell_length_a   8.63678198
_cell_length_b   8.64890505
_cell_length_c   8.62659925
_cell_angle_alpha   59.99239141
_cell_angle_beta   59.97405343
_cell_angle_gamma   59.87564696
_symmetry_Int_Tables_number   1
_chemical_formula_structural   Zr6Zn19Cu4C
_chemical_formula_sum   'Zr6 Zn19 Cu4 C1'
_cell_volume   455.11159862
_cell_formula_units_Z   1
loop_
 _symmetry_equiv_pos_site_id
 _symmetry_equiv_pos_as_xyz
  1  'x, y, z'
loop_
 _atom_site_type_symbol
 _atom_site_label
 _atom_site_symmetry_multiplicity
 _atom_site_fract_x
 _atom_site_fract_y
 _atom_site_fract_z
 _atom_site_occupancy
  Zr  Zr0  1  0.689657  0.309326  0.310343  1
  Zr  Zr1  1  0.310343  0.690674  0.689657  1
  Zr  Zr2  1  0.309713  0.690287  0.309713  1
  Zr  Zr3  1  0.690287  0.309713  0.690287  1
  Zr  Zr4  1  0.310438  0.310273  0.689562  1
  Zr  Zr5  1  0.689562  0.689727  0.310438  1
  Zn  Zn6  1  0.124484  0.115983  0.117127  1
  Zn  Zn7  1  0.875516  0.884017  0.882873  1
  Zn  Zn8  1  0.122781  0.120775  0.642086  1
  Zn  Zn9  1  0.117127  0.642408  0.124484  1
  Zn  Zn10  1  0.877219  0.879225  0.357914  1
  Zn  Zn11  1  0.882873  0.357592  0.875516  1
  Zn  Zn12  1  0.642086  0.114360  0.122781  1
  Zn  Zn13  1  0.357914  0.885640  0.877219  1
  Zn  Zn14  1  0.000000  0.500000  0.000000  1
  Zn  Zn15  1  0.000000  0.000000  0.500000  1
  Zn  Zn16  1  0.500000  0.500000  0.000000  1
  Zn  Zn17  1  0.329383  0.329529  0.334551  1
  Zn  Zn18  1  0.670617  0.670471  0.665449  1
  Zn  Zn19  1  0.333185  0.327250  0.006577  1
  Zn  Zn20  1  0.334551  0.006537  0.329383  1
  Zn  Zn21  1  0.666815  0.672750  0.993423  1
  Zn  Zn22  1  0.665449  0.993463  0.670617  1
  Zn  Zn23  1  0.006577  0.332989  0.333185  1
  Zn  Zn24  1  0.993423  0.667011  0.666815  1
  Cu  Cu25  1  0.500000  0.000000  0.000000  1
  Cu  Cu26  1  0.000000  0.500000  0.500000  1
  Cu  Cu27  1  0.500000  0.000000  0.500000  1
  Cu  Cu28  1  0.000000  0.000000  0.000000  1
  C  C29  1  0.500000  0.500000  0.500000  1
