# generated using pymatgen
data_FeSbBr6
_symmetry_space_group_name_H-M   'P 1'
_cell_length_a   10.27976490
_cell_length_b   10.27976556
_cell_length_c   7.48955599
_cell_angle_alpha   70.88105937
_cell_angle_beta   70.88106099
_cell_angle_gamma   78.71921060
_symmetry_Int_Tables_number   1
_chemical_formula_structural   FeSbBr6
_chemical_formula_sum   'Fe2 Sb2 Br12'
_cell_volume   703.07677695
_cell_formula_units_Z   2
loop_
 _symmetry_equiv_pos_site_id
 _symmetry_equiv_pos_as_xyz
  1  'x, y, z'
loop_
 _atom_site_type_symbol
 _atom_site_label
 _atom_site_symmetry_multiplicity
 _atom_site_fract_x
 _atom_site_fract_y
 _atom_site_fract_z
 _atom_site_occupancy
  Fe  Fe0  1  0.197972  0.197972  0.650283  1
  Fe  Fe1  1  0.802028  0.802028  0.349717  1
  Sb  Sb2  1  0.809311  0.190689  0.000000  1
  Sb  Sb3  1  0.190689  0.809311  0.000000  1
  Br  Br4  1  0.220187  0.582115  0.921750  1
  Br  Br5  1  0.417885  0.779813  0.078250  1
  Br  Br6  1  0.779813  0.417885  0.078250  1
  Br  Br7  1  0.582115  0.220187  0.921750  1
  Br  Br8  1  0.023339  0.722646  0.415270  1
  Br  Br9  1  0.277354  0.976661  0.584730  1
  Br  Br10  1  0.976661  0.277354  0.584730  1
  Br  Br11  1  0.722646  0.023339  0.415270  1
  Br  Br12  1  0.850257  0.850257  0.004724  1
  Br  Br13  1  0.149743  0.149743  0.995276  1
  Br  Br14  1  0.644581  0.644581  0.527798  1
  Br  Br15  1  0.355419  0.355419  0.472202  1
