# generated using pymatgen
data_TaBe4W5
_symmetry_space_group_name_H-M   'P 1'
_cell_length_a   6.28731715
_cell_length_b   6.28731715
_cell_length_c   3.24184100
_cell_angle_alpha   90.00000000
_cell_angle_beta   90.00000000
_cell_angle_gamma   90.21579393
_symmetry_Int_Tables_number   1
_chemical_formula_structural   TaBe4W5
_chemical_formula_sum   'Ta1 Be4 W5'
_cell_volume   128.15022290
_cell_formula_units_Z   1
loop_
 _symmetry_equiv_pos_site_id
 _symmetry_equiv_pos_as_xyz
  1  'x, y, z'
loop_
 _atom_site_type_symbol
 _atom_site_label
 _atom_site_symmetry_multiplicity
 _atom_site_fract_x
 _atom_site_fract_y
 _atom_site_fract_z
 _atom_site_occupancy
  Ta  Ta0  1  0.821964  0.678036  0.500000  1
  Be  Be1  1  0.121320  0.616111  0.000000  1
  Be  Be2  1  0.883889  0.378680  0.000000  1
  Be  Be3  1  0.613633  0.886367  0.000000  1
  Be  Be4  1  0.382774  0.117226  0.000000  1
  W  W5  1  0.498353  0.498589  0.000000  1
  W  W6  1  0.001411  0.001647  0.000000  1
  W  W7  1  0.675614  0.176959  0.500000  1
  W  W8  1  0.323041  0.824386  0.500000  1
  W  W9  1  0.178002  0.321998  0.500000  1
