# generated using pymatgen
data_Ca2Pr8Si5Ge
_symmetry_space_group_name_H-M   'P 1'
_cell_length_a   7.80651054
_cell_length_b   7.80650657
_cell_length_c   8.99624961
_cell_angle_alpha   115.71468453
_cell_angle_beta   115.71462085
_cell_angle_gamma   89.99871389
_symmetry_Int_Tables_number   1
_chemical_formula_structural   Ca2Pr8Si5Ge
_chemical_formula_sum   'Ca2 Pr8 Si5 Ge1'
_cell_volume   432.90171800
_cell_formula_units_Z   1
loop_
 _symmetry_equiv_pos_site_id
 _symmetry_equiv_pos_as_xyz
  1  'x, y, z'
loop_
 _atom_site_type_symbol
 _atom_site_label
 _atom_site_symmetry_multiplicity
 _atom_site_fract_x
 _atom_site_fract_y
 _atom_site_fract_z
 _atom_site_occupancy
  Ca  Ca0  1  0.499806  0.499806  0.999613  1
  Ca  Ca1  1  0.000196  0.000194  0.000390  1
  Pr  Pr2  1  0.967858  0.823915  0.290752  1
  Pr  Pr3  1  0.322892  0.466841  0.290745  1
  Pr  Pr4  1  0.823913  0.322903  0.290754  1
  Pr  Pr5  1  0.466860  0.967868  0.290771  1
  Pr  Pr6  1  0.033158  0.177107  0.709254  1
  Pr  Pr7  1  0.676086  0.532143  0.709248  1
  Pr  Pr8  1  0.177097  0.676087  0.709245  1
  Pr  Pr9  1  0.532131  0.033140  0.709229  1
  Si  Si10  1  0.250000  0.249999  0.500000  1
  Si  Si11  1  0.613617  0.886383  0.000000  1
  Si  Si12  1  0.386384  0.113616  0.000000  1
  Si  Si13  1  0.886389  0.386387  0.000008  1
  Si  Si14  1  0.113612  0.613611  0.999991  1
  Ge  Ge15  1  0.750000  0.750000  0.500000  1
