# generated using pymatgen
data_Gd4Hf5Si8W
_symmetry_space_group_name_H-M   'P 1'
_cell_length_a   7.15241600
_cell_length_b   7.15241555
_cell_length_c   13.19033800
_cell_angle_alpha   90.00000000
_cell_angle_beta   90.00000000
_cell_angle_gamma   89.91675289
_symmetry_Int_Tables_number   1
_chemical_formula_structural   Gd4Hf5Si8W
_chemical_formula_sum   'Gd8 Hf10 Si16 W2'
_cell_volume   674.77808700
_cell_formula_units_Z   2
loop_
 _symmetry_equiv_pos_site_id
 _symmetry_equiv_pos_as_xyz
  1  'x, y, z'
loop_
 _atom_site_type_symbol
 _atom_site_label
 _atom_site_symmetry_multiplicity
 _atom_site_fract_x
 _atom_site_fract_y
 _atom_site_fract_z
 _atom_site_occupancy
  Gd  Gd0  1  0.496433  0.158480  0.535249  1
  Gd  Gd1  1  0.503567  0.841520  0.035249  1
  Gd  Gd2  1  0.656915  0.003339  0.283749  1
  Gd  Gd3  1  0.343085  0.996661  0.783749  1
  Gd  Gd4  1  0.841520  0.503567  0.964751  1
  Gd  Gd5  1  0.158480  0.496433  0.464751  1
  Gd  Gd6  1  0.003339  0.656915  0.716251  1
  Gd  Gd7  1  0.996661  0.343085  0.216251  1
  Hf  Hf8  1  0.825061  0.825061  0.500000  1
  Hf  Hf9  1  0.174939  0.174939  0.000000  1
  Hf  Hf10  1  0.496287  0.352243  0.126088  1
  Hf  Hf11  1  0.503713  0.647757  0.626088  1
  Hf  Hf12  1  0.848288  0.006176  0.872579  1
  Hf  Hf13  1  0.151712  0.993824  0.372579  1
  Hf  Hf14  1  0.647757  0.503713  0.373912  1
  Hf  Hf15  1  0.352243  0.496287  0.873912  1
  Hf  Hf16  1  0.006176  0.848288  0.127421  1
  Hf  Hf17  1  0.993824  0.151712  0.627421  1
  Si  Si18  1  0.795154  0.136598  0.066251  1
  Si  Si19  1  0.204846  0.863402  0.566251  1
  Si  Si20  1  0.638058  0.702007  0.815842  1
  Si  Si21  1  0.361942  0.297993  0.315842  1
  Si  Si22  1  0.863402  0.204846  0.433749  1
  Si  Si23  1  0.136598  0.795154  0.933749  1
  Si  Si24  1  0.702007  0.638058  0.184158  1
  Si  Si25  1  0.297993  0.361942  0.684158  1
  Si  Si26  1  0.550630  0.205763  0.932591  1
  Si  Si27  1  0.449370  0.794237  0.432591  1
  Si  Si28  1  0.702636  0.954374  0.685309  1
  Si  Si29  1  0.297364  0.045626  0.185309  1
  Si  Si30  1  0.794237  0.449370  0.567409  1
  Si  Si31  1  0.205763  0.550630  0.067409  1
  Si  Si32  1  0.954374  0.702636  0.314691  1
  Si  Si33  1  0.045626  0.297364  0.814691  1
  W  W34  1  0.674941  0.325059  0.750000  1
  W  W35  1  0.325059  0.674941  0.250000  1
