# generated using pymatgen
data_Ho3CoSn6
_symmetry_space_group_name_H-M   'P 1'
_cell_length_a   8.45476135
_cell_length_b   8.45476192
_cell_length_c   13.08684500
_cell_angle_alpha   90.00000000
_cell_angle_beta   90.00000000
_cell_angle_gamma   148.84207097
_symmetry_Int_Tables_number   1
_chemical_formula_structural   Ho3CoSn6
_chemical_formula_sum   'Ho6 Co2 Sn12'
_cell_volume   484.01977780
_cell_formula_units_Z   2
loop_
 _symmetry_equiv_pos_site_id
 _symmetry_equiv_pos_as_xyz
  1  'x, y, z'
loop_
 _atom_site_type_symbol
 _atom_site_label
 _atom_site_symmetry_multiplicity
 _atom_site_fract_x
 _atom_site_fract_y
 _atom_site_fract_z
 _atom_site_occupancy
  Ho  Ho0  1  0.899319  0.100681  0.093261  1
  Ho  Ho1  1  0.100681  0.899319  0.593261  1
  Ho  Ho2  1  0.900475  0.099525  0.750000  1
  Ho  Ho3  1  0.100681  0.899319  0.906739  1
  Ho  Ho4  1  0.099525  0.900475  0.250000  1
  Ho  Ho5  1  0.899319  0.100681  0.406739  1
  Co  Co6  1  0.298978  0.701022  0.250000  1
  Co  Co7  1  0.701022  0.298978  0.750000  1
  Sn  Sn8  1  0.755145  0.244855  0.571014  1
  Sn  Sn9  1  0.427367  0.572633  0.575887  1
  Sn  Sn10  1  0.572633  0.427367  0.424113  1
  Sn  Sn11  1  0.733113  0.266887  0.250000  1
  Sn  Sn12  1  0.266887  0.733113  0.750000  1
  Sn  Sn13  1  0.244855  0.755145  0.071014  1
  Sn  Sn14  1  0.244855  0.755145  0.428986  1
  Sn  Sn15  1  0.572633  0.427367  0.075887  1
  Sn  Sn16  1  0.453212  0.546788  0.250000  1
  Sn  Sn17  1  0.546788  0.453212  0.750000  1
  Sn  Sn18  1  0.755145  0.244855  0.928986  1
  Sn  Sn19  1  0.427367  0.572633  0.924113  1
