# generated using pymatgen
data_Dy4Co3OsRu4
_symmetry_space_group_name_H-M   'P 1'
_cell_length_a   5.21660000
_cell_length_b   5.15630472
_cell_length_c   8.80954900
_cell_angle_alpha   90.00000000
_cell_angle_beta   90.00000000
_cell_angle_gamma   121.05339483
_symmetry_Int_Tables_number   1
_chemical_formula_structural   Dy4Co3OsRu4
_chemical_formula_sum   'Dy4 Co3 Os1 Ru4'
_cell_volume   203.00275981
_cell_formula_units_Z   1
loop_
 _symmetry_equiv_pos_site_id
 _symmetry_equiv_pos_as_xyz
  1  'x, y, z'
loop_
 _atom_site_type_symbol
 _atom_site_label
 _atom_site_symmetry_multiplicity
 _atom_site_fract_x
 _atom_site_fract_y
 _atom_site_fract_z
 _atom_site_occupancy
  Dy  Dy0  1  0.670092  0.338944  0.563649  1
  Dy  Dy1  1  0.335686  0.670817  0.430874  1
  Dy  Dy2  1  0.335686  0.670817  0.069126  1
  Dy  Dy3  1  0.670092  0.338944  0.936351  1
  Co  Co4  1  0.166287  0.822667  0.750000  1
  Co  Co5  1  0.827489  0.657965  0.250000  1
  Co  Co6  1  0.832188  0.164576  0.250000  1
  Os  Os7  1  0.161386  0.323434  0.750000  1
  Ru  Ru8  1  0.005645  0.012041  0.495160  1
  Ru  Ru9  1  0.005645  0.012041  0.004840  1
  Ru  Ru10  1  0.646954  0.816463  0.750000  1
  Ru  Ru11  1  0.342847  0.171287  0.250000  1
