# generated using pymatgen
data_Ca4YbSi8Ni17
_symmetry_space_group_name_H-M   'P 1'
_cell_length_a   13.06398301
_cell_length_b   13.06398356
_cell_length_c   3.93171500
_cell_angle_alpha   90.00000000
_cell_angle_beta   90.00000000
_cell_angle_gamma   140.72092003
_symmetry_Int_Tables_number   1
_chemical_formula_structural   Ca4YbSi8Ni17
_chemical_formula_sum   'Ca4 Yb1 Si8 Ni17'
_cell_volume   424.81945509
_cell_formula_units_Z   1
loop_
 _symmetry_equiv_pos_site_id
 _symmetry_equiv_pos_as_xyz
  1  'x, y, z'
loop_
 _atom_site_type_symbol
 _atom_site_label
 _atom_site_symmetry_multiplicity
 _atom_site_fract_x
 _atom_site_fract_y
 _atom_site_fract_z
 _atom_site_occupancy
  Ca  Ca0  1  0.822139  0.609315  0.000000  1
  Ca  Ca1  1  0.609315  0.822139  0.000000  1
  Ca  Ca2  1  0.176243  0.789204  0.500000  1
  Ca  Ca3  1  0.789204  0.176243  0.500000  1
  Yb  Yb4  1  0.221773  0.221773  0.500000  1
  Si  Si5  1  0.157621  0.990864  0.000000  1
  Si  Si6  1  0.990864  0.157621  0.000000  1
  Si  Si7  1  0.475067  0.957743  0.000000  1
  Si  Si8  1  0.957743  0.475067  0.000000  1
  Si  Si9  1  0.586664  0.310297  0.500000  1
  Si  Si10  1  0.310297  0.586664  0.500000  1
  Si  Si11  1  0.492572  0.492572  0.000000  1
  Si  Si12  1  0.757380  0.757380  0.500000  1
  Ni  Ni13  1  0.376530  0.045965  0.000000  1
  Ni  Ni14  1  0.045965  0.376530  0.000000  1
  Ni  Ni15  1  0.672339  0.277858  0.000000  1
  Ni  Ni16  1  0.277858  0.672339  0.000000  1
  Ni  Ni17  1  0.448347  0.283505  0.000000  1
  Ni  Ni18  1  0.283505  0.448347  0.000000  1
  Ni  Ni19  1  0.010830  0.885290  0.500000  1
  Ni  Ni20  1  0.885290  0.010830  0.500000  1
  Ni  Ni21  1  0.308262  0.090366  0.500000  1
  Ni  Ni22  1  0.090366  0.308262  0.500000  1
  Ni  Ni23  1  0.516063  0.086068  0.500000  1
  Ni  Ni24  1  0.086068  0.516063  0.500000  1
  Ni  Ni25  1  0.845102  0.446040  0.500000  1
  Ni  Ni26  1  0.446040  0.845102  0.500000  1
  Ni  Ni27  1  0.574329  0.475754  0.500000  1
  Ni  Ni28  1  0.475754  0.574329  0.500000  1
  Ni  Ni29  1  0.926710  0.926710  0.000000  1
