# generated using pymatgen
data_Tb4Er12Zn3InRh4
_symmetry_space_group_name_H-M   'P 1'
_cell_length_a   9.48645916
_cell_length_b   9.46910390
_cell_length_c   9.50504123
_cell_angle_alpha   59.87137200
_cell_angle_beta   59.83407333
_cell_angle_gamma   59.95456247
_symmetry_Int_Tables_number   1
_chemical_formula_structural   Tb4Er12Zn3InRh4
_chemical_formula_sum   'Tb4 Er12 Zn3 In1 Rh4'
_cell_volume   602.18907603
_cell_formula_units_Z   1
loop_
 _symmetry_equiv_pos_site_id
 _symmetry_equiv_pos_as_xyz
  1  'x, y, z'
loop_
 _atom_site_type_symbol
 _atom_site_label
 _atom_site_symmetry_multiplicity
 _atom_site_fract_x
 _atom_site_fract_y
 _atom_site_fract_z
 _atom_site_occupancy
  Tb  Tb0  1  0.189208  0.189903  0.809881  1
  Tb  Tb1  1  0.437402  0.063099  0.060834  1
  Tb  Tb2  1  0.431498  0.060150  0.432233  1
  Tb  Tb3  1  0.062547  0.437098  0.063927  1
  Er  Er4  1  0.647439  0.055253  0.645555  1
  Er  Er5  1  0.192007  0.808421  0.809527  1
  Er  Er6  1  0.059562  0.062876  0.437638  1
  Er  Er7  1  0.809086  0.190197  0.190024  1
  Er  Er8  1  0.810698  0.809703  0.191150  1
  Er  Er9  1  0.647402  0.645920  0.059337  1
  Er  Er10  1  0.649057  0.650306  0.647672  1
  Er  Er11  1  0.057856  0.435245  0.434375  1
  Er  Er12  1  0.056800  0.647017  0.646596  1
  Er  Er13  1  0.808599  0.192354  0.808386  1
  Er  Er14  1  0.435554  0.436855  0.058046  1
  Er  Er15  1  0.190531  0.808539  0.190943  1
  Zn  Zn16  1  0.423233  0.739845  0.425071  1
  Zn  Zn17  1  0.424635  0.423575  0.740616  1
  Zn  Zn18  1  0.742382  0.421901  0.424495  1
  In  In19  1  0.423047  0.423538  0.422079  1
  Rh  Rh20  1  0.853619  0.431133  0.856921  1
  Rh  Rh21  1  0.859782  0.856213  0.428945  1
  Rh  Rh22  1  0.430437  0.853124  0.859552  1
  Rh  Rh23  1  0.857619  0.857736  0.856196  1
