# generated using pymatgen
data_Ca2H9W
_symmetry_space_group_name_H-M   'P 1'
_cell_length_a   8.65052000
_cell_length_b   8.65052080
_cell_length_c   4.93814900
_cell_angle_alpha   90.00000000
_cell_angle_beta   90.00000000
_cell_angle_gamma   119.99999694
_symmetry_Int_Tables_number   1
_chemical_formula_structural   Ca2H9W
_chemical_formula_sum   'Ca6 H27 W3'
_cell_volume   320.02160887
_cell_formula_units_Z   3
loop_
 _symmetry_equiv_pos_site_id
 _symmetry_equiv_pos_as_xyz
  1  'x, y, z'
loop_
 _atom_site_type_symbol
 _atom_site_label
 _atom_site_symmetry_multiplicity
 _atom_site_fract_x
 _atom_site_fract_y
 _atom_site_fract_z
 _atom_site_occupancy
  Ca  Ca0  1  0.264165  0.000000  0.500000  1
  Ca  Ca1  1  0.000000  0.264165  0.500000  1
  Ca  Ca2  1  0.735835  0.735835  0.500000  1
  Ca  Ca3  1  0.607144  0.000000  0.000000  1
  Ca  Ca4  1  0.000000  0.607144  0.000000  1
  Ca  Ca5  1  0.392856  0.392856  0.000000  1
  H  H6  1  0.848441  0.000000  0.254544  1
  H  H7  1  0.000000  0.848441  0.254544  1
  H  H8  1  0.848441  0.000000  0.745456  1
  H  H9  1  0.000000  0.848441  0.745456  1
  H  H10  1  0.151559  0.151559  0.254544  1
  H  H11  1  0.151559  0.151559  0.745456  1
  H  H12  1  0.209718  0.000000  0.000000  1
  H  H13  1  0.000000  0.209718  0.000000  1
  H  H14  1  0.790282  0.790282  0.000000  1
  H  H15  1  0.186770  0.521341  0.239627  1
  H  H16  1  0.478659  0.665428  0.239627  1
  H  H17  1  0.186770  0.521341  0.760373  1
  H  H18  1  0.521341  0.186770  0.760373  1
  H  H19  1  0.334572  0.813230  0.239627  1
  H  H20  1  0.478659  0.665428  0.760373  1
  H  H21  1  0.665428  0.478659  0.760373  1
  H  H22  1  0.521341  0.186770  0.239627  1
  H  H23  1  0.334572  0.813230  0.760373  1
  H  H24  1  0.665428  0.478659  0.239627  1
  H  H25  1  0.813230  0.334572  0.760373  1
  H  H26  1  0.813230  0.334572  0.239627  1
  H  H27  1  0.323124  0.455502  0.500000  1
  H  H28  1  0.544498  0.867622  0.500000  1
  H  H29  1  0.455502  0.323124  0.500000  1
  H  H30  1  0.132378  0.676876  0.500000  1
  H  H31  1  0.867622  0.544498  0.500000  1
  H  H32  1  0.676876  0.132378  0.500000  1
  W  W33  1  0.000000  0.000000  0.000000  1
  W  W34  1  0.333333  0.666667  0.500000  1
  W  W35  1  0.666667  0.333333  0.500000  1
