# generated using pymatgen
data_TbEuTm5NiI12
_symmetry_space_group_name_H-M   'P 1'
_cell_length_a   9.70580559
_cell_length_b   9.72572121
_cell_length_c   9.69697989
_cell_angle_alpha   106.46087798
_cell_angle_beta   106.31427884
_cell_angle_gamma   106.23306669
_symmetry_Int_Tables_number   1
_chemical_formula_structural   TbEuTm5NiI12
_chemical_formula_sum   'Tb1 Eu1 Tm5 Ni1 I12'
_cell_volume   775.70702308
_cell_formula_units_Z   1
loop_
 _symmetry_equiv_pos_site_id
 _symmetry_equiv_pos_as_xyz
  1  'x, y, z'
loop_
 _atom_site_type_symbol
 _atom_site_label
 _atom_site_symmetry_multiplicity
 _atom_site_fract_x
 _atom_site_fract_y
 _atom_site_fract_z
 _atom_site_occupancy
  Tb  Tb0  1  0.019906  0.292559  0.093321  1
  Eu  Eu1  1  0.500843  0.498936  0.499743  1
  Tm  Tm2  1  0.908619  0.979142  0.713253  1
  Tm  Tm3  1  0.713692  0.907924  0.979182  1
  Tm  Tm4  1  0.980133  0.714965  0.908640  1
  Tm  Tm5  1  0.091394  0.021710  0.287012  1
  Tm  Tm6  1  0.286448  0.090505  0.020395  1
  Ni  Ni7  1  0.000160  0.001444  0.000439  1
  I  I8  1  0.924119  0.322528  0.773846  1
  I  I9  1  0.778989  0.926596  0.323701  1
  I  I10  1  0.323536  0.777903  0.926357  1
  I  I11  1  0.074896  0.679053  0.221956  1
  I  I12  1  0.220344  0.071473  0.675558  1
  I  I13  1  0.670648  0.217541  0.071939  1
  I  I14  1  0.551744  0.862130  0.629990  1
  I  I15  1  0.631513  0.551853  0.863749  1
  I  I16  1  0.863780  0.630340  0.551115  1
  I  I17  1  0.447584  0.135409  0.369786  1
  I  I18  1  0.372265  0.447636  0.136388  1
  I  I19  1  0.139388  0.370353  0.453630  1
