# generated using pymatgen
data_MgZr6Al15Pt7
_symmetry_space_group_name_H-M   'P 1'
_cell_length_a   8.80705220
_cell_length_b   8.80705296
_cell_length_c   8.80907012
_cell_angle_alpha   60.00758249
_cell_angle_beta   60.00757828
_cell_angle_gamma   60.00000337
_symmetry_Int_Tables_number   1
_chemical_formula_structural   MgZr6Al15Pt7
_chemical_formula_sum   'Mg1 Zr6 Al15 Pt7'
_cell_volume   483.19898090
_cell_formula_units_Z   1
loop_
 _symmetry_equiv_pos_site_id
 _symmetry_equiv_pos_as_xyz
  1  'x, y, z'
loop_
 _atom_site_type_symbol
 _atom_site_label
 _atom_site_symmetry_multiplicity
 _atom_site_fract_x
 _atom_site_fract_y
 _atom_site_fract_z
 _atom_site_occupancy
  Mg  Mg0  1  0.881263  0.881263  0.356210  1
  Zr  Zr1  1  0.683679  0.683679  0.315521  1
  Zr  Zr2  1  0.317122  0.683679  0.315521  1
  Zr  Zr3  1  0.683679  0.317122  0.315521  1
  Zr  Zr4  1  0.314443  0.314443  0.685334  1
  Zr  Zr5  1  0.685781  0.314443  0.685334  1
  Zr  Zr6  1  0.314443  0.685781  0.685334  1
  Al  Al7  1  0.879854  0.360185  0.880107  1
  Al  Al8  1  0.360185  0.879854  0.880107  1
  Al  Al9  1  0.879854  0.879854  0.880107  1
  Al  Al10  1  0.120571  0.120571  0.638288  1
  Al  Al11  1  0.119351  0.640400  0.120898  1
  Al  Al12  1  0.640400  0.119351  0.120898  1
  Al  Al13  1  0.119351  0.119351  0.120898  1
  Al  Al14  1  0.664635  0.664635  0.006097  1
  Al  Al15  1  0.665239  0.005531  0.663993  1
  Al  Al16  1  0.005531  0.665239  0.663993  1
  Al  Al17  1  0.665239  0.665239  0.663993  1
  Al  Al18  1  0.334863  0.334863  0.995411  1
  Al  Al19  1  0.335270  0.995027  0.334432  1
  Al  Al20  1  0.995027  0.335270  0.334432  1
  Al  Al21  1  0.335270  0.335270  0.334432  1
  Pt  Pt22  1  0.003561  0.003561  0.989318  1
  Pt  Pt23  1  0.001067  0.001067  0.505275  1
  Pt  Pt24  1  0.492591  0.001067  0.505275  1
  Pt  Pt25  1  0.001067  0.492591  0.505275  1
  Pt  Pt26  1  0.500511  0.500511  0.999332  1
  Pt  Pt27  1  0.999645  0.500511  0.999332  1
  Pt  Pt28  1  0.500511  0.999645  0.999332  1
