# generated using pymatgen
data_Dy12Tc3Pt
_symmetry_space_group_name_H-M   'P 1'
_cell_length_a   6.31279991
_cell_length_b   7.39726808
_cell_length_c   9.23739800
_cell_angle_alpha   90.00000000
_cell_angle_beta   90.00000000
_cell_angle_gamma   90.07554060
_symmetry_Int_Tables_number   1
_chemical_formula_structural   Dy12Tc3Pt
_chemical_formula_sum   'Dy12 Tc3 Pt1'
_cell_volume   431.36277124
_cell_formula_units_Z   1
loop_
 _symmetry_equiv_pos_site_id
 _symmetry_equiv_pos_as_xyz
  1  'x, y, z'
loop_
 _atom_site_type_symbol
 _atom_site_label
 _atom_site_symmetry_multiplicity
 _atom_site_fract_x
 _atom_site_fract_y
 _atom_site_fract_z
 _atom_site_occupancy
  Dy  Dy0  1  0.328564  0.675654  0.067366  1
  Dy  Dy1  1  0.165615  0.177201  0.436026  1
  Dy  Dy2  1  0.668820  0.318968  0.559115  1
  Dy  Dy3  1  0.836498  0.827548  0.939663  1
  Dy  Dy4  1  0.668820  0.318968  0.940885  1
  Dy  Dy5  1  0.836498  0.827548  0.560337  1
  Dy  Dy6  1  0.328564  0.675654  0.432634  1
  Dy  Dy7  1  0.165615  0.177201  0.063974  1
  Dy  Dy8  1  0.871070  0.542892  0.250000  1
  Dy  Dy9  1  0.625020  0.038567  0.250000  1
  Dy  Dy10  1  0.129717  0.455492  0.750000  1
  Dy  Dy11  1  0.369548  0.964767  0.750000  1
  Tc  Tc12  1  0.038447  0.886330  0.250000  1
  Tc  Tc13  1  0.463579  0.387911  0.250000  1
  Tc  Tc14  1  0.957196  0.112671  0.750000  1
  Pt  Pt15  1  0.546426  0.612627  0.750000  1
