# generated using pymatgen
data_LaYbGaIr2
_symmetry_space_group_name_H-M   'P 1'
_cell_length_a   5.76917158
_cell_length_b   5.76917191
_cell_length_c   7.86855399
_cell_angle_alpha   102.00045202
_cell_angle_beta   102.00045695
_cell_angle_gamma   58.88448026
_symmetry_Int_Tables_number   1
_chemical_formula_structural   LaYbGaIr2
_chemical_formula_sum   'La2 Yb2 Ga2 Ir4'
_cell_volume   217.72843924
_cell_formula_units_Z   2
loop_
 _symmetry_equiv_pos_site_id
 _symmetry_equiv_pos_as_xyz
  1  'x, y, z'
loop_
 _atom_site_type_symbol
 _atom_site_label
 _atom_site_symmetry_multiplicity
 _atom_site_fract_x
 _atom_site_fract_y
 _atom_site_fract_z
 _atom_site_occupancy
  La  La0  1  0.788709  0.497972  0.133587  1
  La  La1  1  0.502028  0.211291  0.366412  1
  Yb  Yb2  1  0.500459  0.793734  0.651703  1
  Yb  Yb3  1  0.206266  0.499541  0.848297  1
  Ga  Ga4  1  0.109053  0.890947  0.249999  1
  Ga  Ga5  1  0.901836  0.098164  0.750000  1
  Ir  Ir6  1  0.288424  0.995281  0.014784  1
  Ir  Ir7  1  0.004718  0.711576  0.485216  1
  Ir  Ir8  1  0.982355  0.283849  0.510957  1
  Ir  Ir9  1  0.716150  0.017644  0.989044  1
