# generated using pymatgen
data_Pr8Pd24Au
_symmetry_space_group_name_H-M   'P 1'
_cell_length_a   8.56249700
_cell_length_b   8.56249700
_cell_length_c   8.56249700
_cell_angle_alpha   90.00000000
_cell_angle_beta   90.00000000
_cell_angle_gamma   90.00000000
_symmetry_Int_Tables_number   1
_chemical_formula_structural   Pr8Pd24Au
_chemical_formula_sum   'Pr8 Pd24 Au1'
_cell_volume   627.77106867
_cell_formula_units_Z   1
loop_
 _symmetry_equiv_pos_site_id
 _symmetry_equiv_pos_as_xyz
  1  'x, y, z'
loop_
 _atom_site_type_symbol
 _atom_site_label
 _atom_site_symmetry_multiplicity
 _atom_site_fract_x
 _atom_site_fract_y
 _atom_site_fract_z
 _atom_site_occupancy
  Pr  Pr0  1  0.751765  0.751765  0.248235  1
  Pr  Pr1  1  0.751765  0.248235  0.751765  1
  Pr  Pr2  1  0.248235  0.751765  0.751765  1
  Pr  Pr3  1  0.751765  0.751765  0.751765  1
  Pr  Pr4  1  0.751765  0.248235  0.248235  1
  Pr  Pr5  1  0.248235  0.248235  0.751765  1
  Pr  Pr6  1  0.248235  0.751765  0.248235  1
  Pr  Pr7  1  0.248235  0.248235  0.248235  1
  Pd  Pd8  1  0.000000  0.000000  0.317555  1
  Pd  Pd9  1  0.731768  0.000000  0.500000  1
  Pd  Pd10  1  0.731768  0.500000  0.000000  1
  Pd  Pd11  1  0.500000  0.000000  0.731768  1
  Pd  Pd12  1  0.000000  0.731768  0.500000  1
  Pd  Pd13  1  0.500000  0.000000  0.268232  1
  Pd  Pd14  1  0.000000  0.268232  0.500000  1
  Pd  Pd15  1  0.500000  0.731768  0.000000  1
  Pd  Pd16  1  0.255581  0.500000  0.500000  1
  Pd  Pd17  1  0.500000  0.500000  0.744419  1
  Pd  Pd18  1  0.500000  0.500000  0.255581  1
  Pd  Pd19  1  0.500000  0.255581  0.500000  1
  Pd  Pd20  1  0.500000  0.744419  0.500000  1
  Pd  Pd21  1  0.744419  0.500000  0.500000  1
  Pd  Pd22  1  0.317555  0.000000  0.000000  1
  Pd  Pd23  1  0.000000  0.000000  0.682445  1
  Pd  Pd24  1  0.000000  0.500000  0.268232  1
  Pd  Pd25  1  0.000000  0.317555  0.000000  1
  Pd  Pd26  1  0.000000  0.682445  0.000000  1
  Pd  Pd27  1  0.682445  0.000000  0.000000  1
  Pd  Pd28  1  0.268232  0.500000  0.000000  1
  Pd  Pd29  1  0.268232  0.000000  0.500000  1
  Pd  Pd30  1  0.000000  0.500000  0.731768  1
  Pd  Pd31  1  0.500000  0.268232  0.000000  1
  Au  Au32  1  0.000000  0.000000  0.000000  1
