# generated using pymatgen
data_Tb7Y(Sc3Ga4)4
_symmetry_space_group_name_H-M   'P 1'
_cell_length_a   7.31433601
_cell_length_b   7.56781801
_cell_length_c   14.55444600
_cell_angle_alpha   90.00097267
_cell_angle_beta   90.00081279
_cell_angle_gamma   90.00427352
_symmetry_Int_Tables_number   1
_chemical_formula_structural   Tb7Y(Sc3Ga4)4
_chemical_formula_sum   'Tb7 Y1 Sc12 Ga16'
_cell_volume   805.64045167
_cell_formula_units_Z   1
loop_
 _symmetry_equiv_pos_site_id
 _symmetry_equiv_pos_as_xyz
  1  'x, y, z'
loop_
 _atom_site_type_symbol
 _atom_site_label
 _atom_site_symmetry_multiplicity
 _atom_site_fract_x
 _atom_site_fract_y
 _atom_site_fract_z
 _atom_site_occupancy
  Tb  Tb0  1  0.988205  0.822743  0.904297  1
  Tb  Tb1  1  0.488247  0.677244  0.904257  1
  Tb  Tb2  1  0.988232  0.822710  0.595735  1
  Tb  Tb3  1  0.511741  0.322692  0.095744  1
  Tb  Tb4  1  0.011793  0.177278  0.404259  1
  Tb  Tb5  1  0.511756  0.322735  0.404255  1
  Tb  Tb6  1  0.488238  0.677273  0.595733  1
  Y  Y7  1  0.011722  0.177289  0.095746  1
  Sc  Sc8  1  0.161931  0.502558  0.749977  1
  Sc  Sc9  1  0.838037  0.497376  0.249982  1
  Sc  Sc10  1  0.338050  0.002625  0.249986  1
  Sc  Sc11  1  0.661977  0.997398  0.749986  1
  Sc  Sc12  1  0.330111  0.174467  0.624291  1
  Sc  Sc13  1  0.669911  0.825554  0.375696  1
  Sc  Sc14  1  0.169897  0.674432  0.375661  1
  Sc  Sc15  1  0.669989  0.825544  0.124290  1
  Sc  Sc16  1  0.830087  0.325571  0.624288  1
  Sc  Sc17  1  0.330090  0.174450  0.875715  1
  Sc  Sc18  1  0.830109  0.325586  0.875730  1
  Sc  Sc19  1  0.169865  0.674472  0.124289  1
  Ga  Ga20  1  0.031742  0.118690  0.749993  1
  Ga  Ga21  1  0.968226  0.881354  0.250004  1
  Ga  Ga22  1  0.468232  0.618660  0.249997  1
  Ga  Ga23  1  0.531761  0.381339  0.749980  1
  Ga  Ga24  1  0.284697  0.873777  0.750018  1
  Ga  Ga25  1  0.715333  0.126255  0.249968  1
  Ga  Ga26  1  0.215278  0.373746  0.250030  1
  Ga  Ga27  1  0.784683  0.626230  0.749984  1
  Ga  Ga28  1  0.159648  0.464800  0.540077  1
  Ga  Ga29  1  0.840347  0.535228  0.459914  1
  Ga  Ga30  1  0.340350  0.964821  0.459925  1
  Ga  Ga31  1  0.840361  0.535083  0.040115  1
  Ga  Ga32  1  0.659683  0.035188  0.540080  1
  Ga  Ga33  1  0.159614  0.464805  0.959948  1
  Ga  Ga34  1  0.659756  0.035209  0.959928  1
  Ga  Ga35  1  0.340300  0.964820  0.040122  1
