# generated using pymatgen
data_HfPaSiRh5
_symmetry_space_group_name_H-M   'P 1'
_cell_length_a   4.13304100
_cell_length_b   5.67801942
_cell_length_c   11.01760200
_cell_angle_alpha   89.78650837
_cell_angle_beta   90.00000000
_cell_angle_gamma   90.00000000
_symmetry_Int_Tables_number   1
_chemical_formula_structural   HfPaSiRh5
_chemical_formula_sum   'Hf2 Pa2 Si2 Rh10'
_cell_volume   258.55363735
_cell_formula_units_Z   2
loop_
 _symmetry_equiv_pos_site_id
 _symmetry_equiv_pos_as_xyz
  1  'x, y, z'
loop_
 _atom_site_type_symbol
 _atom_site_label
 _atom_site_symmetry_multiplicity
 _atom_site_fract_x
 _atom_site_fract_y
 _atom_site_fract_z
 _atom_site_occupancy
  Hf  Hf0  1  0.500000  0.675249  0.863958  1
  Hf  Hf1  1  0.500000  0.324751  0.136042  1
  Pa  Pa2  1  0.500000  0.177251  0.647808  1
  Pa  Pa3  1  0.500000  0.822749  0.352192  1
  Si  Si4  1  0.000000  0.500000  0.500000  1
  Si  Si5  1  0.000000  0.000000  0.000000  1
  Rh  Rh6  1  0.500000  0.181428  0.899377  1
  Rh  Rh7  1  0.500000  0.818572  0.100623  1
  Rh  Rh8  1  0.500000  0.683874  0.603832  1
  Rh  Rh9  1  0.500000  0.316126  0.396168  1
  Rh  Rh10  1  0.000000  0.435144  0.743040  1
  Rh  Rh11  1  0.000000  0.564856  0.256960  1
  Rh  Rh12  1  0.000000  0.000000  0.500000  1
  Rh  Rh13  1  0.000000  0.500000  0.000000  1
  Rh  Rh14  1  0.000000  0.068825  0.234272  1
  Rh  Rh15  1  0.000000  0.931175  0.765728  1
