# generated using pymatgen
data_Lu12Al2Fe3
_symmetry_space_group_name_H-M   'P 1'
_cell_length_a   8.10547484
_cell_length_b   8.10547440
_cell_length_c   8.10547564
_cell_angle_alpha   108.73436621
_cell_angle_beta   108.73436718
_cell_angle_gamma   110.95520547
_symmetry_Int_Tables_number   1
_chemical_formula_structural   Lu12Al2Fe3
_chemical_formula_sum   'Lu12 Al2 Fe3'
_cell_volume   409.72671033
_cell_formula_units_Z   1
loop_
 _symmetry_equiv_pos_site_id
 _symmetry_equiv_pos_as_xyz
  1  'x, y, z'
loop_
 _atom_site_type_symbol
 _atom_site_label
 _atom_site_symmetry_multiplicity
 _atom_site_fract_x
 _atom_site_fract_y
 _atom_site_fract_z
 _atom_site_occupancy
  Lu  Lu0  1  0.307179  0.307179  0.614359  1
  Lu  Lu1  1  0.692821  0.692821  0.385641  1
  Lu  Lu2  1  0.692821  0.307179  0.000000  1
  Lu  Lu3  1  0.307179  0.692821  0.000000  1
  Lu  Lu4  1  0.190246  0.430293  0.240048  1
  Lu  Lu5  1  0.809754  0.569707  0.759952  1
  Lu  Lu6  1  0.190246  0.950197  0.759952  1
  Lu  Lu7  1  0.950197  0.190246  0.759952  1
  Lu  Lu8  1  0.809754  0.049803  0.240048  1
  Lu  Lu9  1  0.049803  0.809754  0.240048  1
  Lu  Lu10  1  0.430293  0.190246  0.240048  1
  Lu  Lu11  1  0.569707  0.809754  0.759952  1
  Al  Al12  1  0.000000  0.500000  0.500000  1
  Al  Al13  1  0.500000  0.000000  0.500000  1
  Fe  Fe14  1  0.382394  0.382394  0.000000  1
  Fe  Fe15  1  0.617606  0.617606  0.000000  1
  Fe  Fe16  1  0.000000  0.000000  0.000000  1
