# generated using pymatgen
data_Pr8Nd2Si5Au
_symmetry_space_group_name_H-M   'P 1'
_cell_length_a   7.78574870
_cell_length_b   7.78574912
_cell_length_c   9.11832661
_cell_angle_alpha   115.27279796
_cell_angle_beta   115.27279650
_cell_angle_gamma   90.00000101
_symmetry_Int_Tables_number   1
_chemical_formula_structural   Pr8Nd2Si5Au
_chemical_formula_sum   'Pr8 Nd2 Si5 Au1'
_cell_volume   440.61715188
_cell_formula_units_Z   1
loop_
 _symmetry_equiv_pos_site_id
 _symmetry_equiv_pos_as_xyz
  1  'x, y, z'
loop_
 _atom_site_type_symbol
 _atom_site_label
 _atom_site_symmetry_multiplicity
 _atom_site_fract_x
 _atom_site_fract_y
 _atom_site_fract_z
 _atom_site_occupancy
  Pr  Pr0  1  0.960292  0.815233  0.286405  1
  Pr  Pr1  1  0.326113  0.471172  0.286405  1
  Pr  Pr2  1  0.815233  0.326113  0.286405  1
  Pr  Pr3  1  0.471172  0.960292  0.286405  1
  Pr  Pr4  1  0.028828  0.173887  0.713595  1
  Pr  Pr5  1  0.684767  0.539708  0.713595  1
  Pr  Pr6  1  0.173887  0.684767  0.713595  1
  Pr  Pr7  1  0.539708  0.028828  0.713595  1
  Nd  Nd8  1  0.477549  0.477549  0.955097  1
  Nd  Nd9  1  0.022451  0.022451  0.044903  1
  Si  Si10  1  0.250000  0.250000  0.500000  1
  Si  Si11  1  0.615489  0.884511  0.000000  1
  Si  Si12  1  0.384511  0.115489  0.000000  1
  Si  Si13  1  0.884511  0.384511  0.000000  1
  Si  Si14  1  0.115489  0.615489  0.000000  1
  Au  Au15  1  0.750000  0.750000  0.500000  1
