# generated using pymatgen
data_Ac6UO12
_symmetry_space_group_name_H-M   'P 1'
_cell_length_a   7.15077266
_cell_length_b   7.15077273
_cell_length_c   7.15077452
_cell_angle_alpha   98.71463476
_cell_angle_beta   98.71463414
_cell_angle_gamma   98.71463899
_symmetry_Int_Tables_number   1
_chemical_formula_structural   Ac6UO12
_chemical_formula_sum   'Ac6 U1 O12'
_cell_volume   351.50870587
_cell_formula_units_Z   1
loop_
 _symmetry_equiv_pos_site_id
 _symmetry_equiv_pos_as_xyz
  1  'x, y, z'
loop_
 _atom_site_type_symbol
 _atom_site_label
 _atom_site_symmetry_multiplicity
 _atom_site_fract_x
 _atom_site_fract_y
 _atom_site_fract_z
 _atom_site_occupancy
  Ac  Ac0  1  0.307400  0.604799  0.143139  1
  Ac  Ac1  1  0.604799  0.143139  0.307400  1
  Ac  Ac2  1  0.395201  0.856861  0.692600  1
  Ac  Ac3  1  0.692600  0.395201  0.856861  1
  Ac  Ac4  1  0.856861  0.692600  0.395201  1
  Ac  Ac5  1  0.143139  0.307400  0.604799  1
  U  U6  1  0.000000  0.000000  0.000000  1
  O  O7  1  0.439402  0.177467  0.592957  1
  O  O8  1  0.931918  0.712090  0.041691  1
  O  O9  1  0.177467  0.592957  0.439402  1
  O  O10  1  0.822533  0.407043  0.560598  1
  O  O11  1  0.560598  0.822533  0.407043  1
  O  O12  1  0.592957  0.439402  0.177467  1
  O  O13  1  0.407043  0.560598  0.822533  1
  O  O14  1  0.958309  0.068082  0.287910  1
  O  O15  1  0.041691  0.931918  0.712090  1
  O  O16  1  0.712090  0.041691  0.931918  1
  O  O17  1  0.068082  0.287910  0.958309  1
  O  O18  1  0.287910  0.958309  0.068082  1
