# generated using pymatgen
data_Li4Yb3TmPt4
_symmetry_space_group_name_H-M   'P 1'
_cell_length_a   3.96912500
_cell_length_b   7.00891796
_cell_length_c   8.32492800
_cell_angle_alpha   89.38408195
_cell_angle_beta   90.00000000
_cell_angle_gamma   90.00000000
_symmetry_Int_Tables_number   1
_chemical_formula_structural   Li4Yb3TmPt4
_chemical_formula_sum   'Li4 Yb3 Tm1 Pt4'
_cell_volume   231.58005127
_cell_formula_units_Z   1
loop_
 _symmetry_equiv_pos_site_id
 _symmetry_equiv_pos_as_xyz
  1  'x, y, z'
loop_
 _atom_site_type_symbol
 _atom_site_label
 _atom_site_symmetry_multiplicity
 _atom_site_fract_x
 _atom_site_fract_y
 _atom_site_fract_z
 _atom_site_occupancy
  Li  Li0  1  0.250000  0.368025  0.557209  1
  Li  Li1  1  0.250000  0.873628  0.940997  1
  Li  Li2  1  0.750000  0.623509  0.442842  1
  Li  Li3  1  0.750000  0.133231  0.058538  1
  Yb  Yb4  1  0.250000  0.956207  0.319339  1
  Yb  Yb5  1  0.250000  0.459495  0.181675  1
  Yb  Yb6  1  0.750000  0.042077  0.680616  1
  Tm  Tm7  1  0.750000  0.544775  0.822638  1
  Pt  Pt8  1  0.250000  0.260450  0.873587  1
  Pt  Pt9  1  0.250000  0.738220  0.631421  1
  Pt  Pt10  1  0.750000  0.751828  0.115515  1
  Pt  Pt11  1  0.750000  0.248556  0.375623  1
