# generated using pymatgen
data_LiLa3Al7Pd
_symmetry_space_group_name_H-M   'P 1'
_cell_length_a   9.48310012
_cell_length_b   9.48310010
_cell_length_c   9.48310000
_cell_angle_alpha   34.80615183
_cell_angle_beta   34.80615208
_cell_angle_gamma   34.80615445
_symmetry_Int_Tables_number   1
_chemical_formula_structural   LiLa3Al7Pd
_chemical_formula_sum   'Li1 La3 Al7 Pd1'
_cell_volume   248.01133482
_cell_formula_units_Z   1
loop_
 _symmetry_equiv_pos_site_id
 _symmetry_equiv_pos_as_xyz
  1  'x, y, z'
loop_
 _atom_site_type_symbol
 _atom_site_label
 _atom_site_symmetry_multiplicity
 _atom_site_fract_x
 _atom_site_fract_y
 _atom_site_fract_z
 _atom_site_occupancy
  Li  Li0  1  0.335124  0.335124  0.335124  1
  La  La1  1  0.000297  0.000297  0.000297  1
  La  La2  1  0.141992  0.141992  0.141992  1
  La  La3  1  0.857242  0.857242  0.857242  1
  Al  Al4  1  0.581884  0.581884  0.073803  1
  Al  Al5  1  0.925195  0.418798  0.418797  1
  Al  Al6  1  0.418798  0.925195  0.418797  1
  Al  Al7  1  0.500736  0.500736  0.500736  1
  Al  Al8  1  0.581884  0.073803  0.581884  1
  Al  Al9  1  0.073803  0.581884  0.581884  1
  Al  Al10  1  0.418797  0.418797  0.925195  1
  Pd  Pd11  1  0.664250  0.664250  0.664250  1
