# generated using pymatgen
data_AcTh2(CdHg2)3
_symmetry_space_group_name_H-M   'P 1'
_cell_length_a   5.20364600
_cell_length_b   7.54171098
_cell_length_c   15.91323500
_cell_angle_alpha   89.99939223
_cell_angle_beta   90.00154150
_cell_angle_gamma   90.02917321
_symmetry_Int_Tables_number   1
_chemical_formula_structural   AcTh2(CdHg2)3
_chemical_formula_sum   'Ac2 Th4 Cd6 Hg12'
_cell_volume   624.50518578
_cell_formula_units_Z   2
loop_
 _symmetry_equiv_pos_site_id
 _symmetry_equiv_pos_as_xyz
  1  'x, y, z'
loop_
 _atom_site_type_symbol
 _atom_site_label
 _atom_site_symmetry_multiplicity
 _atom_site_fract_x
 _atom_site_fract_y
 _atom_site_fract_z
 _atom_site_occupancy
  Ac  Ac0  1  0.000115  0.499993  0.666421  1
  Ac  Ac1  1  0.500113  0.999998  0.833527  1
  Th  Th2  1  0.999991  0.500004  0.003565  1
  Th  Th3  1  0.499888  0.000005  0.167158  1
  Th  Th4  1  0.999867  0.500013  0.332849  1
  Th  Th5  1  0.500018  0.999993  0.496464  1
  Cd  Cd6  1  0.000003  0.999996  0.004092  1
  Cd  Cd7  1  0.499885  0.499997  0.168156  1
  Cd  Cd8  1  0.999894  0.999995  0.331812  1
  Cd  Cd9  1  0.500005  0.499997  0.495891  1
  Cd  Cd10  1  0.000128  0.000003  0.662999  1
  Cd  Cd11  1  0.500112  0.499999  0.837060  1
  Hg  Hg12  1  0.500030  0.249566  0.004106  1
  Hg  Hg13  1  0.499962  0.750432  0.004109  1
  Hg  Hg14  1  0.999807  0.254685  0.167906  1
  Hg  Hg15  1  0.999952  0.745319  0.167903  1
  Hg  Hg16  1  0.499936  0.245234  0.332062  1
  Hg  Hg17  1  0.499787  0.754770  0.332062  1
  Hg  Hg18  1  0.999976  0.250491  0.495888  1
  Hg  Hg19  1  0.000064  0.749503  0.495889  1
  Hg  Hg20  1  0.500284  0.239369  0.661244  1
  Hg  Hg21  1  0.499948  0.760633  0.661248  1
  Hg  Hg22  1  0.999948  0.260680  0.838793  1
  Hg  Hg23  1  0.000286  0.739324  0.838792  1
