# generated using pymatgen
data_Dy17(MgRh4)3
_symmetry_space_group_name_H-M   'P 1'
_cell_length_a   10.76472300
_cell_length_b   10.76472300
_cell_length_c   6.30633100
_cell_angle_alpha   90.00000000
_cell_angle_beta   90.00000000
_cell_angle_gamma   90.00000000
_symmetry_Int_Tables_number   1
_chemical_formula_structural   Dy17(MgRh4)3
_chemical_formula_sum   'Dy17 Mg3 Rh12'
_cell_volume   730.77297758
_cell_formula_units_Z   1
loop_
 _symmetry_equiv_pos_site_id
 _symmetry_equiv_pos_as_xyz
  1  'x, y, z'
loop_
 _atom_site_type_symbol
 _atom_site_label
 _atom_site_symmetry_multiplicity
 _atom_site_fract_x
 _atom_site_fract_y
 _atom_site_fract_z
 _atom_site_occupancy
  Dy  Dy0  1  0.283878  0.087123  0.381973  1
  Dy  Dy1  1  0.284068  0.915087  0.879918  1
  Dy  Dy2  1  0.715932  0.084913  0.879918  1
  Dy  Dy3  1  0.716122  0.912877  0.381973  1
  Dy  Dy4  1  0.586150  0.785311  0.878671  1
  Dy  Dy5  1  0.590009  0.206962  0.379400  1
  Dy  Dy6  1  0.409991  0.793038  0.379400  1
  Dy  Dy7  1  0.413850  0.214689  0.878671  1
  Dy  Dy8  1  0.206962  0.409991  0.620600  1
  Dy  Dy9  1  0.214689  0.586150  0.121329  1
  Dy  Dy10  1  0.785311  0.413850  0.121329  1
  Dy  Dy11  1  0.793038  0.590009  0.620600  1
  Dy  Dy12  1  0.915087  0.715932  0.120082  1
  Dy  Dy13  1  0.912877  0.283878  0.618027  1
  Dy  Dy14  1  0.087123  0.716122  0.618027  1
  Dy  Dy15  1  0.084913  0.284068  0.120082  1
  Dy  Dy16  1  0.500000  0.500000  0.500000  1
  Mg  Mg17  1  0.000000  0.000000  0.500000  1
  Mg  Mg18  1  0.000000  0.000000  0.000000  1
  Mg  Mg19  1  0.500000  0.500000  0.000000  1
  Rh  Rh20  1  0.846446  0.153874  0.247297  1
  Rh  Rh21  1  0.846126  0.846446  0.752703  1
  Rh  Rh22  1  0.153874  0.153554  0.752703  1
  Rh  Rh23  1  0.153554  0.846126  0.247297  1
  Rh  Rh24  1  0.656423  0.345677  0.745887  1
  Rh  Rh25  1  0.654323  0.656423  0.254113  1
  Rh  Rh26  1  0.345677  0.343577  0.254113  1
  Rh  Rh27  1  0.343577  0.654323  0.745887  1
  Rh  Rh28  1  0.500000  0.000000  0.122088  1
  Rh  Rh29  1  0.500000  0.000000  0.626324  1
  Rh  Rh30  1  0.000000  0.500000  0.877912  1
  Rh  Rh31  1  0.000000  0.500000  0.373676  1
