# generated using pymatgen
data_Tm20Si3GeBi8
_symmetry_space_group_name_H-M   'P 1'
_cell_length_a   7.95848104
_cell_length_b   9.11007200
_cell_length_c   11.88439106
_cell_angle_alpha   90.00000000
_cell_angle_beta   89.98863321
_cell_angle_gamma   90.00000000
_symmetry_Int_Tables_number   1
_chemical_formula_structural   Tm20Si3GeBi8
_chemical_formula_sum   'Tm20 Si3 Ge1 Bi8'
_cell_volume   861.64608813
_cell_formula_units_Z   1
loop_
 _symmetry_equiv_pos_site_id
 _symmetry_equiv_pos_as_xyz
  1  'x, y, z'
loop_
 _atom_site_type_symbol
 _atom_site_label
 _atom_site_symmetry_multiplicity
 _atom_site_fract_x
 _atom_site_fract_y
 _atom_site_fract_z
 _atom_site_occupancy
  Tm  Tm0  1  0.679229  0.945175  0.438122  1
  Tm  Tm1  1  0.819339  0.552622  0.936887  1
  Tm  Tm2  1  0.320406  0.444776  0.562206  1
  Tm  Tm3  1  0.179733  0.057636  0.062483  1
  Tm  Tm4  1  0.320406  0.055224  0.562206  1
  Tm  Tm5  1  0.179733  0.442364  0.062483  1
  Tm  Tm6  1  0.679229  0.554825  0.438122  1
  Tm  Tm7  1  0.819339  0.947378  0.936887  1
  Tm  Tm8  1  0.335788  0.750000  0.288246  1
  Tm  Tm9  1  0.166716  0.750000  0.785389  1
  Tm  Tm10  1  0.664353  0.250000  0.711847  1
  Tm  Tm11  1  0.835519  0.250000  0.212220  1
  Tm  Tm12  1  0.039151  0.750000  0.497860  1
  Tm  Tm13  1  0.462571  0.750000  0.997706  1
  Tm  Tm14  1  0.960287  0.250000  0.501561  1
  Tm  Tm15  1  0.539813  0.250000  0.001607  1
  Tm  Tm16  1  0.860577  0.750000  0.207759  1
  Tm  Tm17  1  0.636966  0.750000  0.706108  1
  Tm  Tm18  1  0.136566  0.250000  0.794260  1
  Tm  Tm19  1  0.363431  0.250000  0.294379  1
  Si  Si20  1  0.410043  0.750000  0.522967  1
  Si  Si21  1  0.911521  0.250000  0.978573  1
  Si  Si22  1  0.589266  0.250000  0.478006  1
  Ge  Ge23  1  0.090754  0.750000  0.023510  1
  Bi  Bi24  1  0.568602  0.989236  0.174257  1
  Bi  Bi25  1  0.931243  0.511052  0.673987  1
  Bi  Bi26  1  0.431014  0.488621  0.825483  1
  Bi  Bi27  1  0.068775  0.011095  0.325577  1
  Bi  Bi28  1  0.431014  0.011379  0.825483  1
  Bi  Bi29  1  0.068775  0.488905  0.325577  1
  Bi  Bi30  1  0.568602  0.510764  0.174257  1
  Bi  Bi31  1  0.931243  0.988948  0.673987  1
