# generated using pymatgen
data_NdGa2(SnIr)4
_symmetry_space_group_name_H-M   'P 1'
_cell_length_a   6.87759061
_cell_length_b   6.87759102
_cell_length_c   6.79818980
_cell_angle_alpha   118.93946569
_cell_angle_beta   118.93946768
_cell_angle_gamma   92.48753984
_symmetry_Int_Tables_number   1
_chemical_formula_structural   NdGa2(SnIr)4
_chemical_formula_sum   'Nd1 Ga2 Sn4 Ir4'
_cell_volume   229.52959094
_cell_formula_units_Z   1
loop_
 _symmetry_equiv_pos_site_id
 _symmetry_equiv_pos_as_xyz
  1  'x, y, z'
loop_
 _atom_site_type_symbol
 _atom_site_label
 _atom_site_symmetry_multiplicity
 _atom_site_fract_x
 _atom_site_fract_y
 _atom_site_fract_z
 _atom_site_occupancy
  Nd  Nd0  1  0.980197  0.980197  0.000000  1
  Ga  Ga1  1  0.878810  0.528331  0.000000  1
  Ga  Ga2  1  0.528331  0.878810  0.000000  1
  Sn  Sn3  1  0.458022  0.458022  0.329175  1
  Sn  Sn4  1  0.508102  0.008101  0.500001  1
  Sn  Sn5  1  0.008101  0.508102  0.500001  1
  Sn  Sn6  1  0.128847  0.128847  0.670827  1
  Ir  Ir7  1  0.611426  0.230931  0.000000  1
  Ir  Ir8  1  0.230931  0.611426  0.000000  1
  Ir  Ir9  1  0.744666  0.744666  0.322096  1
  Ir  Ir10  1  0.422571  0.422571  0.677905  1
