# generated using pymatgen
data_Th8ZnSi11Pd4
_symmetry_space_group_name_H-M   'P 1'
_cell_length_a   8.30305221
_cell_length_b   8.30305272
_cell_length_c   8.44747300
_cell_angle_alpha   89.99998383
_cell_angle_beta   90.00001368
_cell_angle_gamma   120.02606895
_symmetry_Int_Tables_number   1
_chemical_formula_structural   Th8ZnSi11Pd4
_chemical_formula_sum   'Th8 Zn1 Si11 Pd4'
_cell_volume   504.21860286
_cell_formula_units_Z   1
loop_
 _symmetry_equiv_pos_site_id
 _symmetry_equiv_pos_as_xyz
  1  'x, y, z'
loop_
 _atom_site_type_symbol
 _atom_site_label
 _atom_site_symmetry_multiplicity
 _atom_site_fract_x
 _atom_site_fract_y
 _atom_site_fract_z
 _atom_site_occupancy
  Th  Th0  1  0.500153  0.499847  0.750760  1
  Th  Th1  1  0.500414  0.499586  0.249233  1
  Th  Th2  1  0.999824  0.501130  0.750904  1
  Th  Th3  1  0.999293  0.500866  0.249106  1
  Th  Th4  1  0.498870  0.000176  0.750904  1
  Th  Th5  1  0.499134  0.000707  0.249106  1
  Th  Th6  1  0.001312  0.998688  0.748399  1
  Th  Th7  1  0.001288  0.998712  0.251597  1
  Zn  Zn8  1  0.836159  0.163841  0.999721  1
  Si  Si9  1  0.165386  0.834614  0.000235  1
  Si  Si10  1  0.330928  0.166076  0.999780  1
  Si  Si11  1  0.166174  0.833826  0.499751  1
  Si  Si12  1  0.670008  0.833703  0.000225  1
  Si  Si13  1  0.834427  0.165573  0.500237  1
  Si  Si14  1  0.833924  0.669072  0.999780  1
  Si  Si15  1  0.668066  0.833703  0.499772  1
  Si  Si16  1  0.166297  0.329992  0.000225  1
  Si  Si17  1  0.331745  0.166185  0.500228  1
  Si  Si18  1  0.166297  0.331934  0.499772  1
  Si  Si19  1  0.833815  0.668255  0.500228  1
  Pd  Pd20  1  0.663347  0.336653  0.999697  1
  Pd  Pd21  1  0.332928  0.667072  0.000333  1
  Pd  Pd22  1  0.333266  0.666734  0.499721  1
  Pd  Pd23  1  0.666947  0.333053  0.500287  1
