# generated using pymatgen
data_Er6Zn22PPd
_symmetry_space_group_name_H-M   'P 1'
_cell_length_a   9.00241163
_cell_length_b   9.00207604
_cell_length_c   9.00199000
_cell_angle_alpha   60.00008098
_cell_angle_beta   59.99904325
_cell_angle_gamma   60.00164695
_symmetry_Int_Tables_number   1
_chemical_formula_structural   Er6Zn22PPd
_chemical_formula_sum   'Er6 Zn22 P1 Pd1'
_cell_volume   515.85495054
_cell_formula_units_Z   1
loop_
 _symmetry_equiv_pos_site_id
 _symmetry_equiv_pos_as_xyz
  1  'x, y, z'
loop_
 _atom_site_type_symbol
 _atom_site_label
 _atom_site_symmetry_multiplicity
 _atom_site_fract_x
 _atom_site_fract_y
 _atom_site_fract_z
 _atom_site_occupancy
  Er  Er0  1  0.712075  0.287924  0.287934  1
  Er  Er1  1  0.712082  0.287924  0.712071  1
  Er  Er2  1  0.712096  0.712085  0.287911  1
  Er  Er3  1  0.287925  0.712076  0.712066  1
  Er  Er4  1  0.287918  0.712076  0.287929  1
  Er  Er5  1  0.287904  0.287915  0.712089  1
  Zn  Zn6  1  0.631714  0.122810  0.122716  1
  Zn  Zn7  1  0.122809  0.631718  0.122754  1
  Zn  Zn8  1  0.122717  0.122760  0.631715  1
  Zn  Zn9  1  0.122761  0.122722  0.122806  1
  Zn  Zn10  1  0.368286  0.877190  0.877284  1
  Zn  Zn11  1  0.877191  0.368282  0.877246  1
  Zn  Zn12  1  0.877283  0.877240  0.368285  1
  Zn  Zn13  1  0.877239  0.877278  0.877194  1
  Zn  Zn14  1  0.500000  0.000000  0.000000  1
  Zn  Zn15  1  0.500000  0.000000  0.500000  1
  Zn  Zn16  1  0.500000  0.500000  0.000000  1
  Zn  Zn17  1  0.000000  0.500000  0.500000  1
  Zn  Zn18  1  0.000000  0.500000  0.000000  1
  Zn  Zn19  1  0.000000  0.000000  0.500000  1
  Zn  Zn20  1  0.009402  0.330230  0.330174  1
  Zn  Zn21  1  0.330232  0.009405  0.330190  1
  Zn  Zn22  1  0.330175  0.330191  0.009403  1
  Zn  Zn23  1  0.330194  0.330174  0.330231  1
  Zn  Zn24  1  0.990598  0.669770  0.669826  1
  Zn  Zn25  1  0.669768  0.990595  0.669810  1
  Zn  Zn26  1  0.669825  0.669809  0.990597  1
  Zn  Zn27  1  0.669806  0.669826  0.669769  1
  P  P28  1  0.500000  0.500000  0.500000  1
  Pd  Pd29  1  0.000000  0.000000  0.000000  1
