# generated using pymatgen
data_CaPr2Ge(AsPd4)5
_symmetry_space_group_name_H-M   'P 1'
_cell_length_a   8.95783533
_cell_length_b   8.92555740
_cell_length_c   8.92555747
_cell_angle_alpha   60.23940056
_cell_angle_beta   59.88029580
_cell_angle_gamma   59.88030112
_symmetry_Int_Tables_number   1
_chemical_formula_structural   CaPr2Ge(AsPd4)5
_chemical_formula_sum   'Ca1 Pr2 Ge1 As5 Pd20'
_cell_volume   504.60013850
_cell_formula_units_Z   1
loop_
 _symmetry_equiv_pos_site_id
 _symmetry_equiv_pos_as_xyz
  1  'x, y, z'
loop_
 _atom_site_type_symbol
 _atom_site_label
 _atom_site_symmetry_multiplicity
 _atom_site_fract_x
 _atom_site_fract_y
 _atom_site_fract_z
 _atom_site_occupancy
  Ca  Ca0  1  0.000208  0.999792  0.999792  1
  Pr  Pr1  1  0.750149  0.749851  0.749851  1
  Pr  Pr2  1  0.250149  0.249851  0.249851  1
  Ge  Ge3  1  0.735379  0.264621  0.264621  1
  As  As4  1  0.737791  0.737202  0.262209  1
  As  As5  1  0.262798  0.262209  0.737202  1
  As  As6  1  0.737791  0.262209  0.737202  1
  As  As7  1  0.262798  0.737202  0.262209  1
  As  As8  1  0.262272  0.737728  0.737728  1
  Pd  Pd9  1  0.615317  0.615003  0.615003  1
  Pd  Pd10  1  0.384820  0.384220  0.384220  1
  Pd  Pd11  1  0.154676  0.615003  0.615003  1
  Pd  Pd12  1  0.615780  0.153259  0.615180  1
  Pd  Pd13  1  0.846741  0.384220  0.384220  1
  Pd  Pd14  1  0.384997  0.845324  0.384683  1
  Pd  Pd15  1  0.615780  0.615180  0.153259  1
  Pd  Pd16  1  0.384997  0.384683  0.845324  1
  Pd  Pd17  1  0.000753  0.999247  0.648709  1
  Pd  Pd18  1  0.998629  0.001371  0.349343  1
  Pd  Pd19  1  0.351291  0.648709  0.999247  1
  Pd  Pd20  1  0.650657  0.349343  0.001371  1
  Pd  Pd21  1  0.000753  0.648709  0.999247  1
  Pd  Pd22  1  0.650657  0.001371  0.349343  1
  Pd  Pd23  1  0.998629  0.349343  0.001371  1
  Pd  Pd24  1  0.351291  0.999247  0.648709  1
  Pd  Pd25  1  0.648816  0.001274  0.001274  1
  Pd  Pd26  1  0.348634  0.001274  0.001274  1
  Pd  Pd27  1  0.998726  0.651366  0.351184  1
  Pd  Pd28  1  0.998726  0.351184  0.651366  1
