# generated using pymatgen
data_Eu4Ta2InWO14
_symmetry_space_group_name_H-M   'P 1'
_cell_length_a   7.57663733
_cell_length_b   7.53975127
_cell_length_c   7.57663958
_cell_angle_alpha   120.33551608
_cell_angle_beta   119.79608532
_cell_angle_gamma   90.02773291
_symmetry_Int_Tables_number   1
_chemical_formula_structural   Eu4Ta2InWO14
_chemical_formula_sum   'Eu4 Ta2 In1 W1 O14'
_cell_volume   305.36079593
_cell_formula_units_Z   1
loop_
 _symmetry_equiv_pos_site_id
 _symmetry_equiv_pos_as_xyz
  1  'x, y, z'
loop_
 _atom_site_type_symbol
 _atom_site_label
 _atom_site_symmetry_multiplicity
 _atom_site_fract_x
 _atom_site_fract_y
 _atom_site_fract_z
 _atom_site_occupancy
  Eu  Eu0  1  0.500000  0.500000  0.500000  1
  Eu  Eu1  1  0.500000  0.000000  0.000000  1
  Eu  Eu2  1  0.500000  0.500000  0.000000  1
  Eu  Eu3  1  0.000000  0.500000  0.500000  1
  Ta  Ta4  1  0.000000  0.000000  0.000000  1
  Ta  Ta5  1  0.500000  0.000000  0.500000  1
  In  In6  1  0.000000  0.500000  0.000000  1
  W  W7  1  0.000000  0.000000  0.500000  1
  O  O8  1  0.375461  0.627732  0.752271  1
  O  O9  1  0.624539  0.372268  0.247729  1
  O  O10  1  0.312049  0.054813  0.242764  1
  O  O11  1  0.917789  0.685906  0.268117  1
  O  O12  1  0.344819  0.680515  0.261745  1
  O  O13  1  0.920938  0.054947  0.235916  1
  O  O14  1  0.319032  0.054947  0.634010  1
  O  O15  1  0.918769  0.680515  0.835695  1
  O  O16  1  0.687951  0.945187  0.757236  1
  O  O17  1  0.082211  0.314094  0.731883  1
  O  O18  1  0.655181  0.319485  0.738255  1
  O  O19  1  0.079062  0.945053  0.764084  1
  O  O20  1  0.680968  0.945053  0.365990  1
  O  O21  1  0.081231  0.319485  0.164305  1
