# generated using pymatgen
data_DyTm5ReBi2
_symmetry_space_group_name_H-M   'P 1'
_cell_length_a   8.18459200
_cell_length_b   8.17828430
_cell_length_c   4.31595600
_cell_angle_alpha   90.00000000
_cell_angle_beta   90.00000000
_cell_angle_gamma   120.02553299
_symmetry_Int_Tables_number   1
_chemical_formula_structural   DyTm5ReBi2
_chemical_formula_sum   'Dy1 Tm5 Re1 Bi2'
_cell_volume   250.12383743
_cell_formula_units_Z   1
loop_
 _symmetry_equiv_pos_site_id
 _symmetry_equiv_pos_as_xyz
  1  'x, y, z'
loop_
 _atom_site_type_symbol
 _atom_site_label
 _atom_site_symmetry_multiplicity
 _atom_site_fract_x
 _atom_site_fract_y
 _atom_site_fract_z
 _atom_site_occupancy
  Dy  Dy0  1  0.612530  0.000000  0.000000  1
  Tm  Tm1  1  0.232578  0.000000  0.500000  1
  Tm  Tm2  1  0.000572  0.231506  0.500000  1
  Tm  Tm3  1  0.769067  0.768494  0.500000  1
  Tm  Tm4  1  0.999711  0.615574  0.000000  1
  Tm  Tm5  1  0.384137  0.384426  0.000000  1
  Re  Re6  1  0.002206  0.000000  0.000000  1
  Bi  Bi7  1  0.332213  0.665228  0.500000  1
  Bi  Bi8  1  0.666986  0.334772  0.500000  1
