# generated using pymatgen
data_CeLu4Sn3C
_symmetry_space_group_name_H-M   'P 1'
_cell_length_a   8.83484561
_cell_length_b   8.84053124
_cell_length_c   6.45016800
_cell_angle_alpha   90.00000000
_cell_angle_beta   90.00000000
_cell_angle_gamma   120.02127978
_symmetry_Int_Tables_number   1
_chemical_formula_structural   CeLu4Sn3C
_chemical_formula_sum   'Ce2 Lu8 Sn6 C2'
_cell_volume   436.20016006
_cell_formula_units_Z   2
loop_
 _symmetry_equiv_pos_site_id
 _symmetry_equiv_pos_as_xyz
  1  'x, y, z'
loop_
 _atom_site_type_symbol
 _atom_site_label
 _atom_site_symmetry_multiplicity
 _atom_site_fract_x
 _atom_site_fract_y
 _atom_site_fract_z
 _atom_site_occupancy
  Ce  Ce0  1  0.783102  0.783936  0.250000  1
  Ce  Ce1  1  0.216898  0.000834  0.250000  1
  Lu  Lu2  1  0.666841  0.332754  0.501174  1
  Lu  Lu3  1  0.333159  0.665914  0.501174  1
  Lu  Lu4  1  0.333159  0.665914  0.998826  1
  Lu  Lu5  1  0.666841  0.332754  0.998826  1
  Lu  Lu6  1  0.000000  0.215767  0.250000  1
  Lu  Lu7  1  0.212503  0.213787  0.750000  1
  Lu  Lu8  1  0.787497  0.001284  0.750000  1
  Lu  Lu9  1  0.000000  0.787877  0.750000  1
  Sn  Sn10  1  0.406383  0.409575  0.250000  1
  Sn  Sn11  1  0.593617  0.003192  0.250000  1
  Sn  Sn12  1  0.000000  0.586429  0.250000  1
  Sn  Sn13  1  0.594810  0.595622  0.750000  1
  Sn  Sn14  1  0.405190  0.000812  0.750000  1
  Sn  Sn15  1  0.000000  0.405197  0.750000  1
  C  C16  1  0.000000  0.999176  0.501245  1
  C  C17  1  0.000000  0.999176  0.998755  1
