# generated using pymatgen
data_Tm2HfZr(Al3Ir)6
_symmetry_space_group_name_H-M   'P 1'
_cell_length_a   7.50718506
_cell_length_b   7.49544791
_cell_length_c   9.32516300
_cell_angle_alpha   90.00000000
_cell_angle_beta   90.00000000
_cell_angle_gamma   119.73889767
_symmetry_Int_Tables_number   1
_chemical_formula_structural   Tm2HfZr(Al3Ir)6
_chemical_formula_sum   'Tm2 Hf1 Zr1 Al18 Ir6'
_cell_volume   455.61542614
_cell_formula_units_Z   1
loop_
 _symmetry_equiv_pos_site_id
 _symmetry_equiv_pos_as_xyz
  1  'x, y, z'
loop_
 _atom_site_type_symbol
 _atom_site_label
 _atom_site_symmetry_multiplicity
 _atom_site_fract_x
 _atom_site_fract_y
 _atom_site_fract_z
 _atom_site_occupancy
  Tm  Tm0  1  0.670904  0.994473  0.250000  1
  Tm  Tm1  1  0.329001  0.005510  0.750000  1
  Hf  Hf2  1  0.004467  0.328468  0.750000  1
  Zr  Zr3  1  0.995269  0.671024  0.250000  1
  Al  Al4  1  0.126121  0.124381  0.250000  1
  Al  Al5  1  0.873708  0.875600  0.750000  1
  Al  Al6  1  0.999780  0.336688  0.075863  1
  Al  Al7  1  0.000292  0.663218  0.924092  1
  Al  Al8  1  0.000292  0.663218  0.575908  1
  Al  Al9  1  0.332819  0.998497  0.421898  1
  Al  Al10  1  0.999780  0.336688  0.424137  1
  Al  Al11  1  0.667307  0.001622  0.578263  1
  Al  Al12  1  0.667307  0.001622  0.921737  1
  Al  Al13  1  0.332819  0.998497  0.078102  1
  Al  Al14  1  0.331312  0.333367  0.557431  1
  Al  Al15  1  0.668587  0.666663  0.442778  1
  Al  Al16  1  0.668587  0.666663  0.057222  1
  Al  Al17  1  0.331312  0.333367  0.942569  1
  Al  Al18  1  0.335357  0.548489  0.250000  1
  Al  Al19  1  0.664710  0.451634  0.750000  1
  Al  Al20  1  0.553620  0.342987  0.250000  1
  Al  Al21  1  0.446253  0.656798  0.750000  1
  Ir  Ir22  1  0.672520  0.327295  0.999230  1
  Ir  Ir23  1  0.327580  0.672422  0.000116  1
  Ir  Ir24  1  0.327580  0.672422  0.499884  1
  Ir  Ir25  1  0.672520  0.327295  0.500770  1
  Ir  Ir26  1  0.000098  0.000544  0.999572  1
  Ir  Ir27  1  0.000098  0.000544  0.500428  1
