# generated using pymatgen
data_DyTm11Tc3Ir
_symmetry_space_group_name_H-M   'P 1'
_cell_length_a   6.21923661
_cell_length_b   7.33802524
_cell_length_c   8.97467800
_cell_angle_alpha   90.00000000
_cell_angle_beta   90.00000000
_cell_angle_gamma   90.08575976
_symmetry_Int_Tables_number   1
_chemical_formula_structural   DyTm11Tc3Ir
_chemical_formula_sum   'Dy1 Tm11 Tc3 Ir1'
_cell_volume   409.57615996
_cell_formula_units_Z   1
loop_
 _symmetry_equiv_pos_site_id
 _symmetry_equiv_pos_as_xyz
  1  'x, y, z'
loop_
 _atom_site_type_symbol
 _atom_site_label
 _atom_site_symmetry_multiplicity
 _atom_site_fract_x
 _atom_site_fract_y
 _atom_site_fract_z
 _atom_site_occupancy
  Dy  Dy0  1  0.623114  0.037990  0.250000  1
  Tm  Tm1  1  0.333492  0.676282  0.062901  1
  Tm  Tm2  1  0.160734  0.176253  0.438288  1
  Tm  Tm3  1  0.663647  0.323397  0.561487  1
  Tm  Tm4  1  0.837179  0.824135  0.938007  1
  Tm  Tm5  1  0.663647  0.323397  0.938513  1
  Tm  Tm6  1  0.837179  0.824135  0.561993  1
  Tm  Tm7  1  0.333492  0.676282  0.437099  1
  Tm  Tm8  1  0.160734  0.176253  0.061712  1
  Tm  Tm9  1  0.875524  0.540022  0.250000  1
  Tm  Tm10  1  0.130703  0.457925  0.750000  1
  Tm  Tm11  1  0.373255  0.960200  0.750000  1
  Tc  Tc12  1  0.041629  0.883169  0.250000  1
  Tc  Tc13  1  0.463070  0.386923  0.250000  1
  Tc  Tc14  1  0.961096  0.116718  0.750000  1
  Ir  Ir15  1  0.541504  0.616919  0.750000  1
