# generated using pymatgen
data_Nd2Pa(GaPd)3
_symmetry_space_group_name_H-M   'P 1'
_cell_length_a   7.36384950
_cell_length_b   7.39467685
_cell_length_c   3.99223000
_cell_angle_alpha   90.00000000
_cell_angle_beta   90.00000000
_cell_angle_gamma   120.13858280
_symmetry_Int_Tables_number   1
_chemical_formula_structural   Nd2Pa(GaPd)3
_chemical_formula_sum   'Nd2 Pa1 Ga3 Pd3'
_cell_volume   188.00184986
_cell_formula_units_Z   1
loop_
 _symmetry_equiv_pos_site_id
 _symmetry_equiv_pos_as_xyz
  1  'x, y, z'
loop_
 _atom_site_type_symbol
 _atom_site_label
 _atom_site_symmetry_multiplicity
 _atom_site_fract_x
 _atom_site_fract_y
 _atom_site_fract_z
 _atom_site_occupancy
  Nd  Nd0  1  0.411043  0.413582  0.500000  1
  Nd  Nd1  1  0.588957  0.002538  0.500000  1
  Pa  Pa2  1  0.000000  0.583698  0.500000  1
  Ga  Ga3  1  0.751645  0.754225  0.000000  1
  Ga  Ga4  1  0.248355  0.002579  0.000000  1
  Ga  Ga5  1  0.000000  0.240321  0.000000  1
  Pd  Pd6  1  0.308303  0.663999  0.000000  1
  Pd  Pd7  1  0.691697  0.355695  0.000000  1
  Pd  Pd8  1  0.000000  0.983363  0.500000  1
