# generated using pymatgen
data_Tb3Dy5(CdNi)2
_symmetry_space_group_name_H-M   'P 1'
_cell_length_a   9.55302446
_cell_length_b   9.55302379
_cell_length_c   9.55302400
_cell_angle_alpha   59.99999929
_cell_angle_beta   60.00000160
_cell_angle_gamma   59.99999675
_symmetry_Int_Tables_number   1
_chemical_formula_structural   Tb3Dy5(CdNi)2
_chemical_formula_sum   'Tb6 Dy10 Cd4 Ni4'
_cell_volume   616.46384748
_cell_formula_units_Z   2
loop_
 _symmetry_equiv_pos_site_id
 _symmetry_equiv_pos_as_xyz
  1  'x, y, z'
loop_
 _atom_site_type_symbol
 _atom_site_label
 _atom_site_symmetry_multiplicity
 _atom_site_fract_x
 _atom_site_fract_y
 _atom_site_fract_z
 _atom_site_occupancy
  Tb  Tb0  1  0.936376  0.563624  0.563624  1
  Tb  Tb1  1  0.563624  0.936376  0.936376  1
  Tb  Tb2  1  0.563624  0.936376  0.563624  1
  Tb  Tb3  1  0.936376  0.563624  0.936376  1
  Tb  Tb4  1  0.563624  0.563624  0.936376  1
  Tb  Tb5  1  0.936376  0.936376  0.563624  1
  Dy  Dy6  1  0.348352  0.348352  0.348352  1
  Dy  Dy7  1  0.348352  0.348352  0.954945  1
  Dy  Dy8  1  0.348352  0.954945  0.348352  1
  Dy  Dy9  1  0.954945  0.348352  0.348352  1
  Dy  Dy10  1  0.811444  0.188556  0.188556  1
  Dy  Dy11  1  0.188556  0.811444  0.811444  1
  Dy  Dy12  1  0.188556  0.811444  0.188556  1
  Dy  Dy13  1  0.811444  0.188556  0.811444  1
  Dy  Dy14  1  0.188556  0.188556  0.811444  1
  Dy  Dy15  1  0.811444  0.811444  0.188556  1
  Cd  Cd16  1  0.581178  0.581178  0.581178  1
  Cd  Cd17  1  0.581178  0.581178  0.256466  1
  Cd  Cd18  1  0.581178  0.256466  0.581178  1
  Cd  Cd19  1  0.256466  0.581178  0.581178  1
  Ni  Ni20  1  0.142378  0.142378  0.142378  1
  Ni  Ni21  1  0.142378  0.142378  0.572866  1
  Ni  Ni22  1  0.142378  0.572866  0.142378  1
  Ni  Ni23  1  0.572866  0.142378  0.142378  1
