# generated using pymatgen
data_Ho6HfZr3(Sn3O)2
_symmetry_space_group_name_H-M   'P 1'
_cell_length_a   8.74558100
_cell_length_b   8.74558184
_cell_length_c   6.00734000
_cell_angle_alpha   90.00000000
_cell_angle_beta   90.00000000
_cell_angle_gamma   120.00000060
_symmetry_Int_Tables_number   1
_chemical_formula_structural   Ho6HfZr3(Sn3O)2
_chemical_formula_sum   'Ho6 Hf1 Zr3 Sn6 O2'
_cell_volume   397.91491353
_cell_formula_units_Z   1
loop_
 _symmetry_equiv_pos_site_id
 _symmetry_equiv_pos_as_xyz
  1  'x, y, z'
loop_
 _atom_site_type_symbol
 _atom_site_label
 _atom_site_symmetry_multiplicity
 _atom_site_fract_x
 _atom_site_fract_y
 _atom_site_fract_z
 _atom_site_occupancy
  Ho  Ho0  1  0.000125  0.773157  0.749905  1
  Ho  Ho1  1  0.000125  0.226968  0.250095  1
  Ho  Ho2  1  0.226843  0.226968  0.749905  1
  Ho  Ho3  1  0.226843  0.999875  0.250095  1
  Ho  Ho4  1  0.773032  0.773157  0.250095  1
  Ho  Ho5  1  0.773032  0.999875  0.749905  1
  Hf  Hf6  1  0.333333  0.666667  0.000000  1
  Zr  Zr7  1  0.333333  0.666667  0.500000  1
  Zr  Zr8  1  0.666667  0.333333  0.000000  1
  Zr  Zr9  1  0.666667  0.333333  0.500000  1
  Sn  Sn10  1  0.000844  0.595061  0.249107  1
  Sn  Sn11  1  0.000844  0.405783  0.750893  1
  Sn  Sn12  1  0.404939  0.405783  0.249107  1
  Sn  Sn13  1  0.594217  0.595061  0.750893  1
  Sn  Sn14  1  0.404939  0.999156  0.750893  1
  Sn  Sn15  1  0.594217  0.999156  0.249107  1
  O  O16  1  0.000000  0.000000  0.000000  1
  O  O17  1  0.000000  0.000000  0.500000  1
