# generated using pymatgen
data_Dy2Y3Er3(P3Ir4)4
_symmetry_space_group_name_H-M   'P 1'
_cell_length_a   12.96934400
_cell_length_b   12.96934504
_cell_length_c   4.00620200
_cell_angle_alpha   90.00000000
_cell_angle_beta   90.00000000
_cell_angle_gamma   120.00000244
_symmetry_Int_Tables_number   1
_chemical_formula_structural   Dy2Y3Er3(P3Ir4)4
_chemical_formula_sum   'Dy2 Y3 Er3 P12 Ir16'
_cell_volume   583.57881614
_cell_formula_units_Z   1
loop_
 _symmetry_equiv_pos_site_id
 _symmetry_equiv_pos_as_xyz
  1  'x, y, z'
loop_
 _atom_site_type_symbol
 _atom_site_label
 _atom_site_symmetry_multiplicity
 _atom_site_fract_x
 _atom_site_fract_y
 _atom_site_fract_z
 _atom_site_occupancy
  Dy  Dy0  1  0.333333  0.666667  0.500000  1
  Dy  Dy1  1  0.666667  0.333333  0.500000  1
  Y  Y2  1  0.000000  0.814677  0.000000  1
  Y  Y3  1  0.185323  0.185323  0.000000  1
  Y  Y4  1  0.814677  0.000000  0.000000  1
  Er  Er5  1  0.000000  0.446319  0.500000  1
  Er  Er6  1  0.553681  0.553681  0.500000  1
  Er  Er7  1  0.446319  0.000000  0.500000  1
  P  P8  1  0.000000  0.652394  0.500000  1
  P  P9  1  0.347606  0.347606  0.500000  1
  P  P10  1  0.652394  0.000000  0.500000  1
  P  P11  1  0.516816  0.688544  0.000000  1
  P  P12  1  0.311456  0.828271  0.000000  1
  P  P13  1  0.171729  0.483184  0.000000  1
  P  P14  1  0.483184  0.171729  0.000000  1
  P  P15  1  0.688544  0.516816  0.000000  1
  P  P16  1  0.828271  0.311456  0.000000  1
  P  P17  1  0.000000  0.176606  0.500000  1
  P  P18  1  0.823394  0.823394  0.500000  1
  P  P19  1  0.176606  0.000000  0.500000  1
  Ir  Ir20  1  0.509293  0.865709  0.000000  1
  Ir  Ir21  1  0.134291  0.643585  0.000000  1
  Ir  Ir22  1  0.356415  0.490707  0.000000  1
  Ir  Ir23  1  0.490707  0.356415  0.000000  1
  Ir  Ir24  1  0.865709  0.509293  0.000000  1
  Ir  Ir25  1  0.643585  0.134291  0.000000  1
  Ir  Ir26  1  0.000000  0.274957  0.000000  1
  Ir  Ir27  1  0.725043  0.725043  0.000000  1
  Ir  Ir28  1  0.274957  0.000000  0.000000  1
  Ir  Ir29  1  0.630221  0.809123  0.500000  1
  Ir  Ir30  1  0.190877  0.821099  0.500000  1
  Ir  Ir31  1  0.178901  0.369779  0.500000  1
  Ir  Ir32  1  0.369779  0.178901  0.500000  1
  Ir  Ir33  1  0.809123  0.630221  0.500000  1
  Ir  Ir34  1  0.821099  0.190877  0.500000  1
  Ir  Ir35  1  0.000000  0.000000  0.500000  1
