# generated using pymatgen
data_Nb3VIr2C
_symmetry_space_group_name_H-M   'P 1'
_cell_length_a   8.35043988
_cell_length_b   8.34997765
_cell_length_c   8.34942203
_cell_angle_alpha   59.99362579
_cell_angle_beta   59.99601916
_cell_angle_gamma   59.99842499
_symmetry_Int_Tables_number   1
_chemical_formula_structural   Nb3VIr2C
_chemical_formula_sum   'Nb12 V4 Ir8 C4'
_cell_volume   411.62042941
_cell_formula_units_Z   4
loop_
 _symmetry_equiv_pos_site_id
 _symmetry_equiv_pos_as_xyz
  1  'x, y, z'
loop_
 _atom_site_type_symbol
 _atom_site_label
 _atom_site_symmetry_multiplicity
 _atom_site_fract_x
 _atom_site_fract_y
 _atom_site_fract_z
 _atom_site_occupancy
  Nb  Nb0  1  0.810863  0.810878  0.189054  1
  Nb  Nb1  1  0.189096  0.189126  0.810899  1
  Nb  Nb2  1  0.810895  0.189070  0.810896  1
  Nb  Nb3  1  0.189166  0.810877  0.189115  1
  Nb  Nb4  1  0.189049  0.810908  0.810894  1
  Nb  Nb5  1  0.810861  0.189188  0.189108  1
  Nb  Nb6  1  0.439132  0.439119  0.060912  1
  Nb  Nb7  1  0.060887  0.060903  0.439097  1
  Nb  Nb8  1  0.439108  0.060917  0.439108  1
  Nb  Nb9  1  0.060854  0.439107  0.060899  1
  Nb  Nb10  1  0.060921  0.439086  0.439101  1
  Nb  Nb11  1  0.439131  0.060849  0.060875  1
  V  V12  1  0.124995  0.624991  0.625057  1
  V  V13  1  0.625032  0.125004  0.625028  1
  V  V14  1  0.625053  0.624985  0.124996  1
  V  V15  1  0.625012  0.624956  0.625025  1
  Ir  Ir16  1  0.750587  0.416469  0.416448  1
  Ir  Ir17  1  0.416495  0.750643  0.416409  1
  Ir  Ir18  1  0.416471  0.416403  0.750691  1
  Ir  Ir19  1  0.416496  0.416426  0.416411  1
  Ir  Ir20  1  0.499391  0.833544  0.833548  1
  Ir  Ir21  1  0.833500  0.499360  0.833582  1
  Ir  Ir22  1  0.833526  0.833605  0.499284  1
  Ir  Ir23  1  0.833493  0.833577  0.833582  1
  C  C24  1  0.625009  0.125007  0.124976  1
  C  C25  1  0.125001  0.624982  0.124989  1
  C  C26  1  0.124977  0.124996  0.625013  1
  C  C27  1  0.125000  0.125024  0.125004  1
