# generated using pymatgen
data_Tb9TmRu3Rh
_symmetry_space_group_name_H-M   'P 1'
_cell_length_a   6.38420664
_cell_length_b   7.28234780
_cell_length_c   8.53466992
_cell_angle_alpha   96.63136290
_cell_angle_beta   111.81150646
_cell_angle_gamma   90.03581973
_symmetry_Int_Tables_number   1
_chemical_formula_structural   Tb9TmRu3Rh
_chemical_formula_sum   'Tb9 Tm1 Ru3 Rh1'
_cell_volume   365.51544098
_cell_formula_units_Z   1
loop_
 _symmetry_equiv_pos_site_id
 _symmetry_equiv_pos_as_xyz
  1  'x, y, z'
loop_
 _atom_site_type_symbol
 _atom_site_label
 _atom_site_symmetry_multiplicity
 _atom_site_fract_x
 _atom_site_fract_y
 _atom_site_fract_z
 _atom_site_occupancy
  Tb  Tb0  1  0.793551  0.081344  0.815231  1
  Tb  Tb1  1  0.980443  0.416105  0.188611  1
  Tb  Tb2  1  0.206715  0.914052  0.185686  1
  Tb  Tb3  1  0.023713  0.587041  0.815538  1
  Tb  Tb4  1  0.205232  0.183230  0.564625  1
  Tb  Tb5  1  0.643080  0.315153  0.431492  1
  Tb  Tb6  1  0.791160  0.813775  0.432630  1
  Tb  Tb7  1  0.357559  0.687432  0.565565  1
  Tb  Tb8  1  0.420040  0.249232  0.000298  1
  Tm  Tm9  1  0.577780  0.752345  0.001928  1
  Ru  Ru10  1  0.823046  0.075040  0.218078  1
  Ru  Ru11  1  0.397216  0.575916  0.220111  1
  Ru  Ru12  1  0.179752  0.923043  0.780456  1
  Rh  Rh13  1  0.600712  0.426293  0.779752  1
