# generated using pymatgen
data_Ta2NbCl15
_symmetry_space_group_name_H-M   'P 1'
_cell_length_a   13.77092581
_cell_length_b   13.77092629
_cell_length_c   6.48570117
_cell_angle_alpha   88.75301978
_cell_angle_beta   88.75301530
_cell_angle_gamma   86.88863127
_symmetry_Int_Tables_number   1
_chemical_formula_structural   Ta2NbCl15
_chemical_formula_sum   'Ta4 Nb2 Cl30'
_cell_volume   1227.57318114
_cell_formula_units_Z   2
loop_
 _symmetry_equiv_pos_site_id
 _symmetry_equiv_pos_as_xyz
  1  'x, y, z'
loop_
 _atom_site_type_symbol
 _atom_site_label
 _atom_site_symmetry_multiplicity
 _atom_site_fract_x
 _atom_site_fract_y
 _atom_site_fract_z
 _atom_site_occupancy
  Ta  Ta0  1  0.227937  0.438603  0.475437  1
  Ta  Ta1  1  0.561397  0.772063  0.524563  1
  Ta  Ta2  1  0.105773  0.894227  0.000000  1
  Ta  Ta3  1  0.894526  0.105474  0.000000  1
  Nb  Nb4  1  0.773953  0.560083  0.525107  1
  Nb  Nb5  1  0.439917  0.226047  0.474893  1
  Cl  Cl6  1  0.667356  0.477770  0.741776  1
  Cl  Cl7  1  0.522230  0.332644  0.258224  1
  Cl  Cl8  1  0.331929  0.522621  0.257626  1
  Cl  Cl9  1  0.477379  0.668071  0.742374  1
  Cl  Cl10  1  0.796040  0.433174  0.304396  1
  Cl  Cl11  1  0.566826  0.203960  0.695604  1
  Cl  Cl12  1  0.952266  0.952173  0.204917  1
  Cl  Cl13  1  0.047827  0.047734  0.795083  1
  Cl  Cl14  1  0.766534  0.128620  0.225389  1
  Cl  Cl15  1  0.871380  0.233466  0.774611  1
  Cl  Cl16  1  0.233616  0.871182  0.774681  1
  Cl  Cl17  1  0.128818  0.766384  0.225319  1
  Cl  Cl18  1  0.811702  0.001544  0.797751  1
  Cl  Cl19  1  0.998456  0.188298  0.202249  1
  Cl  Cl20  1  0.188217  0.998566  0.202132  1
  Cl  Cl21  1  0.001434  0.811783  0.797868  1
  Cl  Cl22  1  0.713585  0.714514  0.722360  1
  Cl  Cl23  1  0.285486  0.286415  0.277640  1
  Cl  Cl24  1  0.537387  0.899684  0.741884  1
  Cl  Cl25  1  0.100316  0.462613  0.258116  1
  Cl  Cl26  1  0.462161  0.099126  0.254676  1
  Cl  Cl27  1  0.900874  0.537839  0.745324  1
  Cl  Cl28  1  0.665838  0.856382  0.307869  1
  Cl  Cl29  1  0.143618  0.334162  0.692131  1
  Cl  Cl30  1  0.333497  0.144261  0.692637  1
  Cl  Cl31  1  0.855739  0.666503  0.307363  1
  Cl  Cl32  1  0.619030  0.620278  0.327346  1
  Cl  Cl33  1  0.379722  0.380970  0.672654  1
  Cl  Cl34  1  0.433827  0.796592  0.307732  1
  Cl  Cl35  1  0.203408  0.566173  0.692268  1
