# generated using pymatgen
data_Tb8Hf9Nb(Si8W)2
_symmetry_space_group_name_H-M   'P 1'
_cell_length_a   7.22026867
_cell_length_b   7.22026877
_cell_length_c   13.22303808
_cell_angle_alpha   90.06574214
_cell_angle_beta   90.06574151
_cell_angle_gamma   90.12823333
_symmetry_Int_Tables_number   1
_chemical_formula_structural   Tb8Hf9Nb(Si8W)2
_chemical_formula_sum   'Tb8 Hf9 Nb1 Si16 W2'
_cell_volume   689.34449236
_cell_formula_units_Z   1
loop_
 _symmetry_equiv_pos_site_id
 _symmetry_equiv_pos_as_xyz
  1  'x, y, z'
loop_
 _atom_site_type_symbol
 _atom_site_label
 _atom_site_symmetry_multiplicity
 _atom_site_fract_x
 _atom_site_fract_y
 _atom_site_fract_z
 _atom_site_occupancy
  Tb  Tb0  1  0.999081  0.343280  0.215004  1
  Tb  Tb1  1  0.002927  0.657100  0.714378  1
  Tb  Tb2  1  0.155055  0.499211  0.464863  1
  Tb  Tb3  1  0.500789  0.844945  0.035137  1
  Tb  Tb4  1  0.845665  0.501601  0.967166  1
  Tb  Tb5  1  0.498399  0.154335  0.532834  1
  Tb  Tb6  1  0.342900  0.997073  0.785622  1
  Tb  Tb7  1  0.656720  0.000919  0.284996  1
  Hf  Hf8  1  0.675553  0.324447  0.750000  1
  Hf  Hf9  1  0.146555  0.993088  0.374613  1
  Hf  Hf10  1  0.854300  0.005037  0.876656  1
  Hf  Hf11  1  0.506841  0.650612  0.622069  1
  Hf  Hf12  1  0.349388  0.493159  0.877931  1
  Hf  Hf13  1  0.492649  0.351542  0.124622  1
  Hf  Hf14  1  0.648458  0.507351  0.375378  1
  Hf  Hf15  1  0.994963  0.145700  0.623344  1
  Hf  Hf16  1  0.006912  0.853445  0.125387  1
  Nb  Nb17  1  0.324195  0.675805  0.250000  1
  Si  Si18  1  0.361592  0.295904  0.316735  1
  Si  Si19  1  0.637234  0.704843  0.817262  1
  Si  Si20  1  0.203432  0.861991  0.566204  1
  Si  Si21  1  0.138009  0.796568  0.933796  1
  Si  Si22  1  0.797220  0.137879  0.067036  1
  Si  Si23  1  0.862121  0.202780  0.432964  1
  Si  Si24  1  0.295157  0.362766  0.682738  1
  Si  Si25  1  0.704096  0.638408  0.183265  1
  Si  Si26  1  0.295443  0.051048  0.183664  1
  Si  Si27  1  0.705175  0.948299  0.682295  1
  Si  Si28  1  0.451393  0.796069  0.434154  1
  Si  Si29  1  0.203931  0.548607  0.065846  1
  Si  Si30  1  0.546596  0.203458  0.936306  1
  Si  Si31  1  0.796542  0.453404  0.563694  1
  Si  Si32  1  0.051701  0.294825  0.817705  1
  Si  Si33  1  0.948952  0.704557  0.316336  1
  W  W34  1  0.176417  0.176359  0.000546  1
  W  W35  1  0.823641  0.823583  0.499454  1
