# generated using pymatgen
data_CeHo3(B6Os)2
_symmetry_space_group_name_H-M   'P 1'
_cell_length_a   3.66885800
_cell_length_b   9.16728803
_cell_length_c   11.53561840
_cell_angle_alpha   90.08872941
_cell_angle_beta   90.00000000
_cell_angle_gamma   90.00000000
_symmetry_Int_Tables_number   1
_chemical_formula_structural   CeHo3(B6Os)2
_chemical_formula_sum   'Ce2 Ho6 B24 Os4'
_cell_volume   387.98250252
_cell_formula_units_Z   2
loop_
 _symmetry_equiv_pos_site_id
 _symmetry_equiv_pos_as_xyz
  1  'x, y, z'
loop_
 _atom_site_type_symbol
 _atom_site_label
 _atom_site_symmetry_multiplicity
 _atom_site_fract_x
 _atom_site_fract_y
 _atom_site_fract_z
 _atom_site_occupancy
  Ce  Ce0  1  0.000000  0.322535  0.413076  1
  Ce  Ce1  1  0.000000  0.677465  0.586924  1
  Ho  Ho2  1  0.000000  0.821882  0.085712  1
  Ho  Ho3  1  0.000000  0.178118  0.914288  1
  Ho  Ho4  1  0.000000  0.944908  0.372965  1
  Ho  Ho5  1  0.000000  0.055092  0.627035  1
  Ho  Ho6  1  0.000000  0.444177  0.125257  1
  Ho  Ho7  1  0.000000  0.555823  0.874743  1
  B  B8  1  0.500000  0.554528  0.431498  1
  B  B9  1  0.500000  0.445472  0.568502  1
  B  B10  1  0.500000  0.053731  0.066614  1
  B  B11  1  0.500000  0.946269  0.933386  1
  B  B12  1  0.500000  0.749229  0.418582  1
  B  B13  1  0.500000  0.250771  0.581418  1
  B  B14  1  0.500000  0.247660  0.079039  1
  B  B15  1  0.500000  0.752340  0.920961  1
  B  B16  1  0.500000  0.792183  0.265072  1
  B  B17  1  0.500000  0.207817  0.734928  1
  B  B18  1  0.500000  0.291050  0.231849  1
  B  B19  1  0.500000  0.708950  0.768151  1
  B  B20  1  0.500000  0.632861  0.184094  1
  B  B21  1  0.500000  0.367139  0.815906  1
  B  B22  1  0.500000  0.131642  0.313617  1
  B  B23  1  0.500000  0.868358  0.686383  1
  B  B24  1  0.500000  0.982981  0.212147  1
  B  B25  1  0.500000  0.017019  0.787853  1
  B  B26  1  0.500000  0.484948  0.285020  1
  B  B27  1  0.500000  0.515052  0.714980  1
  B  B28  1  0.500000  0.610756  0.030504  1
  B  B29  1  0.500000  0.389244  0.969496  1
  B  B30  1  0.500000  0.107173  0.470443  1
  B  B31  1  0.500000  0.892827  0.529557  1
  Os  Os32  1  0.000000  0.639088  0.321099  1
  Os  Os33  1  0.000000  0.360912  0.678901  1
  Os  Os34  1  0.000000  0.137710  0.178894  1
  Os  Os35  1  0.000000  0.862290  0.821106  1
