# generated using pymatgen
data_TiV2(Si4Tc)3
_symmetry_space_group_name_H-M   'P 1'
_cell_length_a   12.99438300
_cell_length_b   4.55438015
_cell_length_c   4.56555773
_cell_angle_alpha   60.29227210
_cell_angle_beta   90.00000000
_cell_angle_gamma   90.00000000
_symmetry_Int_Tables_number   1
_chemical_formula_structural   TiV2(Si4Tc)3
_chemical_formula_sum   'Ti1 V2 Si12 Tc3'
_cell_volume   234.68262870
_cell_formula_units_Z   1
loop_
 _symmetry_equiv_pos_site_id
 _symmetry_equiv_pos_as_xyz
  1  'x, y, z'
loop_
 _atom_site_type_symbol
 _atom_site_label
 _atom_site_symmetry_multiplicity
 _atom_site_fract_x
 _atom_site_fract_y
 _atom_site_fract_z
 _atom_site_occupancy
  Ti  Ti0  1  0.583327  0.500000  0.500000  1
  V  V1  1  0.248867  0.000000  0.500000  1
  V  V2  1  0.082225  0.500000  0.500000  1
  Si  Si3  1  0.921095  0.833210  0.328826  1
  Si  Si4  1  0.413675  0.835007  0.329077  1
  Si  Si5  1  0.749209  0.327628  0.835696  1
  Si  Si6  1  0.247339  0.325140  0.832797  1
  Si  Si7  1  0.581811  0.834661  0.834027  1
  Si  Si8  1  0.086585  0.837801  0.835584  1
  Si  Si9  1  0.921095  0.166790  0.671174  1
  Si  Si10  1  0.413675  0.164993  0.670923  1
  Si  Si11  1  0.749209  0.672372  0.164304  1
  Si  Si12  1  0.247339  0.674860  0.167203  1
  Si  Si13  1  0.581811  0.165339  0.165973  1
  Si  Si14  1  0.086585  0.162199  0.164416  1
  Tc  Tc15  1  0.917016  0.500000  0.000000  1
  Tc  Tc16  1  0.411288  0.500000  0.000000  1
  Tc  Tc17  1  0.757848  0.000000  0.500000  1
