# generated using pymatgen
data_Yb2Lu3Re2C7
_symmetry_space_group_name_H-M   'P 1'
_cell_length_a   8.18885211
_cell_length_b   8.39830652
_cell_length_c   3.34239400
_cell_angle_alpha   90.00000000
_cell_angle_beta   90.00000000
_cell_angle_gamma   123.87675603
_symmetry_Int_Tables_number   1
_chemical_formula_structural   Yb2Lu3Re2C7
_chemical_formula_sum   'Yb2 Lu3 Re2 C7'
_cell_volume   190.84256844
_cell_formula_units_Z   1
loop_
 _symmetry_equiv_pos_site_id
 _symmetry_equiv_pos_as_xyz
  1  'x, y, z'
loop_
 _atom_site_type_symbol
 _atom_site_label
 _atom_site_symmetry_multiplicity
 _atom_site_fract_x
 _atom_site_fract_y
 _atom_site_fract_z
 _atom_site_occupancy
  Yb  Yb0  1  0.307191  0.066352  0.500000  1
  Yb  Yb1  1  0.692809  0.933648  0.500000  1
  Lu  Lu2  1  0.071752  0.339734  0.500000  1
  Lu  Lu3  1  0.928248  0.660266  0.500000  1
  Lu  Lu4  1  0.500000  0.500000  0.000000  1
  Re  Re5  1  0.296030  0.716431  0.000000  1
  Re  Re6  1  0.703970  0.283569  0.000000  1
  C  C7  1  0.154481  0.183404  0.000000  1
  C  C8  1  0.845519  0.816596  0.000000  1
  C  C9  1  0.000000  0.000000  0.000000  1
  C  C10  1  0.380211  0.625740  0.500000  1
  C  C11  1  0.619789  0.374260  0.500000  1
  C  C12  1  0.500000  0.000000  0.000000  1
  C  C13  1  0.000000  0.500000  0.000000  1
