# generated using pymatgen
data_Co7(NiSe4)2
_symmetry_space_group_name_H-M   'P 1'
_cell_length_a   7.32791428
_cell_length_b   7.33213719
_cell_length_c   7.33213810
_cell_angle_alpha   60.05968442
_cell_angle_beta   60.01905572
_cell_angle_gamma   60.01905252
_symmetry_Int_Tables_number   1
_chemical_formula_structural   Co7(NiSe4)2
_chemical_formula_sum   'Co7 Ni2 Se8'
_cell_volume   278.77077597
_cell_formula_units_Z   1
loop_
 _symmetry_equiv_pos_site_id
 _symmetry_equiv_pos_as_xyz
  1  'x, y, z'
loop_
 _atom_site_type_symbol
 _atom_site_label
 _atom_site_symmetry_multiplicity
 _atom_site_fract_x
 _atom_site_fract_y
 _atom_site_fract_z
 _atom_site_occupancy
  Co  Co0  1  0.500000  0.496645  0.503355  1
  Co  Co1  1  0.630141  0.123954  0.123332  1
  Co  Co2  1  0.122574  0.123954  0.123332  1
  Co  Co3  1  0.369859  0.876668  0.876046  1
  Co  Co4  1  0.877426  0.876668  0.876046  1
  Co  Co5  1  0.877651  0.876997  0.367700  1
  Co  Co6  1  0.122349  0.632300  0.123003  1
  Ni  Ni7  1  0.876528  0.372042  0.874901  1
  Ni  Ni8  1  0.123472  0.125099  0.627958  1
  Se  Se9  1  0.748441  0.757004  0.746114  1
  Se  Se10  1  0.251559  0.253886  0.242996  1
  Se  Se11  1  0.268710  0.259891  0.740109  1
  Se  Se12  1  0.263839  0.732128  0.740193  1
  Se  Se13  1  0.736161  0.259807  0.267872  1
  Se  Se14  1  0.263538  0.736533  0.263467  1
  Se  Se15  1  0.731290  0.259891  0.740109  1
  Se  Se16  1  0.736462  0.736533  0.263467  1
