# generated using pymatgen
data_SmHf2F11
_symmetry_space_group_name_H-M   'P 1'
_cell_length_a   8.37102115
_cell_length_b   8.37102124
_cell_length_c   8.37102093
_cell_angle_alpha   124.68883562
_cell_angle_beta   106.63099299
_cell_angle_gamma   98.31840522
_symmetry_Int_Tables_number   1
_chemical_formula_structural   SmHf2F11
_chemical_formula_sum   'Sm2 Hf4 F22'
_cell_volume   425.48168903
_cell_formula_units_Z   2
loop_
 _symmetry_equiv_pos_site_id
 _symmetry_equiv_pos_as_xyz
  1  'x, y, z'
loop_
 _atom_site_type_symbol
 _atom_site_label
 _atom_site_symmetry_multiplicity
 _atom_site_fract_x
 _atom_site_fract_y
 _atom_site_fract_z
 _atom_site_occupancy
  Sm  Sm0  1  0.750000  0.250000  0.500000  1
  Sm  Sm1  1  0.250000  0.750000  0.500000  1
  Hf  Hf2  1  0.681052  0.635297  0.316350  1
  Hf  Hf3  1  0.318948  0.364703  0.683650  1
  Hf  Hf4  1  0.181052  0.864703  0.045755  1
  Hf  Hf5  1  0.818948  0.135297  0.954245  1
  F  F6  1  0.706471  0.895789  0.341723  1
  F  F7  1  0.293529  0.104211  0.658277  1
  F  F8  1  0.554066  0.364748  0.658277  1
  F  F9  1  0.945934  0.604211  0.810681  1
  F  F10  1  0.445934  0.635252  0.341723  1
  F  F11  1  0.054066  0.395789  0.189319  1
  F  F12  1  0.793529  0.135252  0.189319  1
  F  F13  1  0.206471  0.864748  0.810681  1
  F  F14  1  0.500000  0.500000  0.000000  1
  F  F15  1  0.000000  0.000000  0.000000  1
  F  F16  1  0.780730  0.870378  0.651107  1
  F  F17  1  0.219270  0.129622  0.348893  1
  F  F18  1  0.280730  0.629622  0.910352  1
  F  F19  1  0.719270  0.370378  0.089648  1
  F  F20  1  0.953230  0.737940  0.417591  1
  F  F21  1  0.046770  0.262060  0.582409  1
  F  F22  1  0.320348  0.535639  0.582409  1
  F  F23  1  0.179652  0.762060  0.215290  1
  F  F24  1  0.679652  0.464361  0.417591  1
  F  F25  1  0.820348  0.237940  0.784710  1
  F  F26  1  0.546770  0.964361  0.784710  1
  F  F27  1  0.453230  0.035639  0.215290  1
