# generated using pymatgen
data_K2Hf(AsS3)2
_symmetry_space_group_name_H-M   'P 1'
_cell_length_a   6.75996700
_cell_length_b   6.75996749
_cell_length_c   7.34456400
_cell_angle_alpha   90.00000000
_cell_angle_beta   90.00000000
_cell_angle_gamma   119.99999273
_symmetry_Int_Tables_number   1
_chemical_formula_structural   K2Hf(AsS3)2
_chemical_formula_sum   'K2 Hf1 As2 S6'
_cell_volume   290.66039942
_cell_formula_units_Z   1
loop_
 _symmetry_equiv_pos_site_id
 _symmetry_equiv_pos_as_xyz
  1  'x, y, z'
loop_
 _atom_site_type_symbol
 _atom_site_label
 _atom_site_symmetry_multiplicity
 _atom_site_fract_x
 _atom_site_fract_y
 _atom_site_fract_z
 _atom_site_occupancy
  K  K0  1  0.333333  0.666667  0.583118  1
  K  K1  1  0.666667  0.333333  0.416882  1
  Hf  Hf2  1  0.000000  0.000000  0.000000  1
  As  As3  1  0.333333  0.666667  0.057728  1
  As  As4  1  0.666667  0.333333  0.942272  1
  S  S5  1  0.248612  0.912388  0.211149  1
  S  S6  1  0.912388  0.663777  0.788851  1
  S  S7  1  0.751388  0.087612  0.788851  1
  S  S8  1  0.336223  0.248612  0.788851  1
  S  S9  1  0.663777  0.751388  0.211149  1
  S  S10  1  0.087612  0.336223  0.211149  1
