# generated using pymatgen
data_MgCuBi3Ru3O14
_symmetry_space_group_name_H-M   'P 1'
_cell_length_a   7.18651074
_cell_length_b   7.18651054
_cell_length_c   7.18651176
_cell_angle_alpha   61.38182353
_cell_angle_beta   61.38183107
_cell_angle_gamma   61.38183990
_symmetry_Int_Tables_number   1
_chemical_formula_structural   MgCuBi3Ru3O14
_chemical_formula_sum   'Mg1 Cu1 Bi3 Ru3 O14'
_cell_volume   270.59299996
_cell_formula_units_Z   1
loop_
 _symmetry_equiv_pos_site_id
 _symmetry_equiv_pos_as_xyz
  1  'x, y, z'
loop_
 _atom_site_type_symbol
 _atom_site_label
 _atom_site_symmetry_multiplicity
 _atom_site_fract_x
 _atom_site_fract_y
 _atom_site_fract_z
 _atom_site_occupancy
  Mg  Mg0  1  0.000000  0.000000  0.000000  1
  Cu  Cu1  1  0.500000  0.500000  0.500000  1
  Bi  Bi2  1  0.000000  0.500000  0.500000  1
  Bi  Bi3  1  0.500000  0.500000  0.000000  1
  Bi  Bi4  1  0.500000  0.000000  0.500000  1
  Ru  Ru5  1  0.500000  0.000000  0.000000  1
  Ru  Ru6  1  0.000000  0.000000  0.500000  1
  Ru  Ru7  1  0.000000  0.500000  0.000000  1
  O  O8  1  0.926352  0.313696  0.313696  1
  O  O9  1  0.352427  0.905444  0.905444  1
  O  O10  1  0.313696  0.313696  0.926352  1
  O  O11  1  0.905444  0.905444  0.352427  1
  O  O12  1  0.905444  0.352427  0.905444  1
  O  O13  1  0.313696  0.926352  0.313696  1
  O  O14  1  0.073648  0.686304  0.686304  1
  O  O15  1  0.647573  0.094556  0.094556  1
  O  O16  1  0.686304  0.686304  0.073648  1
  O  O17  1  0.094556  0.094556  0.647573  1
  O  O18  1  0.094556  0.647573  0.094556  1
  O  O19  1  0.686304  0.073648  0.686304  1
  O  O20  1  0.393045  0.393045  0.393045  1
  O  O21  1  0.606955  0.606955  0.606955  1
