# generated using pymatgen
data_EuAl2GaCu
_symmetry_space_group_name_H-M   'P 1'
_cell_length_a   6.14918291
_cell_length_b   6.14918309
_cell_length_c   6.14918251
_cell_angle_alpha   139.37178790
_cell_angle_beta   139.37178778
_cell_angle_gamma   58.80840271
_symmetry_Int_Tables_number   1
_chemical_formula_structural   EuAl2GaCu
_chemical_formula_sum   'Eu1 Al2 Ga1 Cu1'
_cell_volume   97.65506104
_cell_formula_units_Z   1
loop_
 _symmetry_equiv_pos_site_id
 _symmetry_equiv_pos_as_xyz
  1  'x, y, z'
loop_
 _atom_site_type_symbol
 _atom_site_label
 _atom_site_symmetry_multiplicity
 _atom_site_fract_x
 _atom_site_fract_y
 _atom_site_fract_z
 _atom_site_occupancy
  Eu  Eu0  1  0.995491  0.995491  0.000000  1
  Al  Al1  1  0.742768  0.242768  0.500000  1
  Al  Al2  1  0.242768  0.742768  0.500000  1
  Ga  Ga3  1  0.395691  0.395691  0.000000  1
  Cu  Cu4  1  0.623282  0.623282  0.000000  1
