# generated using pymatgen
data_DyEr2SiPd5
_symmetry_space_group_name_H-M   'P 1'
_cell_length_a   8.24378351
_cell_length_b   8.24378280
_cell_length_c   8.24378900
_cell_angle_alpha   128.09908380
_cell_angle_beta   126.05064784
_cell_angle_gamma   78.13980676
_symmetry_Int_Tables_number   1
_chemical_formula_structural   DyEr2SiPd5
_chemical_formula_sum   'Dy2 Er4 Si2 Pd10'
_cell_volume   345.34564308
_cell_formula_units_Z   2
loop_
 _symmetry_equiv_pos_site_id
 _symmetry_equiv_pos_as_xyz
  1  'x, y, z'
loop_
 _atom_site_type_symbol
 _atom_site_label
 _atom_site_symmetry_multiplicity
 _atom_site_fract_x
 _atom_site_fract_y
 _atom_site_fract_z
 _atom_site_occupancy
  Dy  Dy0  1  0.384648  0.249992  0.134640  1
  Dy  Dy1  1  0.615352  0.750008  0.865360  1
  Er  Er2  1  0.225594  0.449973  0.775623  1
  Er  Er3  1  0.774406  0.550027  0.224377  1
  Er  Er4  1  0.825649  0.050029  0.775623  1
  Er  Er5  1  0.174351  0.949971  0.224377  1
  Si  Si6  1  0.778325  0.250005  0.528329  1
  Si  Si7  1  0.221675  0.749995  0.471671  1
  Pd  Pd8  1  0.165756  0.398127  0.354618  1
  Pd  Pd9  1  0.834298  0.188878  0.232397  1
  Pd  Pd10  1  0.456481  0.101901  0.767603  1
  Pd  Pd11  1  0.543509  0.311138  0.645382  1
  Pd  Pd12  1  0.000000  0.500000  0.000000  1
  Pd  Pd13  1  0.000000  0.000000  0.500000  1
  Pd  Pd14  1  0.456491  0.688862  0.354618  1
  Pd  Pd15  1  0.543519  0.898099  0.232397  1
  Pd  Pd16  1  0.165702  0.811122  0.767603  1
  Pd  Pd17  1  0.834244  0.601873  0.645382  1
