# generated using pymatgen
data_CePr2DyCdIr
_symmetry_space_group_name_H-M   'P 1'
_cell_length_a   9.86412236
_cell_length_b   9.86412216
_cell_length_c   9.86198600
_cell_angle_alpha   60.00716343
_cell_angle_beta   60.00716412
_cell_angle_gamma   59.98567609
_symmetry_Int_Tables_number   1
_chemical_formula_structural   CePr2DyCdIr
_chemical_formula_sum   'Ce4 Pr8 Dy4 Cd4 Ir4'
_cell_volume   678.52561597
_cell_formula_units_Z   4
loop_
 _symmetry_equiv_pos_site_id
 _symmetry_equiv_pos_as_xyz
  1  'x, y, z'
loop_
 _atom_site_type_symbol
 _atom_site_label
 _atom_site_symmetry_multiplicity
 _atom_site_fract_x
 _atom_site_fract_y
 _atom_site_fract_z
 _atom_site_occupancy
  Ce  Ce0  1  0.348521  0.348521  0.344025  1
  Ce  Ce1  1  0.348521  0.348521  0.958931  1
  Ce  Ce2  1  0.344025  0.958931  0.348521  1
  Ce  Ce3  1  0.958931  0.344025  0.348521  1
  Pr  Pr4  1  0.186199  0.186199  0.813801  1
  Pr  Pr5  1  0.813801  0.813801  0.186199  1
  Pr  Pr6  1  0.941442  0.558558  0.558558  1
  Pr  Pr7  1  0.558558  0.941442  0.941442  1
  Pr  Pr8  1  0.558558  0.941442  0.558558  1
  Pr  Pr9  1  0.941442  0.558558  0.941442  1
  Pr  Pr10  1  0.559519  0.559519  0.940481  1
  Pr  Pr11  1  0.940481  0.940481  0.559519  1
  Dy  Dy12  1  0.811073  0.188927  0.188927  1
  Dy  Dy13  1  0.188927  0.811073  0.811073  1
  Dy  Dy14  1  0.188927  0.811073  0.188927  1
  Dy  Dy15  1  0.811073  0.188927  0.811073  1
  Cd  Cd16  1  0.578364  0.578364  0.581005  1
  Cd  Cd17  1  0.578364  0.578364  0.262265  1
  Cd  Cd18  1  0.581005  0.262265  0.578364  1
  Cd  Cd19  1  0.262265  0.581005  0.578364  1
  Ir  Ir20  1  0.140831  0.140831  0.149098  1
  Ir  Ir21  1  0.140831  0.140831  0.569241  1
  Ir  Ir22  1  0.149098  0.569241  0.140831  1
  Ir  Ir23  1  0.569241  0.149098  0.140831  1
