# generated using pymatgen
data_Tb3Sb(AuCl6)4
_symmetry_space_group_name_H-M   'P 1'
_cell_length_a   8.05824949
_cell_length_b   10.01016642
_cell_length_c   14.01632775
_cell_angle_alpha   102.84960332
_cell_angle_beta   97.33939429
_cell_angle_gamma   113.18990422
_symmetry_Int_Tables_number   1
_chemical_formula_structural   Tb3Sb(AuCl6)4
_chemical_formula_sum   'Tb3 Sb1 Au4 Cl24'
_cell_volume   983.56385994
_cell_formula_units_Z   1
loop_
 _symmetry_equiv_pos_site_id
 _symmetry_equiv_pos_as_xyz
  1  'x, y, z'
loop_
 _atom_site_type_symbol
 _atom_site_label
 _atom_site_symmetry_multiplicity
 _atom_site_fract_x
 _atom_site_fract_y
 _atom_site_fract_z
 _atom_site_occupancy
  Tb  Tb0  1  0.030791  0.686366  0.128350  1
  Tb  Tb1  1  0.418123  0.077407  0.375848  1
  Tb  Tb2  1  0.976519  0.319386  0.873618  1
  Sb  Sb3  1  0.587686  0.946814  0.622540  1
  Au  Au4  1  0.288600  0.631323  0.766876  1
  Au  Au5  1  0.497511  0.496182  0.497856  1
  Au  Au6  1  0.711126  0.366575  0.236611  1
  Au  Au7  1  0.999417  0.999214  0.999091  1
  Cl  Cl8  1  0.791943  0.103583  0.973165  1
  Cl  Cl9  1  0.716711  0.149885  0.267445  1
  Cl  Cl10  1  0.277347  0.846885  0.740185  1
  Cl  Cl11  1  0.779580  0.789120  0.029864  1
  Cl  Cl12  1  0.621801  0.195902  0.738863  1
  Cl  Cl13  1  0.293146  0.409359  0.790856  1
  Cl  Cl14  1  0.706005  0.586284  0.210185  1
  Cl  Cl15  1  0.304309  0.614756  0.493167  1
  Cl  Cl16  1  0.220520  0.209460  0.968937  1
  Cl  Cl17  1  0.751275  0.726408  0.525638  1
  Cl  Cl18  1  0.208784  0.896936  0.025825  1
  Cl  Cl19  1  0.724982  0.056095  0.488968  1
  Cl  Cl20  1  0.593519  0.722574  0.755270  1
  Cl  Cl21  1  0.934946  0.063164  0.729658  1
  Cl  Cl22  1  0.245470  0.260959  0.468337  1
  Cl  Cl23  1  0.375745  0.810571  0.257167  1
  Cl  Cl24  1  0.978306  0.535047  0.776452  1
  Cl  Cl25  1  0.774120  0.434994  0.976103  1
  Cl  Cl26  1  0.229714  0.565564  0.024581  1
  Cl  Cl27  1  0.018341  0.462655  0.224648  1
  Cl  Cl28  1  0.404000  0.268561  0.249445  1
  Cl  Cl29  1  0.288941  0.955691  0.516732  1
  Cl  Cl30  1  0.687406  0.370627  0.499876  1
  Cl  Cl31  1  0.063317  0.941654  0.267846  1
