# generated using pymatgen
data_Eu2As2Rh2OF
_symmetry_space_group_name_H-M   'P 1'
_cell_length_a   4.09181500
_cell_length_b   4.09181500
_cell_length_c   8.63930700
_cell_angle_alpha   90.00000000
_cell_angle_beta   90.00000000
_cell_angle_gamma   90.00000000
_symmetry_Int_Tables_number   1
_chemical_formula_structural   Eu2As2Rh2OF
_chemical_formula_sum   'Eu2 As2 Rh2 O1 F1'
_cell_volume   144.64748509
_cell_formula_units_Z   1
loop_
 _symmetry_equiv_pos_site_id
 _symmetry_equiv_pos_as_xyz
  1  'x, y, z'
loop_
 _atom_site_type_symbol
 _atom_site_label
 _atom_site_symmetry_multiplicity
 _atom_site_fract_x
 _atom_site_fract_y
 _atom_site_fract_z
 _atom_site_occupancy
  Eu  Eu0  1  0.499999  0.000000  0.145375  1
  Eu  Eu1  1  0.000000  0.499999  0.854624  1
  As  As2  1  0.000000  0.499999  0.340370  1
  As  As3  1  0.499999  0.000000  0.659630  1
  Rh  Rh4  1  0.000000  0.000000  0.500000  1
  Rh  Rh5  1  0.499999  0.499999  0.500000  1
  O  O6  1  0.000000  0.000000  0.000000  1
  F  F7  1  0.499999  0.499999  0.000000  1
