# generated using pymatgen
data_Y4Ho2Tm6CdCo5
_symmetry_space_group_name_H-M   'P 1'
_cell_length_a   8.24856641
_cell_length_b   8.25320854
_cell_length_c   8.25298340
_cell_angle_alpha   110.12656983
_cell_angle_beta   110.82553920
_cell_angle_gamma   107.49624976
_symmetry_Int_Tables_number   1
_chemical_formula_structural   Y4Ho2Tm6CdCo5
_chemical_formula_sum   'Y4 Ho2 Tm6 Cd1 Co5'
_cell_volume   432.01667551
_cell_formula_units_Z   1
loop_
 _symmetry_equiv_pos_site_id
 _symmetry_equiv_pos_as_xyz
  1  'x, y, z'
loop_
 _atom_site_type_symbol
 _atom_site_label
 _atom_site_symmetry_multiplicity
 _atom_site_fract_x
 _atom_site_fract_y
 _atom_site_fract_z
 _atom_site_occupancy
  Y  Y0  1  0.812387  0.709594  0.523002  1
  Y  Y1  1  0.187613  0.290406  0.476998  1
  Y  Y2  1  0.187607  0.710576  0.897207  1
  Y  Y3  1  0.812393  0.289424  0.102793  1
  Ho  Ho4  1  0.981967  0.790454  0.191566  1
  Ho  Ho5  1  0.018033  0.209546  0.808434  1
  Tm  Tm6  1  0.684556  0.377481  0.691379  1
  Tm  Tm7  1  0.315444  0.622519  0.308621  1
  Tm  Tm8  1  0.684649  0.993298  0.307078  1
  Tm  Tm9  1  0.315351  0.006702  0.692922  1
  Tm  Tm10  1  0.598351  0.790420  0.807919  1
  Tm  Tm11  1  0.401649  0.209580  0.192081  1
  Cd  Cd12  1  0.500000  0.500000  0.000000  1
  Co  Co13  1  0.621317  0.999854  0.621589  1
  Co  Co14  1  0.378683  0.000146  0.378411  1
  Co  Co15  1  0.113363  0.613205  0.500153  1
  Co  Co16  1  0.886637  0.386795  0.499847  1
  Co  Co17  1  0.000000  0.000000  0.000000  1
