# generated using pymatgen
data_Er3Sc3(B2Ir5)2
_symmetry_space_group_name_H-M   'P 1'
_cell_length_a   3.16066000
_cell_length_b   9.70583937
_cell_length_c   9.70583937
_cell_angle_alpha   89.47113976
_cell_angle_beta   90.00000000
_cell_angle_gamma   90.00000000
_symmetry_Int_Tables_number   1
_chemical_formula_structural   Er3Sc3(B2Ir5)2
_chemical_formula_sum   'Er3 Sc3 B4 Ir10'
_cell_volume   297.73197471
_cell_formula_units_Z   1
loop_
 _symmetry_equiv_pos_site_id
 _symmetry_equiv_pos_as_xyz
  1  'x, y, z'
loop_
 _atom_site_type_symbol
 _atom_site_label
 _atom_site_symmetry_multiplicity
 _atom_site_fract_x
 _atom_site_fract_y
 _atom_site_fract_z
 _atom_site_occupancy
  Er  Er0  1  0.000000  0.176610  0.677463  1
  Er  Er1  1  0.000000  0.822537  0.323390  1
  Er  Er2  1  0.000000  0.324561  0.175439  1
  Sc  Sc3  1  0.000000  0.676689  0.823311  1
  Sc  Sc4  1  0.000000  0.999689  0.999626  1
  Sc  Sc5  1  0.000000  0.500374  0.500311  1
  B  B6  1  0.000000  0.621091  0.117395  1
  B  B7  1  0.000000  0.382605  0.878909  1
  B  B8  1  0.000000  0.877246  0.622754  1
  B  B9  1  0.000000  0.119128  0.380872  1
  Ir  Ir10  1  0.500000  0.069615  0.224416  1
  Ir  Ir11  1  0.500000  0.924553  0.778452  1
  Ir  Ir12  1  0.500000  0.775496  0.065110  1
  Ir  Ir13  1  0.500000  0.434890  0.724504  1
  Ir  Ir14  1  0.500000  0.226046  0.930635  1
  Ir  Ir15  1  0.500000  0.569365  0.273954  1
  Ir  Ir16  1  0.500000  0.721548  0.575447  1
  Ir  Ir17  1  0.500000  0.275584  0.430385  1
  Ir  Ir18  1  0.500000  0.998269  0.501731  1
  Ir  Ir19  1  0.500000  0.504105  0.995895  1
