# generated using pymatgen
data_Hf3Si3Ni4P
_symmetry_space_group_name_H-M   'P 1'
_cell_length_a   7.32314373
_cell_length_b   7.32314341
_cell_length_c   7.32314304
_cell_angle_alpha   149.52465176
_cell_angle_beta   128.93786870
_cell_angle_gamma   60.63807057
_symmetry_Int_Tables_number   1
_chemical_formula_structural   Hf3Si3Ni4P
_chemical_formula_sum   'Hf3 Si3 Ni4 P1'
_cell_volume   153.61025352
_cell_formula_units_Z   1
loop_
 _symmetry_equiv_pos_site_id
 _symmetry_equiv_pos_as_xyz
  1  'x, y, z'
loop_
 _atom_site_type_symbol
 _atom_site_label
 _atom_site_symmetry_multiplicity
 _atom_site_fract_x
 _atom_site_fract_y
 _atom_site_fract_z
 _atom_site_occupancy
  Hf  Hf0  1  0.371887  0.372929  0.998959  1
  Hf  Hf1  1  0.626030  0.627071  0.998959  1
  Hf  Hf2  1  0.002482  0.499999  0.502481  1
  Si  Si3  1  0.784389  0.285203  0.499185  1
  Si  Si4  1  0.213982  0.714796  0.499184  1
  Si  Si5  1  0.694651  0.000000  0.694651  1
  Ni  Ni6  1  0.369414  0.171244  0.198169  1
  Ni  Ni7  1  0.026926  0.828756  0.198168  1
  Ni  Ni8  1  0.973435  0.171532  0.801903  1
  Ni  Ni9  1  0.630372  0.828468  0.801902  1
  P  P10  1  0.306435  0.000000  0.306435  1
