# generated using pymatgen
data_HgPHS2
_symmetry_space_group_name_H-M   'P 1'
_cell_length_a   6.30688779
_cell_length_b   8.25172964
_cell_length_c   7.59258857
_cell_angle_alpha   106.38809229
_cell_angle_beta   89.84322027
_cell_angle_gamma   130.88335129
_symmetry_Int_Tables_number   1
_chemical_formula_structural   HgPHS2
_chemical_formula_sum   'Hg2 P2 H2 S4'
_cell_volume   277.44306896
_cell_formula_units_Z   2
loop_
 _symmetry_equiv_pos_site_id
 _symmetry_equiv_pos_as_xyz
  1  'x, y, z'
loop_
 _atom_site_type_symbol
 _atom_site_label
 _atom_site_symmetry_multiplicity
 _atom_site_fract_x
 _atom_site_fract_y
 _atom_site_fract_z
 _atom_site_occupancy
  Hg  Hg0  1  0.214676  0.854904  0.478079  1
  Hg  Hg1  1  0.785324  0.145096  0.521921  1
  P  P2  1  0.566273  0.553067  0.658963  1
  P  P3  1  0.433727  0.446933  0.341037  1
  H  H4  1  0.412416  0.255697  0.280780  1
  H  H5  1  0.587584  0.744303  0.719220  1
  S  S6  1  0.049095  0.345319  0.265068  1
  S  S7  1  0.950905  0.654681  0.734932  1
  S  S8  1  0.244805  0.302587  0.743547  1
  S  S9  1  0.755195  0.697413  0.256453  1
