# generated using pymatgen
data_Ho2Lu6Ga3Ir
_symmetry_space_group_name_H-M   'P 1'
_cell_length_a   9.87532428
_cell_length_b   9.87532534
_cell_length_c   6.94515026
_cell_angle_alpha   89.97810141
_cell_angle_beta   90.02190278
_cell_angle_gamma   119.91673420
_symmetry_Int_Tables_number   1
_chemical_formula_structural   Ho2Lu6Ga3Ir
_chemical_formula_sum   'Ho4 Lu12 Ga6 Ir2'
_cell_volume   587.05500341
_cell_formula_units_Z   2
loop_
 _symmetry_equiv_pos_site_id
 _symmetry_equiv_pos_as_xyz
  1  'x, y, z'
loop_
 _atom_site_type_symbol
 _atom_site_label
 _atom_site_symmetry_multiplicity
 _atom_site_fract_x
 _atom_site_fract_y
 _atom_site_fract_z
 _atom_site_occupancy
  Ho  Ho0  1  0.932667  0.466423  0.705751  1
  Ho  Ho1  1  0.533577  0.067333  0.705751  1
  Ho  Ho2  1  0.999928  0.000072  0.232313  1
  Ho  Ho3  1  0.999895  0.000105  0.732581  1
  Lu  Lu4  1  0.172029  0.827971  0.509783  1
  Lu  Lu5  1  0.655564  0.826866  0.510423  1
  Lu  Lu6  1  0.173134  0.344436  0.510423  1
  Lu  Lu7  1  0.827651  0.172349  0.013845  1
  Lu  Lu8  1  0.344322  0.172790  0.012669  1
  Lu  Lu9  1  0.827210  0.655678  0.012669  1
  Lu  Lu10  1  0.333799  0.666201  0.835903  1
  Lu  Lu11  1  0.666215  0.333785  0.335567  1
  Lu  Lu12  1  0.465140  0.534860  0.204704  1
  Lu  Lu13  1  0.070410  0.535316  0.205075  1
  Lu  Lu14  1  0.464684  0.929590  0.205075  1
  Lu  Lu15  1  0.534506  0.465494  0.705076  1
  Ga  Ga16  1  0.163762  0.836238  0.959045  1
  Ga  Ga17  1  0.672405  0.836553  0.958102  1
  Ga  Ga18  1  0.163447  0.327595  0.958102  1
  Ga  Ga19  1  0.836878  0.163122  0.457173  1
  Ga  Ga20  1  0.327326  0.163746  0.457714  1
  Ga  Ga21  1  0.836254  0.672674  0.457714  1
  Ir  Ir22  1  0.333455  0.666545  0.443476  1
  Ir  Ir23  1  0.665744  0.334256  0.945109  1
