# generated using pymatgen
data_Lu12Co4CuSn
_symmetry_space_group_name_H-M   'P 1'
_cell_length_a   8.08225322
_cell_length_b   8.08225436
_cell_length_c   8.08225318
_cell_angle_alpha   111.81588622
_cell_angle_beta   110.21396241
_cell_angle_gamma   106.43024497
_symmetry_Int_Tables_number   1
_chemical_formula_structural   Lu12Co4CuSn
_chemical_formula_sum   'Lu12 Co4 Cu1 Sn1'
_cell_volume   405.48364526
_cell_formula_units_Z   1
loop_
 _symmetry_equiv_pos_site_id
 _symmetry_equiv_pos_as_xyz
  1  'x, y, z'
loop_
 _atom_site_type_symbol
 _atom_site_label
 _atom_site_symmetry_multiplicity
 _atom_site_fract_x
 _atom_site_fract_y
 _atom_site_fract_z
 _atom_site_occupancy
  Lu  Lu0  1  0.422873  0.225191  0.197682  1
  Lu  Lu1  1  0.577127  0.774809  0.802318  1
  Lu  Lu2  1  0.027509  0.225191  0.802318  1
  Lu  Lu3  1  0.972491  0.774809  0.197682  1
  Lu  Lu4  1  0.183107  0.284039  0.467146  1
  Lu  Lu5  1  0.816893  0.715961  0.532854  1
  Lu  Lu6  1  0.183107  0.715961  0.899068  1
  Lu  Lu7  1  0.816893  0.284039  0.100932  1
  Lu  Lu8  1  0.322545  0.632846  0.310301  1
  Lu  Lu9  1  0.677455  0.367154  0.689699  1
  Lu  Lu10  1  0.322545  0.012243  0.689699  1
  Lu  Lu11  1  0.677455  0.987757  0.310301  1
  Co  Co12  1  0.351256  0.000000  0.351256  1
  Co  Co13  1  0.648744  0.000000  0.648744  1
  Co  Co14  1  0.115477  0.615477  0.500000  1
  Co  Co15  1  0.884523  0.384523  0.500000  1
  Cu  Cu16  1  0.000000  0.000000  0.000000  1
  Sn  Sn17  1  0.500000  0.500000  0.000000  1
