# generated using pymatgen
data_Th6RePdAu6
_symmetry_space_group_name_H-M   'P 1'
_cell_length_a   8.29101167
_cell_length_b   8.29101232
_cell_length_c   8.29101305
_cell_angle_alpha   114.16957416
_cell_angle_beta   114.16957114
_cell_angle_gamma   114.16956190
_symmetry_Int_Tables_number   1
_chemical_formula_structural   Th6RePdAu6
_chemical_formula_sum   'Th6 Re1 Pd1 Au6'
_cell_volume   341.86571847
_cell_formula_units_Z   1
loop_
 _symmetry_equiv_pos_site_id
 _symmetry_equiv_pos_as_xyz
  1  'x, y, z'
loop_
 _atom_site_type_symbol
 _atom_site_label
 _atom_site_symmetry_multiplicity
 _atom_site_fract_x
 _atom_site_fract_y
 _atom_site_fract_z
 _atom_site_occupancy
  Th  Th0  1  0.026439  0.384171  0.272715  1
  Th  Th1  1  0.384171  0.272715  0.026439  1
  Th  Th2  1  0.727285  0.973561  0.615829  1
  Th  Th3  1  0.272715  0.026439  0.384171  1
  Th  Th4  1  0.615829  0.727285  0.973561  1
  Th  Th5  1  0.973561  0.615829  0.727285  1
  Re  Re6  1  0.000000  0.000000  0.000000  1
  Pd  Pd7  1  0.500000  0.500000  0.500000  1
  Au  Au8  1  0.429974  0.928991  0.767578  1
  Au  Au9  1  0.928991  0.767578  0.429974  1
  Au  Au10  1  0.232422  0.570026  0.071009  1
  Au  Au11  1  0.767578  0.429974  0.928991  1
  Au  Au12  1  0.071009  0.232422  0.570026  1
  Au  Au13  1  0.570026  0.071009  0.232422  1
