# generated using pymatgen
data_Ho5In4PtRh
_symmetry_space_group_name_H-M   'P 1'
_cell_length_a   3.60342100
_cell_length_b   8.10834710
_cell_length_c   18.22052049
_cell_angle_alpha   90.13997204
_cell_angle_beta   90.00000000
_cell_angle_gamma   90.00000000
_symmetry_Int_Tables_number   1
_chemical_formula_structural   Ho5In4PtRh
_chemical_formula_sum   'Ho10 In8 Pt2 Rh2'
_cell_volume   532.36171991
_cell_formula_units_Z   2
loop_
 _symmetry_equiv_pos_site_id
 _symmetry_equiv_pos_as_xyz
  1  'x, y, z'
loop_
 _atom_site_type_symbol
 _atom_site_label
 _atom_site_symmetry_multiplicity
 _atom_site_fract_x
 _atom_site_fract_y
 _atom_site_fract_z
 _atom_site_occupancy
  Ho  Ho0  1  0.000000  0.115641  0.412176  1
  Ho  Ho1  1  0.000000  0.884359  0.587824  1
  Ho  Ho2  1  0.000000  0.382950  0.914403  1
  Ho  Ho3  1  0.000000  0.617050  0.085597  1
  Ho  Ho4  1  0.000000  0.239495  0.221109  1
  Ho  Ho5  1  0.000000  0.760505  0.778891  1
  Ho  Ho6  1  0.000000  0.251454  0.719938  1
  Ho  Ho7  1  0.000000  0.748546  0.280062  1
  Ho  Ho8  1  0.000000  0.000000  0.000000  1
  Ho  Ho9  1  0.000000  0.500000  0.500000  1
  In  In10  1  0.500000  0.423273  0.350888  1
  In  In11  1  0.500000  0.576727  0.649112  1
  In  In12  1  0.500000  0.074499  0.850043  1
  In  In13  1  0.500000  0.925501  0.149957  1
  In  In14  1  0.500000  0.292204  0.066500  1
  In  In15  1  0.500000  0.707796  0.933500  1
  In  In16  1  0.500000  0.206472  0.567474  1
  In  In17  1  0.500000  0.793528  0.432526  1
  Pt  Pt18  1  0.500000  0.476202  0.803375  1
  Pt  Pt19  1  0.500000  0.523798  0.196625  1
  Rh  Rh20  1  0.500000  0.023271  0.304168  1
  Rh  Rh21  1  0.500000  0.976729  0.695832  1
