# generated using pymatgen
data_Ba6Er2Mn3FeO18
_symmetry_space_group_name_H-M   'P 1'
_cell_length_a   5.88058700
_cell_length_b   5.88092391
_cell_length_c   14.41476000
_cell_angle_alpha   89.99882824
_cell_angle_beta   90.00033258
_cell_angle_gamma   60.00174398
_symmetry_Int_Tables_number   1
_chemical_formula_structural   Ba6Er2Mn3FeO18
_chemical_formula_sum   'Ba6 Er2 Mn3 Fe1 O18'
_cell_volume   431.72969282
_cell_formula_units_Z   1
loop_
 _symmetry_equiv_pos_site_id
 _symmetry_equiv_pos_as_xyz
  1  'x, y, z'
loop_
 _atom_site_type_symbol
 _atom_site_label
 _atom_site_symmetry_multiplicity
 _atom_site_fract_x
 _atom_site_fract_y
 _atom_site_fract_z
 _atom_site_occupancy
  Ba  Ba0  1  0.334308  0.331401  0.098489  1
  Ba  Ba1  1  0.000060  0.999866  0.256735  1
  Ba  Ba2  1  0.332381  0.335228  0.415740  1
  Ba  Ba3  1  0.665679  0.668620  0.600771  1
  Ba  Ba4  1  0.999904  0.000196  0.755335  1
  Ba  Ba5  1  0.667539  0.664916  0.908993  1
  Er  Er6  1  0.001150  0.997735  0.004286  1
  Er  Er7  1  0.998828  0.002329  0.505800  1
  Mn  Mn8  1  0.665878  0.668244  0.346789  1
  Mn  Mn9  1  0.332380  0.335227  0.665095  1
  Mn  Mn10  1  0.334124  0.331762  0.847346  1
  Fe  Fe11  1  0.667610  0.664788  0.164245  1
  O  O12  1  0.358203  0.818568  0.095170  1
  O  O13  1  0.823234  0.818568  0.095168  1
  O  O14  1  0.823359  0.353266  0.096019  1
  O  O15  1  0.522821  0.954352  0.252725  1
  O  O16  1  0.522777  0.522601  0.253662  1
  O  O17  1  0.954624  0.522600  0.253661  1
  O  O18  1  0.352046  0.825957  0.416270  1
  O  O19  1  0.821993  0.825961  0.416268  1
  O  O20  1  0.821972  0.356069  0.416857  1
  O  O21  1  0.175516  0.180125  0.593431  1
  O  O22  1  0.644356  0.180115  0.593433  1
  O  O23  1  0.175389  0.649229  0.594296  1
  O  O24  1  0.477987  0.044028  0.755784  1
  O  O25  1  0.043833  0.478102  0.756712  1
  O  O26  1  0.478051  0.478105  0.756715  1
  O  O27  1  0.177583  0.173682  0.918598  1
  O  O28  1  0.648748  0.173685  0.918599  1
  O  O29  1  0.177670  0.644672  0.919207  1
