# generated using pymatgen
data_Tm2HfCo16
_symmetry_space_group_name_H-M   'P 1'
_cell_length_a   8.18812908
_cell_length_b   8.32524710
_cell_length_c   8.32524712
_cell_angle_alpha   120.01422756
_cell_angle_beta   90.01539886
_cell_angle_gamma   89.98459894
_symmetry_Int_Tables_number   1
_chemical_formula_structural   Tm2HfCo16
_chemical_formula_sum   'Tm4 Hf2 Co32'
_cell_volume   491.41371851
_cell_formula_units_Z   2
loop_
 _symmetry_equiv_pos_site_id
 _symmetry_equiv_pos_as_xyz
  1  'x, y, z'
loop_
 _atom_site_type_symbol
 _atom_site_label
 _atom_site_symmetry_multiplicity
 _atom_site_fract_x
 _atom_site_fract_y
 _atom_site_fract_z
 _atom_site_occupancy
  Tm  Tm0  1  0.265699  0.666842  0.333158  1
  Tm  Tm1  1  0.734301  0.333158  0.666842  1
  Tm  Tm2  1  0.747997  0.000046  0.999954  1
  Tm  Tm3  1  0.252003  0.999954  0.000046  1
  Hf  Hf4  1  0.113200  0.333298  0.666702  1
  Hf  Hf5  1  0.886800  0.666702  0.333298  1
  Co  Co6  1  0.748391  0.673178  0.037721  1
  Co  Co7  1  0.748465  0.364586  0.326913  1
  Co  Co8  1  0.748469  0.962252  0.635396  1
  Co  Co9  1  0.748469  0.364604  0.037748  1
  Co  Co10  1  0.748391  0.962279  0.326822  1
  Co  Co11  1  0.748465  0.673087  0.635414  1
  Co  Co12  1  0.251609  0.326822  0.962279  1
  Co  Co13  1  0.251535  0.635414  0.673087  1
  Co  Co14  1  0.251531  0.037748  0.364604  1
  Co  Co15  1  0.251531  0.635396  0.962252  1
  Co  Co16  1  0.251609  0.037721  0.673178  1
  Co  Co17  1  0.251535  0.326913  0.364586  1
  Co  Co18  1  0.500000  0.500000  0.000000  1
  Co  Co19  1  0.500000  0.500000  0.500000  1
  Co  Co20  1  0.500000  0.000000  0.500000  1
  Co  Co21  1  0.000000  0.500000  0.000000  1
  Co  Co22  1  0.000000  0.500000  0.500000  1
  Co  Co23  1  0.000000  0.000000  0.500000  1
  Co  Co24  1  0.481898  0.833998  0.667930  1
  Co  Co25  1  0.481706  0.833953  0.166047  1
  Co  Co26  1  0.481898  0.332070  0.166002  1
  Co  Co27  1  0.518102  0.166002  0.332070  1
  Co  Co28  1  0.518294  0.166047  0.833953  1
  Co  Co29  1  0.518102  0.667930  0.833998  1
  Co  Co30  1  0.974095  0.161379  0.322788  1
  Co  Co31  1  0.974113  0.161424  0.838576  1
  Co  Co32  1  0.974095  0.677212  0.838621  1
  Co  Co33  1  0.025905  0.838621  0.677212  1
  Co  Co34  1  0.025887  0.838576  0.161424  1
  Co  Co35  1  0.025905  0.322788  0.161379  1
  Co  Co36  1  0.592337  0.666720  0.333280  1
  Co  Co37  1  0.407663  0.333280  0.666720  1
