# generated using pymatgen
data_Dy3Ga5Ir
_symmetry_space_group_name_H-M   'P 1'
_cell_length_a   6.96438200
_cell_length_b   6.96438136
_cell_length_c   4.27714300
_cell_angle_alpha   90.00000000
_cell_angle_beta   90.00000000
_cell_angle_gamma   120.00000302
_symmetry_Int_Tables_number   1
_chemical_formula_structural   Dy3Ga5Ir
_chemical_formula_sum   'Dy3 Ga5 Ir1'
_cell_volume   179.65922343
_cell_formula_units_Z   1
loop_
 _symmetry_equiv_pos_site_id
 _symmetry_equiv_pos_as_xyz
  1  'x, y, z'
loop_
 _atom_site_type_symbol
 _atom_site_label
 _atom_site_symmetry_multiplicity
 _atom_site_fract_x
 _atom_site_fract_y
 _atom_site_fract_z
 _atom_site_occupancy
  Dy  Dy0  1  0.589218  0.000000  0.000000  1
  Dy  Dy1  1  0.000000  0.589218  0.000000  1
  Dy  Dy2  1  0.410782  0.410782  0.000000  1
  Ga  Ga3  1  0.236471  0.000000  0.500000  1
  Ga  Ga4  1  0.000000  0.236471  0.500000  1
  Ga  Ga5  1  0.763529  0.763529  0.500000  1
  Ga  Ga6  1  0.333333  0.666667  0.500000  1
  Ga  Ga7  1  0.666667  0.333333  0.500000  1
  Ir  Ir8  1  0.000000  0.000000  0.000000  1
