# generated using pymatgen
data_Hf18TaRe7As2
_symmetry_space_group_name_H-M   'P 1'
_cell_length_a   8.65199620
_cell_length_b   8.65199698
_cell_length_c   8.62430410
_cell_angle_alpha   90.01469542
_cell_angle_beta   89.98530829
_cell_angle_gamma   120.01012254
_symmetry_Int_Tables_number   1
_chemical_formula_structural   Hf18TaRe7As2
_chemical_formula_sum   'Hf18 Ta1 Re7 As2'
_cell_volume   559.04020917
_cell_formula_units_Z   1
loop_
 _symmetry_equiv_pos_site_id
 _symmetry_equiv_pos_as_xyz
  1  'x, y, z'
loop_
 _atom_site_type_symbol
 _atom_site_label
 _atom_site_symmetry_multiplicity
 _atom_site_fract_x
 _atom_site_fract_y
 _atom_site_fract_z
 _atom_site_occupancy
  Hf  Hf0  1  0.804186  0.608441  0.545800  1
  Hf  Hf1  1  0.804009  0.195991  0.545491  1
  Hf  Hf2  1  0.391559  0.195814  0.545800  1
  Hf  Hf3  1  0.195814  0.391559  0.454200  1
  Hf  Hf4  1  0.195991  0.804009  0.454509  1
  Hf  Hf5  1  0.608441  0.804186  0.454200  1
  Hf  Hf6  1  0.192973  0.385982  0.046408  1
  Hf  Hf7  1  0.193394  0.806606  0.046079  1
  Hf  Hf8  1  0.614018  0.807027  0.046408  1
  Hf  Hf9  1  0.807027  0.614018  0.953592  1
  Hf  Hf10  1  0.806606  0.193394  0.953921  1
  Hf  Hf11  1  0.385982  0.192973  0.953592  1
  Hf  Hf12  1  0.459557  0.918801  0.751135  1
  Hf  Hf13  1  0.459307  0.540693  0.751141  1
  Hf  Hf14  1  0.081199  0.540443  0.751135  1
  Hf  Hf15  1  0.540443  0.081199  0.248865  1
  Hf  Hf16  1  0.540693  0.459307  0.248859  1
  Hf  Hf17  1  0.918801  0.459557  0.248865  1
  Ta  Ta18  1  0.000000  0.000000  0.500000  1
  Re  Re19  1  0.110552  0.221362  0.749677  1
  Re  Re20  1  0.110680  0.889320  0.749641  1
  Re  Re21  1  0.778638  0.889448  0.749677  1
  Re  Re22  1  0.889448  0.778638  0.250323  1
  Re  Re23  1  0.889320  0.110680  0.250359  1
  Re  Re24  1  0.221362  0.110552  0.250323  1
  Re  Re25  1  0.000000  0.000000  0.000000  1
  As  As26  1  0.666577  0.333423  0.752144  1
  As  As27  1  0.333423  0.666577  0.247856  1
