# generated using pymatgen
data_La5Pr3(InRh)2
_symmetry_space_group_name_H-M   'P 1'
_cell_length_a   10.10399833
_cell_length_b   10.09030525
_cell_length_c   10.07132080
_cell_angle_alpha   59.92840161
_cell_angle_beta   60.58719064
_cell_angle_gamma   60.03537584
_symmetry_Int_Tables_number   1
_chemical_formula_structural   La5Pr3(InRh)2
_chemical_formula_sum   'La10 Pr6 In4 Rh4'
_cell_volume   729.01844443
_cell_formula_units_Z   2
loop_
 _symmetry_equiv_pos_site_id
 _symmetry_equiv_pos_as_xyz
  1  'x, y, z'
loop_
 _atom_site_type_symbol
 _atom_site_label
 _atom_site_symmetry_multiplicity
 _atom_site_fract_x
 _atom_site_fract_y
 _atom_site_fract_z
 _atom_site_occupancy
  La  La0  1  0.809507  0.806472  0.192695  1
  La  La1  1  0.808590  0.190950  0.807905  1
  La  La2  1  0.193004  0.191130  0.808543  1
  La  La3  1  0.651077  0.044953  0.652037  1
  La  La4  1  0.061416  0.063231  0.437860  1
  La  La5  1  0.435797  0.437647  0.061581  1
  La  La6  1  0.652659  0.651404  0.653325  1
  La  La7  1  0.809617  0.190735  0.191499  1
  La  La8  1  0.193056  0.806997  0.810615  1
  La  La9  1  0.043417  0.651042  0.652522  1
  Pr  Pr10  1  0.437998  0.061627  0.061231  1
  Pr  Pr11  1  0.439139  0.060492  0.438243  1
  Pr  Pr12  1  0.061298  0.439057  0.062627  1
  Pr  Pr13  1  0.650344  0.649620  0.048898  1
  Pr  Pr14  1  0.194728  0.806074  0.193902  1
  Pr  Pr15  1  0.060835  0.439625  0.436538  1
  In  In16  1  0.418783  0.421432  0.419422  1
  In  In17  1  0.420557  0.420564  0.739528  1
  In  In18  1  0.419336  0.741010  0.417871  1
  In  In19  1  0.740604  0.420734  0.419246  1
  Rh  Rh20  1  0.860500  0.421192  0.859162  1
  Rh  Rh21  1  0.860810  0.859705  0.858912  1
  Rh  Rh22  1  0.853602  0.861919  0.423908  1
  Rh  Rh23  1  0.423325  0.862389  0.851932  1
