# generated using pymatgen
data_Rb6SrBr8
_symmetry_space_group_name_H-M   'P 1'
_cell_length_a   9.88622562
_cell_length_b   9.88622554
_cell_length_c   9.88622700
_cell_angle_alpha   60.00000516
_cell_angle_beta   60.00000541
_cell_angle_gamma   60.00000722
_symmetry_Int_Tables_number   1
_chemical_formula_structural   Rb6SrBr8
_chemical_formula_sum   'Rb6 Sr1 Br8'
_cell_volume   683.24532760
_cell_formula_units_Z   1
loop_
 _symmetry_equiv_pos_site_id
 _symmetry_equiv_pos_as_xyz
  1  'x, y, z'
loop_
 _atom_site_type_symbol
 _atom_site_label
 _atom_site_symmetry_multiplicity
 _atom_site_fract_x
 _atom_site_fract_y
 _atom_site_fract_z
 _atom_site_occupancy
  Rb  Rb0  1  0.500001  0.000000  0.000000  1
  Rb  Rb1  1  0.000000  0.500001  0.000000  1
  Rb  Rb2  1  0.500000  0.500000  0.000000  1
  Rb  Rb3  1  0.000000  0.000000  0.500001  1
  Rb  Rb4  1  0.500000  0.000000  0.500000  1
  Rb  Rb5  1  0.000000  0.500000  0.500000  1
  Sr  Sr6  1  0.000000  0.000000  0.000000  1
  Br  Br7  1  0.778414  0.221585  0.221585  1
  Br  Br8  1  0.221585  0.778414  0.221585  1
  Br  Br9  1  0.778414  0.778414  0.221585  1
  Br  Br10  1  0.250000  0.250000  0.250000  1
  Br  Br11  1  0.750000  0.750000  0.750000  1
  Br  Br12  1  0.221585  0.221585  0.778414  1
  Br  Br13  1  0.778414  0.221585  0.778414  1
  Br  Br14  1  0.221585  0.778414  0.778414  1
