# generated using pymatgen
data_Hf6Ti3Sn10Mo3
_symmetry_space_group_name_H-M   'P 1'
_cell_length_a   9.50456100
_cell_length_b   9.50114303
_cell_length_c   5.72711228
_cell_angle_alpha   90.30509853
_cell_angle_beta   90.00000000
_cell_angle_gamma   120.01189744
_symmetry_Int_Tables_number   1
_chemical_formula_structural   Hf6Ti3Sn10Mo3
_chemical_formula_sum   'Hf6 Ti3 Sn10 Mo3'
_cell_volume   447.83079765
_cell_formula_units_Z   1
loop_
 _symmetry_equiv_pos_site_id
 _symmetry_equiv_pos_as_xyz
  1  'x, y, z'
loop_
 _atom_site_type_symbol
 _atom_site_label
 _atom_site_symmetry_multiplicity
 _atom_site_fract_x
 _atom_site_fract_y
 _atom_site_fract_z
 _atom_site_occupancy
  Hf  Hf0  1  0.845724  0.691448  0.748360  1
  Hf  Hf1  1  0.154182  0.845699  0.248888  1
  Hf  Hf2  1  0.691517  0.845699  0.248888  1
  Hf  Hf3  1  0.308483  0.154301  0.751112  1
  Hf  Hf4  1  0.845818  0.154301  0.751112  1
  Hf  Hf5  1  0.154276  0.308552  0.251640  1
  Ti  Ti6  1  0.000000  0.500000  0.500000  1
  Ti  Ti7  1  0.500000  0.000000  0.000000  1
  Ti  Ti8  1  0.500000  0.500000  0.500000  1
  Sn  Sn9  1  0.210849  0.421697  0.750434  1
  Sn  Sn10  1  0.789710  0.210800  0.250861  1
  Sn  Sn11  1  0.421090  0.210800  0.250861  1
  Sn  Sn12  1  0.578910  0.789200  0.749139  1
  Sn  Sn13  1  0.210290  0.789200  0.749139  1
  Sn  Sn14  1  0.789151  0.578303  0.249566  1
  Sn  Sn15  1  0.667085  0.334169  0.751932  1
  Sn  Sn16  1  0.332915  0.665831  0.248068  1
  Sn  Sn17  1  0.000000  0.000000  0.500000  1
  Sn  Sn18  1  0.000000  0.000000  0.000000  1
  Mo  Mo19  1  0.500000  0.000000  0.500000  1
  Mo  Mo20  1  0.500000  0.500000  0.000000  1
  Mo  Mo21  1  0.000000  0.500000  0.000000  1
