# generated using pymatgen
data_HoBi2SbO7
_symmetry_space_group_name_H-M   'P 1'
_cell_length_a   6.49689891
_cell_length_b   6.80162884
_cell_length_c   7.64862546
_cell_angle_alpha   106.40781167
_cell_angle_beta   89.64002535
_cell_angle_gamma   98.92531329
_symmetry_Int_Tables_number   1
_chemical_formula_structural   HoBi2SbO7
_chemical_formula_sum   'Ho2 Bi4 Sb2 O14'
_cell_volume   320.04712529
_cell_formula_units_Z   2
loop_
 _symmetry_equiv_pos_site_id
 _symmetry_equiv_pos_as_xyz
  1  'x, y, z'
loop_
 _atom_site_type_symbol
 _atom_site_label
 _atom_site_symmetry_multiplicity
 _atom_site_fract_x
 _atom_site_fract_y
 _atom_site_fract_z
 _atom_site_occupancy
  Ho  Ho0  1  0.542969  0.996471  0.752561  1
  Ho  Ho1  1  0.457031  0.003529  0.247439  1
  Bi  Bi2  1  0.255757  0.511641  0.878446  1
  Bi  Bi3  1  0.744243  0.488359  0.121554  1
  Bi  Bi4  1  0.729885  0.462427  0.609116  1
  Bi  Bi5  1  0.270115  0.537573  0.390884  1
  Sb  Sb6  1  0.000000  0.000000  0.500000  1
  Sb  Sb7  1  0.000000  0.000000  0.000000  1
  O  O8  1  0.458770  0.659031  0.179813  1
  O  O9  1  0.541230  0.340969  0.820187  1
  O  O10  1  0.293223  0.953486  0.954417  1
  O  O11  1  0.706777  0.046514  0.045583  1
  O  O12  1  0.287931  0.929037  0.514865  1
  O  O13  1  0.712069  0.070963  0.485135  1
  O  O14  1  0.528610  0.347786  0.348105  1
  O  O15  1  0.471390  0.652214  0.651895  1
  O  O16  1  0.917313  0.688375  0.954742  1
  O  O17  1  0.082687  0.311625  0.045258  1
  O  O18  1  0.096810  0.307216  0.612077  1
  O  O19  1  0.903190  0.692784  0.387923  1
  O  O20  1  0.899770  0.955333  0.738378  1
  O  O21  1  0.100230  0.044667  0.261622  1
