# generated using pymatgen
data_Np7U3GeSe20
_symmetry_space_group_name_H-M   'P 1'
_cell_length_a   10.71242819
_cell_length_b   10.76373811
_cell_length_c   6.72288333
_cell_angle_alpha   89.96881905
_cell_angle_beta   90.01870311
_cell_angle_gamma   89.20130678
_symmetry_Int_Tables_number   1
_chemical_formula_structural   Np7U3GeSe20
_chemical_formula_sum   'Np7 U3 Ge1 Se20'
_cell_volume   775.11177552
_cell_formula_units_Z   1
loop_
 _symmetry_equiv_pos_site_id
 _symmetry_equiv_pos_as_xyz
  1  'x, y, z'
loop_
 _atom_site_type_symbol
 _atom_site_label
 _atom_site_symmetry_multiplicity
 _atom_site_fract_x
 _atom_site_fract_y
 _atom_site_fract_z
 _atom_site_occupancy
  Np  Np0  1  0.847316  0.350836  0.748379  1
  Np  Np1  1  0.154082  0.653529  0.753056  1
  Np  Np2  1  0.156870  0.358896  0.255512  1
  Np  Np3  1  0.656254  0.842391  0.750311  1
  Np  Np4  1  0.649697  0.156803  0.243824  1
  Np  Np5  1  0.358605  0.837810  0.254357  1
  Np  Np6  1  0.352350  0.158546  0.750367  1
  U  U7  1  0.495199  0.500900  0.644149  1
  U  U8  1  0.003867  0.005499  0.858120  1
  U  U9  1  0.001741  0.995927  0.355596  1
  Ge  Ge10  1  0.807242  0.599773  0.233719  1
  Se  Se11  1  0.289017  0.590599  0.392204  1
  Se  Se12  1  0.286900  0.414238  0.877211  1
  Se  Se13  1  0.710220  0.583638  0.859026  1
  Se  Se14  1  0.701788  0.405410  0.390529  1
  Se  Se15  1  0.587588  0.291382  0.873622  1
  Se  Se16  1  0.585796  0.703942  0.397952  1
  Se  Se17  1  0.410043  0.293551  0.391155  1
  Se  Se18  1  0.413879  0.707596  0.879198  1
  Se  Se19  1  0.211382  0.916448  0.615825  1
  Se  Se20  1  0.208121  0.094689  0.120327  1
  Se  Se21  1  0.797671  0.918443  0.114774  1
  Se  Se22  1  0.795789  0.088259  0.614205  1
  Se  Se23  1  0.914049  0.210499  0.120093  1
  Se  Se24  1  0.920981  0.799309  0.630082  1
  Se  Se25  1  0.086867  0.207616  0.614295  1
  Se  Se26  1  0.102830  0.802309  0.108978  1
  Se  Se27  1  0.993088  0.506071  0.504319  1
  Se  Se28  1  0.995239  0.506762  0.006797  1
  Se  Se29  1  0.500913  0.997497  0.002852  1
  Se  Se30  1  0.504617  0.000831  0.503171  1
