# generated using pymatgen
data_YTmAs4O9
_symmetry_space_group_name_H-M   'P 1'
_cell_length_a   6.71652032
_cell_length_b   7.50918544
_cell_length_c   9.81242562
_cell_angle_alpha   94.57598616
_cell_angle_beta   104.00900725
_cell_angle_gamma   104.92684386
_symmetry_Int_Tables_number   1
_chemical_formula_structural   YTmAs4O9
_chemical_formula_sum   'Y2 Tm2 As8 O18'
_cell_volume   458.60961975
_cell_formula_units_Z   2
loop_
 _symmetry_equiv_pos_site_id
 _symmetry_equiv_pos_as_xyz
  1  'x, y, z'
loop_
 _atom_site_type_symbol
 _atom_site_label
 _atom_site_symmetry_multiplicity
 _atom_site_fract_x
 _atom_site_fract_y
 _atom_site_fract_z
 _atom_site_occupancy
  Y  Y0  1  0.242218  0.939002  0.614738  1
  Y  Y1  1  0.757782  0.060998  0.385262  1
  Tm  Tm2  1  0.720549  0.528284  0.410165  1
  Tm  Tm3  1  0.279451  0.471716  0.589835  1
  As  As4  1  0.682924  0.773047  0.079507  1
  As  As5  1  0.317076  0.226953  0.920493  1
  As  As6  1  0.170406  0.751430  0.913031  1
  As  As7  1  0.829594  0.248570  0.086969  1
  As  As8  1  0.742550  0.913545  0.710055  1
  As  As9  1  0.257450  0.086455  0.289945  1
  As  As10  1  0.810050  0.352900  0.701156  1
  As  As11  1  0.189950  0.647100  0.298844  1
  O  O12  1  0.721157  0.745286  0.259934  1
  O  O13  1  0.278843  0.254714  0.740066  1
  O  O14  1  0.316061  0.979105  0.869497  1
  O  O15  1  0.683939  0.020895  0.130503  1
  O  O16  1  0.608150  0.325901  0.985384  1
  O  O17  1  0.391850  0.674099  0.014616  1
  O  O18  1  0.127469  0.643582  0.738658  1
  O  O19  1  0.872531  0.356418  0.261342  1
  O  O20  1  0.846260  0.872879  0.560049  1
  O  O21  1  0.153740  0.127121  0.439951  1
  O  O22  1  0.480936  0.765139  0.666358  1
  O  O23  1  0.519064  0.234861  0.333642  1
  O  O24  1  0.374160  0.533498  0.382333  1
  O  O25  1  0.625840  0.466502  0.617667  1
  O  O26  1  0.087056  0.666680  0.453580  1
  O  O27  1  0.912944  0.333320  0.546420  1
  O  O28  1  0.376792  0.900050  0.358635  1
  O  O29  1  0.623208  0.099950  0.641365  1
