# generated using pymatgen
data_Dy3YLuBi3
_symmetry_space_group_name_H-M   'P 1'
_cell_length_a   8.25424700
_cell_length_b   9.53592700
_cell_length_c   12.05936200
_cell_angle_alpha   90.00000000
_cell_angle_beta   90.00000000
_cell_angle_gamma   90.00000000
_symmetry_Int_Tables_number   1
_chemical_formula_structural   Dy3YLuBi3
_chemical_formula_sum   'Dy12 Y4 Lu4 Bi12'
_cell_volume   949.21525760
_cell_formula_units_Z   4
loop_
 _symmetry_equiv_pos_site_id
 _symmetry_equiv_pos_as_xyz
  1  'x, y, z'
loop_
 _atom_site_type_symbol
 _atom_site_label
 _atom_site_symmetry_multiplicity
 _atom_site_fract_x
 _atom_site_fract_y
 _atom_site_fract_z
 _atom_site_occupancy
  Dy  Dy0  1  0.187000  0.750000  0.718768  1
  Dy  Dy1  1  0.687000  0.750000  0.781232  1
  Dy  Dy2  1  0.813000  0.250000  0.281232  1
  Dy  Dy3  1  0.313000  0.250000  0.218768  1
  Dy  Dy4  1  0.306073  0.436094  0.940611  1
  Dy  Dy5  1  0.806073  0.063906  0.559389  1
  Dy  Dy6  1  0.693927  0.936094  0.059389  1
  Dy  Dy7  1  0.193927  0.563906  0.440611  1
  Dy  Dy8  1  0.693927  0.563906  0.059389  1
  Dy  Dy9  1  0.193927  0.936094  0.440611  1
  Dy  Dy10  1  0.306073  0.063906  0.940611  1
  Dy  Dy11  1  0.806073  0.436094  0.559389  1
  Y  Y12  1  0.354597  0.750000  0.215601  1
  Y  Y13  1  0.854597  0.750000  0.284399  1
  Y  Y14  1  0.645403  0.250000  0.784399  1
  Y  Y15  1  0.145403  0.250000  0.715601  1
  Lu  Lu16  1  0.025196  0.750000  0.988567  1
  Lu  Lu17  1  0.525196  0.750000  0.511433  1
  Lu  Lu18  1  0.974804  0.250000  0.011433  1
  Lu  Lu19  1  0.474804  0.250000  0.488567  1
  Bi  Bi20  1  0.433969  0.003789  0.672731  1
  Bi  Bi21  1  0.933969  0.496211  0.827269  1
  Bi  Bi22  1  0.566031  0.503789  0.327269  1
  Bi  Bi23  1  0.066031  0.996211  0.172731  1
  Bi  Bi24  1  0.566031  0.996211  0.327269  1
  Bi  Bi25  1  0.066031  0.503789  0.172731  1
  Bi  Bi26  1  0.433969  0.496211  0.672731  1
  Bi  Bi27  1  0.933969  0.003789  0.827269  1
  Bi  Bi28  1  0.407331  0.750000  0.957637  1
  Bi  Bi29  1  0.907331  0.750000  0.542363  1
  Bi  Bi30  1  0.592669  0.250000  0.042363  1
  Bi  Bi31  1  0.092669  0.250000  0.457637  1
