# generated using pymatgen
data_Dy2Ho10Co5Pb
_symmetry_space_group_name_H-M   'P 1'
_cell_length_a   8.27901899
_cell_length_b   8.27875999
_cell_length_c   8.27876013
_cell_angle_alpha   110.82250464
_cell_angle_beta   110.68642420
_cell_angle_gamma   106.93297458
_symmetry_Int_Tables_number   1
_chemical_formula_structural   Dy2Ho10Co5Pb
_chemical_formula_sum   'Dy2 Ho10 Co5 Pb1'
_cell_volume   436.17169040
_cell_formula_units_Z   1
loop_
 _symmetry_equiv_pos_site_id
 _symmetry_equiv_pos_as_xyz
  1  'x, y, z'
loop_
 _atom_site_type_symbol
 _atom_site_label
 _atom_site_symmetry_multiplicity
 _atom_site_fract_x
 _atom_site_fract_y
 _atom_site_fract_z
 _atom_site_occupancy
  Dy  Dy0  1  0.985601  0.792104  0.193498  1
  Dy  Dy1  1  0.014399  0.207896  0.806502  1
  Ho  Ho2  1  0.815300  0.709185  0.524728  1
  Ho  Ho3  1  0.184700  0.290815  0.475272  1
  Ho  Ho4  1  0.184700  0.709427  0.893884  1
  Ho  Ho5  1  0.815300  0.290573  0.106116  1
  Ho  Ho6  1  0.686792  0.380009  0.692834  1
  Ho  Ho7  1  0.313208  0.619991  0.307166  1
  Ho  Ho8  1  0.686792  0.993957  0.306783  1
  Ho  Ho9  1  0.313208  0.006043  0.693217  1
  Ho  Ho10  1  0.598375  0.792089  0.806286  1
  Ho  Ho11  1  0.401625  0.207911  0.193714  1
  Co  Co12  1  0.621712  0.999869  0.621843  1
  Co  Co13  1  0.378288  0.000131  0.378157  1
  Co  Co14  1  0.112216  0.612036  0.500180  1
  Co  Co15  1  0.887784  0.387964  0.499820  1
  Co  Co16  1  0.000000  0.000000  0.000000  1
  Pb  Pb17  1  0.500000  0.500000  0.000000  1
