# generated using pymatgen
data_Nd3Ho2Pb3
_symmetry_space_group_name_H-M   'P 1'
_cell_length_a   9.25454400
_cell_length_b   9.25456706
_cell_length_c   6.76027900
_cell_angle_alpha   90.00000000
_cell_angle_beta   90.00000000
_cell_angle_gamma   120.00029929
_symmetry_Int_Tables_number   1
_chemical_formula_structural   Nd3Ho2Pb3
_chemical_formula_sum   'Nd6 Ho4 Pb6'
_cell_volume   501.42394901
_cell_formula_units_Z   2
loop_
 _symmetry_equiv_pos_site_id
 _symmetry_equiv_pos_as_xyz
  1  'x, y, z'
loop_
 _atom_site_type_symbol
 _atom_site_label
 _atom_site_symmetry_multiplicity
 _atom_site_fract_x
 _atom_site_fract_y
 _atom_site_fract_z
 _atom_site_occupancy
  Nd  Nd0  1  0.759968  0.759965  0.250001  1
  Nd  Nd1  1  0.240040  0.000005  0.250000  1
  Nd  Nd2  1  0.000000  0.240036  0.249998  1
  Nd  Nd3  1  0.240032  0.240035  0.750002  1
  Nd  Nd4  1  0.759960  0.999995  0.750000  1
  Nd  Nd5  1  0.999999  0.759963  0.749998  1
  Ho  Ho6  1  0.666672  0.333338  0.999998  1
  Ho  Ho7  1  0.333331  0.666665  0.000000  1
  Ho  Ho8  1  0.666669  0.333335  0.500000  1
  Ho  Ho9  1  0.333328  0.666662  0.499998  1
  Pb  Pb10  1  0.602721  0.000001  0.250001  1
  Pb  Pb11  1  0.000000  0.602719  0.250000  1
  Pb  Pb12  1  0.397283  0.397283  0.250002  1
  Pb  Pb13  1  0.397279  0.999999  0.750002  1
  Pb  Pb14  1  0.000000  0.397281  0.750001  1
  Pb  Pb15  1  0.602717  0.602717  0.750002  1
