# generated using pymatgen
data_Tm6FeP12Rh17
_symmetry_space_group_name_H-M   'P 1'
_cell_length_a   3.89404000
_cell_length_b   11.23052600
_cell_length_c   12.73725700
_cell_angle_alpha   90.00000000
_cell_angle_beta   90.00000000
_cell_angle_gamma   90.00000000
_symmetry_Int_Tables_number   1
_chemical_formula_structural   Tm6FeP12Rh17
_chemical_formula_sum   'Tm6 Fe1 P12 Rh17'
_cell_volume   557.02721931
_cell_formula_units_Z   1
loop_
 _symmetry_equiv_pos_site_id
 _symmetry_equiv_pos_as_xyz
  1  'x, y, z'
loop_
 _atom_site_type_symbol
 _atom_site_label
 _atom_site_symmetry_multiplicity
 _atom_site_fract_x
 _atom_site_fract_y
 _atom_site_fract_z
 _atom_site_occupancy
  Tm  Tm0  1  0.000000  0.500000  0.520390  1
  Tm  Tm1  1  0.500000  0.000000  0.478965  1
  Tm  Tm2  1  0.500000  0.819906  0.202488  1
  Tm  Tm3  1  0.500000  0.180094  0.202488  1
  Tm  Tm4  1  0.000000  0.686965  0.796695  1
  Tm  Tm5  1  0.000000  0.313035  0.796695  1
  Fe  Fe6  1  0.500000  0.000000  0.013898  1
  P  P7  1  0.500000  0.315086  0.619638  1
  P  P8  1  0.500000  0.684914  0.619638  1
  P  P9  1  0.000000  0.184019  0.380201  1
  P  P10  1  0.000000  0.815981  0.380201  1
  P  P11  1  0.500000  0.500000  0.877612  1
  P  P12  1  0.000000  0.000000  0.117157  1
  P  P13  1  0.500000  0.851616  0.896366  1
  P  P14  1  0.500000  0.148384  0.896366  1
  P  P15  1  0.000000  0.655059  0.107743  1
  P  P16  1  0.000000  0.344941  0.107743  1
  P  P17  1  0.500000  0.500000  0.351642  1
  P  P18  1  0.000000  0.000000  0.649107  1
  Rh  Rh19  1  0.000000  0.500000  0.978968  1
  Rh  Rh20  1  0.500000  0.293560  0.430596  1
  Rh  Rh21  1  0.500000  0.706440  0.430596  1
  Rh  Rh22  1  0.000000  0.205440  0.569262  1
  Rh  Rh23  1  0.000000  0.794560  0.569262  1
  Rh  Rh24  1  0.500000  0.872589  0.712579  1
  Rh  Rh25  1  0.500000  0.127411  0.712579  1
  Rh  Rh26  1  0.000000  0.629047  0.288269  1
  Rh  Rh27  1  0.000000  0.370953  0.288269  1
  Rh  Rh28  1  0.500000  0.332865  0.993528  1
  Rh  Rh29  1  0.500000  0.667135  0.993528  1
  Rh  Rh30  1  0.000000  0.163545  0.007680  1
  Rh  Rh31  1  0.000000  0.836455  0.007680  1
  Rh  Rh32  1  0.500000  0.500000  0.168127  1
  Rh  Rh33  1  0.000000  0.000000  0.835540  1
  Rh  Rh34  1  0.500000  0.500000  0.699914  1
  Rh  Rh35  1  0.000000  0.000000  0.298591  1
