# generated using pymatgen
data_Pr12Os(PtBr4)3
_symmetry_space_group_name_H-M   'P 1'
_cell_length_a   10.69354320
_cell_length_b   10.57285383
_cell_length_c   10.57285423
_cell_angle_alpha   109.23883265
_cell_angle_beta   109.70262739
_cell_angle_gamma   109.70261785
_symmetry_Int_Tables_number   1
_chemical_formula_structural   Pr12Os(PtBr4)3
_chemical_formula_sum   'Pr12 Os1 Pt3 Br12'
_cell_volume   917.56314118
_cell_formula_units_Z   1
loop_
 _symmetry_equiv_pos_site_id
 _symmetry_equiv_pos_as_xyz
  1  'x, y, z'
loop_
 _atom_site_type_symbol
 _atom_site_label
 _atom_site_symmetry_multiplicity
 _atom_site_fract_x
 _atom_site_fract_y
 _atom_site_fract_z
 _atom_site_occupancy
  Pr  Pr0  1  0.470801  0.489801  0.231993  1
  Pr  Pr1  1  0.750000  0.236268  0.263732  1
  Pr  Pr2  1  0.750000  0.013944  0.486056  1
  Pr  Pr3  1  0.236056  0.472112  0.486056  1
  Pr  Pr4  1  0.261192  0.742192  0.231993  1
  Pr  Pr5  1  0.029199  0.268007  0.010199  1
  Pr  Pr6  1  0.013732  0.027463  0.263732  1
  Pr  Pr7  1  0.481000  0.742192  0.010199  1
  Pr  Pr8  1  0.486268  0.236268  0.472537  1
  Pr  Pr9  1  0.019000  0.489801  0.757808  1
  Pr  Pr10  1  0.263944  0.013944  0.027888  1
  Pr  Pr11  1  0.238808  0.268007  0.757808  1
  Os  Os12  1  0.250000  0.500000  0.000000  1
  Pt  Pt13  1  0.250000  0.249779  0.250221  1
  Pt  Pt14  1  0.500221  0.000442  0.250221  1
  Pt  Pt15  1  0.999779  0.249779  0.499558  1
  Br  Br16  1  0.250000  0.754481  0.745519  1
  Br  Br17  1  0.507882  0.503503  0.752983  1
  Br  Br18  1  0.992118  0.747017  0.996497  1
  Br  Br19  1  0.745101  0.249480  0.752983  1
  Br  Br20  1  0.995519  0.991038  0.745519  1
  Br  Br21  1  0.250000  0.996940  0.503060  1
  Br  Br22  1  0.753060  0.506120  0.503060  1
  Br  Br23  1  0.504379  0.249480  0.996497  1
  Br  Br24  1  0.754899  0.747017  0.250520  1
  Br  Br25  1  0.746940  0.996940  0.993880  1
  Br  Br26  1  0.995621  0.503503  0.250520  1
  Br  Br27  1  0.504481  0.754481  0.508962  1
