# generated using pymatgen
data_Sc2AlPt3Rh2
_symmetry_space_group_name_H-M   'P 1'
_cell_length_a   4.16848700
_cell_length_b   5.52695700
_cell_length_c   10.93342000
_cell_angle_alpha   90.00000000
_cell_angle_beta   90.00000000
_cell_angle_gamma   90.00000000
_symmetry_Int_Tables_number   1
_chemical_formula_structural   Sc2AlPt3Rh2
_chemical_formula_sum   'Sc4 Al2 Pt6 Rh4'
_cell_volume   251.89559260
_cell_formula_units_Z   2
loop_
 _symmetry_equiv_pos_site_id
 _symmetry_equiv_pos_as_xyz
  1  'x, y, z'
loop_
 _atom_site_type_symbol
 _atom_site_label
 _atom_site_symmetry_multiplicity
 _atom_site_fract_x
 _atom_site_fract_y
 _atom_site_fract_z
 _atom_site_occupancy
  Sc  Sc0  1  0.500000  0.189878  0.638639  1
  Sc  Sc1  1  0.500000  0.810122  0.361361  1
  Sc  Sc2  1  0.500000  0.689878  0.861361  1
  Sc  Sc3  1  0.500000  0.310122  0.138639  1
  Al  Al4  1  0.000000  0.500000  0.500000  1
  Al  Al5  1  0.000000  0.000000  0.000000  1
  Pt  Pt6  1  0.000000  0.443375  0.744092  1
  Pt  Pt7  1  0.000000  0.556625  0.255908  1
  Pt  Pt8  1  0.000000  0.943375  0.755908  1
  Pt  Pt9  1  0.000000  0.056625  0.244092  1
  Pt  Pt10  1  0.000000  0.500000  0.000000  1
  Pt  Pt11  1  0.000000  0.000000  0.500000  1
  Rh  Rh12  1  0.500000  0.306438  0.393077  1
  Rh  Rh13  1  0.500000  0.693562  0.606923  1
  Rh  Rh14  1  0.500000  0.806438  0.106923  1
  Rh  Rh15  1  0.500000  0.193562  0.893077  1
