# generated using pymatgen
data_Ce5Tm2Lu(AlRu)8
_symmetry_space_group_name_H-M   'P 1'
_cell_length_a   3.99182800
_cell_length_b   7.20089622
_cell_length_c   15.94022130
_cell_angle_alpha   90.19084987
_cell_angle_beta   90.00000000
_cell_angle_gamma   90.00000000
_symmetry_Int_Tables_number   1
_chemical_formula_structural   Ce5Tm2Lu(AlRu)8
_chemical_formula_sum   'Ce5 Tm2 Lu1 Al8 Ru8'
_cell_volume   458.19496134
_cell_formula_units_Z   1
loop_
 _symmetry_equiv_pos_site_id
 _symmetry_equiv_pos_as_xyz
  1  'x, y, z'
loop_
 _atom_site_type_symbol
 _atom_site_label
 _atom_site_symmetry_multiplicity
 _atom_site_fract_x
 _atom_site_fract_y
 _atom_site_fract_z
 _atom_site_occupancy
  Ce  Ce0  1  0.750000  0.823743  0.437901  1
  Ce  Ce1  1  0.750000  0.456455  0.280933  1
  Ce  Ce2  1  0.750000  0.332121  0.061243  1
  Ce  Ce3  1  0.250000  0.044824  0.780743  1
  Ce  Ce4  1  0.250000  0.542624  0.720036  1
  Tm  Tm5  1  0.750000  0.959982  0.217486  1
  Tm  Tm6  1  0.250000  0.160210  0.560871  1
  Lu  Lu7  1  0.250000  0.666881  0.938880  1
  Al  Al8  1  0.750000  0.488448  0.562995  1
  Al  Al9  1  0.750000  0.377524  0.853228  1
  Al  Al10  1  0.750000  0.996792  0.937894  1
  Al  Al11  1  0.750000  0.872882  0.647808  1
  Al  Al12  1  0.250000  0.484432  0.437849  1
  Al  Al13  1  0.250000  0.994337  0.065233  1
  Al  Al14  1  0.250000  0.640892  0.151968  1
  Al  Al15  1  0.250000  0.122397  0.343968  1
  Ru  Ru16  1  0.750000  0.759633  0.811137  1
  Ru  Ru17  1  0.250000  0.242730  0.937998  1
  Ru  Ru18  1  0.750000  0.258866  0.428562  1
  Ru  Ru19  1  0.250000  0.750062  0.322724  1
  Ru  Ru20  1  0.750000  0.764799  0.064877  1
  Ru  Ru21  1  0.750000  0.254207  0.691201  1
  Ru  Ru22  1  0.250000  0.270749  0.181318  1
  Ru  Ru23  1  0.250000  0.734406  0.563144  1
