# generated using pymatgen
data_Tm6Co14Ni3MoP12
_symmetry_space_group_name_H-M   'P 1'
_cell_length_a   3.69427100
_cell_length_b   10.48741200
_cell_length_c   12.18264400
_cell_angle_alpha   90.00000000
_cell_angle_beta   90.00000000
_cell_angle_gamma   90.00000000
_symmetry_Int_Tables_number   1
_chemical_formula_structural   Tm6Co14Ni3MoP12
_chemical_formula_sum   'Tm6 Co14 Ni3 Mo1 P12'
_cell_volume   471.99634316
_cell_formula_units_Z   1
loop_
 _symmetry_equiv_pos_site_id
 _symmetry_equiv_pos_as_xyz
  1  'x, y, z'
loop_
 _atom_site_type_symbol
 _atom_site_label
 _atom_site_symmetry_multiplicity
 _atom_site_fract_x
 _atom_site_fract_y
 _atom_site_fract_z
 _atom_site_occupancy
  Tm  Tm0  1  0.000000  0.500000  0.523256  1
  Tm  Tm1  1  0.500000  0.000000  0.478187  1
  Tm  Tm2  1  0.500000  0.816572  0.206806  1
  Tm  Tm3  1  0.500000  0.183428  0.206806  1
  Tm  Tm4  1  0.000000  0.682910  0.795832  1
  Tm  Tm5  1  0.000000  0.317090  0.795832  1
  Co  Co6  1  0.000000  0.500000  0.986705  1
  Co  Co7  1  0.500000  0.000000  0.016252  1
  Co  Co8  1  0.500000  0.331576  0.990953  1
  Co  Co9  1  0.500000  0.668424  0.990953  1
  Co  Co10  1  0.000000  0.165313  0.004877  1
  Co  Co11  1  0.000000  0.834687  0.004877  1
  Co  Co12  1  0.500000  0.297168  0.432260  1
  Co  Co13  1  0.500000  0.702832  0.432260  1
  Co  Co14  1  0.000000  0.201659  0.568787  1
  Co  Co15  1  0.000000  0.798341  0.568787  1
  Co  Co16  1  0.500000  0.878622  0.708958  1
  Co  Co17  1  0.500000  0.121378  0.708958  1
  Co  Co18  1  0.000000  0.622665  0.292524  1
  Co  Co19  1  0.000000  0.377335  0.292524  1
  Ni  Ni20  1  0.000000  0.000000  0.836221  1
  Ni  Ni21  1  0.500000  0.500000  0.702004  1
  Ni  Ni22  1  0.000000  0.000000  0.296996  1
  Mo  Mo23  1  0.500000  0.500000  0.157354  1
  P  P24  1  0.500000  0.500000  0.880961  1
  P  P25  1  0.000000  0.000000  0.118034  1
  P  P26  1  0.500000  0.500000  0.351151  1
  P  P27  1  0.000000  0.000000  0.651612  1
  P  P28  1  0.500000  0.311399  0.616902  1
  P  P29  1  0.500000  0.688601  0.616902  1
  P  P30  1  0.000000  0.188403  0.384858  1
  P  P31  1  0.000000  0.811597  0.384858  1
  P  P32  1  0.500000  0.848498  0.891743  1
  P  P33  1  0.500000  0.151502  0.891743  1
  P  P34  1  0.000000  0.658079  0.106133  1
  P  P35  1  0.000000  0.341921  0.106133  1
