# generated using pymatgen
data_Sr2Sm2Os6O19
_symmetry_space_group_name_H-M   'P 1'
_cell_length_a   7.99123734
_cell_length_b   7.89774768
_cell_length_c   7.89774753
_cell_angle_alpha   108.83851057
_cell_angle_beta   109.61549752
_cell_angle_gamma   109.47955308
_symmetry_Int_Tables_number   1
_chemical_formula_structural   Sr2Sm2Os6O19
_chemical_formula_sum   'Sr2 Sm2 Os6 O19'
_cell_volume   385.94760697
_cell_formula_units_Z   1
loop_
 _symmetry_equiv_pos_site_id
 _symmetry_equiv_pos_as_xyz
  1  'x, y, z'
loop_
 _atom_site_type_symbol
 _atom_site_label
 _atom_site_symmetry_multiplicity
 _atom_site_fract_x
 _atom_site_fract_y
 _atom_site_fract_z
 _atom_site_occupancy
  Sr  Sr0  1  0.000509  0.999796  0.312848  1
  Sr  Sr1  1  0.999491  0.312339  0.999286  1
  Sm  Sm2  1  0.708678  0.706340  0.707119  1
  Sm  Sm3  1  0.291322  0.998441  0.997662  1
  Os  Os4  1  0.364205  0.500722  0.861971  1
  Os  Os5  1  0.863422  0.363080  0.500911  1
  Os  Os6  1  0.500000  0.138219  0.638219  1
  Os  Os7  1  0.136578  0.637488  0.499658  1
  Os  Os8  1  0.500000  0.864318  0.364318  1
  Os  Os9  1  0.635795  0.497767  0.136517  1
  O  O10  1  0.332631  0.005703  0.325124  1
  O  O11  1  0.330078  0.323255  0.001544  1
  O  O12  1  0.000000  0.674187  0.674187  1
  O  O13  1  0.669922  0.671465  0.993177  1
  O  O14  1  0.000000  0.329148  0.329148  1
  O  O15  1  0.667369  0.992494  0.673072  1
  O  O16  1  0.000000  0.977630  0.977630  1
  O  O17  1  0.354118  0.289704  0.638063  1
  O  O18  1  0.067400  0.352084  0.713012  1
  O  O19  1  0.715129  0.372257  0.654790  1
  O  O20  1  0.372444  0.652586  0.709485  1
  O  O21  1  0.284871  0.939661  0.657128  1
  O  O22  1  0.627556  0.337040  0.280141  1
  O  O23  1  0.284807  0.640255  0.348976  1
  O  O24  1  0.715193  0.064167  0.355447  1
  O  O25  1  0.932600  0.645611  0.284684  1
  O  O26  1  0.648840  0.708115  0.371020  1
  O  O27  1  0.645882  0.283945  0.935588  1
  O  O28  1  0.351160  0.722181  0.059276  1
