# generated using pymatgen
data_LuSc4Ga2Sb
_symmetry_space_group_name_H-M   'P 1'
_cell_length_a   8.25088655
_cell_length_b   8.26392538
_cell_length_c   6.07121200
_cell_angle_alpha   90.00000000
_cell_angle_beta   90.00000000
_cell_angle_gamma   120.05229174
_symmetry_Int_Tables_number   1
_chemical_formula_structural   LuSc4Ga2Sb
_chemical_formula_sum   'Lu2 Sc8 Ga4 Sb2'
_cell_volume   358.31414242
_cell_formula_units_Z   2
loop_
 _symmetry_equiv_pos_site_id
 _symmetry_equiv_pos_as_xyz
  1  'x, y, z'
loop_
 _atom_site_type_symbol
 _atom_site_label
 _atom_site_symmetry_multiplicity
 _atom_site_fract_x
 _atom_site_fract_y
 _atom_site_fract_z
 _atom_site_occupancy
  Lu  Lu0  1  0.230581  0.998998  0.250000  1
  Lu  Lu1  1  0.230581  0.231583  0.750000  1
  Sc  Sc2  1  0.316382  0.658191  0.000000  1
  Sc  Sc3  1  0.672160  0.336079  0.500000  1
  Sc  Sc4  1  0.672160  0.336079  0.000000  1
  Sc  Sc5  1  0.316382  0.658191  0.500000  1
  Sc  Sc6  1  0.011883  0.762492  0.750000  1
  Sc  Sc7  1  0.011883  0.249391  0.250000  1
  Sc  Sc8  1  0.764819  0.751705  0.250000  1
  Sc  Sc9  1  0.764819  0.013115  0.750000  1
  Ga  Ga10  1  0.994814  0.399964  0.750000  1
  Ga  Ga11  1  0.994814  0.594850  0.250000  1
  Ga  Ga12  1  0.401890  0.401778  0.250000  1
  Ga  Ga13  1  0.401890  0.000111  0.750000  1
  Sb  Sb14  1  0.607471  0.995214  0.250000  1
  Sb  Sb15  1  0.607471  0.612257  0.750000  1
