# generated using pymatgen
data_Sr2Ca3As4
_symmetry_space_group_name_H-M   'P 1'
_cell_length_a   7.93800400
_cell_length_b   7.96789400
_cell_length_c   15.53528000
_cell_angle_alpha   90.00000000
_cell_angle_beta   90.00000000
_cell_angle_gamma   90.00000000
_symmetry_Int_Tables_number   1
_chemical_formula_structural   Sr2Ca3As4
_chemical_formula_sum   'Sr8 Ca12 As16'
_cell_volume   982.59363475
_cell_formula_units_Z   4
loop_
 _symmetry_equiv_pos_site_id
 _symmetry_equiv_pos_as_xyz
  1  'x, y, z'
loop_
 _atom_site_type_symbol
 _atom_site_label
 _atom_site_symmetry_multiplicity
 _atom_site_fract_x
 _atom_site_fract_y
 _atom_site_fract_z
 _atom_site_occupancy
  Sr  Sr0  1  0.524164  0.317783  0.907448  1
  Sr  Sr1  1  0.024164  0.182217  0.592552  1
  Sr  Sr2  1  0.475836  0.682217  0.407448  1
  Sr  Sr3  1  0.975836  0.817783  0.092552  1
  Sr  Sr4  1  0.475836  0.682217  0.092552  1
  Sr  Sr5  1  0.975836  0.817783  0.407448  1
  Sr  Sr6  1  0.524164  0.317783  0.592552  1
  Sr  Sr7  1  0.024164  0.182217  0.907448  1
  Ca  Ca8  1  0.370371  0.854339  0.890706  1
  Ca  Ca9  1  0.870371  0.645661  0.609294  1
  Ca  Ca10  1  0.629629  0.145661  0.390707  1
  Ca  Ca11  1  0.129629  0.354339  0.109293  1
  Ca  Ca12  1  0.629629  0.145661  0.109293  1
  Ca  Ca13  1  0.129629  0.354339  0.390707  1
  Ca  Ca14  1  0.370371  0.854339  0.609294  1
  Ca  Ca15  1  0.870371  0.645661  0.890706  1
  Ca  Ca16  1  0.215018  0.511709  0.750000  1
  Ca  Ca17  1  0.715018  0.988291  0.750000  1
  Ca  Ca18  1  0.784982  0.488291  0.250000  1
  Ca  Ca19  1  0.284982  0.011709  0.250000  1
  As  As20  1  0.283932  0.044369  0.051234  1
  As  As21  1  0.783932  0.455631  0.448766  1
  As  As22  1  0.716068  0.955631  0.551234  1
  As  As23  1  0.216068  0.544369  0.948766  1
  As  As24  1  0.716068  0.955631  0.948766  1
  As  As25  1  0.216068  0.544369  0.551234  1
  As  As26  1  0.283932  0.044369  0.448766  1
  As  As27  1  0.783932  0.455631  0.051234  1
  As  As28  1  0.595966  0.598893  0.750000  1
  As  As29  1  0.095966  0.901107  0.750000  1
  As  As30  1  0.404034  0.401107  0.250000  1
  As  As31  1  0.904034  0.098893  0.250000  1
  As  As32  1  0.327158  0.125763  0.750000  1
  As  As33  1  0.827158  0.374237  0.750000  1
  As  As34  1  0.672842  0.874237  0.250000  1
  As  As35  1  0.172842  0.625763  0.250000  1
