# generated using pymatgen
data_Nb3Si2Ru10W
_symmetry_space_group_name_H-M   'P 1'
_cell_length_a   4.08747400
_cell_length_b   5.41762713
_cell_length_c   10.55148425
_cell_angle_alpha   89.97472231
_cell_angle_beta   90.00000000
_cell_angle_gamma   90.00000000
_symmetry_Int_Tables_number   1
_chemical_formula_structural   Nb3Si2Ru10W
_chemical_formula_sum   'Nb3 Si2 Ru10 W1'
_cell_volume   233.65637120
_cell_formula_units_Z   1
loop_
 _symmetry_equiv_pos_site_id
 _symmetry_equiv_pos_as_xyz
  1  'x, y, z'
loop_
 _atom_site_type_symbol
 _atom_site_label
 _atom_site_symmetry_multiplicity
 _atom_site_fract_x
 _atom_site_fract_y
 _atom_site_fract_z
 _atom_site_occupancy
  Nb  Nb0  1  0.500000  0.828615  0.358945  1
  Nb  Nb1  1  0.500000  0.163502  0.638803  1
  Nb  Nb2  1  0.500000  0.330647  0.140852  1
  Si  Si3  1  0.000000  0.502796  0.498569  1
  Si  Si4  1  0.000000  0.014264  0.004014  1
  Ru  Ru5  1  0.000000  0.523840  0.991152  1
  Ru  Ru6  1  0.000000  0.004899  0.505068  1
  Ru  Ru7  1  0.000000  0.580208  0.248055  1
  Ru  Ru8  1  0.000000  0.407511  0.744403  1
  Ru  Ru9  1  0.000000  0.080928  0.249873  1
  Ru  Ru10  1  0.000000  0.902343  0.764548  1
  Ru  Ru11  1  0.500000  0.823879  0.102194  1
  Ru  Ru12  1  0.500000  0.180950  0.894914  1
  Ru  Ru13  1  0.500000  0.321984  0.394053  1
  Ru  Ru14  1  0.500000  0.675037  0.608311  1
  W  W15  1  0.500000  0.658599  0.856249  1
