# generated using pymatgen
data_PuSb5O14
_symmetry_space_group_name_H-M   'P 1'
_cell_length_a   7.38453088
_cell_length_b   7.39165856
_cell_length_c   7.39163118
_cell_angle_alpha   120.26055825
_cell_angle_beta   120.33481804
_cell_angle_gamma   89.51275999
_symmetry_Int_Tables_number   1
_chemical_formula_structural   PuSb5O14
_chemical_formula_sum   'Pu1 Sb5 O14'
_cell_volume   283.92822628
_cell_formula_units_Z   1
loop_
 _symmetry_equiv_pos_site_id
 _symmetry_equiv_pos_as_xyz
  1  'x, y, z'
loop_
 _atom_site_type_symbol
 _atom_site_label
 _atom_site_symmetry_multiplicity
 _atom_site_fract_x
 _atom_site_fract_y
 _atom_site_fract_z
 _atom_site_occupancy
  Pu  Pu0  1  0.000000  0.500000  0.500000  1
  Sb  Sb1  1  0.500000  0.500000  0.000000  1
  Sb  Sb2  1  0.000000  0.500000  0.000000  1
  Sb  Sb3  1  0.000000  0.000000  0.500000  1
  Sb  Sb4  1  0.000000  0.000000  0.000000  1
  Sb  Sb5  1  0.500000  0.000000  0.500000  1
  O  O6  1  0.061365  0.327517  0.150317  1
  O  O7  1  0.061369  0.911051  0.733855  1
  O  O8  1  0.319082  0.068268  0.250814  1
  O  O9  1  0.673728  0.904732  0.340490  1
  O  O10  1  0.673728  0.333237  0.768996  1
  O  O11  1  0.689017  0.411038  0.277979  1
  O  O12  1  0.938635  0.672483  0.849683  1
  O  O13  1  0.938631  0.088949  0.266145  1
  O  O14  1  0.680918  0.931732  0.749186  1
  O  O15  1  0.326272  0.095268  0.659510  1
  O  O16  1  0.326272  0.666763  0.231004  1
  O  O17  1  0.310983  0.588962  0.722021  1
  O  O18  1  0.937789  0.677864  0.259927  1
  O  O19  1  0.062211  0.322136  0.740073  1
