# generated using pymatgen
data_Dy8Er12Si15Ni
_symmetry_space_group_name_H-M   'P 1'
_cell_length_a   7.31959200
_cell_length_b   7.71499469
_cell_length_c   14.45856500
_cell_angle_alpha   90.00000000
_cell_angle_beta   90.00000000
_cell_angle_gamma   90.02425511
_symmetry_Int_Tables_number   1
_chemical_formula_structural   Dy8Er12Si15Ni
_chemical_formula_sum   'Dy8 Er12 Si15 Ni1'
_cell_volume   816.48396160
_cell_formula_units_Z   1
loop_
 _symmetry_equiv_pos_site_id
 _symmetry_equiv_pos_as_xyz
  1  'x, y, z'
loop_
 _atom_site_type_symbol
 _atom_site_label
 _atom_site_symmetry_multiplicity
 _atom_site_fract_x
 _atom_site_fract_y
 _atom_site_fract_z
 _atom_site_occupancy
  Dy  Dy0  1  0.021693  0.184621  0.096991  1
  Dy  Dy1  1  0.979779  0.821086  0.905828  1
  Dy  Dy2  1  0.480263  0.680362  0.905008  1
  Dy  Dy3  1  0.979779  0.821086  0.594172  1
  Dy  Dy4  1  0.521480  0.319358  0.096069  1
  Dy  Dy5  1  0.021693  0.184621  0.403009  1
  Dy  Dy6  1  0.521480  0.319358  0.403931  1
  Dy  Dy7  1  0.480263  0.680362  0.594992  1
  Er  Er8  1  0.154407  0.521020  0.750000  1
  Er  Er9  1  0.846104  0.489070  0.250000  1
  Er  Er10  1  0.347546  0.013588  0.250000  1
  Er  Er11  1  0.664870  0.988413  0.750000  1
  Er  Er12  1  0.308859  0.172880  0.626583  1
  Er  Er13  1  0.679604  0.824551  0.375857  1
  Er  Er14  1  0.178286  0.680278  0.376566  1
  Er  Er15  1  0.679604  0.824551  0.124143  1
  Er  Er16  1  0.829560  0.315869  0.625805  1
  Er  Er17  1  0.308859  0.172880  0.873417  1
  Er  Er18  1  0.829560  0.315869  0.874195  1
  Er  Er19  1  0.178286  0.680278  0.123434  1
  Si  Si20  1  0.976800  0.895328  0.250000  1
  Si  Si21  1  0.475660  0.607822  0.250000  1
  Si  Si22  1  0.525492  0.392742  0.750000  1
  Si  Si23  1  0.272106  0.873797  0.750000  1
  Si  Si24  1  0.726403  0.131598  0.250000  1
  Si  Si25  1  0.227021  0.372078  0.250000  1
  Si  Si26  1  0.766275  0.622776  0.750000  1
  Si  Si27  1  0.153653  0.471044  0.539036  1
  Si  Si28  1  0.846358  0.531733  0.462331  1
  Si  Si29  1  0.349195  0.971054  0.460921  1
  Si  Si30  1  0.846358  0.531733  0.037669  1
  Si  Si31  1  0.648979  0.030004  0.540160  1
  Si  Si32  1  0.153653  0.471044  0.960964  1
  Si  Si33  1  0.648979  0.030004  0.959840  1
  Si  Si34  1  0.349195  0.971054  0.039079  1
  Ni  Ni35  1  0.021896  0.086086  0.750000  1
