# generated using pymatgen
data_Li2CdGePd4
_symmetry_space_group_name_H-M   'P 1'
_cell_length_a   5.84383616
_cell_length_b   5.84480207
_cell_length_c   7.05023000
_cell_angle_alpha   90.00000000
_cell_angle_beta   89.99996582
_cell_angle_gamma   89.97810802
_symmetry_Int_Tables_number   1
_chemical_formula_structural   Li2CdGePd4
_chemical_formula_sum   'Li4 Cd2 Ge2 Pd8'
_cell_volume   240.80810109
_cell_formula_units_Z   2
loop_
 _symmetry_equiv_pos_site_id
 _symmetry_equiv_pos_as_xyz
  1  'x, y, z'
loop_
 _atom_site_type_symbol
 _atom_site_label
 _atom_site_symmetry_multiplicity
 _atom_site_fract_x
 _atom_site_fract_y
 _atom_site_fract_z
 _atom_site_occupancy
  Li  Li0  1  0.750026  0.249998  0.000017  1
  Li  Li1  1  0.249973  0.750001  0.000013  1
  Li  Li2  1  0.250000  0.750001  0.499989  1
  Li  Li3  1  0.750002  0.250001  0.499992  1
  Cd  Cd4  1  0.749968  0.750000  0.500001  1
  Cd  Cd5  1  0.250033  0.250001  0.499997  1
  Ge  Ge6  1  0.249983  0.250000  0.999983  1
  Ge  Ge7  1  0.750016  0.750000  0.999983  1
  Pd  Pd8  1  0.499997  0.000002  0.223227  1
  Pd  Pd9  1  0.499999  0.500004  0.223191  1
  Pd  Pd10  1  0.000001  0.000003  0.223235  1
  Pd  Pd11  1  0.999997  0.500000  0.223274  1
  Pd  Pd12  1  0.999999  0.999999  0.776769  1
  Pd  Pd13  1  0.999998  0.499998  0.776737  1
  Pd  Pd14  1  0.500003  0.999998  0.776779  1
  Pd  Pd15  1  0.500001  0.499996  0.776812  1
