# generated using pymatgen
data_Hf8Co3MoIr4
_symmetry_space_group_name_H-M   'P 1'
_cell_length_a   6.52045900
_cell_length_b   4.56341000
_cell_length_c   9.08696200
_cell_angle_alpha   90.00000000
_cell_angle_beta   90.00000382
_cell_angle_gamma   90.00000000
_symmetry_Int_Tables_number   1
_chemical_formula_structural   Hf8Co3MoIr4
_chemical_formula_sum   'Hf8 Co3 Mo1 Ir4'
_cell_volume   270.38735046
_cell_formula_units_Z   1
loop_
 _symmetry_equiv_pos_site_id
 _symmetry_equiv_pos_as_xyz
  1  'x, y, z'
loop_
 _atom_site_type_symbol
 _atom_site_label
 _atom_site_symmetry_multiplicity
 _atom_site_fract_x
 _atom_site_fract_y
 _atom_site_fract_z
 _atom_site_occupancy
  Hf  Hf0  1  0.998962  0.750000  0.126826  1
  Hf  Hf1  1  0.501034  0.750000  0.126827  1
  Hf  Hf2  1  0.999396  0.250001  0.374987  1
  Hf  Hf3  1  0.500602  0.250001  0.374987  1
  Hf  Hf4  1  0.501019  0.750000  0.623168  1
  Hf  Hf5  1  0.998985  0.750000  0.623168  1
  Hf  Hf6  1  0.503529  0.250001  0.875017  1
  Hf  Hf7  1  0.996474  0.250001  0.875017  1
  Co  Co8  1  0.749996  0.250001  0.126945  1
  Co  Co9  1  0.249997  0.750000  0.374911  1
  Co  Co10  1  0.750007  0.250001  0.623130  1
  Mo  Mo11  1  0.250001  0.750000  0.875014  1
  Ir  Ir12  1  0.249999  0.250001  0.129102  1
  Ir  Ir13  1  0.749999  0.750000  0.374991  1
  Ir  Ir14  1  0.250002  0.250001  0.620888  1
  Ir  Ir15  1  0.750001  0.750000  0.875023  1
