# generated using pymatgen
data_DyY3(AuO3)4
_symmetry_space_group_name_H-M   'P 1'
_cell_length_a   3.83523106
_cell_length_b   12.94308220
_cell_length_c   5.59711800
_cell_angle_alpha   90.00000000
_cell_angle_beta   90.00000000
_cell_angle_gamma   89.97977815
_symmetry_Int_Tables_number   1
_chemical_formula_structural   DyY3(AuO3)4
_chemical_formula_sum   'Dy1 Y3 Au4 O12'
_cell_volume   277.83930191
_cell_formula_units_Z   1
loop_
 _symmetry_equiv_pos_site_id
 _symmetry_equiv_pos_as_xyz
  1  'x, y, z'
loop_
 _atom_site_type_symbol
 _atom_site_label
 _atom_site_symmetry_multiplicity
 _atom_site_fract_x
 _atom_site_fract_y
 _atom_site_fract_z
 _atom_site_occupancy
  Dy  Dy0  1  0.237715  0.925112  0.750000  1
  Y  Y1  1  0.762363  0.074812  0.249999  1
  Y  Y2  1  0.237767  0.575374  0.249999  1
  Y  Y3  1  0.762143  0.424886  0.750000  1
  Au  Au4  1  0.441115  0.330368  0.249999  1
  Au  Au5  1  0.558537  0.830745  0.249999  1
  Au  Au6  1  0.441252  0.169315  0.750000  1
  Au  Au7  1  0.558904  0.669838  0.750000  1
  O  O8  1  0.707654  0.249874  0.999928  1
  O  O9  1  0.292152  0.750367  0.999853  1
  O  O10  1  0.244443  0.074158  0.000964  1
  O  O11  1  0.755384  0.574803  0.001412  1
  O  O12  1  0.244443  0.074158  0.499037  1
  O  O13  1  0.755384  0.574803  0.498589  1
  O  O14  1  0.707654  0.249874  0.500072  1
  O  O15  1  0.292152  0.750367  0.500147  1
  O  O16  1  0.244502  0.425293  0.501423  1
  O  O17  1  0.755963  0.925279  0.502094  1
  O  O18  1  0.244502  0.425293  0.998576  1
  O  O19  1  0.755963  0.925279  0.997905  1
