# generated using pymatgen
data_Mn(PdO2)3
_symmetry_space_group_name_H-M   'P 1'
_cell_length_a   6.15472300
_cell_length_b   6.15472276
_cell_length_c   3.17757800
_cell_angle_alpha   90.00000000
_cell_angle_beta   90.00000000
_cell_angle_gamma   70.85553827
_symmetry_Int_Tables_number   1
_chemical_formula_structural   Mn(PdO2)3
_chemical_formula_sum   'Mn1 Pd3 O6'
_cell_volume   113.71158357
_cell_formula_units_Z   1
loop_
 _symmetry_equiv_pos_site_id
 _symmetry_equiv_pos_as_xyz
  1  'x, y, z'
loop_
 _atom_site_type_symbol
 _atom_site_label
 _atom_site_symmetry_multiplicity
 _atom_site_fract_x
 _atom_site_fract_y
 _atom_site_fract_z
 _atom_site_occupancy
  Mn  Mn0  1  0.499999  0.499999  0.000000  1
  Pd  Pd1  1  0.500000  0.000001  0.500000  1
  Pd  Pd2  1  0.000001  0.500000  0.500000  1
  Pd  Pd3  1  0.000000  0.000000  0.000000  1
  O  O4  1  0.348448  0.348448  0.500000  1
  O  O5  1  0.651552  0.651552  0.500000  1
  O  O6  1  0.337770  0.913529  0.000000  1
  O  O7  1  0.662230  0.086472  0.000000  1
  O  O8  1  0.086472  0.662230  0.000000  1
  O  O9  1  0.913529  0.337770  0.000000  1
