# generated using pymatgen
data_Ce7Tm3(Ir2Os)2
_symmetry_space_group_name_H-M   'P 1'
_cell_length_a   10.97548190
_cell_length_b   11.05307300
_cell_length_c   6.26490902
_cell_angle_alpha   90.00000000
_cell_angle_beta   89.74355360
_cell_angle_gamma   90.00000000
_symmetry_Int_Tables_number   1
_chemical_formula_structural   Ce7Tm3(Ir2Os)2
_chemical_formula_sum   'Ce14 Tm6 Ir8 Os4'
_cell_volume   760.00605950
_cell_formula_units_Z   2
loop_
 _symmetry_equiv_pos_site_id
 _symmetry_equiv_pos_as_xyz
  1  'x, y, z'
loop_
 _atom_site_type_symbol
 _atom_site_label
 _atom_site_symmetry_multiplicity
 _atom_site_fract_x
 _atom_site_fract_y
 _atom_site_fract_z
 _atom_site_occupancy
  Ce  Ce0  1  0.290290  0.089019  0.377101  1
  Ce  Ce1  1  0.290290  0.910981  0.877101  1
  Ce  Ce2  1  0.710333  0.089311  0.878094  1
  Ce  Ce3  1  0.710333  0.910689  0.378094  1
  Ce  Ce4  1  0.589390  0.789159  0.878506  1
  Ce  Ce5  1  0.589390  0.210841  0.378506  1
  Ce  Ce6  1  0.409375  0.788932  0.379557  1
  Ce  Ce7  1  0.409375  0.211068  0.879557  1
  Ce  Ce8  1  0.206788  0.412924  0.621485  1
  Ce  Ce9  1  0.206788  0.587076  0.121485  1
  Ce  Ce10  1  0.792868  0.410520  0.121992  1
  Ce  Ce11  1  0.792868  0.589480  0.621992  1
  Ce  Ce12  1  0.913692  0.709911  0.121167  1
  Ce  Ce13  1  0.913692  0.290089  0.621167  1
  Tm  Tm14  1  0.086973  0.710185  0.622355  1
  Tm  Tm15  1  0.086973  0.289815  0.122355  1
  Tm  Tm16  1  0.000334  0.998341  0.499881  1
  Tm  Tm17  1  0.000334  0.001659  0.999881  1
  Tm  Tm18  1  0.499974  0.499668  0.001566  1
  Tm  Tm19  1  0.499974  0.500332  0.501566  1
  Ir  Ir20  1  0.846885  0.153452  0.250763  1
  Ir  Ir21  1  0.846885  0.846548  0.750763  1
  Ir  Ir22  1  0.154240  0.152158  0.745131  1
  Ir  Ir23  1  0.154240  0.847842  0.245131  1
  Ir  Ir24  1  0.654101  0.345867  0.750710  1
  Ir  Ir25  1  0.654101  0.654133  0.250710  1
  Ir  Ir26  1  0.345534  0.345800  0.252051  1
  Ir  Ir27  1  0.345534  0.654200  0.752051  1
  Os  Os28  1  0.500382  0.000111  0.123013  1
  Os  Os29  1  0.500382  0.999889  0.623013  1
  Os  Os30  1  0.998840  0.498142  0.876628  1
  Os  Os31  1  0.998840  0.501858  0.376628  1
