# generated using pymatgen
data_Nd3Ge4P2Rh9
_symmetry_space_group_name_H-M   'P 1'
_cell_length_a   4.03557700
_cell_length_b   11.49325600
_cell_length_c   13.30569600
_cell_angle_alpha   90.00000000
_cell_angle_beta   90.00000000
_cell_angle_gamma   90.00000000
_symmetry_Int_Tables_number   1
_chemical_formula_structural   Nd3Ge4P2Rh9
_chemical_formula_sum   'Nd6 Ge8 P4 Rh18'
_cell_volume   617.14372168
_cell_formula_units_Z   2
loop_
 _symmetry_equiv_pos_site_id
 _symmetry_equiv_pos_as_xyz
  1  'x, y, z'
loop_
 _atom_site_type_symbol
 _atom_site_label
 _atom_site_symmetry_multiplicity
 _atom_site_fract_x
 _atom_site_fract_y
 _atom_site_fract_z
 _atom_site_occupancy
  Nd  Nd0  1  0.000000  0.500000  0.518583  1
  Nd  Nd1  1  0.500000  0.000000  0.481417  1
  Nd  Nd2  1  0.500000  0.818894  0.205391  1
  Nd  Nd3  1  0.500000  0.181106  0.205391  1
  Nd  Nd4  1  0.000000  0.681106  0.794609  1
  Nd  Nd5  1  0.000000  0.318894  0.794609  1
  Ge  Ge6  1  0.500000  0.309879  0.615844  1
  Ge  Ge7  1  0.500000  0.690121  0.615844  1
  Ge  Ge8  1  0.000000  0.190121  0.384156  1
  Ge  Ge9  1  0.000000  0.809879  0.384156  1
  Ge  Ge10  1  0.500000  0.852093  0.891809  1
  Ge  Ge11  1  0.500000  0.147907  0.891809  1
  Ge  Ge12  1  0.000000  0.647907  0.108191  1
  Ge  Ge13  1  0.000000  0.352093  0.108191  1
  P  P14  1  0.500000  0.500000  0.887192  1
  P  P15  1  0.000000  0.000000  0.112808  1
  P  P16  1  0.500000  0.500000  0.341422  1
  P  P17  1  0.000000  0.000000  0.658578  1
  Rh  Rh18  1  0.500000  0.500000  0.165277  1
  Rh  Rh19  1  0.000000  0.000000  0.834723  1
  Rh  Rh20  1  0.500000  0.500000  0.711560  1
  Rh  Rh21  1  0.000000  0.000000  0.288440  1
  Rh  Rh22  1  0.000000  0.500000  0.975021  1
  Rh  Rh23  1  0.500000  0.000000  0.024979  1
  Rh  Rh24  1  0.500000  0.334354  0.989148  1
  Rh  Rh25  1  0.500000  0.665646  0.989148  1
  Rh  Rh26  1  0.000000  0.165646  0.010852  1
  Rh  Rh27  1  0.000000  0.834354  0.010852  1
  Rh  Rh28  1  0.500000  0.307263  0.429317  1
  Rh  Rh29  1  0.500000  0.692737  0.429317  1
  Rh  Rh30  1  0.000000  0.192737  0.570683  1
  Rh  Rh31  1  0.000000  0.807263  0.570683  1
  Rh  Rh32  1  0.500000  0.881121  0.707387  1
  Rh  Rh33  1  0.500000  0.118879  0.707387  1
  Rh  Rh34  1  0.000000  0.618879  0.292613  1
  Rh  Rh35  1  0.000000  0.381121  0.292613  1
