# generated using pymatgen
data_Nd6Y4In8Ir3Pt
_symmetry_space_group_name_H-M   'P 1'
_cell_length_a   3.78565200
_cell_length_b   8.17773600
_cell_length_c   18.38019623
_cell_angle_alpha   89.96668519
_cell_angle_beta   90.00000000
_cell_angle_gamma   90.00000000
_symmetry_Int_Tables_number   1
_chemical_formula_structural   Nd6Y4In8Ir3Pt
_chemical_formula_sum   'Nd6 Y4 In8 Ir3 Pt1'
_cell_volume   569.01517009
_cell_formula_units_Z   1
loop_
 _symmetry_equiv_pos_site_id
 _symmetry_equiv_pos_as_xyz
  1  'x, y, z'
loop_
 _atom_site_type_symbol
 _atom_site_label
 _atom_site_symmetry_multiplicity
 _atom_site_fract_x
 _atom_site_fract_y
 _atom_site_fract_z
 _atom_site_occupancy
  Nd  Nd0  1  0.000000  0.232557  0.218569  1
  Nd  Nd1  1  0.000000  0.760363  0.781812  1
  Nd  Nd2  1  0.000000  0.260661  0.718803  1
  Nd  Nd3  1  0.000000  0.747146  0.282978  1
  Nd  Nd4  1  0.000000  0.998876  0.998821  1
  Nd  Nd5  1  0.000000  0.500060  0.500302  1
  Y  Y6  1  0.000000  0.114897  0.411470  1
  Y  Y7  1  0.000000  0.885096  0.590967  1
  Y  Y8  1  0.000001  0.384907  0.909335  1
  Y  Y9  1  0.000000  0.615604  0.086858  1
  In  In10  1  0.500000  0.418073  0.349646  1
  In  In11  1  0.500000  0.579524  0.650734  1
  In  In12  1  0.500000  0.079116  0.849158  1
  In  In13  1  0.500000  0.919210  0.149995  1
  In  In14  1  0.500000  0.299384  0.062776  1
  In  In15  1  0.500000  0.697019  0.935687  1
  In  In16  1  0.500000  0.198240  0.564926  1
  In  In17  1  0.500000  0.802068  0.436439  1
  Ir  Ir18  1  0.500000  0.019481  0.305990  1
  Ir  Ir19  1  0.500000  0.983230  0.694888  1
  Ir  Ir20  1  0.500000  0.483261  0.805359  1
  Pt  Pt21  1  0.500000  0.521225  0.194485  1
