# generated using pymatgen
data_LiHo3ZnIn3Pt
_symmetry_space_group_name_H-M   'P 1'
_cell_length_a   7.83188600
_cell_length_b   7.83188630
_cell_length_c   3.74723000
_cell_angle_alpha   90.00000000
_cell_angle_beta   90.00000000
_cell_angle_gamma   120.00000720
_symmetry_Int_Tables_number   1
_chemical_formula_structural   LiHo3ZnIn3Pt
_chemical_formula_sum   'Li1 Ho3 Zn1 In3 Pt1'
_cell_volume   199.05527069
_cell_formula_units_Z   1
loop_
 _symmetry_equiv_pos_site_id
 _symmetry_equiv_pos_as_xyz
  1  'x, y, z'
loop_
 _atom_site_type_symbol
 _atom_site_label
 _atom_site_symmetry_multiplicity
 _atom_site_fract_x
 _atom_site_fract_y
 _atom_site_fract_z
 _atom_site_occupancy
  Li  Li0  1  0.000000  0.000000  0.500000  1
  Ho  Ho1  1  0.601857  0.020968  0.500000  1
  Ho  Ho2  1  0.419111  0.398143  0.500000  1
  Ho  Ho3  1  0.979032  0.580889  0.500000  1
  Zn  Zn4  1  0.333333  0.666667  0.000000  1
  In  In5  1  0.737750  0.746564  0.000000  1
  In  In6  1  0.008813  0.262250  0.000000  1
  In  In7  1  0.253436  0.991187  0.000000  1
  Pt  Pt8  1  0.666667  0.333333  0.000000  1
