# generated using pymatgen
data_Ag3Bi(Ru2O7)2
_symmetry_space_group_name_H-M   'P 1'
_cell_length_a   7.26663314
_cell_length_b   7.21438111
_cell_length_c   7.21438100
_cell_angle_alpha   60.00000507
_cell_angle_beta   60.23758709
_cell_angle_gamma   60.23759277
_symmetry_Int_Tables_number   1
_chemical_formula_structural   Ag3Bi(Ru2O7)2
_chemical_formula_sum   'Ag3 Bi1 Ru4 O14'
_cell_volume   268.39025014
_cell_formula_units_Z   1
loop_
 _symmetry_equiv_pos_site_id
 _symmetry_equiv_pos_as_xyz
  1  'x, y, z'
loop_
 _atom_site_type_symbol
 _atom_site_label
 _atom_site_symmetry_multiplicity
 _atom_site_fract_x
 _atom_site_fract_y
 _atom_site_fract_z
 _atom_site_occupancy
  Ag  Ag0  1  0.125000  0.125000  0.625000  1
  Ag  Ag1  1  0.125000  0.625000  0.125000  1
  Ag  Ag2  1  0.125000  0.125000  0.125000  1
  Bi  Bi3  1  0.625000  0.125000  0.125000  1
  Ru  Ru4  1  0.625000  0.625000  0.125000  1
  Ru  Ru5  1  0.625000  0.125000  0.625000  1
  Ru  Ru6  1  0.125000  0.625000  0.625000  1
  Ru  Ru7  1  0.625000  0.625000  0.625000  1
  O  O8  1  0.233463  0.255512  0.255512  1
  O  O9  1  0.016537  0.994488  0.994488  1
  O  O10  1  0.562372  0.949120  0.539388  1
  O  O11  1  0.311935  0.690728  0.306609  1
  O  O12  1  0.562372  0.539388  0.949120  1
  O  O13  1  0.938065  0.559272  0.559272  1
  O  O14  1  0.562372  0.949120  0.949120  1
  O  O15  1  0.938065  0.943391  0.559272  1
  O  O16  1  0.938065  0.559272  0.943391  1
  O  O17  1  0.687628  0.300880  0.300880  1
  O  O18  1  0.311935  0.690728  0.690728  1
  O  O19  1  0.687628  0.300880  0.710612  1
  O  O20  1  0.311935  0.306609  0.690728  1
  O  O21  1  0.687628  0.710612  0.300880  1
