# generated using pymatgen
data_TbPrSn5Pd3
_symmetry_space_group_name_H-M   'P 1'
_cell_length_a   13.64674759
_cell_length_b   13.64674754
_cell_length_c   7.40663900
_cell_angle_alpha   90.00000000
_cell_angle_beta   90.00000000
_cell_angle_gamma   160.54164530
_symmetry_Int_Tables_number   1
_chemical_formula_structural   TbPrSn5Pd3
_chemical_formula_sum   'Tb2 Pr2 Sn10 Pd6'
_cell_volume   459.49660452
_cell_formula_units_Z   2
loop_
 _symmetry_equiv_pos_site_id
 _symmetry_equiv_pos_as_xyz
  1  'x, y, z'
loop_
 _atom_site_type_symbol
 _atom_site_label
 _atom_site_symmetry_multiplicity
 _atom_site_fract_x
 _atom_site_fract_y
 _atom_site_fract_z
 _atom_site_occupancy
  Tb  Tb0  1  0.478050  0.521950  0.741554  1
  Tb  Tb1  1  0.521950  0.478050  0.241554  1
  Pr  Pr2  1  0.172685  0.827315  0.750240  1
  Pr  Pr3  1  0.827315  0.172685  0.250240  1
  Sn  Sn4  1  0.880970  0.119030  0.736319  1
  Sn  Sn5  1  0.119030  0.880970  0.236319  1
  Sn  Sn6  1  0.702787  0.297213  0.047983  1
  Sn  Sn7  1  0.297213  0.702787  0.547983  1
  Sn  Sn8  1  0.596812  0.403188  0.605877  1
  Sn  Sn9  1  0.403188  0.596812  0.105877  1
  Sn  Sn10  1  0.953311  0.046689  0.402256  1
  Sn  Sn11  1  0.046689  0.953311  0.902256  1
  Sn  Sn12  1  0.289013  0.710987  0.972375  1
  Sn  Sn13  1  0.710987  0.289013  0.472375  1
  Pd  Pd14  1  0.050164  0.949836  0.519187  1
  Pd  Pd15  1  0.949836  0.050164  0.019187  1
  Pd  Pd16  1  0.777565  0.222435  0.769225  1
  Pd  Pd17  1  0.222435  0.777565  0.269225  1
  Pd  Pd18  1  0.398191  0.601809  0.482981  1
  Pd  Pd19  1  0.601809  0.398191  0.982981  1
