# generated using pymatgen
data_NaTl3Sn2(SbO7)2
_symmetry_space_group_name_H-M   'P 1'
_cell_length_a   7.47280400
_cell_length_b   7.49004991
_cell_length_c   12.91526500
_cell_angle_alpha   54.95194095
_cell_angle_beta   90.00000000
_cell_angle_gamma   90.00000000
_symmetry_Int_Tables_number   1
_chemical_formula_structural   NaTl3Sn2(SbO7)2
_chemical_formula_sum   'Na2 Tl6 Sn4 Sb4 O28'
_cell_volume   591.80801638
_cell_formula_units_Z   2
loop_
 _symmetry_equiv_pos_site_id
 _symmetry_equiv_pos_as_xyz
  1  'x, y, z'
loop_
 _atom_site_type_symbol
 _atom_site_label
 _atom_site_symmetry_multiplicity
 _atom_site_fract_x
 _atom_site_fract_y
 _atom_site_fract_z
 _atom_site_occupancy
  Na  Na0  1  0.000000  0.500000  0.500000  1
  Na  Na1  1  0.000000  0.500000  0.000000  1
  Tl  Tl2  1  0.246873  0.000000  0.750000  1
  Tl  Tl3  1  0.254018  0.500000  0.750000  1
  Tl  Tl4  1  0.753127  0.000000  0.250000  1
  Tl  Tl5  1  0.500000  0.500000  0.500000  1
  Tl  Tl6  1  0.745982  0.500000  0.250000  1
  Tl  Tl7  1  0.500000  0.500000  0.000000  1
  Sn  Sn8  1  0.252344  0.000000  0.250000  1
  Sn  Sn9  1  0.500000  0.000000  0.000000  1
  Sn  Sn10  1  0.747656  0.000000  0.750000  1
  Sn  Sn11  1  0.500000  0.000000  0.500000  1
  Sb  Sb12  1  0.250921  0.500000  0.250000  1
  Sb  Sb13  1  0.000000  0.000000  0.500000  1
  Sb  Sb14  1  0.749079  0.500000  0.750000  1
  Sb  Sb15  1  0.000000  0.000000  0.000000  1
  O  O16  1  0.263812  0.632089  0.863743  1
  O  O17  1  0.041951  0.073987  0.124651  1
  O  O18  1  0.257634  0.666087  0.327808  1
  O  O19  1  0.736188  0.632089  0.363743  1
  O  O20  1  0.052362  0.678208  0.127724  1
  O  O21  1  0.537008  0.092824  0.621606  1
  O  O22  1  0.052362  0.321792  0.372276  1
  O  O23  1  0.958049  0.073987  0.624651  1
  O  O24  1  0.755541  0.084508  0.423295  1
  O  O25  1  0.742366  0.666087  0.827808  1
  O  O26  1  0.244459  0.915492  0.576705  1
  O  O27  1  0.548131  0.670450  0.628756  1
  O  O28  1  0.041951  0.926013  0.375349  1
  O  O29  1  0.947638  0.678208  0.627724  1
  O  O30  1  0.947638  0.321792  0.872276  1
  O  O31  1  0.462992  0.092824  0.121606  1
  O  O32  1  0.548131  0.329550  0.871244  1
  O  O33  1  0.244459  0.084508  0.923295  1
  O  O34  1  0.742366  0.333913  0.672192  1
  O  O35  1  0.263812  0.367911  0.636257  1
  O  O36  1  0.755541  0.915492  0.076705  1
  O  O37  1  0.958049  0.926013  0.875349  1
  O  O38  1  0.537008  0.907176  0.878394  1
  O  O39  1  0.451869  0.670450  0.128756  1
  O  O40  1  0.451869  0.329550  0.371244  1
  O  O41  1  0.736188  0.367911  0.136257  1
  O  O42  1  0.257634  0.333913  0.172192  1
  O  O43  1  0.462992  0.907176  0.378394  1
