# generated using pymatgen
data_Cs2Zr(CuTe2)2
_symmetry_space_group_name_H-M   'P 1'
_cell_length_a   8.38102897
_cell_length_b   8.38102929
_cell_length_c   6.32971500
_cell_angle_alpha   90.00000000
_cell_angle_beta   90.00000000
_cell_angle_gamma   135.63581537
_symmetry_Int_Tables_number   1
_chemical_formula_structural   Cs2Zr(CuTe2)2
_chemical_formula_sum   'Cs2 Zr1 Cu2 Te4'
_cell_volume   310.87842319
_cell_formula_units_Z   1
loop_
 _symmetry_equiv_pos_site_id
 _symmetry_equiv_pos_as_xyz
  1  'x, y, z'
loop_
 _atom_site_type_symbol
 _atom_site_label
 _atom_site_symmetry_multiplicity
 _atom_site_fract_x
 _atom_site_fract_y
 _atom_site_fract_z
 _atom_site_occupancy
  Cs  Cs0  1  0.500000  0.000000  0.252594  1
  Cs  Cs1  1  0.000000  0.500000  0.747406  1
  Zr  Zr2  1  0.000000  0.000000  0.000000  1
  Cu  Cu3  1  0.000000  0.000000  0.500000  1
  Cu  Cu4  1  0.500000  0.500000  0.000000  1
  Te  Te5  1  0.838993  0.645811  0.257063  1
  Te  Te6  1  0.161007  0.354189  0.257063  1
  Te  Te7  1  0.645811  0.838993  0.742937  1
  Te  Te8  1  0.354189  0.161007  0.742937  1
