# generated using pymatgen
data_TmHf15(Si4W)4
_symmetry_space_group_name_H-M   'P 1'
_cell_length_a   6.96373846
_cell_length_b   6.96003042
_cell_length_c   12.74104032
_cell_angle_alpha   89.96413017
_cell_angle_beta   90.03802920
_cell_angle_gamma   90.17462031
_symmetry_Int_Tables_number   1
_chemical_formula_structural   TmHf15(Si4W)4
_chemical_formula_sum   'Tm1 Hf15 Si16 W4'
_cell_volume   617.52747233
_cell_formula_units_Z   1
loop_
 _symmetry_equiv_pos_site_id
 _symmetry_equiv_pos_as_xyz
  1  'x, y, z'
loop_
 _atom_site_type_symbol
 _atom_site_label
 _atom_site_symmetry_multiplicity
 _atom_site_fract_x
 _atom_site_fract_y
 _atom_site_fract_z
 _atom_site_occupancy
  Tm  Tm0  1  0.495485  0.156760  0.532019  1
  Hf  Hf1  1  0.503941  0.845171  0.031381  1
  Hf  Hf2  1  0.656545  0.002337  0.279119  1
  Hf  Hf3  1  0.345264  0.997330  0.781067  1
  Hf  Hf4  1  0.845498  0.503806  0.968495  1
  Hf  Hf5  1  0.152942  0.498997  0.467942  1
  Hf  Hf6  1  0.002903  0.655797  0.721102  1
  Hf  Hf7  1  0.996546  0.344820  0.219194  1
  Hf  Hf8  1  0.497236  0.355168  0.124042  1
  Hf  Hf9  1  0.502565  0.644860  0.625414  1
  Hf  Hf10  1  0.856056  0.002717  0.875514  1
  Hf  Hf11  1  0.144500  0.995514  0.373336  1
  Hf  Hf12  1  0.646772  0.502129  0.373518  1
  Hf  Hf13  1  0.354935  0.498838  0.875971  1
  Hf  Hf14  1  0.002037  0.855346  0.124963  1
  Hf  Hf15  1  0.997440  0.143866  0.626109  1
  Si  Si16  1  0.796478  0.145540  0.071960  1
  Si  Si17  1  0.200367  0.851781  0.571205  1
  Si  Si18  1  0.646477  0.702973  0.821789  1
  Si  Si19  1  0.352252  0.299020  0.319021  1
  Si  Si20  1  0.858240  0.203566  0.427128  1
  Si  Si21  1  0.145659  0.797260  0.928007  1
  Si  Si22  1  0.703002  0.646085  0.178308  1
  Si  Si23  1  0.292639  0.357349  0.681425  1
  Si  Si24  1  0.546355  0.196986  0.933008  1
  Si  Si25  1  0.453032  0.799276  0.431897  1
  Si  Si26  1  0.698983  0.951429  0.684979  1
  Si  Si27  1  0.303267  0.045832  0.183106  1
  Si  Si28  1  0.803832  0.454823  0.567390  1
  Si  Si29  1  0.196555  0.546486  0.067168  1
  Si  Si30  1  0.953515  0.697119  0.315955  1
  Si  Si31  1  0.045679  0.303471  0.817268  1
  W  W32  1  0.672738  0.328550  0.751589  1
  W  W33  1  0.327383  0.671572  0.249104  1
  W  W34  1  0.828648  0.823090  0.500153  1
  W  W35  1  0.174233  0.174334  0.000355  1
