# generated using pymatgen
data_Nd9Dy(Si2Pb)2
_symmetry_space_group_name_H-M   'P 1'
_cell_length_a   9.21482612
_cell_length_b   9.21482591
_cell_length_c   9.21482600
_cell_angle_alpha   129.16011041
_cell_angle_beta   129.16011737
_cell_angle_gamma   74.75307757
_symmetry_Int_Tables_number   1
_chemical_formula_structural   Nd9Dy(Si2Pb)2
_chemical_formula_sum   'Nd9 Dy1 Si4 Pb2'
_cell_volume   458.27293259
_cell_formula_units_Z   1
loop_
 _symmetry_equiv_pos_site_id
 _symmetry_equiv_pos_as_xyz
  1  'x, y, z'
loop_
 _atom_site_type_symbol
 _atom_site_label
 _atom_site_symmetry_multiplicity
 _atom_site_fract_x
 _atom_site_fract_y
 _atom_site_fract_z
 _atom_site_occupancy
  Nd  Nd0  1  0.535211  0.036008  0.846943  1
  Nd  Nd1  1  0.189064  0.688266  0.153057  1
  Nd  Nd2  1  0.036008  0.189064  0.500797  1
  Nd  Nd3  1  0.688266  0.535211  0.499203  1
  Nd  Nd4  1  0.464789  0.963992  0.153057  1
  Nd  Nd5  1  0.810936  0.311734  0.846943  1
  Nd  Nd6  1  0.963992  0.810936  0.499203  1
  Nd  Nd7  1  0.311734  0.464789  0.500797  1
  Nd  Nd8  1  0.000000  0.000000  0.000000  1
  Dy  Dy9  1  0.500000  0.500000  0.000000  1
  Si  Si10  1  0.876874  0.381935  0.258809  1
  Si  Si11  1  0.123126  0.618065  0.741191  1
  Si  Si12  1  0.381935  0.123126  0.505060  1
  Si  Si13  1  0.618065  0.876874  0.494940  1
  Pb  Pb14  1  0.250517  0.250517  0.000000  1
  Pb  Pb15  1  0.749483  0.749483  0.000000  1
