# generated using pymatgen
data_La6CoTc
_symmetry_space_group_name_H-M   'P 1'
_cell_length_a   6.62260761
_cell_length_b   7.30379017
_cell_length_c   10.08682500
_cell_angle_alpha   90.00000000
_cell_angle_beta   90.00000000
_cell_angle_gamma   90.68484768
_symmetry_Int_Tables_number   1
_chemical_formula_structural   La6CoTc
_chemical_formula_sum   'La12 Co2 Tc2'
_cell_volume   487.86624766
_cell_formula_units_Z   2
loop_
 _symmetry_equiv_pos_site_id
 _symmetry_equiv_pos_as_xyz
  1  'x, y, z'
loop_
 _atom_site_type_symbol
 _atom_site_label
 _atom_site_symmetry_multiplicity
 _atom_site_fract_x
 _atom_site_fract_y
 _atom_site_fract_z
 _atom_site_occupancy
  La  La0  1  0.825470  0.659719  0.073588  1
  La  La1  1  0.668805  0.167876  0.070045  1
  La  La2  1  0.174530  0.340281  0.926412  1
  La  La3  1  0.331195  0.832124  0.570045  1
  La  La4  1  0.865049  0.935392  0.750000  1
  La  La5  1  0.134951  0.064608  0.250000  1
  La  La6  1  0.174530  0.340281  0.573588  1
  La  La7  1  0.668805  0.167876  0.429955  1
  La  La8  1  0.331195  0.832124  0.929955  1
  La  La9  1  0.825470  0.659719  0.426412  1
  La  La10  1  0.342581  0.558481  0.250000  1
  La  La11  1  0.657419  0.441519  0.750000  1
  Co  Co12  1  0.057012  0.620735  0.750000  1
  Co  Co13  1  0.942988  0.379265  0.250000  1
  Tc  Tc14  1  0.545902  0.882488  0.250000  1
  Tc  Tc15  1  0.454098  0.117512  0.750000  1
