# generated using pymatgen
data_Ba6Nb3CrSe16
_symmetry_space_group_name_H-M   'P 1'
_cell_length_a   11.88519728
_cell_length_b   11.88519613
_cell_length_c   11.88519700
_cell_angle_alpha   51.63092968
_cell_angle_beta   51.63092793
_cell_angle_gamma   51.63093320
_symmetry_Int_Tables_number   1
_chemical_formula_structural   Ba6Nb3CrSe16
_chemical_formula_sum   'Ba6 Nb3 Cr1 Se16'
_cell_volume   953.31896799
_cell_formula_units_Z   1
loop_
 _symmetry_equiv_pos_site_id
 _symmetry_equiv_pos_as_xyz
  1  'x, y, z'
loop_
 _atom_site_type_symbol
 _atom_site_label
 _atom_site_symmetry_multiplicity
 _atom_site_fract_x
 _atom_site_fract_y
 _atom_site_fract_z
 _atom_site_occupancy
  Ba  Ba0  1  0.750023  0.434963  0.066779  1
  Ba  Ba1  1  0.571597  0.930493  0.245991  1
  Ba  Ba2  1  0.066825  0.749998  0.434903  1
  Ba  Ba3  1  0.930469  0.245919  0.571647  1
  Ba  Ba4  1  0.434881  0.066835  0.749996  1
  Ba  Ba5  1  0.245996  0.571595  0.930494  1
  Nb  Nb6  1  0.160340  0.160310  0.160315  1
  Nb  Nb7  1  0.339549  0.339525  0.339541  1
  Nb  Nb8  1  0.660426  0.660458  0.660487  1
  Cr  Cr9  1  0.839376  0.839557  0.839403  1
  Se  Se10  1  0.621874  0.789983  0.031730  1
  Se  Se11  1  0.081269  0.081287  0.081272  1
  Se  Se12  1  0.544978  0.285554  0.108075  1
  Se  Se13  1  0.954559  0.391328  0.215325  1
  Se  Se14  1  0.108055  0.544975  0.285554  1
  Se  Se15  1  0.215298  0.954599  0.391314  1
  Se  Se16  1  0.418822  0.418812  0.418811  1
  Se  Se17  1  0.714265  0.892236  0.455299  1
  Se  Se18  1  0.285541  0.108066  0.544982  1
  Se  Se19  1  0.581372  0.581350  0.581353  1
  Se  Se20  1  0.790271  0.031824  0.621739  1
  Se  Se21  1  0.892233  0.455286  0.714283  1
  Se  Se22  1  0.031630  0.621578  0.790295  1
  Se  Se23  1  0.455340  0.714252  0.892207  1
  Se  Se24  1  0.913699  0.913926  0.913599  1
  Se  Se25  1  0.391312  0.215288  0.954600  1
