# generated using pymatgen
data_Yb5Tm3(Ge4Mo3)4
_symmetry_space_group_name_H-M   'P 1'
_cell_length_a   6.83191185
_cell_length_b   7.03441577
_cell_length_c   13.16111259
_cell_angle_alpha   89.91748746
_cell_angle_beta   89.95848661
_cell_angle_gamma   89.92918358
_symmetry_Int_Tables_number   1
_chemical_formula_structural   Yb5Tm3(Ge4Mo3)4
_chemical_formula_sum   'Yb5 Tm3 Ge16 Mo12'
_cell_volume   632.50213601
_cell_formula_units_Z   1
loop_
 _symmetry_equiv_pos_site_id
 _symmetry_equiv_pos_as_xyz
  1  'x, y, z'
loop_
 _atom_site_type_symbol
 _atom_site_label
 _atom_site_symmetry_multiplicity
 _atom_site_fract_x
 _atom_site_fract_y
 _atom_site_fract_z
 _atom_site_occupancy
  Yb  Yb0  1  0.493681  0.330269  0.089637  1
  Yb  Yb1  1  0.993486  0.171133  0.409117  1
  Yb  Yb2  1  0.505767  0.671712  0.591012  1
  Yb  Yb3  1  0.006189  0.828146  0.908974  1
  Yb  Yb4  1  0.505532  0.671336  0.910477  1
  Tm  Tm5  1  0.005773  0.825384  0.592614  1
  Tm  Tm6  1  0.493964  0.326678  0.407978  1
  Tm  Tm7  1  0.993628  0.173404  0.091515  1
  Ge  Ge8  1  0.671186  0.043298  0.545049  1
  Ge  Ge9  1  0.170180  0.456914  0.954321  1
  Ge  Ge10  1  0.329975  0.956287  0.045830  1
  Ge  Ge11  1  0.828807  0.543346  0.454492  1
  Ge  Ge12  1  0.328843  0.955300  0.454411  1
  Ge  Ge13  1  0.830098  0.545125  0.045496  1
  Ge  Ge14  1  0.670238  0.042892  0.953972  1
  Ge  Ge15  1  0.171041  0.455287  0.545229  1
  Ge  Ge16  1  0.529636  0.376635  0.750107  1
  Ge  Ge17  1  0.031069  0.122784  0.749664  1
  Ge  Ge18  1  0.469659  0.627145  0.249037  1
  Ge  Ge19  1  0.970158  0.875248  0.250653  1
  Ge  Ge20  1  0.804780  0.643489  0.751559  1
  Ge  Ge21  1  0.309538  0.854780  0.751267  1
  Ge  Ge22  1  0.192490  0.356126  0.250169  1
  Ge  Ge23  1  0.691827  0.145224  0.249423  1
  Mo  Mo24  1  0.833598  0.337772  0.627485  1
  Mo  Mo25  1  0.333562  0.162959  0.871773  1
  Mo  Mo26  1  0.165673  0.661752  0.127720  1
  Mo  Mo27  1  0.667218  0.838669  0.372793  1
  Mo  Mo28  1  0.166399  0.660948  0.372978  1
  Mo  Mo29  1  0.668938  0.840799  0.128000  1
  Mo  Mo30  1  0.836058  0.336073  0.872009  1
  Mo  Mo31  1  0.333984  0.161334  0.626674  1
  Mo  Mo32  1  0.661442  0.012074  0.749157  1
  Mo  Mo33  1  0.159758  0.488091  0.748872  1
  Mo  Mo34  1  0.337827  0.991403  0.250576  1
  Mo  Mo35  1  0.837999  0.510189  0.249960  1
