# generated using pymatgen
data_LiMg5Os4
_symmetry_space_group_name_H-M   'P 1'
_cell_length_a   6.94023509
_cell_length_b   6.88835352
_cell_length_c   6.94252880
_cell_angle_alpha   90.05153006
_cell_angle_beta   89.98129511
_cell_angle_gamma   89.56242933
_symmetry_Int_Tables_number   1
_chemical_formula_structural   LiMg5Os4
_chemical_formula_sum   'Li2 Mg10 Os8'
_cell_volume   331.89020419
_cell_formula_units_Z   2
loop_
 _symmetry_equiv_pos_site_id
 _symmetry_equiv_pos_as_xyz
  1  'x, y, z'
loop_
 _atom_site_type_symbol
 _atom_site_label
 _atom_site_symmetry_multiplicity
 _atom_site_fract_x
 _atom_site_fract_y
 _atom_site_fract_z
 _atom_site_occupancy
  Li  Li0  1  0.624080  0.290586  0.548701  1
  Li  Li1  1  0.703064  0.046881  0.869747  1
  Mg  Mg2  1  0.543333  0.614803  0.297296  1
  Mg  Mg3  1  0.947897  0.366539  0.788651  1
  Mg  Mg4  1  0.295864  0.538718  0.627594  1
  Mg  Mg5  1  0.464282  0.130542  0.208309  1
  Mg  Mg6  1  0.038438  0.876993  0.711181  1
  Mg  Mg7  1  0.790923  0.963386  0.382025  1
  Mg  Mg8  1  0.129141  0.208006  0.454632  1
  Mg  Mg9  1  0.384280  0.796679  0.956895  1
  Mg  Mg10  1  0.866987  0.715086  0.041269  1
  Mg  Mg11  1  0.204690  0.460509  0.118506  1
  Os  Os12  1  0.677067  0.673119  0.673939  1
  Os  Os13  1  0.925575  0.572391  0.425345  1
  Os  Os14  1  0.572777  0.425561  0.926542  1
  Os  Os15  1  0.425368  0.924133  0.575248  1
  Os  Os16  1  0.176312  0.823042  0.324499  1
  Os  Os17  1  0.826452  0.323113  0.172367  1
  Os  Os18  1  0.325956  0.176248  0.821677  1
  Os  Os19  1  0.077513  0.073667  0.075576  1
