# generated using pymatgen
data_Lu5Sc3(B6Mo)4
_symmetry_space_group_name_H-M   'P 1'
_cell_length_a   3.50338200
_cell_length_b   9.14851050
_cell_length_c   11.49846602
_cell_angle_alpha   89.97745579
_cell_angle_beta   90.00000000
_cell_angle_gamma   90.00000000
_symmetry_Int_Tables_number   1
_chemical_formula_structural   Lu5Sc3(B6Mo)4
_chemical_formula_sum   'Lu5 Sc3 B24 Mo4'
_cell_volume   368.53416709
_cell_formula_units_Z   1
loop_
 _symmetry_equiv_pos_site_id
 _symmetry_equiv_pos_as_xyz
  1  'x, y, z'
loop_
 _atom_site_type_symbol
 _atom_site_label
 _atom_site_symmetry_multiplicity
 _atom_site_fract_x
 _atom_site_fract_y
 _atom_site_fract_z
 _atom_site_occupancy
  Lu  Lu0  1  0.000000  0.320859  0.414295  1
  Lu  Lu1  1  0.000000  0.678784  0.586432  1
  Lu  Lu2  1  0.000000  0.820253  0.085331  1
  Lu  Lu3  1  0.000000  0.179760  0.913843  1
  Lu  Lu4  1  0.000000  0.945046  0.372541  1
  Sc  Sc5  1  0.000000  0.055766  0.630103  1
  Sc  Sc6  1  0.000000  0.444876  0.127564  1
  Sc  Sc7  1  0.000000  0.555320  0.871606  1
  B  B8  1  0.500000  0.550856  0.435116  1
  B  B9  1  0.500000  0.447325  0.565168  1
  B  B10  1  0.500000  0.052771  0.064003  1
  B  B11  1  0.500000  0.947672  0.935152  1
  B  B12  1  0.500000  0.752880  0.422496  1
  B  B13  1  0.500000  0.244152  0.578887  1
  B  B14  1  0.500000  0.257215  0.077033  1
  B  B15  1  0.500000  0.743403  0.922112  1
  B  B16  1  0.500000  0.795887  0.261483  1
  B  B17  1  0.500000  0.202483  0.737715  1
  B  B18  1  0.500000  0.298269  0.236132  1
  B  B19  1  0.500000  0.702317  0.763168  1
  B  B20  1  0.500000  0.629040  0.179506  1
  B  B21  1  0.500000  0.370579  0.820120  1
  B  B22  1  0.500000  0.132567  0.318612  1
  B  B23  1  0.500000  0.870155  0.680976  1
  B  B24  1  0.500000  0.979030  0.211691  1
  B  B25  1  0.500000  0.021663  0.786891  1
  B  B26  1  0.500000  0.477465  0.285908  1
  B  B27  1  0.500000  0.521953  0.713659  1
  B  B28  1  0.500000  0.595491  0.026123  1
  B  B29  1  0.500000  0.404823  0.973135  1
  B  B30  1  0.500000  0.098707  0.475137  1
  B  B31  1  0.500000  0.903237  0.529099  1
  Mo  Mo32  1  0.000000  0.639274  0.318390  1
  Mo  Mo33  1  0.000000  0.358821  0.681727  1
  Mo  Mo34  1  0.000000  0.143016  0.179271  1
  Mo  Mo35  1  0.000000  0.858282  0.819575  1
