# generated using pymatgen
data_Sc2TaSb(SeO3)8
_symmetry_space_group_name_H-M   'P 1'
_cell_length_a   8.41469305
_cell_length_b   8.47007976
_cell_length_c   8.41935577
_cell_angle_alpha   89.77860918
_cell_angle_beta   90.14051193
_cell_angle_gamma   90.22228320
_symmetry_Int_Tables_number   1
_chemical_formula_structural   Sc2TaSb(SeO3)8
_chemical_formula_sum   'Sc2 Ta1 Sb1 Se8 O24'
_cell_volume   600.06298665
_cell_formula_units_Z   1
loop_
 _symmetry_equiv_pos_site_id
 _symmetry_equiv_pos_as_xyz
  1  'x, y, z'
loop_
 _atom_site_type_symbol
 _atom_site_label
 _atom_site_symmetry_multiplicity
 _atom_site_fract_x
 _atom_site_fract_y
 _atom_site_fract_z
 _atom_site_occupancy
  Sc  Sc0  1  0.000000  0.500000  0.000000  1
  Sc  Sc1  1  0.500000  0.500000  0.500000  1
  Ta  Ta2  1  0.000000  0.000000  0.500000  1
  Sb  Sb3  1  0.500000  0.000000  0.000000  1
  Se  Se4  1  0.334156  0.677052  0.167467  1
  Se  Se5  1  0.828639  0.332179  0.326913  1
  Se  Se6  1  0.671396  0.829134  0.683899  1
  Se  Se7  1  0.185325  0.171955  0.830383  1
  Se  Se8  1  0.665844  0.322948  0.832533  1
  Se  Se9  1  0.171361  0.667821  0.673087  1
  Se  Se10  1  0.328604  0.170866  0.316101  1
  Se  Se11  1  0.814675  0.828045  0.169617  1
  O  O12  1  0.240638  0.555191  0.037809  1
  O  O13  1  0.740797  0.454280  0.459514  1
  O  O14  1  0.772293  0.964805  0.562262  1
  O  O15  1  0.263386  0.024031  0.960366  1
  O  O16  1  0.536782  0.970011  0.764054  1
  O  O17  1  0.465062  0.554839  0.259010  1
  O  O18  1  0.967786  0.450847  0.241591  1
  O  O19  1  0.056905  0.045252  0.726511  1
  O  O20  1  0.955443  0.224468  0.460438  1
  O  O21  1  0.551789  0.742539  0.550356  1
  O  O22  1  0.475189  0.767456  0.028710  1
  O  O23  1  0.057617  0.257786  0.955503  1
  O  O24  1  0.759362  0.444809  0.962191  1
  O  O25  1  0.259203  0.545720  0.540486  1
  O  O26  1  0.227707  0.035195  0.437738  1
  O  O27  1  0.736614  0.975969  0.039634  1
  O  O28  1  0.463218  0.029989  0.235946  1
  O  O29  1  0.534938  0.445161  0.740990  1
  O  O30  1  0.032214  0.549153  0.758409  1
  O  O31  1  0.943095  0.954748  0.273489  1
  O  O32  1  0.044557  0.775532  0.539562  1
  O  O33  1  0.448211  0.257461  0.449644  1
  O  O34  1  0.524811  0.232544  0.971290  1
  O  O35  1  0.942383  0.742214  0.044497  1
