# generated using pymatgen
data_Sm2VGeF14
_symmetry_space_group_name_H-M   'P 1'
_cell_length_a   5.56351100
_cell_length_b   8.94551464
_cell_length_c   11.94615032
_cell_angle_alpha   62.48434679
_cell_angle_beta   90.00000000
_cell_angle_gamma   90.00000000
_symmetry_Int_Tables_number   1
_chemical_formula_structural   Sm2VGeF14
_chemical_formula_sum   'Sm4 V2 Ge2 F28'
_cell_volume   527.28983064
_cell_formula_units_Z   2
loop_
 _symmetry_equiv_pos_site_id
 _symmetry_equiv_pos_as_xyz
  1  'x, y, z'
loop_
 _atom_site_type_symbol
 _atom_site_label
 _atom_site_symmetry_multiplicity
 _atom_site_fract_x
 _atom_site_fract_y
 _atom_site_fract_z
 _atom_site_occupancy
  Sm  Sm0  1  0.759255  0.804720  0.767763  1
  Sm  Sm1  1  0.259255  0.195280  0.732237  1
  Sm  Sm2  1  0.241202  0.189841  0.233588  1
  Sm  Sm3  1  0.741202  0.810159  0.266412  1
  V  V4  1  0.245701  0.726321  0.043694  1
  V  V5  1  0.745701  0.273679  0.456306  1
  Ge  Ge6  1  0.755489  0.273558  0.956737  1
  Ge  Ge7  1  0.255489  0.726442  0.543263  1
  F  F8  1  0.443698  0.707533  0.922099  1
  F  F9  1  0.943698  0.292467  0.577901  1
  F  F10  1  0.561751  0.293764  0.072591  1
  F  F11  1  0.061751  0.706236  0.427409  1
  F  F12  1  0.462849  0.284687  0.542987  1
  F  F13  1  0.962849  0.715313  0.957013  1
  F  F14  1  0.528647  0.714393  0.460124  1
  F  F15  1  0.028647  0.285607  0.039876  1
  F  F16  1  0.766042  0.502619  0.863483  1
  F  F17  1  0.266042  0.497381  0.636517  1
  F  F18  1  0.234162  0.494529  0.135774  1
  F  F19  1  0.734162  0.505471  0.364226  1
  F  F20  1  0.758550  0.044745  0.046461  1
  F  F21  1  0.258550  0.955255  0.453539  1
  F  F22  1  0.241471  0.956339  0.953377  1
  F  F23  1  0.741471  0.043661  0.546623  1
  F  F24  1  0.989784  0.731190  0.632638  1
  F  F25  1  0.489784  0.268810  0.867362  1
  F  F26  1  0.020530  0.269966  0.363890  1
  F  F27  1  0.520530  0.730034  0.136110  1
  F  F28  1  0.049765  0.743992  0.168561  1
  F  F29  1  0.549765  0.256008  0.331439  1
  F  F30  1  0.946701  0.256692  0.836996  1
  F  F31  1  0.446701  0.743308  0.663004  1
  F  F32  1  0.408197  0.968304  0.228239  1
  F  F33  1  0.908197  0.031696  0.271761  1
  F  F34  1  0.586208  0.028729  0.770008  1
  F  F35  1  0.086208  0.971271  0.729992  1
