# generated using pymatgen
data_Nd3Fe2P6Ru7
_symmetry_space_group_name_H-M   'P 1'
_cell_length_a   3.92684000
_cell_length_b   11.01674200
_cell_length_c   12.83001700
_cell_angle_alpha   90.00000000
_cell_angle_beta   90.00000000
_cell_angle_gamma   90.00000000
_symmetry_Int_Tables_number   1
_chemical_formula_structural   Nd3Fe2P6Ru7
_chemical_formula_sum   'Nd6 Fe4 P12 Ru14'
_cell_volume   555.03914932
_cell_formula_units_Z   2
loop_
 _symmetry_equiv_pos_site_id
 _symmetry_equiv_pos_as_xyz
  1  'x, y, z'
loop_
 _atom_site_type_symbol
 _atom_site_label
 _atom_site_symmetry_multiplicity
 _atom_site_fract_x
 _atom_site_fract_y
 _atom_site_fract_z
 _atom_site_occupancy
  Nd  Nd0  1  0.000000  0.500000  0.525773  1
  Nd  Nd1  1  0.500000  0.000000  0.474179  1
  Nd  Nd2  1  0.500000  0.822924  0.203875  1
  Nd  Nd3  1  0.500000  0.177076  0.203875  1
  Nd  Nd4  1  0.000000  0.679336  0.797848  1
  Nd  Nd5  1  0.000000  0.320664  0.797848  1
  Fe  Fe6  1  0.000000  0.500000  0.991725  1
  Fe  Fe7  1  0.500000  0.000000  0.010254  1
  Fe  Fe8  1  0.000000  0.164341  0.005434  1
  Fe  Fe9  1  0.000000  0.835659  0.005434  1
  P  P10  1  0.500000  0.303960  0.615136  1
  P  P11  1  0.500000  0.696040  0.615136  1
  P  P12  1  0.000000  0.196943  0.385466  1
  P  P13  1  0.000000  0.803057  0.385466  1
  P  P14  1  0.500000  0.500000  0.891986  1
  P  P15  1  0.000000  0.000000  0.107627  1
  P  P16  1  0.500000  0.853188  0.897620  1
  P  P17  1  0.500000  0.146812  0.897620  1
  P  P18  1  0.000000  0.654040  0.099778  1
  P  P19  1  0.000000  0.345960  0.099778  1
  P  P20  1  0.500000  0.500000  0.332415  1
  P  P21  1  0.000000  0.000000  0.666589  1
  Ru  Ru22  1  0.500000  0.300000  0.428547  1
  Ru  Ru23  1  0.500000  0.700000  0.428547  1
  Ru  Ru24  1  0.000000  0.200823  0.571602  1
  Ru  Ru25  1  0.000000  0.799177  0.571602  1
  Ru  Ru26  1  0.500000  0.878562  0.716097  1
  Ru  Ru27  1  0.500000  0.121438  0.716097  1
  Ru  Ru28  1  0.000000  0.622187  0.282200  1
  Ru  Ru29  1  0.000000  0.377813  0.282200  1
  Ru  Ru30  1  0.500000  0.326181  0.995013  1
  Ru  Ru31  1  0.500000  0.673819  0.995013  1
  Ru  Ru32  1  0.500000  0.500000  0.150870  1
  Ru  Ru33  1  0.000000  0.000000  0.850773  1
  Ru  Ru34  1  0.500000  0.500000  0.700456  1
  Ru  Ru35  1  0.000000  0.000000  0.300120  1
