# generated using pymatgen
data_Ac3Th(B2Ir5)2
_symmetry_space_group_name_H-M   'P 1'
_cell_length_a   11.33769634
_cell_length_b   11.33769592
_cell_length_c   11.33769586
_cell_angle_alpha   28.66846245
_cell_angle_beta   28.66846466
_cell_angle_gamma   28.66846618
_symmetry_Int_Tables_number   1
_chemical_formula_structural   Ac3Th(B2Ir5)2
_chemical_formula_sum   'Ac3 Th1 B4 Ir10'
_cell_volume   296.53428785
_cell_formula_units_Z   1
loop_
 _symmetry_equiv_pos_site_id
 _symmetry_equiv_pos_as_xyz
  1  'x, y, z'
loop_
 _atom_site_type_symbol
 _atom_site_label
 _atom_site_symmetry_multiplicity
 _atom_site_fract_x
 _atom_site_fract_y
 _atom_site_fract_z
 _atom_site_occupancy
  Ac  Ac0  1  0.152485  0.152485  0.152485  1
  Ac  Ac1  1  0.949787  0.949787  0.949787  1
  Ac  Ac2  1  0.848064  0.848064  0.848064  1
  Th  Th3  1  0.050216  0.050216  0.050216  1
  B  B4  1  0.618660  0.618660  0.618660  1
  B  B5  1  0.716570  0.716570  0.716570  1
  B  B6  1  0.381116  0.381116  0.381116  1
  B  B7  1  0.283415  0.283415  0.283415  1
  Ir  Ir8  1  0.410644  0.898293  0.410644  1
  Ir  Ir9  1  0.898293  0.410644  0.410644  1
  Ir  Ir10  1  0.500856  0.500856  0.000364  1
  Ir  Ir11  1  0.500856  0.000364  0.500856  1
  Ir  Ir12  1  0.000364  0.500856  0.500856  1
  Ir  Ir13  1  0.499678  0.499678  0.499678  1
  Ir  Ir14  1  0.588556  0.101240  0.588556  1
  Ir  Ir15  1  0.588556  0.588556  0.101240  1
  Ir  Ir16  1  0.101240  0.588556  0.588556  1
  Ir  Ir17  1  0.410644  0.410644  0.898293  1
