# generated using pymatgen
data_TbY6Ho3(CoBi2)2
_symmetry_space_group_name_H-M   'P 1'
_cell_length_a   8.01995841
_cell_length_b   8.85594727
_cell_length_c   12.43563945
_cell_angle_alpha   90.01408397
_cell_angle_beta   89.97246119
_cell_angle_gamma   90.02432861
_symmetry_Int_Tables_number   1
_chemical_formula_structural   TbY6Ho3(CoBi2)2
_chemical_formula_sum   'Tb2 Y12 Ho6 Co4 Bi8'
_cell_volume   883.23273679
_cell_formula_units_Z   2
loop_
 _symmetry_equiv_pos_site_id
 _symmetry_equiv_pos_as_xyz
  1  'x, y, z'
loop_
 _atom_site_type_symbol
 _atom_site_label
 _atom_site_symmetry_multiplicity
 _atom_site_fract_x
 _atom_site_fract_y
 _atom_site_fract_z
 _atom_site_occupancy
  Tb  Tb0  1  0.676554  0.537126  0.563140  1
  Tb  Tb1  1  0.323446  0.462874  0.436860  1
  Y  Y2  1  0.346979  0.750290  0.700387  1
  Y  Y3  1  0.653021  0.249710  0.299613  1
  Y  Y4  1  0.847486  0.249909  0.800065  1
  Y  Y5  1  0.152514  0.750091  0.199935  1
  Y  Y6  1  0.883167  0.749981  0.810090  1
  Y  Y7  1  0.116833  0.250019  0.189910  1
  Y  Y8  1  0.382949  0.249391  0.690584  1
  Y  Y9  1  0.617051  0.750609  0.309416  1
  Y  Y10  1  0.049946  0.750489  0.498088  1
  Y  Y11  1  0.950054  0.249511  0.501912  1
  Y  Y12  1  0.550261  0.249931  0.001990  1
  Y  Y13  1  0.449739  0.750069  0.998010  1
  Ho  Ho14  1  0.174663  0.462734  0.937111  1
  Ho  Ho15  1  0.325366  0.037301  0.437025  1
  Ho  Ho16  1  0.825337  0.537266  0.062889  1
  Ho  Ho17  1  0.674634  0.962699  0.562975  1
  Ho  Ho18  1  0.825369  0.962718  0.062965  1
  Ho  Ho19  1  0.174631  0.037282  0.937035  1
  Co  Co20  1  0.063703  0.749990  0.991904  1
  Co  Co21  1  0.936297  0.250010  0.008096  1
  Co  Co22  1  0.564192  0.249107  0.508392  1
  Co  Co23  1  0.435808  0.750893  0.491608  1
  Bi  Bi24  1  0.571617  0.509177  0.826628  1
  Bi  Bi25  1  0.428383  0.490823  0.173372  1
  Bi  Bi26  1  0.072686  0.490722  0.673800  1
  Bi  Bi27  1  0.428181  0.009244  0.173551  1
  Bi  Bi28  1  0.927314  0.509278  0.326200  1
  Bi  Bi29  1  0.571819  0.990756  0.826449  1
  Bi  Bi30  1  0.928213  0.990820  0.326376  1
  Bi  Bi31  1  0.071787  0.009180  0.673624  1
