# generated using pymatgen
data_Ta4AlCr6P
_symmetry_space_group_name_H-M   'P 1'
_cell_length_a   4.87599000
_cell_length_b   4.87598982
_cell_length_c   8.09860300
_cell_angle_alpha   90.00000000
_cell_angle_beta   90.00000000
_cell_angle_gamma   120.00000123
_symmetry_Int_Tables_number   1
_chemical_formula_structural   Ta4AlCr6P
_chemical_formula_sum   'Ta4 Al1 Cr6 P1'
_cell_volume   166.75018822
_cell_formula_units_Z   1
loop_
 _symmetry_equiv_pos_site_id
 _symmetry_equiv_pos_as_xyz
  1  'x, y, z'
loop_
 _atom_site_type_symbol
 _atom_site_label
 _atom_site_symmetry_multiplicity
 _atom_site_fract_x
 _atom_site_fract_y
 _atom_site_fract_z
 _atom_site_occupancy
  Ta  Ta0  1  0.333333  0.666667  0.434901  1
  Ta  Ta1  1  0.666667  0.333333  0.565099  1
  Ta  Ta2  1  0.666667  0.333333  0.934646  1
  Ta  Ta3  1  0.333333  0.666667  0.065354  1
  Al  Al4  1  0.000000  0.000000  0.500000  1
  Cr  Cr5  1  0.827229  0.172771  0.245046  1
  Cr  Cr6  1  0.827229  0.654460  0.245046  1
  Cr  Cr7  1  0.345540  0.172771  0.245046  1
  Cr  Cr8  1  0.172771  0.827229  0.754954  1
  Cr  Cr9  1  0.172771  0.345540  0.754954  1
  Cr  Cr10  1  0.654460  0.827229  0.754954  1
  P  P11  1  0.000000  0.000000  0.000000  1
