# generated using pymatgen
data_DyHo4CoSb2
_symmetry_space_group_name_H-M   'P 1'
_cell_length_a   7.86476000
_cell_length_b   8.74359000
_cell_length_c   12.15647400
_cell_angle_alpha   90.00000000
_cell_angle_beta   90.00000000
_cell_angle_gamma   90.00000000
_symmetry_Int_Tables_number   1
_chemical_formula_structural   DyHo4CoSb2
_chemical_formula_sum   'Dy4 Ho16 Co4 Sb8'
_cell_volume   835.95497081
_cell_formula_units_Z   4
loop_
 _symmetry_equiv_pos_site_id
 _symmetry_equiv_pos_as_xyz
  1  'x, y, z'
loop_
 _atom_site_type_symbol
 _atom_site_label
 _atom_site_symmetry_multiplicity
 _atom_site_fract_x
 _atom_site_fract_y
 _atom_site_fract_z
 _atom_site_occupancy
  Dy  Dy0  1  0.156931  0.750000  0.203940  1
  Dy  Dy1  1  0.656931  0.250000  0.296060  1
  Dy  Dy2  1  0.843069  0.250000  0.796060  1
  Dy  Dy3  1  0.343069  0.750000  0.703940  1
  Ho  Ho4  1  0.452741  0.750000  0.997971  1
  Ho  Ho5  1  0.952741  0.250000  0.502029  1
  Ho  Ho6  1  0.547259  0.250000  0.002029  1
  Ho  Ho7  1  0.047259  0.750000  0.497971  1
  Ho  Ho8  1  0.622584  0.750000  0.307447  1
  Ho  Ho9  1  0.122584  0.250000  0.192553  1
  Ho  Ho10  1  0.377416  0.250000  0.692553  1
  Ho  Ho11  1  0.877416  0.750000  0.807447  1
  Ho  Ho12  1  0.822582  0.963453  0.065449  1
  Ho  Ho13  1  0.322582  0.036547  0.434551  1
  Ho  Ho14  1  0.177418  0.463453  0.934551  1
  Ho  Ho15  1  0.677418  0.536547  0.565449  1
  Ho  Ho16  1  0.177418  0.036547  0.934551  1
  Ho  Ho17  1  0.677418  0.963453  0.565449  1
  Ho  Ho18  1  0.822582  0.536547  0.065449  1
  Ho  Ho19  1  0.322582  0.463453  0.434551  1
  Co  Co20  1  0.431637  0.750000  0.490083  1
  Co  Co21  1  0.931637  0.250000  0.009917  1
  Co  Co22  1  0.568363  0.250000  0.509917  1
  Co  Co23  1  0.068363  0.750000  0.990083  1
  Sb  Sb24  1  0.930292  0.991693  0.327229  1
  Sb  Sb25  1  0.430292  0.008307  0.172771  1
  Sb  Sb26  1  0.069708  0.491693  0.672771  1
  Sb  Sb27  1  0.569708  0.508307  0.827229  1
  Sb  Sb28  1  0.069708  0.008307  0.672771  1
  Sb  Sb29  1  0.569708  0.991693  0.827229  1
  Sb  Sb30  1  0.930292  0.508307  0.327229  1
  Sb  Sb31  1  0.430292  0.491693  0.172771  1
