# generated using pymatgen
data_Y11LuZnCdCo4
_symmetry_space_group_name_H-M   'P 1'
_cell_length_a   8.33556849
_cell_length_b   8.35598707
_cell_length_c   8.33556796
_cell_angle_alpha   112.17037409
_cell_angle_beta   109.51813437
_cell_angle_gamma   106.67279401
_symmetry_Int_Tables_number   1
_chemical_formula_structural   Y11LuZnCdCo4
_chemical_formula_sum   'Y11 Lu1 Zn1 Cd1 Co4'
_cell_volume   446.45359078
_cell_formula_units_Z   1
loop_
 _symmetry_equiv_pos_site_id
 _symmetry_equiv_pos_as_xyz
  1  'x, y, z'
loop_
 _atom_site_type_symbol
 _atom_site_label
 _atom_site_symmetry_multiplicity
 _atom_site_fract_x
 _atom_site_fract_y
 _atom_site_fract_z
 _atom_site_occupancy
  Y  Y0  1  0.429198  0.228845  0.197226  1
  Y  Y1  1  0.572714  0.771288  0.805860  1
  Y  Y2  1  0.031620  0.228845  0.799649  1
  Y  Y3  1  0.965428  0.771288  0.198571  1
  Y  Y4  1  0.179833  0.283694  0.464250  1
  Y  Y5  1  0.817827  0.716664  0.534476  1
  Y  Y6  1  0.182188  0.716664  0.898837  1
  Y  Y7  1  0.819445  0.283694  0.103861  1
  Y  Y8  1  0.324339  0.635258  0.310920  1
  Y  Y9  1  0.676311  0.364272  0.687961  1
  Y  Y10  1  0.323718  0.012279  0.688562  1
  Lu  Lu11  1  0.675284  0.990798  0.315514  1
  Zn  Zn12  1  0.000969  0.000085  0.999115  1
  Cd  Cd13  1  0.501291  0.503195  0.001904  1
  Co  Co14  1  0.349435  0.997494  0.345238  1
  Co  Co15  1  0.652256  0.997494  0.648059  1
  Co  Co16  1  0.112377  0.613532  0.501155  1
  Co  Co17  1  0.885767  0.384612  0.498845  1
