# generated using pymatgen
data_TbDy2Lu17Bi12
_symmetry_space_group_name_H-M   'P 1'
_cell_length_a   8.15248239
_cell_length_b   9.39844000
_cell_length_c   11.81659000
_cell_angle_alpha   90.00000000
_cell_angle_beta   90.03342525
_cell_angle_gamma   90.00000000
_symmetry_Int_Tables_number   1
_chemical_formula_structural   TbDy2Lu17Bi12
_chemical_formula_sum   'Tb1 Dy2 Lu17 Bi12'
_cell_volume   905.39425746
_cell_formula_units_Z   1
loop_
 _symmetry_equiv_pos_site_id
 _symmetry_equiv_pos_as_xyz
  1  'x, y, z'
loop_
 _atom_site_type_symbol
 _atom_site_label
 _atom_site_symmetry_multiplicity
 _atom_site_fract_x
 _atom_site_fract_y
 _atom_site_fract_z
 _atom_site_occupancy
  Tb  Tb0  1  0.186638  0.750000  0.717371  1
  Dy  Dy1  1  0.812864  0.250000  0.282832  1
  Dy  Dy2  1  0.686782  0.750000  0.782597  1
  Lu  Lu3  1  0.352579  0.750000  0.218152  1
  Lu  Lu4  1  0.852447  0.750000  0.281740  1
  Lu  Lu5  1  0.647295  0.250000  0.782068  1
  Lu  Lu6  1  0.147792  0.250000  0.718322  1
  Lu  Lu7  1  0.692095  0.567390  0.059491  1
  Lu  Lu8  1  0.191690  0.932640  0.440407  1
  Lu  Lu9  1  0.308051  0.067381  0.940780  1
  Lu  Lu10  1  0.808348  0.432721  0.559395  1
  Lu  Lu11  1  0.308051  0.432619  0.940780  1
  Lu  Lu12  1  0.808348  0.067279  0.559395  1
  Lu  Lu13  1  0.692095  0.932610  0.059491  1
  Lu  Lu14  1  0.191690  0.567360  0.440407  1
  Lu  Lu15  1  0.477469  0.250000  0.489138  1
  Lu  Lu16  1  0.977915  0.250000  0.010815  1
  Lu  Lu17  1  0.522272  0.750000  0.510287  1
  Lu  Lu18  1  0.022485  0.750000  0.989863  1
  Lu  Lu19  1  0.312606  0.250000  0.216391  1
  Bi  Bi20  1  0.402350  0.750000  0.959089  1
  Bi  Bi21  1  0.901454  0.750000  0.540865  1
  Bi  Bi22  1  0.596860  0.250000  0.042350  1
  Bi  Bi23  1  0.099036  0.250000  0.458366  1
  Bi  Bi24  1  0.564079  0.995314  0.325003  1
  Bi  Bi25  1  0.066907  0.504558  0.174439  1
  Bi  Bi26  1  0.435051  0.494326  0.674393  1
  Bi  Bi27  1  0.934360  0.005740  0.825971  1
  Bi  Bi28  1  0.435051  0.005674  0.674393  1
  Bi  Bi29  1  0.934360  0.494260  0.825971  1
  Bi  Bi30  1  0.564079  0.504686  0.325003  1
  Bi  Bi31  1  0.066907  0.995442  0.174439  1
