# generated using pymatgen
data_K2ZrWO6
_symmetry_space_group_name_H-M   'P 1'
_cell_length_a   5.78513709
_cell_length_b   5.78513622
_cell_length_c   5.78513800
_cell_angle_alpha   60.00000124
_cell_angle_beta   60.00000624
_cell_angle_gamma   90.00000434
_symmetry_Int_Tables_number   1
_chemical_formula_structural   K2ZrWO6
_chemical_formula_sum   'K2 Zr1 W1 O6'
_cell_volume   136.90710979
_cell_formula_units_Z   1
loop_
 _symmetry_equiv_pos_site_id
 _symmetry_equiv_pos_as_xyz
  1  'x, y, z'
loop_
 _atom_site_type_symbol
 _atom_site_label
 _atom_site_symmetry_multiplicity
 _atom_site_fract_x
 _atom_site_fract_y
 _atom_site_fract_z
 _atom_site_occupancy
  K  K0  1  0.250002  0.750002  0.499998  1
  K  K1  1  0.749999  0.249999  0.500001  1
  Zr  Zr2  1  0.500001  0.500001  0.000000  1
  W  W3  1  0.000000  0.000000  0.000000  1
  O  O4  1  0.760328  0.239672  0.000000  1
  O  O5  1  0.239675  0.239675  0.000000  1
  O  O6  1  0.239675  0.760328  0.000000  1
  O  O7  1  0.760328  0.760328  0.000000  1
  O  O8  1  0.239673  0.239673  0.520654  1
  O  O9  1  0.760327  0.760327  0.479345  1
