# generated using pymatgen
data_MgTa4Ti3Os8
_symmetry_space_group_name_H-M   'P 1'
_cell_length_a   6.28621700
_cell_length_b   4.44950500
_cell_length_c   8.90555500
_cell_angle_alpha   90.00000000
_cell_angle_beta   90.00023430
_cell_angle_gamma   90.00000000
_symmetry_Int_Tables_number   1
_chemical_formula_structural   MgTa4Ti3Os8
_chemical_formula_sum   'Mg1 Ta4 Ti3 Os8'
_cell_volume   249.09330678
_cell_formula_units_Z   1
loop_
 _symmetry_equiv_pos_site_id
 _symmetry_equiv_pos_as_xyz
  1  'x, y, z'
loop_
 _atom_site_type_symbol
 _atom_site_label
 _atom_site_symmetry_multiplicity
 _atom_site_fract_x
 _atom_site_fract_y
 _atom_site_fract_z
 _atom_site_occupancy
  Mg  Mg0  1  0.249998  0.250000  0.125019  1
  Ta  Ta1  1  0.750000  0.250000  0.124978  1
  Ta  Ta2  1  0.250001  0.749999  0.371049  1
  Ta  Ta3  1  0.750001  0.250000  0.625006  1
  Ta  Ta4  1  0.250001  0.749999  0.878943  1
  Ti  Ti5  1  0.749998  0.749999  0.374496  1
  Ti  Ti6  1  0.250002  0.250000  0.625023  1
  Ti  Ti7  1  0.749998  0.749999  0.875496  1
  Os  Os8  1  0.503058  0.749999  0.124980  1
  Os  Os9  1  0.996944  0.749999  0.124981  1
  Os  Os10  1  0.501293  0.250000  0.377481  1
  Os  Os11  1  0.998705  0.250000  0.377479  1
  Os  Os12  1  0.000979  0.749999  0.624991  1
  Os  Os13  1  0.499023  0.749999  0.624992  1
  Os  Os14  1  0.998699  0.250000  0.872543  1
  Os  Os15  1  0.501299  0.250000  0.872542  1
