# generated using pymatgen
data_Tm6Al24GaFeRu6
_symmetry_space_group_name_H-M   'P 1'
_cell_length_a   8.81392022
_cell_length_b   8.81391505
_cell_length_c   9.48198800
_cell_angle_alpha   90.07880886
_cell_angle_beta   89.92111610
_cell_angle_gamma   119.85210955
_symmetry_Int_Tables_number   1
_chemical_formula_structural   Tm6Al24GaFeRu6
_chemical_formula_sum   'Tm6 Al24 Ga1 Fe1 Ru6'
_cell_volume   638.87035473
_cell_formula_units_Z   1
loop_
 _symmetry_equiv_pos_site_id
 _symmetry_equiv_pos_as_xyz
  1  'x, y, z'
loop_
 _atom_site_type_symbol
 _atom_site_label
 _atom_site_symmetry_multiplicity
 _atom_site_fract_x
 _atom_site_fract_y
 _atom_site_fract_z
 _atom_site_occupancy
  Tm  Tm0  1  0.805056  0.194938  0.744789  1
  Tm  Tm1  1  0.194944  0.805062  0.255211  1
  Tm  Tm2  1  0.386709  0.193725  0.754110  1
  Tm  Tm3  1  0.613291  0.806275  0.245890  1
  Tm  Tm4  1  0.806275  0.613292  0.754111  1
  Tm  Tm5  1  0.193725  0.386708  0.245889  1
  Al  Al6  1  0.672868  0.327133  0.977338  1
  Al  Al7  1  0.327132  0.672867  0.022662  1
  Al  Al8  1  0.333644  0.666356  0.482113  1
  Al  Al9  1  0.666356  0.333644  0.517887  1
  Al  Al10  1  0.840469  0.159531  0.422298  1
  Al  Al11  1  0.159531  0.840469  0.577702  1
  Al  Al12  1  0.318484  0.159017  0.426319  1
  Al  Al13  1  0.162070  0.837930  0.920948  1
  Al  Al14  1  0.681516  0.840983  0.573681  1
  Al  Al15  1  0.837930  0.162070  0.079052  1
  Al  Al16  1  0.840984  0.681516  0.426319  1
  Al  Al17  1  0.679931  0.853064  0.916864  1
  Al  Al18  1  0.159016  0.318484  0.573681  1
  Al  Al19  1  0.320069  0.146936  0.083136  1
  Al  Al20  1  0.146936  0.320069  0.916864  1
  Al  Al21  1  0.853064  0.679931  0.083136  1
  Al  Al22  1  0.434765  0.565234  0.741647  1
  Al  Al23  1  0.565235  0.434766  0.258353  1
  Al  Al24  1  0.120254  0.561387  0.750590  1
  Al  Al25  1  0.879746  0.438613  0.249410  1
  Al  Al26  1  0.438613  0.879745  0.750589  1
  Al  Al27  1  0.561387  0.120255  0.249411  1
  Al  Al28  1  0.001008  0.998992  0.743213  1
  Al  Al29  1  0.998992  0.001008  0.256787  1
  Ga  Ga30  1  0.500000  0.500000  0.000000  1
  Fe  Fe31  1  0.000000  0.000000  0.500000  1
  Ru  Ru32  1  0.000000  0.500000  0.000000  1
  Ru  Ru33  1  0.500000  0.500000  0.500000  1
  Ru  Ru34  1  0.500000  0.000000  0.000000  1
  Ru  Ru35  1  0.000000  0.500000  0.500000  1
  Ru  Ru36  1  0.500000  0.000000  0.500000  1
  Ru  Ru37  1  0.000000  0.000000  0.000000  1
