# generated using pymatgen
data_Dy5TmSi4(GeRu2)2
_symmetry_space_group_name_H-M   'P 1'
_cell_length_a   5.74853505
_cell_length_b   5.74853440
_cell_length_c   13.88337419
_cell_angle_alpha   90.08285261
_cell_angle_beta   89.91714644
_cell_angle_gamma   137.44707969
_symmetry_Int_Tables_number   1
_chemical_formula_structural   Dy5TmSi4(GeRu2)2
_chemical_formula_sum   'Dy5 Tm1 Si4 Ge2 Ru4'
_cell_volume   310.26266619
_cell_formula_units_Z   1
loop_
 _symmetry_equiv_pos_site_id
 _symmetry_equiv_pos_as_xyz
  1  'x, y, z'
loop_
 _atom_site_type_symbol
 _atom_site_label
 _atom_site_symmetry_multiplicity
 _atom_site_fract_x
 _atom_site_fract_y
 _atom_site_fract_z
 _atom_site_occupancy
  Dy  Dy0  1  0.925285  0.074715  0.387062  1
  Dy  Dy1  1  0.074650  0.925350  0.613202  1
  Dy  Dy2  1  0.925335  0.074665  0.112468  1
  Dy  Dy3  1  0.645404  0.354596  0.249776  1
  Dy  Dy4  1  0.354747  0.645253  0.750465  1
  Tm  Tm5  1  0.075404  0.924596  0.887992  1
  Si  Si6  1  0.617665  0.382335  0.461338  1
  Si  Si7  1  0.382314  0.617686  0.538676  1
  Si  Si8  1  0.617282  0.382718  0.037928  1
  Si  Si9  1  0.383072  0.616928  0.961260  1
  Ge  Ge10  1  0.337777  0.662223  0.249839  1
  Ge  Ge11  1  0.661259  0.338741  0.751002  1
  Ru  Ru12  1  0.788328  0.211672  0.920542  1
  Ru  Ru13  1  0.211701  0.788299  0.078238  1
  Ru  Ru14  1  0.787570  0.212430  0.579171  1
  Ru  Ru15  1  0.212208  0.787792  0.421040  1
