# generated using pymatgen
data_Dy7ErLu2Cd7InPt4
_symmetry_space_group_name_H-M   'P 1'
_cell_length_a   3.62296500
_cell_length_b   8.13816746
_cell_length_c   18.15682100
_cell_angle_alpha   89.94718307
_cell_angle_beta   90.00000000
_cell_angle_gamma   90.00000000
_symmetry_Int_Tables_number   1
_chemical_formula_structural   Dy7ErLu2Cd7InPt4
_chemical_formula_sum   'Dy7 Er1 Lu2 Cd7 In1 Pt4'
_cell_volume   535.34085485
_cell_formula_units_Z   1
loop_
 _symmetry_equiv_pos_site_id
 _symmetry_equiv_pos_as_xyz
  1  'x, y, z'
loop_
 _atom_site_type_symbol
 _atom_site_label
 _atom_site_symmetry_multiplicity
 _atom_site_fract_x
 _atom_site_fract_y
 _atom_site_fract_z
 _atom_site_occupancy
  Dy  Dy0  1  0.000000  0.615569  0.084787  1
  Dy  Dy1  1  0.000000  0.241864  0.219578  1
  Dy  Dy2  1  0.000000  0.757286  0.780529  1
  Dy  Dy3  1  0.000000  0.258016  0.718000  1
  Dy  Dy4  1  0.000000  0.742312  0.280747  1
  Dy  Dy5  1  0.000000  0.000927  0.999562  1
  Dy  Dy6  1  0.000000  0.499904  0.500895  1
  Er  Er7  1  0.000000  0.117074  0.415073  1
  Lu  Lu8  1  0.000000  0.885409  0.587093  1
  Lu  Lu9  1  0.000000  0.385615  0.913080  1
  Cd  Cd10  1  0.500000  0.424692  0.353457  1
  Cd  Cd11  1  0.500000  0.574979  0.647561  1
  Cd  Cd12  1  0.500000  0.076132  0.852203  1
  Cd  Cd13  1  0.500000  0.927931  0.147840  1
  Cd  Cd14  1  0.500000  0.289515  0.064391  1
  Cd  Cd15  1  0.500000  0.708033  0.933936  1
  Cd  Cd16  1  0.500000  0.207022  0.564222  1
  In  In17  1  0.500000  0.792667  0.435869  1
  Pt  Pt18  1  0.500000  0.025366  0.304806  1
  Pt  Pt19  1  0.500000  0.971707  0.695142  1
  Pt  Pt20  1  0.500000  0.471309  0.804256  1
  Pt  Pt21  1  0.500000  0.526671  0.196971  1
