# generated using pymatgen
data_SmDy3C2Br3
_symmetry_space_group_name_H-M   'P 1'
_cell_length_a   3.71081400
_cell_length_b   10.77491200
_cell_length_c   20.65444300
_cell_angle_alpha   90.00000000
_cell_angle_beta   90.00000000
_cell_angle_gamma   90.00000000
_symmetry_Int_Tables_number   1
_chemical_formula_structural   SmDy3C2Br3
_chemical_formula_sum   'Sm4 Dy12 C8 Br12'
_cell_volume   825.84093482
_cell_formula_units_Z   4
loop_
 _symmetry_equiv_pos_site_id
 _symmetry_equiv_pos_as_xyz
  1  'x, y, z'
loop_
 _atom_site_type_symbol
 _atom_site_label
 _atom_site_symmetry_multiplicity
 _atom_site_fract_x
 _atom_site_fract_y
 _atom_site_fract_z
 _atom_site_occupancy
  Sm  Sm0  1  0.250000  0.864799  0.579383  1
  Sm  Sm1  1  0.750000  0.135201  0.420617  1
  Sm  Sm2  1  0.750000  0.635201  0.079383  1
  Sm  Sm3  1  0.250000  0.364799  0.920617  1
  Dy  Dy4  1  0.250000  0.864249  0.744751  1
  Dy  Dy5  1  0.750000  0.135751  0.255249  1
  Dy  Dy6  1  0.750000  0.635751  0.244751  1
  Dy  Dy7  1  0.250000  0.364249  0.755249  1
  Dy  Dy8  1  0.250000  0.869553  0.169480  1
  Dy  Dy9  1  0.750000  0.130447  0.830520  1
  Dy  Dy10  1  0.750000  0.630447  0.669480  1
  Dy  Dy11  1  0.250000  0.369553  0.330520  1
  Dy  Dy12  1  0.250000  0.901512  0.327395  1
  Dy  Dy13  1  0.750000  0.098488  0.672605  1
  Dy  Dy14  1  0.750000  0.598488  0.827395  1
  Dy  Dy15  1  0.250000  0.401512  0.172605  1
  C  C16  1  0.250000  0.613283  0.750140  1
  C  C17  1  0.750000  0.386717  0.249860  1
  C  C18  1  0.750000  0.886717  0.250140  1
  C  C19  1  0.250000  0.113283  0.749860  1
  C  C20  1  0.250000  0.634545  0.158564  1
  C  C21  1  0.750000  0.365455  0.841436  1
  C  C22  1  0.750000  0.865455  0.658564  1
  C  C23  1  0.250000  0.134545  0.341436  1
  Br  Br24  1  0.250000  0.605930  0.557084  1
  Br  Br25  1  0.750000  0.394070  0.442916  1
  Br  Br26  1  0.750000  0.894070  0.057084  1
  Br  Br27  1  0.250000  0.105930  0.942916  1
  Br  Br28  1  0.250000  0.632316  0.950011  1
  Br  Br29  1  0.750000  0.367684  0.049989  1
  Br  Br30  1  0.750000  0.867684  0.450011  1
  Br  Br31  1  0.250000  0.132316  0.549989  1
  Br  Br32  1  0.250000  0.637290  0.355867  1
  Br  Br33  1  0.750000  0.362710  0.644133  1
  Br  Br34  1  0.750000  0.862710  0.855867  1
  Br  Br35  1  0.250000  0.137290  0.144133  1
