# generated using pymatgen
data_Be8Nb6Co6Si7Ni2
_symmetry_space_group_name_H-M   'P 1'
_cell_length_a   7.75574421
_cell_length_b   7.76048431
_cell_length_c   7.76048400
_cell_angle_alpha   59.99999279
_cell_angle_beta   59.97977328
_cell_angle_gamma   59.97976726
_symmetry_Int_Tables_number   1
_chemical_formula_structural   Be8Nb6Co6Si7Ni2
_chemical_formula_sum   'Be8 Nb6 Co6 Si7 Ni2'
_cell_volume   330.18187216
_cell_formula_units_Z   1
loop_
 _symmetry_equiv_pos_site_id
 _symmetry_equiv_pos_as_xyz
  1  'x, y, z'
loop_
 _atom_site_type_symbol
 _atom_site_label
 _atom_site_symmetry_multiplicity
 _atom_site_fract_x
 _atom_site_fract_y
 _atom_site_fract_z
 _atom_site_occupancy
  Be  Be0  1  0.325254  0.328061  0.328061  1
  Be  Be1  1  0.674746  0.671939  0.671939  1
  Be  Be2  1  0.325254  0.328061  0.018624  1
  Be  Be3  1  0.325254  0.018624  0.328061  1
  Be  Be4  1  0.674746  0.671939  0.981376  1
  Be  Be5  1  0.674746  0.981376  0.671939  1
  Be  Be6  1  0.021978  0.326008  0.326008  1
  Be  Be7  1  0.978022  0.673992  0.673992  1
  Nb  Nb8  1  0.700279  0.302151  0.302151  1
  Nb  Nb9  1  0.299721  0.697849  0.697849  1
  Nb  Nb10  1  0.299721  0.697849  0.304580  1
  Nb  Nb11  1  0.700279  0.302151  0.695420  1
  Nb  Nb12  1  0.299721  0.304580  0.697849  1
  Nb  Nb13  1  0.700279  0.695420  0.302151  1
  Co  Co14  1  0.123877  0.123382  0.123382  1
  Co  Co15  1  0.876123  0.876618  0.876618  1
  Co  Co16  1  0.123877  0.123382  0.629359  1
  Co  Co17  1  0.123877  0.629359  0.123382  1
  Co  Co18  1  0.876123  0.876618  0.370641  1
  Co  Co19  1  0.876123  0.370641  0.876618  1
  Si  Si20  1  0.500000  0.000000  0.000000  1
  Si  Si21  1  0.000000  0.500000  0.500000  1
  Si  Si22  1  0.000000  0.500000  0.000000  1
  Si  Si23  1  0.500000  0.000000  0.500000  1
  Si  Si24  1  0.000000  0.000000  0.500000  1
  Si  Si25  1  0.500000  0.500000  0.000000  1
  Si  Si26  1  0.000000  0.000000  0.000000  1
  Ni  Ni27  1  0.628474  0.123842  0.123842  1
  Ni  Ni28  1  0.371526  0.876158  0.876158  1
