# generated using pymatgen
data_TmTc4Sb3F28
_symmetry_space_group_name_H-M   'P 1'
_cell_length_a   5.56757912
_cell_length_b   8.86002950
_cell_length_c   11.95907100
_cell_angle_alpha   62.68944431
_cell_angle_beta   90.05001411
_cell_angle_gamma   90.01450154
_symmetry_Int_Tables_number   1
_chemical_formula_structural   TmTc4Sb3F28
_chemical_formula_sum   'Tm1 Tc4 Sb3 F28'
_cell_volume   524.17012328
_cell_formula_units_Z   1
loop_
 _symmetry_equiv_pos_site_id
 _symmetry_equiv_pos_as_xyz
  1  'x, y, z'
loop_
 _atom_site_type_symbol
 _atom_site_label
 _atom_site_symmetry_multiplicity
 _atom_site_fract_x
 _atom_site_fract_y
 _atom_site_fract_z
 _atom_site_occupancy
  Tm  Tm0  1  0.759176  0.807719  0.763862  1
  Tc  Tc1  1  0.758663  0.275569  0.956536  1
  Tc  Tc2  1  0.259501  0.728344  0.544544  1
  Tc  Tc3  1  0.241928  0.727229  0.039552  1
  Tc  Tc4  1  0.740613  0.269716  0.458850  1
  Sb  Sb5  1  0.264991  0.171043  0.742063  1
  Sb  Sb6  1  0.240392  0.181853  0.242988  1
  Sb  Sb7  1  0.736474  0.819724  0.259965  1
  F  F8  1  0.446690  0.707329  0.913578  1
  F  F9  1  0.933045  0.295524  0.583327  1
  F  F10  1  0.565653  0.298425  0.083702  1
  F  F11  1  0.062233  0.705297  0.419415  1
  F  F12  1  0.439225  0.274093  0.542311  1
  F  F13  1  0.945086  0.726177  0.948505  1
  F  F14  1  0.557550  0.725684  0.457106  1
  F  F15  1  0.057859  0.279406  0.041790  1
  F  F16  1  0.773286  0.523822  0.856658  1
  F  F17  1  0.276273  0.487067  0.643300  1
  F  F18  1  0.222064  0.484085  0.139122  1
  F  F19  1  0.722286  0.514292  0.358043  1
  F  F20  1  0.755624  0.024400  0.054314  1
  F  F21  1  0.256582  0.981722  0.444301  1
  F  F22  1  0.243823  0.979535  0.944530  1
  F  F23  1  0.744712  0.020259  0.558764  1
  F  F24  1  0.976024  0.730672  0.642551  1
  F  F25  1  0.468056  0.274370  0.864887  1
  F  F26  1  0.033062  0.273078  0.364139  1
  F  F27  1  0.530406  0.727149  0.132246  1
  F  F28  1  0.052616  0.749139  0.170215  1
  F  F29  1  0.553741  0.248673  0.324025  1
  F  F30  1  0.943393  0.253000  0.824957  1
  F  F31  1  0.455356  0.750925  0.674666  1
  F  F32  1  0.407842  0.967895  0.229919  1
  F  F33  1  0.901536  0.027390  0.272266  1
  F  F34  1  0.583567  0.023066  0.770876  1
  F  F35  1  0.090673  0.966327  0.732126  1
