# generated using pymatgen
data_PrLu2(ZnPt)4
_symmetry_space_group_name_H-M   'P 1'
_cell_length_a   8.21997529
_cell_length_b   8.21997573
_cell_length_c   8.21997585
_cell_angle_alpha   152.30683773
_cell_angle_beta   124.02407528
_cell_angle_gamma   63.57728547
_symmetry_Int_Tables_number   1
_chemical_formula_structural   PrLu2(ZnPt)4
_chemical_formula_sum   'Pr1 Lu2 Zn4 Pt4'
_cell_volume   212.08548607
_cell_formula_units_Z   1
loop_
 _symmetry_equiv_pos_site_id
 _symmetry_equiv_pos_as_xyz
  1  'x, y, z'
loop_
 _atom_site_type_symbol
 _atom_site_label
 _atom_site_symmetry_multiplicity
 _atom_site_fract_x
 _atom_site_fract_y
 _atom_site_fract_z
 _atom_site_occupancy
  Pr  Pr0  1  0.500000  0.000000  0.500000  1
  Lu  Lu1  1  0.876961  0.876961  0.000000  1
  Lu  Lu2  1  0.123039  0.123039  0.000000  1
  Zn  Zn3  1  0.475315  0.674996  0.800319  1
  Zn  Zn4  1  0.874676  0.674996  0.199681  1
  Zn  Zn5  1  0.125324  0.325004  0.800319  1
  Zn  Zn6  1  0.524685  0.325004  0.199681  1
  Pt  Pt7  1  0.272819  0.772819  0.500000  1
  Pt  Pt8  1  0.727181  0.227181  0.500000  1
  Pt  Pt9  1  0.814286  0.500000  0.314286  1
  Pt  Pt10  1  0.185714  0.500000  0.685714  1
