# generated using pymatgen
data_RbDy2LuTe5
_symmetry_space_group_name_H-M   'P 1'
_cell_length_a   4.38609100
_cell_length_b   13.23533600
_cell_length_c   23.48106900
_cell_angle_alpha   90.00000000
_cell_angle_beta   90.00000000
_cell_angle_gamma   90.00000000
_symmetry_Int_Tables_number   1
_chemical_formula_structural   RbDy2LuTe5
_chemical_formula_sum   'Rb4 Dy8 Lu4 Te20'
_cell_volume   1363.10864979
_cell_formula_units_Z   4
loop_
 _symmetry_equiv_pos_site_id
 _symmetry_equiv_pos_as_xyz
  1  'x, y, z'
loop_
 _atom_site_type_symbol
 _atom_site_label
 _atom_site_symmetry_multiplicity
 _atom_site_fract_x
 _atom_site_fract_y
 _atom_site_fract_z
 _atom_site_occupancy
  Rb  Rb0  1  0.250000  0.350131  0.090763  1
  Rb  Rb1  1  0.750000  0.649869  0.909237  1
  Rb  Rb2  1  0.750000  0.850131  0.409237  1
  Rb  Rb3  1  0.250000  0.149869  0.590763  1
  Dy  Dy4  1  0.250000  0.453889  0.697943  1
  Dy  Dy5  1  0.750000  0.546111  0.302057  1
  Dy  Dy6  1  0.750000  0.953889  0.802057  1
  Dy  Dy7  1  0.250000  0.046111  0.197943  1
  Dy  Dy8  1  0.250000  0.798568  0.672986  1
  Dy  Dy9  1  0.750000  0.201432  0.327014  1
  Dy  Dy10  1  0.750000  0.298568  0.827014  1
  Dy  Dy11  1  0.250000  0.701432  0.172986  1
  Lu  Lu12  1  0.250000  0.392143  0.444768  1
  Lu  Lu13  1  0.750000  0.607857  0.555232  1
  Lu  Lu14  1  0.750000  0.892143  0.055232  1
  Lu  Lu15  1  0.250000  0.107857  0.944768  1
  Te  Te16  1  0.250000  0.446327  0.568142  1
  Te  Te17  1  0.750000  0.553673  0.431858  1
  Te  Te18  1  0.750000  0.946327  0.931858  1
  Te  Te19  1  0.250000  0.053673  0.068142  1
  Te  Te20  1  0.250000  0.765692  0.543457  1
  Te  Te21  1  0.750000  0.234308  0.456543  1
  Te  Te22  1  0.750000  0.265692  0.956543  1
  Te  Te23  1  0.250000  0.734308  0.043457  1
  Te  Te24  1  0.250000  0.796728  0.803467  1
  Te  Te25  1  0.750000  0.203272  0.196533  1
  Te  Te26  1  0.750000  0.296728  0.696533  1
  Te  Te27  1  0.250000  0.703272  0.303467  1
  Te  Te28  1  0.250000  0.457616  0.828749  1
  Te  Te29  1  0.750000  0.542384  0.171251  1
  Te  Te30  1  0.750000  0.957616  0.671251  1
  Te  Te31  1  0.250000  0.042384  0.328749  1
  Te  Te32  1  0.250000  0.374073  0.314462  1
  Te  Te33  1  0.750000  0.625927  0.685538  1
  Te  Te34  1  0.750000  0.874073  0.185538  1
  Te  Te35  1  0.250000  0.125927  0.814462  1
