# generated using pymatgen
data_CsICl6
_symmetry_space_group_name_H-M   'P 1'
_cell_length_a   7.31671258
_cell_length_b   7.31671182
_cell_length_c   13.10170385
_cell_angle_alpha   79.07092107
_cell_angle_beta   79.07091951
_cell_angle_gamma   56.01029077
_symmetry_Int_Tables_number   1
_chemical_formula_structural   CsICl6
_chemical_formula_sum   'Cs2 I2 Cl12'
_cell_volume   567.98267628
_cell_formula_units_Z   2
loop_
 _symmetry_equiv_pos_site_id
 _symmetry_equiv_pos_as_xyz
  1  'x, y, z'
loop_
 _atom_site_type_symbol
 _atom_site_label
 _atom_site_symmetry_multiplicity
 _atom_site_fract_x
 _atom_site_fract_y
 _atom_site_fract_z
 _atom_site_occupancy
  Cs  Cs0  1  0.113295  0.886705  0.250000  1
  Cs  Cs1  1  0.886705  0.113295  0.750000  1
  I  I2  1  0.000000  0.500000  0.000000  1
  I  I3  1  0.500000  0.000000  0.500000  1
  Cl  Cl4  1  0.199258  0.369473  0.160634  1
  Cl  Cl5  1  0.630527  0.800742  0.339366  1
  Cl  Cl6  1  0.800742  0.630527  0.839366  1
  Cl  Cl7  1  0.369473  0.199258  0.660634  1
  Cl  Cl8  1  0.800058  0.894287  0.039187  1
  Cl  Cl9  1  0.105713  0.199942  0.460813  1
  Cl  Cl10  1  0.199942  0.105713  0.960813  1
  Cl  Cl11  1  0.894287  0.800058  0.539187  1
  Cl  Cl12  1  0.702040  0.454802  0.106632  1
  Cl  Cl13  1  0.545198  0.297960  0.393368  1
  Cl  Cl14  1  0.297960  0.545198  0.893368  1
  Cl  Cl15  1  0.454802  0.702040  0.606632  1
