# generated using pymatgen
data_PaNb13P9
_symmetry_space_group_name_H-M   'P 1'
_cell_length_a   11.20314700
_cell_length_b   11.20314770
_cell_length_c   3.47078200
_cell_angle_alpha   90.00000000
_cell_angle_beta   90.00000000
_cell_angle_gamma   119.99999498
_symmetry_Int_Tables_number   1
_chemical_formula_structural   PaNb13P9
_chemical_formula_sum   'Pa1 Nb13 P9'
_cell_volume   377.25767704
_cell_formula_units_Z   1
loop_
 _symmetry_equiv_pos_site_id
 _symmetry_equiv_pos_as_xyz
  1  'x, y, z'
loop_
 _atom_site_type_symbol
 _atom_site_label
 _atom_site_symmetry_multiplicity
 _atom_site_fract_x
 _atom_site_fract_y
 _atom_site_fract_z
 _atom_site_occupancy
  Pa  Pa0  1  0.666667  0.333333  0.000000  1
  Nb  Nb1  1  0.239194  0.478388  0.500000  1
  Nb  Nb2  1  0.239194  0.760806  0.500000  1
  Nb  Nb3  1  0.525209  0.050418  0.500000  1
  Nb  Nb4  1  0.525209  0.474791  0.500000  1
  Nb  Nb5  1  0.949582  0.474791  0.500000  1
  Nb  Nb6  1  0.990176  0.283004  0.000000  1
  Nb  Nb7  1  0.716996  0.707172  0.000000  1
  Nb  Nb8  1  0.716996  0.009824  0.000000  1
  Nb  Nb9  1  0.990176  0.707172  0.000000  1
  Nb  Nb10  1  0.292828  0.283004  0.000000  1
  Nb  Nb11  1  0.000000  0.000000  0.000000  1
  Nb  Nb12  1  0.521612  0.760806  0.500000  1
  Nb  Nb13  1  0.292828  0.009824  0.000000  1
  P  P14  1  0.416134  0.208067  0.500000  1
  P  P15  1  0.134661  0.567331  0.000000  1
  P  P16  1  0.432669  0.567331  0.000000  1
  P  P17  1  0.432669  0.865339  0.000000  1
  P  P18  1  0.803634  0.901817  0.500000  1
  P  P19  1  0.098183  0.901817  0.500000  1
  P  P20  1  0.098183  0.196366  0.500000  1
  P  P21  1  0.791933  0.208067  0.500000  1
  P  P22  1  0.791933  0.583866  0.500000  1
