# generated using pymatgen
data_Nd8Dy12Si15As
_symmetry_space_group_name_H-M   'P 1'
_cell_length_a   7.77843141
_cell_length_b   7.81146131
_cell_length_c   14.45009000
_cell_angle_alpha   89.30295344
_cell_angle_beta   90.20830304
_cell_angle_gamma   90.17463780
_symmetry_Int_Tables_number   1
_chemical_formula_structural   Nd8Dy12Si15As
_chemical_formula_sum   'Nd8 Dy12 Si15 As1'
_cell_volume   877.92596688
_cell_formula_units_Z   1
loop_
 _symmetry_equiv_pos_site_id
 _symmetry_equiv_pos_as_xyz
  1  'x, y, z'
loop_
 _atom_site_type_symbol
 _atom_site_label
 _atom_site_symmetry_multiplicity
 _atom_site_fract_x
 _atom_site_fract_y
 _atom_site_fract_z
 _atom_site_occupancy
  Nd  Nd0  1  0.636025  0.989666  0.457013  1
  Nd  Nd1  1  0.363577  0.006682  0.956098  1
  Nd  Nd2  1  0.995804  0.639815  0.542782  1
  Nd  Nd3  1  0.490801  0.855696  0.209073  1
  Nd  Nd4  1  0.511669  0.148670  0.710288  1
  Nd  Nd5  1  0.862225  0.494772  0.793527  1
  Nd  Nd6  1  0.135304  0.501609  0.290587  1
  Nd  Nd7  1  0.007615  0.358602  0.043080  1
  Dy  Dy8  1  0.489919  0.360371  0.124035  1
  Dy  Dy9  1  0.989758  0.143107  0.628853  1
  Dy  Dy10  1  0.861256  0.010784  0.874795  1
  Dy  Dy11  1  0.139353  0.983693  0.377571  1
  Dy  Dy12  1  0.505500  0.643437  0.619579  1
  Dy  Dy13  1  0.361681  0.492720  0.876254  1
  Dy  Dy14  1  0.642906  0.503498  0.374020  1
  Dy  Dy15  1  0.008724  0.862730  0.125449  1
  Dy  Dy16  1  0.314414  0.323415  0.497942  1
  Dy  Dy17  1  0.185366  0.820377  0.752923  1
  Dy  Dy18  1  0.815176  0.178329  0.250932  1
  Dy  Dy19  1  0.684133  0.682870  0.999111  1
  Si  Si20  1  0.710161  0.065469  0.061267  1
  Si  Si21  1  0.934186  0.284860  0.440395  1
  Si  Si22  1  0.435167  0.202510  0.311158  1
  Si  Si23  1  0.565456  0.790779  0.808888  1
  Si  Si24  1  0.210171  0.441501  0.688363  1
  Si  Si25  1  0.787925  0.563529  0.187445  1
  Si  Si26  1  0.064568  0.710331  0.939840  1
  Si  Si27  1  0.796603  0.846440  0.688611  1
  Si  Si28  1  0.203556  0.151277  0.192561  1
  Si  Si29  1  0.845127  0.796155  0.309748  1
  Si  Si30  1  0.349307  0.687186  0.425503  1
  Si  Si31  1  0.654447  0.297621  0.940369  1
  Si  Si32  1  0.701585  0.346319  0.559974  1
  Si  Si33  1  0.295254  0.654240  0.059744  1
  Si  Si34  1  0.154126  0.206073  0.812389  1
  As  As35  1  0.291154  0.954866  0.569834  1
