# generated using pymatgen
data_Th2NiB8Rh
_symmetry_space_group_name_H-M   'P 1'
_cell_length_a   7.04535656
_cell_length_b   7.04556376
_cell_length_c   7.04535606
_cell_angle_alpha   111.38767073
_cell_angle_beta   113.24365438
_cell_angle_gamma   103.92569498
_symmetry_Int_Tables_number   1
_chemical_formula_structural   Th2NiB8Rh
_chemical_formula_sum   'Th4 Ni2 B16 Rh2'
_cell_volume   267.27445136
_cell_formula_units_Z   2
loop_
 _symmetry_equiv_pos_site_id
 _symmetry_equiv_pos_as_xyz
  1  'x, y, z'
loop_
 _atom_site_type_symbol
 _atom_site_label
 _atom_site_symmetry_multiplicity
 _atom_site_fract_x
 _atom_site_fract_y
 _atom_site_fract_z
 _atom_site_occupancy
  Th  Th0  1  0.794484  0.794505  0.000021  1
  Th  Th1  1  0.205516  0.205495  0.999979  1
  Th  Th2  1  0.752541  0.252555  0.500014  1
  Th  Th3  1  0.247459  0.747445  0.499986  1
  Ni  Ni4  1  0.500124  0.741854  0.241731  1
  Ni  Ni5  1  0.499876  0.258146  0.758269  1
  B  B6  1  0.271203  0.108809  0.379992  1
  B  B7  1  0.728797  0.891191  0.620008  1
  B  B8  1  0.271182  0.891191  0.162394  1
  B  B9  1  0.728818  0.108809  0.837606  1
  B  B10  1  0.110913  0.732322  0.843230  1
  B  B11  1  0.889087  0.267678  0.156770  1
  B  B12  1  0.110909  0.267678  0.378590  1
  B  B13  1  0.889091  0.732322  0.621410  1
  B  B14  1  0.113697  0.109018  0.527175  1
  B  B15  1  0.581891  0.586550  0.472855  1
  B  B16  1  0.113696  0.586550  0.004659  1
  B  B17  1  0.581842  0.109018  0.995321  1
  B  B18  1  0.886303  0.890982  0.472825  1
  B  B19  1  0.418109  0.413450  0.527145  1
  B  B20  1  0.886304  0.413450  0.995341  1
  B  B21  1  0.418158  0.890982  0.004679  1
  Rh  Rh22  1  0.276264  0.500000  0.776264  1
  Rh  Rh23  1  0.723736  0.500000  0.223736  1
