# generated using pymatgen
data_Dy7Y(Si4Mo3)4
_symmetry_space_group_name_H-M   'P 1'
_cell_length_a   6.77941629
_cell_length_b   6.95782580
_cell_length_c   12.94003347
_cell_angle_alpha   89.98997587
_cell_angle_beta   89.99605859
_cell_angle_gamma   90.00494459
_symmetry_Int_Tables_number   1
_chemical_formula_structural   Dy7Y(Si4Mo3)4
_chemical_formula_sum   'Dy7 Y1 Si16 Mo12'
_cell_volume   610.38133438
_cell_formula_units_Z   1
loop_
 _symmetry_equiv_pos_site_id
 _symmetry_equiv_pos_as_xyz
  1  'x, y, z'
loop_
 _atom_site_type_symbol
 _atom_site_label
 _atom_site_symmetry_multiplicity
 _atom_site_fract_x
 _atom_site_fract_y
 _atom_site_fract_z
 _atom_site_occupancy
  Dy  Dy0  1  0.497209  0.333026  0.094065  1
  Dy  Dy1  1  0.997228  0.167056  0.405963  1
  Dy  Dy2  1  0.502843  0.666991  0.594083  1
  Dy  Dy3  1  0.002602  0.832644  0.906060  1
  Dy  Dy4  1  0.502680  0.667200  0.906152  1
  Dy  Dy5  1  0.002718  0.832940  0.594098  1
  Dy  Dy6  1  0.497217  0.332961  0.405678  1
  Y  Y7  1  0.997103  0.167020  0.093836  1
  Si  Si8  1  0.658646  0.042142  0.547529  1
  Si  Si9  1  0.158906  0.457961  0.952566  1
  Si  Si10  1  0.341196  0.958028  0.047559  1
  Si  Si11  1  0.841223  0.542203  0.452400  1
  Si  Si12  1  0.341409  0.957807  0.452289  1
  Si  Si13  1  0.841248  0.541993  0.047571  1
  Si  Si14  1  0.658542  0.041981  0.952638  1
  Si  Si15  1  0.158729  0.457945  0.547496  1
  Si  Si16  1  0.534960  0.365523  0.750195  1
  Si  Si17  1  0.034941  0.134236  0.750092  1
  Si  Si18  1  0.465147  0.634624  0.249813  1
  Si  Si19  1  0.965155  0.865810  0.249879  1
  Si  Si20  1  0.802756  0.628569  0.750178  1
  Si  Si21  1  0.302763  0.871259  0.750127  1
  Si  Si22  1  0.197158  0.371302  0.249960  1
  Si  Si23  1  0.697346  0.128663  0.249912  1
  Mo  Mo24  1  0.830635  0.334739  0.625353  1
  Mo  Mo25  1  0.330523  0.165172  0.874801  1
  Mo  Mo26  1  0.169449  0.665282  0.125252  1
  Mo  Mo27  1  0.669614  0.834843  0.374513  1
  Mo  Mo28  1  0.169333  0.665298  0.374491  1
  Mo  Mo29  1  0.669331  0.834699  0.125218  1
  Mo  Mo30  1  0.830632  0.334549  0.874753  1
  Mo  Mo31  1  0.330631  0.165231  0.625362  1
  Mo  Mo32  1  0.665852  0.999332  0.750139  1
  Mo  Mo33  1  0.165913  0.500525  0.750115  1
  Mo  Mo34  1  0.334294  0.000792  0.249891  1
  Mo  Mo35  1  0.834071  0.499650  0.249971  1
