# generated using pymatgen
data_Li8Dy7Ho(BiPb3)2
_symmetry_space_group_name_H-M   'P 1'
_cell_length_a   9.54287992
_cell_length_b   9.54885188
_cell_length_c   7.28717515
_cell_angle_alpha   89.99983804
_cell_angle_beta   90.08122836
_cell_angle_gamma   120.02792530
_symmetry_Int_Tables_number   1
_chemical_formula_structural   Li8Dy7Ho(BiPb3)2
_chemical_formula_sum   'Li8 Dy7 Ho1 Bi2 Pb6'
_cell_volume   574.90700216
_cell_formula_units_Z   1
loop_
 _symmetry_equiv_pos_site_id
 _symmetry_equiv_pos_as_xyz
  1  'x, y, z'
loop_
 _atom_site_type_symbol
 _atom_site_label
 _atom_site_symmetry_multiplicity
 _atom_site_fract_x
 _atom_site_fract_y
 _atom_site_fract_z
 _atom_site_occupancy
  Li  Li0  1  0.167496  0.333729  0.282666  1
  Li  Li1  1  0.167479  0.833744  0.282658  1
  Li  Li2  1  0.665654  0.832817  0.285390  1
  Li  Li3  1  0.830714  0.665486  0.786498  1
  Li  Li4  1  0.830729  0.165255  0.786498  1
  Li  Li5  1  0.335901  0.167971  0.790738  1
  Li  Li6  1  0.336106  0.668051  0.671496  1
  Li  Li7  1  0.665806  0.332899  0.175154  1
  Dy  Dy8  1  0.515315  0.025269  0.491687  1
  Dy  Dy9  1  0.515320  0.490063  0.491651  1
  Dy  Dy10  1  0.974200  0.487112  0.489892  1
  Dy  Dy11  1  0.491388  0.977928  0.995936  1
  Dy  Dy12  1  0.491391  0.513441  0.995915  1
  Dy  Dy13  1  0.019038  0.509522  0.996944  1
  Dy  Dy14  1  0.996704  0.998342  0.497800  1
  Ho  Ho15  1  0.996832  0.998424  0.004606  1
  Bi  Bi16  1  0.166191  0.333363  0.734447  1
  Bi  Bi17  1  0.166204  0.832808  0.734353  1
  Pb  Pb18  1  0.667009  0.833511  0.732446  1
  Pb  Pb19  1  0.833976  0.666977  0.232231  1
  Pb  Pb20  1  0.833962  0.167004  0.232234  1
  Pb  Pb21  1  0.332818  0.166404  0.231746  1
  Pb  Pb22  1  0.332120  0.666085  0.259401  1
  Pb  Pb23  1  0.667647  0.333797  0.759583  1
