# generated using pymatgen
data_Er10In8IrRu2Pt
_symmetry_space_group_name_H-M   'P 1'
_cell_length_a   3.60376700
_cell_length_b   7.99469425
_cell_length_c   18.20263635
_cell_angle_alpha   89.93490284
_cell_angle_beta   90.00000000
_cell_angle_gamma   90.00000000
_symmetry_Int_Tables_number   1
_chemical_formula_structural   Er10In8IrRu2Pt
_chemical_formula_sum   'Er10 In8 Ir1 Ru2 Pt1'
_cell_volume   524.43609580
_cell_formula_units_Z   1
loop_
 _symmetry_equiv_pos_site_id
 _symmetry_equiv_pos_as_xyz
  1  'x, y, z'
loop_
 _atom_site_type_symbol
 _atom_site_label
 _atom_site_symmetry_multiplicity
 _atom_site_fract_x
 _atom_site_fract_y
 _atom_site_fract_z
 _atom_site_occupancy
  Er  Er0  1  0.000000  0.115645  0.413876  1
  Er  Er1  1  0.000000  0.883370  0.589664  1
  Er  Er2  1  0.000000  0.382697  0.910257  1
  Er  Er3  1  0.000000  0.617229  0.085523  1
  Er  Er4  1  0.000000  0.238447  0.222712  1
  Er  Er5  1  0.000000  0.755778  0.778945  1
  Er  Er6  1  0.000000  0.255712  0.720696  1
  Er  Er7  1  0.000000  0.751018  0.279104  1
  Er  Er8  1  0.000000  0.999419  0.999963  1
  Er  Er9  1  0.000000  0.500823  0.499809  1
  In  In10  1  0.500000  0.426169  0.352809  1
  In  In11  1  0.500000  0.571070  0.650164  1
  In  In12  1  0.500000  0.070864  0.849350  1
  In  In13  1  0.500000  0.930534  0.148212  1
  In  In14  1  0.500000  0.290224  0.065450  1
  In  In15  1  0.500000  0.704797  0.931582  1
  In  In16  1  0.500000  0.206627  0.568631  1
  In  In17  1  0.500000  0.791868  0.432514  1
  Ir  Ir18  1  0.500000  0.023394  0.304376  1
  Ru  Ru19  1  0.500000  0.979726  0.696811  1
  Ru  Ru20  1  0.500000  0.480410  0.803475  1
  Pt  Pt21  1  0.500000  0.524182  0.196078  1
