# generated using pymatgen
data_Sm5Er(Si3Ru)8
_symmetry_space_group_name_H-M   'P 1'
_cell_length_a   10.14777376
_cell_length_b   10.14777317
_cell_length_c   8.18993413
_cell_angle_alpha   89.98087408
_cell_angle_beta   89.98087006
_cell_angle_gamma   132.42828890
_symmetry_Int_Tables_number   1
_chemical_formula_structural   Sm5Er(Si3Ru)8
_chemical_formula_sum   'Sm5 Er1 Si24 Ru8'
_cell_volume   622.51544054
_cell_formula_units_Z   1
loop_
 _symmetry_equiv_pos_site_id
 _symmetry_equiv_pos_as_xyz
  1  'x, y, z'
loop_
 _atom_site_type_symbol
 _atom_site_label
 _atom_site_symmetry_multiplicity
 _atom_site_fract_x
 _atom_site_fract_y
 _atom_site_fract_z
 _atom_site_occupancy
  Sm  Sm0  1  0.497609  0.997467  0.249634  1
  Sm  Sm1  1  0.002533  0.502391  0.750366  1
  Sm  Sm2  1  0.502391  0.002533  0.750366  1
  Sm  Sm3  1  0.997467  0.497609  0.249634  1
  Sm  Sm4  1  0.500000  0.500000  0.500000  1
  Er  Er5  1  0.000000  0.000000  0.000000  1
  Si  Si6  1  0.388257  0.155348  0.004788  1
  Si  Si7  1  0.655281  0.888423  0.495508  1
  Si  Si8  1  0.111577  0.344719  0.504492  1
  Si  Si9  1  0.844652  0.611743  0.995212  1
  Si  Si10  1  0.611743  0.844652  0.995212  1
  Si  Si11  1  0.344719  0.111577  0.504492  1
  Si  Si12  1  0.888423  0.655281  0.495508  1
  Si  Si13  1  0.155348  0.388257  0.004788  1
  Si  Si14  1  0.613643  0.379461  0.227365  1
  Si  Si15  1  0.878135  0.111125  0.271328  1
  Si  Si16  1  0.888875  0.121865  0.728672  1
  Si  Si17  1  0.620539  0.386357  0.772635  1
  Si  Si18  1  0.386357  0.620539  0.772635  1
  Si  Si19  1  0.121865  0.888875  0.728672  1
  Si  Si20  1  0.705811  0.294189  0.000000  1
  Si  Si21  1  0.794907  0.205093  0.500000  1
  Si  Si22  1  0.294189  0.705811  0.000000  1
  Si  Si23  1  0.205093  0.794907  0.500000  1
  Si  Si24  1  0.167534  0.167534  0.332807  1
  Si  Si25  1  0.667386  0.667386  0.166842  1
  Si  Si26  1  0.332614  0.332614  0.833158  1
  Si  Si27  1  0.832466  0.832466  0.667193  1
  Si  Si28  1  0.379461  0.613643  0.227365  1
  Si  Si29  1  0.111125  0.878135  0.271328  1
  Ru  Ru30  1  0.627054  0.627054  0.875577  1
  Ru  Ru31  1  0.124395  0.124395  0.628181  1
  Ru  Ru32  1  0.875605  0.875605  0.371819  1
  Ru  Ru33  1  0.372946  0.372946  0.124423  1
  Ru  Ru34  1  0.331178  0.668822  0.500000  1
  Ru  Ru35  1  0.167244  0.832756  0.000000  1
  Ru  Ru36  1  0.668822  0.331178  0.500000  1
  Ru  Ru37  1  0.832756  0.167244  0.000000  1
