# generated using pymatgen
data_Nb14Si3GeAs4
_symmetry_space_group_name_H-M   'P 1'
_cell_length_a   3.52606500
_cell_length_b   7.95631131
_cell_length_c   14.19181278
_cell_angle_alpha   103.92296815
_cell_angle_beta   90.00000000
_cell_angle_gamma   102.80239404
_symmetry_Int_Tables_number   1
_chemical_formula_structural   Nb14Si3GeAs4
_chemical_formula_sum   'Nb14 Si3 Ge1 As4'
_cell_volume   376.24095790
_cell_formula_units_Z   1
loop_
 _symmetry_equiv_pos_site_id
 _symmetry_equiv_pos_as_xyz
  1  'x, y, z'
loop_
 _atom_site_type_symbol
 _atom_site_label
 _atom_site_symmetry_multiplicity
 _atom_site_fract_x
 _atom_site_fract_y
 _atom_site_fract_z
 _atom_site_occupancy
  Nb  Nb0  1  0.999947  0.999894  0.999740  1
  Nb  Nb1  1  0.498795  0.997589  0.501081  1
  Nb  Nb2  1  0.427477  0.854956  0.825091  1
  Nb  Nb3  1  0.572284  0.144566  0.171252  1
  Nb  Nb4  1  0.196900  0.393799  0.306342  1
  Nb  Nb5  1  0.803156  0.606311  0.691516  1
  Nb  Nb6  1  0.212098  0.424196  0.799749  1
  Nb  Nb7  1  0.787720  0.575439  0.199660  1
  Nb  Nb8  1  0.331900  0.663799  0.029148  1
  Nb  Nb9  1  0.668088  0.336175  0.970009  1
  Nb  Nb10  1  0.997887  0.995773  0.661033  1
  Nb  Nb11  1  0.999400  0.998802  0.338979  1
  Nb  Nb12  1  0.182540  0.365081  0.548358  1
  Nb  Nb13  1  0.821727  0.643455  0.456729  1
  Si  Si14  1  0.174278  0.348553  0.107652  1
  Si  Si15  1  0.826044  0.652090  0.891024  1
  Si  Si16  1  0.370700  0.741402  0.600073  1
  Ge  Ge17  1  0.629934  0.259865  0.402433  1
  As  As18  1  0.371674  0.743346  0.334110  1
  As  As19  1  0.627458  0.254918  0.666419  1
  As  As20  1  0.063023  0.126046  0.847433  1
  As  As21  1  0.936972  0.873942  0.152169  1
