# generated using pymatgen
data_NaGaPH
_symmetry_space_group_name_H-M   'P 1'
_cell_length_a   3.85072800
_cell_length_b   3.85072777
_cell_length_c   5.49777800
_cell_angle_alpha   90.00000000
_cell_angle_beta   90.00000000
_cell_angle_gamma   120.00000202
_symmetry_Int_Tables_number   1
_chemical_formula_structural   NaGaPH
_chemical_formula_sum   'Na1 Ga1 P1 H1'
_cell_volume   70.59980170
_cell_formula_units_Z   1
loop_
 _symmetry_equiv_pos_site_id
 _symmetry_equiv_pos_as_xyz
  1  'x, y, z'
loop_
 _atom_site_type_symbol
 _atom_site_label
 _atom_site_symmetry_multiplicity
 _atom_site_fract_x
 _atom_site_fract_y
 _atom_site_fract_z
 _atom_site_occupancy
  Na  Na0  1  0.333333  0.666667  0.046550  1
  Ga  Ga1  1  0.000000  0.000000  0.574158  1
  P  P2  1  0.666667  0.333333  0.421106  1
  H  H3  1  0.000000  0.000000  0.876984  1
