# generated using pymatgen
data_Y2Ge2BOs2
_symmetry_space_group_name_H-M   'P 1'
_cell_length_a   5.91676366
_cell_length_b   5.91676410
_cell_length_c   6.96317970
_cell_angle_alpha   125.47758396
_cell_angle_beta   125.47758951
_cell_angle_gamma   41.91111685
_symmetry_Int_Tables_number   1
_chemical_formula_structural   Y2Ge2BOs2
_chemical_formula_sum   'Y2 Ge2 B1 Os2'
_cell_volume   127.56540869
_cell_formula_units_Z   1
loop_
 _symmetry_equiv_pos_site_id
 _symmetry_equiv_pos_as_xyz
  1  'x, y, z'
loop_
 _atom_site_type_symbol
 _atom_site_label
 _atom_site_symmetry_multiplicity
 _atom_site_fract_x
 _atom_site_fract_y
 _atom_site_fract_z
 _atom_site_occupancy
  Y  Y0  1  0.435370  0.435370  0.166059  1
  Y  Y1  1  0.564630  0.564630  0.833941  1
  Ge  Ge2  1  0.845721  0.845721  0.389230  1
  Ge  Ge3  1  0.154279  0.154279  0.610770  1
  B  B4  1  0.000000  0.000000  0.000000  1
  Os  Os5  1  0.209817  0.209817  0.313338  1
  Os  Os6  1  0.790182  0.790182  0.686662  1
