# generated using pymatgen
data_Nd4Ga9Ge(PdPt2)2
_symmetry_space_group_name_H-M   'P 1'
_cell_length_a   6.05595895
_cell_length_b   8.63993847
_cell_length_c   8.64008191
_cell_angle_alpha   74.37369580
_cell_angle_beta   69.54993658
_cell_angle_gamma   69.54956449
_symmetry_Int_Tables_number   1
_chemical_formula_structural   Nd4Ga9Ge(PdPt2)2
_chemical_formula_sum   'Nd4 Ga9 Ge1 Pd2 Pt4'
_cell_volume   391.26313418
_cell_formula_units_Z   1
loop_
 _symmetry_equiv_pos_site_id
 _symmetry_equiv_pos_as_xyz
  1  'x, y, z'
loop_
 _atom_site_type_symbol
 _atom_site_label
 _atom_site_symmetry_multiplicity
 _atom_site_fract_x
 _atom_site_fract_y
 _atom_site_fract_z
 _atom_site_occupancy
  Nd  Nd0  1  0.629848  0.099235  0.637085  1
  Nd  Nd1  1  0.365058  0.901288  0.363008  1
  Nd  Nd2  1  0.134944  0.636992  0.098709  1
  Nd  Nd3  1  0.870151  0.362915  0.900765  1
  Ga  Ga4  1  0.472768  0.277262  0.277095  1
  Ga  Ga5  1  0.529151  0.720680  0.721141  1
  Ga  Ga6  1  0.027232  0.722906  0.722736  1
  Ga  Ga7  1  0.970850  0.278860  0.279319  1
  Ga  Ga8  1  0.893695  0.760152  0.448864  1
  Ga  Ga9  1  0.102433  0.239765  0.551085  1
  Ga  Ga10  1  0.397562  0.448919  0.760233  1
  Ga  Ga11  1  0.606313  0.551132  0.239846  1
  Ga  Ga12  1  0.749997  0.000031  0.999971  1
  Ge  Ge13  1  0.250000  0.999866  0.000135  1
  Pd  Pd14  1  0.750000  0.499934  0.500066  1
  Pd  Pd15  1  0.250001  0.500118  0.499881  1
  Pt  Pt16  1  0.861830  0.029185  0.248303  1
  Pt  Pt17  1  0.139860  0.970875  0.751815  1
  Pt  Pt18  1  0.360143  0.248180  0.029126  1
  Pt  Pt19  1  0.638166  0.751704  0.970817  1
