# generated using pymatgen
data_Tb2SeS2
_symmetry_space_group_name_H-M   'P 1'
_cell_length_a   7.32459678
_cell_length_b   7.32459768
_cell_length_c   7.32459737
_cell_angle_alpha   147.67321820
_cell_angle_beta   136.94599412
_cell_angle_gamma   54.84975612
_symmetry_Int_Tables_number   1
_chemical_formula_structural   Tb2SeS2
_chemical_formula_sum   'Tb2 Se1 S2'
_cell_volume   142.51641129
_cell_formula_units_Z   1
loop_
 _symmetry_equiv_pos_site_id
 _symmetry_equiv_pos_as_xyz
  1  'x, y, z'
loop_
 _atom_site_type_symbol
 _atom_site_label
 _atom_site_symmetry_multiplicity
 _atom_site_fract_x
 _atom_site_fract_y
 _atom_site_fract_z
 _atom_site_occupancy
  Tb  Tb0  1  0.840951  0.340951  0.500000  1
  Tb  Tb1  1  0.159049  0.659049  0.500000  1
  Se  Se2  1  0.000000  0.000000  0.000000  1
  S  S3  1  0.700503  0.700503  0.000000  1
  S  S4  1  0.299497  0.299497  0.000000  1
