# generated using pymatgen
data_Yb4In4Ag3Pd
_symmetry_space_group_name_H-M   'P 1'
_cell_length_a   4.35748100
_cell_length_b   7.54446696
_cell_length_c   8.81183700
_cell_angle_alpha   90.11021015
_cell_angle_beta   90.00000000
_cell_angle_gamma   90.00000000
_symmetry_Int_Tables_number   1
_chemical_formula_structural   Yb4In4Ag3Pd
_chemical_formula_sum   'Yb4 In4 Ag3 Pd1'
_cell_volume   289.68747244
_cell_formula_units_Z   1
loop_
 _symmetry_equiv_pos_site_id
 _symmetry_equiv_pos_as_xyz
  1  'x, y, z'
loop_
 _atom_site_type_symbol
 _atom_site_label
 _atom_site_symmetry_multiplicity
 _atom_site_fract_x
 _atom_site_fract_y
 _atom_site_fract_z
 _atom_site_occupancy
  Yb  Yb0  1  0.250000  0.022427  0.178762  1
  Yb  Yb1  1  0.750000  0.958436  0.828864  1
  Yb  Yb2  1  0.250000  0.544243  0.309613  1
  Yb  Yb3  1  0.750000  0.464299  0.680978  1
  In  In4  1  0.750000  0.361556  0.058464  1
  In  In5  1  0.250000  0.650441  0.946194  1
  In  In6  1  0.750000  0.851847  0.438128  1
  In  In7  1  0.250000  0.145022  0.558089  1
  Ag  Ag8  1  0.250000  0.759485  0.635236  1
  Ag  Ag9  1  0.750000  0.241426  0.364290  1
  Ag  Ag10  1  0.250000  0.258515  0.867598  1
  Pd  Pd11  1  0.750000  0.742303  0.133785  1
