# generated using pymatgen
data_Er8Hf12Si15Pb
_symmetry_space_group_name_H-M   'P 1'
_cell_length_a   7.33407508
_cell_length_b   7.29900816
_cell_length_c   13.40685400
_cell_angle_alpha   90.03336167
_cell_angle_beta   89.69770278
_cell_angle_gamma   89.80830559
_symmetry_Int_Tables_number   1
_chemical_formula_structural   Er8Hf12Si15Pb
_chemical_formula_sum   'Er8 Hf12 Si15 Pb1'
_cell_volume   717.67451976
_cell_formula_units_Z   1
loop_
 _symmetry_equiv_pos_site_id
 _symmetry_equiv_pos_as_xyz
  1  'x, y, z'
loop_
 _atom_site_type_symbol
 _atom_site_label
 _atom_site_symmetry_multiplicity
 _atom_site_fract_x
 _atom_site_fract_y
 _atom_site_fract_z
 _atom_site_occupancy
  Er  Er0  1  0.347596  0.000135  0.459181  1
  Er  Er1  1  0.504629  0.837087  0.717469  1
  Er  Er2  1  0.503482  0.155341  0.215321  1
  Er  Er3  1  0.844369  0.495612  0.283158  1
  Er  Er4  1  0.154222  0.512508  0.788590  1
  Er  Er5  1  0.658497  0.993917  0.968313  1
  Er  Er6  1  0.990551  0.354300  0.527667  1
  Er  Er7  1  0.997071  0.654602  0.035973  1
  Hf  Hf8  1  0.325396  0.325065  0.001193  1
  Hf  Hf9  1  0.175047  0.824442  0.249377  1
  Hf  Hf10  1  0.816184  0.173628  0.752603  1
  Hf  Hf11  1  0.672310  0.674487  0.498541  1
  Hf  Hf12  1  0.148740  0.003923  0.882239  1
  Hf  Hf13  1  0.497113  0.646745  0.125456  1
  Hf  Hf14  1  0.513995  0.360398  0.626644  1
  Hf  Hf15  1  0.651104  0.497631  0.877457  1
  Hf  Hf16  1  0.350755  0.506533  0.373095  1
  Hf  Hf17  1  0.849425  0.996943  0.374774  1
  Hf  Hf18  1  0.005610  0.147606  0.124417  1
  Hf  Hf19  1  0.982479  0.837972  0.619697  1
  Si  Si20  1  0.362935  0.704820  0.934172  1
  Si  Si21  1  0.635025  0.295673  0.430977  1
  Si  Si22  1  0.706329  0.360348  0.069280  1
  Si  Si23  1  0.295628  0.640238  0.566903  1
  Si  Si24  1  0.794949  0.861488  0.182014  1
  Si  Si25  1  0.137289  0.204795  0.317213  1
  Si  Si26  1  0.863177  0.796842  0.818653  1
  Si  Si27  1  0.298439  0.950923  0.066581  1
  Si  Si28  1  0.550908  0.794783  0.312932  1
  Si  Si29  1  0.460311  0.204006  0.821253  1
  Si  Si30  1  0.798977  0.546403  0.687837  1
  Si  Si31  1  0.204459  0.450858  0.185300  1
  Si  Si32  1  0.700894  0.050022  0.564406  1
  Si  Si33  1  0.951983  0.296650  0.935708  1
  Si  Si34  1  0.048237  0.706409  0.432281  1
  Pb  Pb35  1  0.201883  0.136864  0.673326  1
