# generated using pymatgen
data_Ir2N2F3
_symmetry_space_group_name_H-M   'P 1'
_cell_length_a   4.73661889
_cell_length_b   5.52320028
_cell_length_c   6.80292767
_cell_angle_alpha   99.25113767
_cell_angle_beta   110.37303820
_cell_angle_gamma   89.99999626
_symmetry_Int_Tables_number   1
_chemical_formula_structural   Ir2N2F3
_chemical_formula_sum   'Ir4 N4 F6'
_cell_volume   164.36884992
_cell_formula_units_Z   2
loop_
 _symmetry_equiv_pos_site_id
 _symmetry_equiv_pos_as_xyz
  1  'x, y, z'
loop_
 _atom_site_type_symbol
 _atom_site_label
 _atom_site_symmetry_multiplicity
 _atom_site_fract_x
 _atom_site_fract_y
 _atom_site_fract_z
 _atom_site_occupancy
  Ir  Ir0  1  0.382028  0.791716  0.313807  1
  Ir  Ir1  1  0.068221  0.708284  0.686193  1
  Ir  Ir2  1  0.617972  0.208284  0.686193  1
  Ir  Ir3  1  0.931779  0.291716  0.313807  1
  N  N4  1  0.712940  0.881665  0.582823  1
  N  N5  1  0.130117  0.618335  0.417177  1
  N  N6  1  0.287060  0.118335  0.417177  1
  N  N7  1  0.869883  0.381665  0.582823  1
  F  F8  1  0.525241  0.456962  0.194017  1
  F  F9  1  0.331224  0.043038  0.805983  1
  F  F10  1  0.474759  0.543038  0.805983  1
  F  F11  1  0.668776  0.956962  0.194017  1
  F  F12  1  0.068953  0.750000  0.000000  1
  F  F13  1  0.931047  0.250000  0.000000  1
