# generated using pymatgen
data_Dy7Tm5(ThSn2)8
_symmetry_space_group_name_H-M   'P 1'
_cell_length_a   8.10686625
_cell_length_b   8.21147825
_cell_length_c   15.53085104
_cell_angle_alpha   89.99425215
_cell_angle_beta   90.00627585
_cell_angle_gamma   89.97245149
_symmetry_Int_Tables_number   1
_chemical_formula_structural   Dy7Tm5(ThSn2)8
_chemical_formula_sum   'Dy7 Tm5 Th8 Sn16'
_cell_volume   1033.87861864
_cell_formula_units_Z   1
loop_
 _symmetry_equiv_pos_site_id
 _symmetry_equiv_pos_as_xyz
  1  'x, y, z'
loop_
 _atom_site_type_symbol
 _atom_site_label
 _atom_site_symmetry_multiplicity
 _atom_site_fract_x
 _atom_site_fract_y
 _atom_site_fract_z
 _atom_site_occupancy
  Dy  Dy0  1  0.361190  0.837545  0.876277  1
  Dy  Dy1  1  0.861185  0.662631  0.623984  1
  Dy  Dy2  1  0.638933  0.162546  0.376230  1
  Dy  Dy3  1  0.138941  0.337368  0.123854  1
  Dy  Dy4  1  0.639033  0.162580  0.123444  1
  Dy  Dy5  1  0.138939  0.337454  0.376203  1
  Dy  Dy6  1  0.361014  0.837325  0.624004  1
  Tm  Tm7  1  0.860854  0.662298  0.875761  1
  Tm  Tm8  1  0.190768  0.498095  0.750241  1
  Tm  Tm9  1  0.691271  0.001935  0.750239  1
  Tm  Tm10  1  0.808928  0.502212  0.249867  1
  Tm  Tm11  1  0.309003  0.997813  0.249979  1
  Th  Th12  1  0.518482  0.321729  0.903829  1
  Th  Th13  1  0.018210  0.178540  0.596318  1
  Th  Th14  1  0.481585  0.678506  0.403923  1
  Th  Th15  1  0.981534  0.821256  0.095708  1
  Th  Th16  1  0.481368  0.678517  0.096097  1
  Th  Th17  1  0.981647  0.821530  0.403917  1
  Th  Th18  1  0.518586  0.321685  0.596262  1
  Th  Th19  1  0.018402  0.178554  0.903832  1
  Sn  Sn20  1  0.298742  0.039293  0.042728  1
  Sn  Sn21  1  0.798896  0.460766  0.457254  1
  Sn  Sn22  1  0.701126  0.960717  0.542833  1
  Sn  Sn23  1  0.199675  0.539740  0.956978  1
  Sn  Sn24  1  0.701993  0.959186  0.956935  1
  Sn  Sn25  1  0.201256  0.539160  0.542836  1
  Sn  Sn26  1  0.298785  0.039290  0.457314  1
  Sn  Sn27  1  0.799056  0.461448  0.041886  1
  Sn  Sn28  1  0.556871  0.622138  0.750451  1
  Sn  Sn29  1  0.055781  0.877260  0.750606  1
  Sn  Sn30  1  0.443844  0.378054  0.249936  1
  Sn  Sn31  1  0.943778  0.121931  0.249965  1
  Sn  Sn32  1  0.325777  0.144199  0.750030  1
  Sn  Sn33  1  0.825838  0.356472  0.750349  1
  Sn  Sn34  1  0.674343  0.855947  0.249975  1
  Sn  Sn35  1  0.174364  0.644282  0.249953  1
