# generated using pymatgen
data_Ce3Dy5(Tm3Pt4)4
_symmetry_space_group_name_H-M   'P 1'
_cell_length_a   7.42597785
_cell_length_b   7.50080336
_cell_length_c   14.61934200
_cell_angle_alpha   89.95871326
_cell_angle_beta   89.94981010
_cell_angle_gamma   90.01898399
_symmetry_Int_Tables_number   1
_chemical_formula_structural   Ce3Dy5(Tm3Pt4)4
_chemical_formula_sum   'Ce3 Dy5 Tm12 Pt16'
_cell_volume   814.30847042
_cell_formula_units_Z   1
loop_
 _symmetry_equiv_pos_site_id
 _symmetry_equiv_pos_as_xyz
  1  'x, y, z'
loop_
 _atom_site_type_symbol
 _atom_site_label
 _atom_site_symmetry_multiplicity
 _atom_site_fract_x
 _atom_site_fract_y
 _atom_site_fract_z
 _atom_site_occupancy
  Ce  Ce0  1  0.001348  0.180316  0.092646  1
  Ce  Ce1  1  0.499933  0.681480  0.908182  1
  Ce  Ce2  1  0.998088  0.819154  0.592089  1
  Dy  Dy3  1  0.499573  0.674671  0.595197  1
  Dy  Dy4  1  0.999710  0.823995  0.903682  1
  Dy  Dy5  1  0.500164  0.322405  0.095915  1
  Dy  Dy6  1  0.000186  0.176647  0.405043  1
  Dy  Dy7  1  0.499442  0.320433  0.407187  1
  Tm  Tm8  1  0.656597  0.164529  0.622301  1
  Tm  Tm9  1  0.157356  0.335300  0.876364  1
  Tm  Tm10  1  0.342053  0.835409  0.124661  1
  Tm  Tm11  1  0.840230  0.663777  0.376883  1
  Tm  Tm12  1  0.346349  0.831733  0.378580  1
  Tm  Tm13  1  0.846669  0.668783  0.122493  1
  Tm  Tm14  1  0.654254  0.168792  0.878198  1
  Tm  Tm15  1  0.154233  0.331785  0.621056  1
  Tm  Tm16  1  0.820146  0.507159  0.749294  1
  Tm  Tm17  1  0.318821  0.993118  0.749178  1
  Tm  Tm18  1  0.181640  0.492404  0.251663  1
  Tm  Tm19  1  0.680054  0.007789  0.250972  1
  Pt  Pt20  1  0.683550  0.966914  0.457063  1
  Pt  Pt21  1  0.184606  0.534472  0.042616  1
  Pt  Pt22  1  0.314969  0.036243  0.958944  1
  Pt  Pt23  1  0.815523  0.462416  0.540453  1
  Pt  Pt24  1  0.317618  0.033522  0.541822  1
  Pt  Pt25  1  0.819597  0.466667  0.957902  1
  Pt  Pt26  1  0.682117  0.967475  0.042858  1
  Pt  Pt27  1  0.182655  0.532800  0.457283  1
  Pt  Pt28  1  0.453415  0.379304  0.748084  1
  Pt  Pt29  1  0.953175  0.120052  0.750634  1
  Pt  Pt30  1  0.546687  0.617887  0.249450  1
  Pt  Pt31  1  0.046925  0.881538  0.252276  1
  Pt  Pt32  1  0.683892  0.857224  0.750536  1
  Pt  Pt33  1  0.183893  0.642833  0.747082  1
  Pt  Pt34  1  0.317960  0.143804  0.252085  1
  Pt  Pt35  1  0.816574  0.357170  0.249328  1
