# generated using pymatgen
data_NdZr4Bi3F28
_symmetry_space_group_name_H-M   'P 1'
_cell_length_a   5.88234189
_cell_length_b   9.37922621
_cell_length_c   12.52850071
_cell_angle_alpha   61.93999991
_cell_angle_beta   89.95170998
_cell_angle_gamma   90.03633708
_symmetry_Int_Tables_number   1
_chemical_formula_structural   NdZr4Bi3F28
_chemical_formula_sum   'Nd1 Zr4 Bi3 F28'
_cell_volume   609.97035535
_cell_formula_units_Z   1
loop_
 _symmetry_equiv_pos_site_id
 _symmetry_equiv_pos_as_xyz
  1  'x, y, z'
loop_
 _atom_site_type_symbol
 _atom_site_label
 _atom_site_symmetry_multiplicity
 _atom_site_fract_x
 _atom_site_fract_y
 _atom_site_fract_z
 _atom_site_occupancy
  Nd  Nd0  1  0.756082  0.812308  0.765946  1
  Zr  Zr1  1  0.744251  0.274127  0.455606  1
  Zr  Zr2  1  0.244579  0.725148  0.044721  1
  Zr  Zr3  1  0.255486  0.725204  0.544481  1
  Zr  Zr4  1  0.756072  0.274518  0.955581  1
  Bi  Bi5  1  0.742534  0.816499  0.264325  1
  Bi  Bi6  1  0.243186  0.182528  0.236597  1
  Bi  Bi7  1  0.258411  0.181220  0.736039  1
  F  F8  1  0.462137  0.712922  0.922653  1
  F  F9  1  0.960405  0.287788  0.576417  1
  F  F10  1  0.539330  0.288524  0.076846  1
  F  F11  1  0.038092  0.712761  0.423247  1
  F  F12  1  0.457922  0.280424  0.547076  1
  F  F13  1  0.961794  0.718991  0.951252  1
  F  F14  1  0.542220  0.720434  0.452445  1
  F  F15  1  0.040984  0.281748  0.047393  1
  F  F16  1  0.765904  0.520138  0.859919  1
  F  F17  1  0.267311  0.482819  0.640315  1
  F  F18  1  0.232819  0.481569  0.139469  1
  F  F19  1  0.732651  0.518456  0.359810  1
  F  F20  1  0.759760  0.027382  0.058305  1
  F  F21  1  0.259725  0.973292  0.441966  1
  F  F22  1  0.239842  0.972397  0.942287  1
  F  F23  1  0.740123  0.028113  0.557931  1
  F  F24  1  0.991708  0.735103  0.646791  1
  F  F25  1  0.489800  0.265740  0.854794  1
  F  F26  1  0.011244  0.264898  0.353975  1
  F  F27  1  0.511829  0.735293  0.144714  1
  F  F28  1  0.037908  0.747438  0.168390  1
  F  F29  1  0.538617  0.252431  0.330393  1
  F  F30  1  0.960394  0.253619  0.830961  1
  F  F31  1  0.461269  0.746731  0.668938  1
  F  F32  1  0.421986  0.971021  0.233254  1
  F  F33  1  0.921664  0.027708  0.267023  1
  F  F34  1  0.571747  0.028323  0.766456  1
  F  F35  1  0.080212  0.972387  0.733684  1
