# generated using pymatgen
data_Tb3Dy9Ni4
_symmetry_space_group_name_H-M   'P 1'
_cell_length_a   6.35050800
_cell_length_b   6.83708800
_cell_length_c   9.55361600
_cell_angle_alpha   90.00000000
_cell_angle_beta   90.00000000
_cell_angle_gamma   90.00025201
_symmetry_Int_Tables_number   1
_chemical_formula_structural   Tb3Dy9Ni4
_chemical_formula_sum   'Tb3 Dy9 Ni4'
_cell_volume   414.80828153
_cell_formula_units_Z   1
loop_
 _symmetry_equiv_pos_site_id
 _symmetry_equiv_pos_as_xyz
  1  'x, y, z'
loop_
 _atom_site_type_symbol
 _atom_site_label
 _atom_site_symmetry_multiplicity
 _atom_site_fract_x
 _atom_site_fract_y
 _atom_site_fract_z
 _atom_site_occupancy
  Tb  Tb0  1  0.640260  0.034295  0.250000  1
  Tb  Tb1  1  0.139972  0.465422  0.750000  1
  Tb  Tb2  1  0.360020  0.965605  0.750000  1
  Dy  Dy3  1  0.322903  0.677447  0.066026  1
  Dy  Dy4  1  0.176408  0.177800  0.433961  1
  Dy  Dy5  1  0.676891  0.322686  0.565667  1
  Dy  Dy6  1  0.823560  0.822090  0.934351  1
  Dy  Dy7  1  0.676891  0.322686  0.934333  1
  Dy  Dy8  1  0.823560  0.822090  0.565649  1
  Dy  Dy9  1  0.322903  0.677447  0.433974  1
  Dy  Dy10  1  0.176408  0.177800  0.066039  1
  Dy  Dy11  1  0.859744  0.535007  0.250000  1
  Ni  Ni12  1  0.057194  0.890698  0.250000  1
  Ni  Ni13  1  0.443581  0.391794  0.250000  1
  Ni  Ni14  1  0.942106  0.108627  0.750000  1
  Ni  Ni15  1  0.557599  0.608505  0.750000  1
