# generated using pymatgen
data_Sm6ZrCr(Co4P3)4
_symmetry_space_group_name_H-M   'P 1'
_cell_length_a   3.73083500
_cell_length_b   10.69519800
_cell_length_c   12.39363800
_cell_angle_alpha   90.00000000
_cell_angle_beta   90.00000000
_cell_angle_gamma   90.00000000
_symmetry_Int_Tables_number   1
_chemical_formula_structural   Sm6ZrCr(Co4P3)4
_chemical_formula_sum   'Sm6 Zr1 Cr1 Co16 P12'
_cell_volume   494.53117933
_cell_formula_units_Z   1
loop_
 _symmetry_equiv_pos_site_id
 _symmetry_equiv_pos_as_xyz
  1  'x, y, z'
loop_
 _atom_site_type_symbol
 _atom_site_label
 _atom_site_symmetry_multiplicity
 _atom_site_fract_x
 _atom_site_fract_y
 _atom_site_fract_z
 _atom_site_occupancy
  Sm  Sm0  1  0.000000  0.500000  0.522601  1
  Sm  Sm1  1  0.500000  0.000000  0.470568  1
  Sm  Sm2  1  0.500000  0.817557  0.204539  1
  Sm  Sm3  1  0.500000  0.182443  0.204539  1
  Sm  Sm4  1  0.000000  0.678545  0.794102  1
  Sm  Sm5  1  0.000000  0.321455  0.794102  1
  Zr  Zr6  1  0.000000  0.000000  0.846443  1
  Cr  Cr7  1  0.500000  0.500000  0.158013  1
  Co  Co8  1  0.500000  0.500000  0.704141  1
  Co  Co9  1  0.000000  0.000000  0.295932  1
  Co  Co10  1  0.000000  0.500000  0.990814  1
  Co  Co11  1  0.500000  0.000000  0.015995  1
  Co  Co12  1  0.500000  0.337875  0.998140  1
  Co  Co13  1  0.500000  0.662125  0.998140  1
  Co  Co14  1  0.000000  0.173478  0.010929  1
  Co  Co15  1  0.000000  0.826522  0.010929  1
  Co  Co16  1  0.500000  0.297411  0.429484  1
  Co  Co17  1  0.500000  0.702589  0.429484  1
  Co  Co18  1  0.000000  0.205924  0.565606  1
  Co  Co19  1  0.000000  0.794076  0.565606  1
  Co  Co20  1  0.500000  0.878466  0.701632  1
  Co  Co21  1  0.500000  0.121534  0.701632  1
  Co  Co22  1  0.000000  0.618285  0.292054  1
  Co  Co23  1  0.000000  0.381715  0.292054  1
  P  P24  1  0.500000  0.500000  0.886101  1
  P  P25  1  0.000000  0.000000  0.115727  1
  P  P26  1  0.500000  0.500000  0.342408  1
  P  P27  1  0.000000  0.000000  0.640221  1
  P  P28  1  0.500000  0.309539  0.612956  1
  P  P29  1  0.500000  0.690461  0.612956  1
  P  P30  1  0.000000  0.193225  0.383363  1
  P  P31  1  0.000000  0.806775  0.383363  1
  P  P32  1  0.500000  0.836665  0.901257  1
  P  P33  1  0.500000  0.163335  0.901257  1
  P  P34  1  0.000000  0.648111  0.111458  1
  P  P35  1  0.000000  0.351889  0.111458  1
