# generated using pymatgen
data_TmU3(PO5)4
_symmetry_space_group_name_H-M   'P 1'
_cell_length_a   5.49812419
_cell_length_b   8.75966375
_cell_length_c   9.26614152
_cell_angle_alpha   101.37593615
_cell_angle_beta   103.56685905
_cell_angle_gamma   97.56212375
_symmetry_Int_Tables_number   1
_chemical_formula_structural   TmU3(PO5)4
_chemical_formula_sum   'Tm1 U3 P4 O20'
_cell_volume   417.82462378
_cell_formula_units_Z   1
loop_
 _symmetry_equiv_pos_site_id
 _symmetry_equiv_pos_as_xyz
  1  'x, y, z'
loop_
 _atom_site_type_symbol
 _atom_site_label
 _atom_site_symmetry_multiplicity
 _atom_site_fract_x
 _atom_site_fract_y
 _atom_site_fract_z
 _atom_site_occupancy
  Tm  Tm0  1  0.349062  0.293560  0.045823  1
  U  U1  1  0.649156  0.703363  0.952956  1
  U  U2  1  0.335762  0.801698  0.552232  1
  U  U3  1  0.660215  0.198696  0.445365  1
  P  P4  1  0.092006  0.514483  0.766912  1
  P  P5  1  0.911697  0.484645  0.235419  1
  P  P6  1  0.281520  0.923861  0.177087  1
  P  P7  1  0.728200  0.081323  0.826034  1
  O  O8  1  0.012773  0.135625  0.892054  1
  O  O9  1  0.995926  0.852984  0.101249  1
  O  O10  1  0.972073  0.376370  0.631269  1
  O  O11  1  0.020158  0.626612  0.372341  1
  O  O12  1  0.712145  0.360949  0.267494  1
  O  O13  1  0.274502  0.646260  0.732273  1
  O  O14  1  0.432620  0.816768  0.088867  1
  O  O15  1  0.575151  0.183379  0.907275  1
  O  O16  1  0.426471  0.304052  0.499785  1
  O  O17  1  0.567662  0.689012  0.505998  1
  O  O18  1  0.876622  0.589559  0.824257  1
  O  O19  1  0.115872  0.413493  0.175988  1
  O  O20  1  0.278369  0.474095  0.901534  1
  O  O21  1  0.730695  0.542736  0.101367  1
  O  O22  1  0.884462  0.090807  0.380992  1
  O  O23  1  0.111833  0.912987  0.611782  1
  O  O24  1  0.359455  0.925338  0.347939  1
  O  O25  1  0.642583  0.061035  0.648336  1
  O  O26  1  0.356927  0.096939  0.172232  1
  O  O27  1  0.646084  0.899370  0.835138  1
