# generated using pymatgen
data_PrYIrRhO7
_symmetry_space_group_name_H-M   'P 1'
_cell_length_a   7.38290976
_cell_length_b   7.33974362
_cell_length_c   7.33974341
_cell_angle_alpha   59.71405031
_cell_angle_beta   59.80525312
_cell_angle_gamma   59.80525794
_symmetry_Int_Tables_number   1
_chemical_formula_structural   PrYIrRhO7
_chemical_formula_sum   'Pr2 Y2 Ir2 Rh2 O14'
_cell_volume   279.80010188
_cell_formula_units_Z   2
loop_
 _symmetry_equiv_pos_site_id
 _symmetry_equiv_pos_as_xyz
  1  'x, y, z'
loop_
 _atom_site_type_symbol
 _atom_site_label
 _atom_site_symmetry_multiplicity
 _atom_site_fract_x
 _atom_site_fract_y
 _atom_site_fract_z
 _atom_site_occupancy
  Pr  Pr0  1  0.625000  0.125000  0.125000  1
  Pr  Pr1  1  0.125000  0.125000  0.125000  1
  Y  Y2  1  0.125000  0.625000  0.125000  1
  Y  Y3  1  0.125000  0.125000  0.625000  1
  Ir  Ir4  1  0.125000  0.625000  0.625000  1
  Ir  Ir5  1  0.625000  0.625000  0.625000  1
  Rh  Rh6  1  0.625000  0.125000  0.625000  1
  Rh  Rh7  1  0.625000  0.625000  0.125000  1
  O  O8  1  0.718299  0.698799  0.294715  1
  O  O9  1  0.288187  0.294715  0.698799  1
  O  O10  1  0.718299  0.294715  0.698799  1
  O  O11  1  0.288187  0.698799  0.294715  1
  O  O12  1  0.294045  0.705955  0.705955  1
  O  O13  1  0.711379  0.288621  0.288621  1
  O  O14  1  0.531701  0.551201  0.955285  1
  O  O15  1  0.961813  0.955285  0.551201  1
  O  O16  1  0.531701  0.955285  0.551201  1
  O  O17  1  0.961813  0.551201  0.955285  1
  O  O18  1  0.955955  0.544045  0.544045  1
  O  O19  1  0.538621  0.961379  0.961379  1
  O  O20  1  0.240777  0.259223  0.259223  1
  O  O21  1  0.009223  0.990777  0.990777  1
