# generated using pymatgen
data_Sm5Bi3O14
_symmetry_space_group_name_H-M   'P 1'
_cell_length_a   6.69324306
_cell_length_b   6.72551903
_cell_length_c   7.88239738
_cell_angle_alpha   106.74318506
_cell_angle_beta   89.67476842
_cell_angle_gamma   98.22081987
_symmetry_Int_Tables_number   1
_chemical_formula_structural   Sm5Bi3O14
_chemical_formula_sum   'Sm5 Bi3 O14'
_cell_volume   336.05976707
_cell_formula_units_Z   1
loop_
 _symmetry_equiv_pos_site_id
 _symmetry_equiv_pos_as_xyz
  1  'x, y, z'
loop_
 _atom_site_type_symbol
 _atom_site_label
 _atom_site_symmetry_multiplicity
 _atom_site_fract_x
 _atom_site_fract_y
 _atom_site_fract_z
 _atom_site_occupancy
  Sm  Sm0  1  0.458768  0.006901  0.254261  1
  Sm  Sm1  1  0.538712  0.000692  0.750383  1
  Sm  Sm2  1  0.268919  0.533789  0.882053  1
  Sm  Sm3  1  0.741188  0.461306  0.114113  1
  Sm  Sm4  1  0.747068  0.481132  0.618218  1
  Bi  Bi5  1  0.993788  0.999374  0.500100  1
  Bi  Bi6  1  0.998868  0.995539  0.997267  1
  Bi  Bi7  1  0.286076  0.534753  0.389504  1
  O  O8  1  0.447697  0.648016  0.169318  1
  O  O9  1  0.559164  0.358587  0.836184  1
  O  O10  1  0.298969  0.920596  0.952098  1
  O  O11  1  0.700925  0.074932  0.049874  1
  O  O12  1  0.293420  0.929541  0.515463  1
  O  O13  1  0.701541  0.086184  0.492533  1
  O  O14  1  0.548986  0.364599  0.345150  1
  O  O15  1  0.457657  0.639204  0.653816  1
  O  O16  1  0.926736  0.665120  0.949616  1
  O  O17  1  0.068842  0.319492  0.026649  1
  O  O18  1  0.068845  0.333838  0.626186  1
  O  O19  1  0.904300  0.669842  0.383143  1
  O  O20  1  0.877351  0.903684  0.726419  1
  O  O21  1  0.112180  0.072881  0.267653  1
