# generated using pymatgen
data_Sc6TiAl15Os7
_symmetry_space_group_name_H-M   'P 1'
_cell_length_a   8.79332713
_cell_length_b   8.79332726
_cell_length_c   8.77232758
_cell_angle_alpha   59.92078513
_cell_angle_beta   59.92078082
_cell_angle_gamma   60.00000332
_symmetry_Int_Tables_number   1
_chemical_formula_structural   Sc6TiAl15Os7
_chemical_formula_sum   'Sc6 Ti1 Al15 Os7'
_cell_volume   479.05488418
_cell_formula_units_Z   1
loop_
 _symmetry_equiv_pos_site_id
 _symmetry_equiv_pos_as_xyz
  1  'x, y, z'
loop_
 _atom_site_type_symbol
 _atom_site_label
 _atom_site_symmetry_multiplicity
 _atom_site_fract_x
 _atom_site_fract_y
 _atom_site_fract_z
 _atom_site_occupancy
  Sc  Sc0  1  0.711365  0.711365  0.284651  1
  Sc  Sc1  1  0.292619  0.711365  0.284651  1
  Sc  Sc2  1  0.711365  0.292619  0.284651  1
  Sc  Sc3  1  0.285815  0.285815  0.715981  1
  Sc  Sc4  1  0.712389  0.285815  0.715981  1
  Sc  Sc5  1  0.285815  0.712389  0.715981  1
  Ti  Ti6  1  0.879985  0.879985  0.360044  1
  Al  Al7  1  0.878567  0.363614  0.879251  1
  Al  Al8  1  0.363614  0.878567  0.879251  1
  Al  Al9  1  0.878567  0.878567  0.879251  1
  Al  Al10  1  0.122546  0.122546  0.632364  1
  Al  Al11  1  0.119843  0.636854  0.123461  1
  Al  Al12  1  0.636854  0.119843  0.123461  1
  Al  Al13  1  0.119843  0.119843  0.123461  1
  Al  Al14  1  0.664029  0.664029  0.007915  1
  Al  Al15  1  0.663025  0.011019  0.662931  1
  Al  Al16  1  0.011019  0.663025  0.662931  1
  Al  Al17  1  0.663025  0.663025  0.662931  1
  Al  Al18  1  0.336179  0.336179  0.991461  1
  Al  Al19  1  0.337337  0.988169  0.337156  1
  Al  Al20  1  0.988169  0.337337  0.337156  1
  Al  Al21  1  0.337337  0.337337  0.337156  1
  Os  Os22  1  0.999861  0.999861  0.000418  1
  Os  Os23  1  0.999748  0.999748  0.500059  1
  Os  Os24  1  0.500445  0.999748  0.500059  1
  Os  Os25  1  0.999748  0.500445  0.500059  1
  Os  Os26  1  0.499996  0.499996  0.999110  1
  Os  Os27  1  0.000898  0.499996  0.999110  1
  Os  Os28  1  0.499996  0.000898  0.999110  1
