# generated using pymatgen
data_ScTi(Co2Sn)2
_symmetry_space_group_name_H-M   'P 1'
_cell_length_a   7.53492413
_cell_length_b   7.53492382
_cell_length_c   7.53492430
_cell_angle_alpha   33.52264657
_cell_angle_beta   33.52265353
_cell_angle_gamma   33.52263995
_symmetry_Int_Tables_number   1
_chemical_formula_structural   ScTi(Co2Sn)2
_chemical_formula_sum   'Sc1 Ti1 Co4 Sn2'
_cell_volume   116.21235395
_cell_formula_units_Z   1
loop_
 _symmetry_equiv_pos_site_id
 _symmetry_equiv_pos_as_xyz
  1  'x, y, z'
loop_
 _atom_site_type_symbol
 _atom_site_label
 _atom_site_symmetry_multiplicity
 _atom_site_fract_x
 _atom_site_fract_y
 _atom_site_fract_z
 _atom_site_occupancy
  Sc  Sc0  1  0.000000  0.000000  0.000000  1
  Ti  Ti1  1  0.500000  0.500000  0.500000  1
  Co  Co2  1  0.621944  0.621944  0.621944  1
  Co  Co3  1  0.127655  0.127655  0.127655  1
  Co  Co4  1  0.872345  0.872345  0.872345  1
  Co  Co5  1  0.378056  0.378056  0.378056  1
  Sn  Sn6  1  0.249863  0.249863  0.249863  1
  Sn  Sn7  1  0.750137  0.750137  0.750137  1
