# generated using pymatgen
data_Er3AuO7
_symmetry_space_group_name_H-M   'P 1'
_cell_length_a   6.44007305
_cell_length_b   6.44007265
_cell_length_c   7.37762100
_cell_angle_alpha   90.00000000
_cell_angle_beta   90.00000000
_cell_angle_gamma   108.81335035
_symmetry_Int_Tables_number   1
_chemical_formula_structural   Er3AuO7
_chemical_formula_sum   'Er6 Au2 O14'
_cell_volume   289.63599836
_cell_formula_units_Z   2
loop_
 _symmetry_equiv_pos_site_id
 _symmetry_equiv_pos_as_xyz
  1  'x, y, z'
loop_
 _atom_site_type_symbol
 _atom_site_label
 _atom_site_symmetry_multiplicity
 _atom_site_fract_x
 _atom_site_fract_y
 _atom_site_fract_z
 _atom_site_occupancy
  Er  Er0  1  0.002049  0.471487  0.749949  1
  Er  Er1  1  0.997951  0.528513  0.249949  1
  Er  Er2  1  0.528513  0.997951  0.750051  1
  Er  Er3  1  0.471487  0.002049  0.250051  1
  Er  Er4  1  0.500720  0.500720  0.500000  1
  Er  Er5  1  0.499280  0.499280  0.000000  1
  Au  Au6  1  0.999836  0.999836  0.500000  1
  Au  Au7  1  0.000164  0.000164  0.000000  1
  O  O8  1  0.638845  0.361155  0.750000  1
  O  O9  1  0.361155  0.638845  0.250000  1
  O  O10  1  0.917999  0.082001  0.750000  1
  O  O11  1  0.082001  0.917999  0.250000  1
  O  O12  1  0.916362  0.667466  0.524695  1
  O  O13  1  0.083638  0.332534  0.024695  1
  O  O14  1  0.332534  0.083638  0.975305  1
  O  O15  1  0.667466  0.916362  0.475305  1
  O  O16  1  0.367373  0.632627  0.750000  1
  O  O17  1  0.632627  0.367373  0.250000  1
  O  O18  1  0.916668  0.667829  0.975120  1
  O  O19  1  0.083332  0.332171  0.475120  1
  O  O20  1  0.332171  0.083332  0.524880  1
  O  O21  1  0.667829  0.916668  0.024880  1
