# generated using pymatgen
data_Ta3Ti3Al4(CuC)2
_symmetry_space_group_name_H-M   'P 1'
_cell_length_a   8.22875991
_cell_length_b   8.22875981
_cell_length_c   8.22847900
_cell_angle_alpha   60.00113286
_cell_angle_beta   60.00113328
_cell_angle_gamma   60.03595099
_symmetry_Int_Tables_number   1
_chemical_formula_structural   Ta3Ti3Al4(CuC)2
_chemical_formula_sum   'Ta6 Ti6 Al8 Cu4 C4'
_cell_volume   394.09293072
_cell_formula_units_Z   2
loop_
 _symmetry_equiv_pos_site_id
 _symmetry_equiv_pos_as_xyz
  1  'x, y, z'
loop_
 _atom_site_type_symbol
 _atom_site_label
 _atom_site_symmetry_multiplicity
 _atom_site_fract_x
 _atom_site_fract_y
 _atom_site_fract_z
 _atom_site_occupancy
  Ta  Ta0  1  0.931796  0.931796  0.568204  1
  Ta  Ta1  1  0.683617  0.317204  0.317167  1
  Ta  Ta2  1  0.317204  0.683617  0.682012  1
  Ta  Ta3  1  0.680786  0.680786  0.319214  1
  Ta  Ta4  1  0.683617  0.317204  0.682012  1
  Ta  Ta5  1  0.317204  0.683617  0.317167  1
  Ti  Ti6  1  0.569781  0.931536  0.567500  1
  Ti  Ti7  1  0.569781  0.931536  0.931183  1
  Ti  Ti8  1  0.931536  0.569781  0.567500  1
  Ti  Ti9  1  0.931536  0.569781  0.931183  1
  Ti  Ti10  1  0.319775  0.319775  0.680225  1
  Ti  Ti11  1  0.568577  0.568577  0.931423  1
  Al  Al12  1  0.915300  0.254086  0.915307  1
  Al  Al13  1  0.332912  0.332912  0.998965  1
  Al  Al14  1  0.001581  0.333064  0.332678  1
  Al  Al15  1  0.332912  0.332912  0.335212  1
  Al  Al16  1  0.254086  0.915300  0.915307  1
  Al  Al17  1  0.914879  0.914879  0.917773  1
  Al  Al18  1  0.914879  0.914879  0.252470  1
  Al  Al19  1  0.333064  0.001581  0.332678  1
  Cu  Cu20  1  0.125276  0.625019  0.124852  1
  Cu  Cu21  1  0.123710  0.123710  0.626318  1
  Cu  Cu22  1  0.625019  0.125276  0.124852  1
  Cu  Cu23  1  0.123710  0.123710  0.126263  1
  C  C24  1  0.619003  0.124068  0.628464  1
  C  C25  1  0.627195  0.627195  0.117336  1
  C  C26  1  0.124068  0.619003  0.628464  1
  C  C27  1  0.627195  0.627195  0.628275  1
