# generated using pymatgen
data_Dy3Sc3Si2Ir
_symmetry_space_group_name_H-M   'P 1'
_cell_length_a   7.44246500
_cell_length_b   7.44246409
_cell_length_c   4.22052600
_cell_angle_alpha   90.00000000
_cell_angle_beta   90.00000000
_cell_angle_gamma   119.99999958
_symmetry_Int_Tables_number   1
_chemical_formula_structural   Dy3Sc3Si2Ir
_chemical_formula_sum   'Dy3 Sc3 Si2 Ir1'
_cell_volume   202.45605154
_cell_formula_units_Z   1
loop_
 _symmetry_equiv_pos_site_id
 _symmetry_equiv_pos_as_xyz
  1  'x, y, z'
loop_
 _atom_site_type_symbol
 _atom_site_label
 _atom_site_symmetry_multiplicity
 _atom_site_fract_x
 _atom_site_fract_y
 _atom_site_fract_z
 _atom_site_occupancy
  Dy  Dy0  1  0.414262  0.000000  0.000000  1
  Dy  Dy1  1  0.000000  0.414263  0.000000  1
  Dy  Dy2  1  0.585738  0.585737  0.000000  1
  Sc  Sc3  1  0.758940  0.000000  0.499999  1
  Sc  Sc4  1  0.241060  0.241060  0.499999  1
  Sc  Sc5  1  0.000000  0.758940  0.499999  1
  Si  Si6  1  0.666666  0.333333  0.499999  1
  Si  Si7  1  0.333334  0.666667  0.499999  1
  Ir  Ir8  1  0.000000  0.000000  0.000000  1
