# generated using pymatgen
data_Ta24Si7As
_symmetry_space_group_name_H-M   'P 1'
_cell_length_a   10.24830000
_cell_length_b   10.22606726
_cell_length_c   5.21824813
_cell_angle_alpha   90.02567245
_cell_angle_beta   89.99944567
_cell_angle_gamma   90.00265858
_symmetry_Int_Tables_number   1
_chemical_formula_structural   Ta24Si7As
_chemical_formula_sum   'Ta24 Si7 As1'
_cell_volume   546.87133171
_cell_formula_units_Z   1
loop_
 _symmetry_equiv_pos_site_id
 _symmetry_equiv_pos_as_xyz
  1  'x, y, z'
loop_
 _atom_site_type_symbol
 _atom_site_label
 _atom_site_symmetry_multiplicity
 _atom_site_fract_x
 _atom_site_fract_y
 _atom_site_fract_z
 _atom_site_occupancy
  Ta  Ta0  1  0.267432  0.104797  0.025129  1
  Ta  Ta1  1  0.231770  0.395826  0.024255  1
  Ta  Ta2  1  0.604135  0.731727  0.524243  1
  Ta  Ta3  1  0.895971  0.768413  0.524426  1
  Ta  Ta4  1  0.731988  0.896050  0.975428  1
  Ta  Ta5  1  0.768297  0.603954  0.975517  1
  Ta  Ta6  1  0.397146  0.270446  0.475860  1
  Ta  Ta7  1  0.102093  0.234386  0.474939  1
  Ta  Ta8  1  0.835635  0.149576  0.719704  1
  Ta  Ta9  1  0.664263  0.350439  0.719832  1
  Ta  Ta10  1  0.649992  0.164260  0.220029  1
  Ta  Ta11  1  0.850475  0.335748  0.219923  1
  Ta  Ta12  1  0.162581  0.848258  0.277640  1
  Ta  Ta13  1  0.335848  0.649906  0.279893  1
  Ta  Ta14  1  0.562696  0.463661  0.235885  1
  Ta  Ta15  1  0.538600  0.062751  0.737576  1
  Ta  Ta16  1  0.963152  0.437591  0.736050  1
  Ta  Ta17  1  0.060337  0.962966  0.765310  1
  Ta  Ta18  1  0.437363  0.536675  0.763692  1
  Ta  Ta19  1  0.465498  0.937084  0.261923  1
  Ta  Ta20  1  0.036599  0.562580  0.263723  1
  Ta  Ta21  1  0.351903  0.833459  0.782577  1
  Ta  Ta22  1  0.149821  0.664401  0.780649  1
  Ta  Ta23  1  0.936854  0.036646  0.236218  1
  Si  Si24  1  0.220270  0.455428  0.529680  1
  Si  Si25  1  0.545606  0.719721  0.030284  1
  Si  Si26  1  0.954443  0.779047  0.029778  1
  Si  Si27  1  0.720436  0.954871  0.469839  1
  Si  Si28  1  0.779830  0.544985  0.469980  1
  Si  Si29  1  0.455299  0.279747  0.970543  1
  Si  Si30  1  0.044647  0.220387  0.970277  1
  As  As31  1  0.279021  0.044220  0.529200  1
