# generated using pymatgen
data_SmHo5(BiO7)2
_symmetry_space_group_name_H-M   'P 1'
_cell_length_a   6.56086073
_cell_length_b   6.54314342
_cell_length_c   7.70310958
_cell_angle_alpha   106.94102445
_cell_angle_beta   89.76327432
_cell_angle_gamma   98.87525056
_symmetry_Int_Tables_number   1
_chemical_formula_structural   SmHo5(BiO7)2
_chemical_formula_sum   'Sm1 Ho5 Bi2 O14'
_cell_volume   312.25485281
_cell_formula_units_Z   1
loop_
 _symmetry_equiv_pos_site_id
 _symmetry_equiv_pos_as_xyz
  1  'x, y, z'
loop_
 _atom_site_type_symbol
 _atom_site_label
 _atom_site_symmetry_multiplicity
 _atom_site_fract_x
 _atom_site_fract_y
 _atom_site_fract_z
 _atom_site_occupancy
  Sm  Sm0  1  0.261660  0.520922  0.384944  1
  Ho  Ho1  1  0.463767  0.005669  0.251299  1
  Ho  Ho2  1  0.538032  0.994144  0.748572  1
  Ho  Ho3  1  0.274079  0.538540  0.883173  1
  Ho  Ho4  1  0.727264  0.462468  0.115736  1
  Ho  Ho5  1  0.730183  0.473219  0.613847  1
  Bi  Bi6  1  0.998891  0.000696  0.500754  1
  Bi  Bi7  1  0.999751  0.999295  0.999544  1
  O  O8  1  0.450336  0.650522  0.162574  1
  O  O9  1  0.554151  0.349942  0.832618  1
  O  O10  1  0.302381  0.921823  0.950917  1
  O  O11  1  0.697748  0.078741  0.048224  1
  O  O12  1  0.299465  0.927527  0.514177  1
  O  O13  1  0.699573  0.076048  0.488144  1
  O  O14  1  0.550420  0.361277  0.344260  1
  O  O15  1  0.458273  0.637861  0.659696  1
  O  O16  1  0.926379  0.665262  0.960689  1
  O  O17  1  0.075124  0.334267  0.039836  1
  O  O18  1  0.067881  0.351147  0.623196  1
  O  O19  1  0.924228  0.652853  0.377931  1
  O  O20  1  0.872921  0.900390  0.724704  1
  O  O21  1  0.127492  0.097388  0.275167  1
