# generated using pymatgen
data_Hf10CdSb5
_symmetry_space_group_name_H-M   'P 1'
_cell_length_a   5.62582666
_cell_length_b   8.33768120
_cell_length_c   8.33768057
_cell_angle_alpha   96.53562462
_cell_angle_beta   109.71694439
_cell_angle_gamma   70.28306124
_symmetry_Int_Tables_number   1
_chemical_formula_structural   Hf10CdSb5
_chemical_formula_sum   'Hf10 Cd1 Sb5'
_cell_volume   346.57589855
_cell_formula_units_Z   1
loop_
 _symmetry_equiv_pos_site_id
 _symmetry_equiv_pos_as_xyz
  1  'x, y, z'
loop_
 _atom_site_type_symbol
 _atom_site_label
 _atom_site_symmetry_multiplicity
 _atom_site_fract_x
 _atom_site_fract_y
 _atom_site_fract_z
 _atom_site_occupancy
  Hf  Hf0  1  0.923066  0.852716  0.699577  1
  Hf  Hf1  1  0.076204  0.147284  0.300423  1
  Hf  Hf2  1  0.423796  0.300423  0.147284  1
  Hf  Hf3  1  0.576934  0.699577  0.852716  1
  Hf  Hf4  1  0.223489  0.699577  0.147284  1
  Hf  Hf5  1  0.775780  0.300423  0.852716  1
  Hf  Hf6  1  0.276511  0.147284  0.699577  1
  Hf  Hf7  1  0.724220  0.852716  0.300423  1
  Hf  Hf8  1  0.250000  0.500000  0.500000  1
  Hf  Hf9  1  0.750000  0.500000  0.500000  1
  Cd  Cd10  1  0.250000  0.000000  0.000000  1
  Sb  Sb11  1  0.335432  0.829135  0.500000  1
  Sb  Sb12  1  0.664568  0.170865  0.500000  1
  Sb  Sb13  1  0.835432  0.500000  0.170865  1
  Sb  Sb14  1  0.164568  0.500000  0.829135  1
  Sb  Sb15  1  0.750000  0.000000  0.000000  1
