# generated using pymatgen
data_Y4PCl6
_symmetry_space_group_name_H-M   'P 1'
_cell_length_a   3.86042500
_cell_length_b   12.57620900
_cell_length_c   13.31947500
_cell_angle_alpha   90.00000000
_cell_angle_beta   90.00000000
_cell_angle_gamma   90.00000000
_symmetry_Int_Tables_number   1
_chemical_formula_structural   Y4PCl6
_chemical_formula_sum   'Y8 P2 Cl12'
_cell_volume   646.65400640
_cell_formula_units_Z   2
loop_
 _symmetry_equiv_pos_site_id
 _symmetry_equiv_pos_as_xyz
  1  'x, y, z'
loop_
 _atom_site_type_symbol
 _atom_site_label
 _atom_site_symmetry_multiplicity
 _atom_site_fract_x
 _atom_site_fract_y
 _atom_site_fract_z
 _atom_site_occupancy
  Y  Y0  1  0.500000  0.120664  0.337986  1
  Y  Y1  1  0.500000  0.879336  0.662014  1
  Y  Y2  1  0.500000  0.620664  0.162014  1
  Y  Y3  1  0.500000  0.379336  0.837986  1
  Y  Y4  1  0.000000  0.120277  0.579745  1
  Y  Y5  1  0.000000  0.879723  0.420255  1
  Y  Y6  1  0.000000  0.620277  0.920255  1
  Y  Y7  1  0.000000  0.379723  0.079745  1
  P  P8  1  0.500000  0.000000  0.500000  1
  P  P9  1  0.500000  0.500000  0.000000  1
  Cl  Cl10  1  0.500000  0.242585  0.163482  1
  Cl  Cl11  1  0.500000  0.757415  0.836518  1
  Cl  Cl12  1  0.500000  0.742585  0.336518  1
  Cl  Cl13  1  0.500000  0.257415  0.663482  1
  Cl  Cl14  1  0.000000  0.254656  0.411168  1
  Cl  Cl15  1  0.000000  0.745344  0.588832  1
  Cl  Cl16  1  0.000000  0.754656  0.088832  1
  Cl  Cl17  1  0.000000  0.245344  0.911168  1
  Cl  Cl18  1  0.000000  0.001968  0.243774  1
  Cl  Cl19  1  0.000000  0.998032  0.756226  1
  Cl  Cl20  1  0.000000  0.501968  0.256226  1
  Cl  Cl21  1  0.000000  0.498032  0.743774  1
