# generated using pymatgen
data_VMo5P2
_symmetry_space_group_name_H-M   'P 1'
_cell_length_a   7.34204396
_cell_length_b   7.35058774
_cell_length_c   7.35058867
_cell_angle_alpha   96.18348732
_cell_angle_beta   96.09100352
_cell_angle_gamma   141.92626727
_symmetry_Int_Tables_number   1
_chemical_formula_structural   VMo5P2
_chemical_formula_sum   'V2 Mo10 P4'
_cell_volume   231.12023202
_cell_formula_units_Z   2
loop_
 _symmetry_equiv_pos_site_id
 _symmetry_equiv_pos_as_xyz
  1  'x, y, z'
loop_
 _atom_site_type_symbol
 _atom_site_label
 _atom_site_symmetry_multiplicity
 _atom_site_fract_x
 _atom_site_fract_y
 _atom_site_fract_z
 _atom_site_occupancy
  V  V0  1  0.944066  0.945859  0.397274  1
  V  V1  1  0.055934  0.453208  0.001793  1
  Mo  Mo2  1  0.467511  0.060876  0.001746  1
  Mo  Mo3  1  0.532489  0.534235  0.593365  1
  Mo  Mo4  1  0.000000  0.354428  0.354428  1
  Mo  Mo5  1  0.645589  0.001493  0.646440  1
  Mo  Mo6  1  0.354411  0.000850  0.355904  1
  Mo  Mo7  1  0.000000  0.644961  0.644961  1
  Mo  Mo8  1  0.138272  0.138847  0.813487  1
  Mo  Mo9  1  0.861728  0.675214  0.000575  1
  Mo  Mo10  1  0.668486  0.851840  0.000389  1
  Mo  Mo11  1  0.331514  0.331902  0.183354  1
  P  P12  1  0.500000  0.209709  0.709709  1
  P  P13  1  0.793213  0.505549  0.293380  1
  P  P14  1  0.206787  0.500167  0.712337  1
  P  P15  1  0.500000  0.790860  0.290860  1
