# generated using pymatgen
data_Ce(S8Cl)3
_symmetry_space_group_name_H-M   'P 1'
_cell_length_a   15.03040246
_cell_length_b   15.03040272
_cell_length_c   15.03040300
_cell_angle_alpha   119.12972107
_cell_angle_beta   119.12972319
_cell_angle_gamma   119.12971347
_symmetry_Int_Tables_number   1
_chemical_formula_structural   Ce(S8Cl)3
_chemical_formula_sum   'Ce1 S24 Cl3'
_cell_volume   820.63771162
_cell_formula_units_Z   1
loop_
 _symmetry_equiv_pos_site_id
 _symmetry_equiv_pos_as_xyz
  1  'x, y, z'
loop_
 _atom_site_type_symbol
 _atom_site_label
 _atom_site_symmetry_multiplicity
 _atom_site_fract_x
 _atom_site_fract_y
 _atom_site_fract_z
 _atom_site_occupancy
  Ce  Ce0  1  0.445958  0.445958  0.445958  1
  S  S1  1  0.003877  0.599567  0.599567  1
  S  S2  1  0.599567  0.599567  0.003877  1
  S  S3  1  0.599567  0.003877  0.599567  1
  S  S4  1  0.256778  0.865403  0.736365  1
  S  S5  1  0.865403  0.736365  0.256778  1
  S  S6  1  0.736365  0.256778  0.865403  1
  S  S7  1  0.865403  0.256778  0.736365  1
  S  S8  1  0.256778  0.736365  0.865403  1
  S  S9  1  0.736365  0.865403  0.256778  1
  S  S10  1  0.083127  0.608015  0.426359  1
  S  S11  1  0.608015  0.426359  0.083127  1
  S  S12  1  0.426359  0.083127  0.608015  1
  S  S13  1  0.608015  0.083127  0.426359  1
  S  S14  1  0.083127  0.426359  0.608015  1
  S  S15  1  0.426359  0.608015  0.083127  1
  S  S16  1  0.375564  0.759505  0.628552  1
  S  S17  1  0.759505  0.628552  0.375564  1
  S  S18  1  0.628552  0.375564  0.759505  1
  S  S19  1  0.759505  0.375564  0.628552  1
  S  S20  1  0.375564  0.628552  0.759505  1
  S  S21  1  0.628552  0.759505  0.375564  1
  S  S22  1  0.176238  0.449024  0.449024  1
  S  S23  1  0.449024  0.449024  0.176238  1
  S  S24  1  0.449024  0.176238  0.449024  1
  Cl  Cl25  1  0.034954  0.904775  0.904775  1
  Cl  Cl26  1  0.904775  0.904775  0.034954  1
  Cl  Cl27  1  0.904775  0.034954  0.904775  1
