# generated using pymatgen
data_Gd4HoIrRu
_symmetry_space_group_name_H-M   'P 1'
_cell_length_a   6.39850332
_cell_length_b   7.28352138
_cell_length_c   8.49723900
_cell_angle_alpha   96.79081954
_cell_angle_beta   112.11735686
_cell_angle_gamma   90.00000111
_symmetry_Int_Tables_number   1
_chemical_formula_structural   Gd4HoIrRu
_chemical_formula_sum   'Gd8 Ho2 Ir2 Ru2'
_cell_volume   363.86166559
_cell_formula_units_Z   2
loop_
 _symmetry_equiv_pos_site_id
 _symmetry_equiv_pos_as_xyz
  1  'x, y, z'
loop_
 _atom_site_type_symbol
 _atom_site_label
 _atom_site_symmetry_multiplicity
 _atom_site_fract_x
 _atom_site_fract_y
 _atom_site_fract_z
 _atom_site_occupancy
  Gd  Gd0  1  0.979212  0.918036  0.184469  1
  Gd  Gd1  1  0.794742  0.581964  0.815531  1
  Gd  Gd2  1  0.026268  0.082780  0.816411  1
  Gd  Gd3  1  0.209857  0.417220  0.183589  1
  Gd  Gd4  1  0.642393  0.814720  0.435827  1
  Gd  Gd5  1  0.206566  0.685280  0.564173  1
  Gd  Gd6  1  0.353424  0.185237  0.563679  1
  Gd  Gd7  1  0.789744  0.314763  0.436321  1
  Ho  Ho8  1  0.423347  0.750000  0.000000  1
  Ho  Ho9  1  0.575332  0.250000  0.000000  1
  Ir  Ir10  1  0.822280  0.576530  0.220535  1
  Ir  Ir11  1  0.601747  0.923470  0.779465  1
  Ru  Ru12  1  0.178332  0.425334  0.781578  1
  Ru  Ru13  1  0.396754  0.074666  0.218422  1
