# generated using pymatgen
data_Dy3Lu(ScPt)4
_symmetry_space_group_name_H-M   'P 1'
_cell_length_a   4.62814000
_cell_length_b   6.95680143
_cell_length_c   8.37572983
_cell_angle_alpha   89.87654150
_cell_angle_beta   90.00000000
_cell_angle_gamma   90.00000000
_symmetry_Int_Tables_number   1
_chemical_formula_structural   Dy3Lu(ScPt)4
_chemical_formula_sum   'Dy3 Lu1 Sc4 Pt4'
_cell_volume   269.67317433
_cell_formula_units_Z   1
loop_
 _symmetry_equiv_pos_site_id
 _symmetry_equiv_pos_as_xyz
  1  'x, y, z'
loop_
 _atom_site_type_symbol
 _atom_site_label
 _atom_site_symmetry_multiplicity
 _atom_site_fract_x
 _atom_site_fract_y
 _atom_site_fract_z
 _atom_site_occupancy
  Dy  Dy0  1  0.250000  0.517843  0.177311  1
  Dy  Dy1  1  0.750000  0.482701  0.823939  1
  Dy  Dy2  1  0.750000  0.982177  0.675497  1
  Lu  Lu3  1  0.250000  0.018313  0.324606  1
  Sc  Sc4  1  0.250000  0.641408  0.571688  1
  Sc  Sc5  1  0.750000  0.356812  0.426568  1
  Sc  Sc6  1  0.750000  0.859532  0.075396  1
  Sc  Sc7  1  0.250000  0.141588  0.928426  1
  Pt  Pt8  1  0.250000  0.755337  0.901637  1
  Pt  Pt9  1  0.750000  0.243990  0.099279  1
  Pt  Pt10  1  0.750000  0.747193  0.400109  1
  Pt  Pt11  1  0.250000  0.253105  0.595543  1
