# generated using pymatgen
data_Li2NdAg4
_symmetry_space_group_name_H-M   'P 1'
_cell_length_a   5.76817808
_cell_length_b   5.76817830
_cell_length_c   5.76817914
_cell_angle_alpha   102.16665030
_cell_angle_beta   102.16666082
_cell_angle_gamma   125.34428519
_symmetry_Int_Tables_number   1
_chemical_formula_structural   Li2NdAg4
_chemical_formula_sum   'Li2 Nd1 Ag4'
_cell_volume   139.07441274
_cell_formula_units_Z   1
loop_
 _symmetry_equiv_pos_site_id
 _symmetry_equiv_pos_as_xyz
  1  'x, y, z'
loop_
 _atom_site_type_symbol
 _atom_site_label
 _atom_site_symmetry_multiplicity
 _atom_site_fract_x
 _atom_site_fract_y
 _atom_site_fract_z
 _atom_site_occupancy
  Li  Li0  1  0.250000  0.750000  0.500000  1
  Li  Li1  1  0.750000  0.250000  0.500000  1
  Nd  Nd2  1  0.000000  0.000000  0.000000  1
  Ag  Ag3  1  0.304046  0.304046  0.608092  1
  Ag  Ag4  1  0.695954  0.695954  0.391908  1
  Ag  Ag5  1  0.695954  0.304046  0.000000  1
  Ag  Ag6  1  0.304046  0.695954  0.000000  1
