# generated using pymatgen
data_TlCrSb12RuPt2
_symmetry_space_group_name_H-M   'P 1'
_cell_length_a   8.23945658
_cell_length_b   8.22955770
_cell_length_c   8.19219763
_cell_angle_alpha   109.33719042
_cell_angle_beta   109.21922530
_cell_angle_gamma   109.64865316
_symmetry_Int_Tables_number   1
_chemical_formula_structural   TlCrSb12RuPt2
_chemical_formula_sum   'Tl1 Cr1 Sb12 Ru1 Pt2'
_cell_volume   428.70810898
_cell_formula_units_Z   1
loop_
 _symmetry_equiv_pos_site_id
 _symmetry_equiv_pos_as_xyz
  1  'x, y, z'
loop_
 _atom_site_type_symbol
 _atom_site_label
 _atom_site_symmetry_multiplicity
 _atom_site_fract_x
 _atom_site_fract_y
 _atom_site_fract_z
 _atom_site_occupancy
  Tl  Tl0  1  0.000000  0.000000  0.000000  1
  Cr  Cr1  1  0.000000  0.000000  0.500000  1
  Sb  Sb2  1  0.160136  0.823282  0.665343  1
  Sb  Sb3  1  0.152187  0.498464  0.347022  1
  Sb  Sb4  1  0.503891  0.663988  0.850928  1
  Sb  Sb5  1  0.345792  0.849370  0.186948  1
  Sb  Sb6  1  0.814519  0.662854  0.160222  1
  Sb  Sb7  1  0.662645  0.848023  0.503013  1
  Sb  Sb8  1  0.185481  0.337146  0.839778  1
  Sb  Sb9  1  0.654208  0.150630  0.813052  1
  Sb  Sb10  1  0.337355  0.151977  0.496987  1
  Sb  Sb11  1  0.496109  0.336012  0.149072  1
  Sb  Sb12  1  0.847813  0.501536  0.652978  1
  Sb  Sb13  1  0.839864  0.176718  0.334657  1
  Ru  Ru14  1  0.500000  0.000000  0.000000  1
  Pt  Pt15  1  0.500000  0.500000  0.500000  1
  Pt  Pt16  1  0.000000  0.500000  0.000000  1
