# generated using pymatgen
data_HoZr2Al7Pd2
_symmetry_space_group_name_H-M   'P 1'
_cell_length_a   9.01394192
_cell_length_b   9.01394172
_cell_length_c   9.01394200
_cell_angle_alpha   34.71941753
_cell_angle_beta   34.71941931
_cell_angle_gamma   34.71942003
_symmetry_Int_Tables_number   1
_chemical_formula_structural   HoZr2Al7Pd2
_chemical_formula_sum   'Ho1 Zr2 Al7 Pd2'
_cell_volume   212.03441689
_cell_formula_units_Z   1
loop_
 _symmetry_equiv_pos_site_id
 _symmetry_equiv_pos_as_xyz
  1  'x, y, z'
loop_
 _atom_site_type_symbol
 _atom_site_label
 _atom_site_symmetry_multiplicity
 _atom_site_fract_x
 _atom_site_fract_y
 _atom_site_fract_z
 _atom_site_occupancy
  Ho  Ho0  1  0.000000  0.000000  0.000000  1
  Zr  Zr1  1  0.145019  0.145019  0.145019  1
  Zr  Zr2  1  0.854981  0.854981  0.854981  1
  Al  Al3  1  0.585996  0.585996  0.075609  1
  Al  Al4  1  0.924392  0.414003  0.414005  1
  Al  Al5  1  0.414003  0.924392  0.414005  1
  Al  Al6  1  0.500000  0.500000  0.500000  1
  Al  Al7  1  0.585997  0.075608  0.585995  1
  Al  Al8  1  0.075608  0.585997  0.585995  1
  Al  Al9  1  0.414004  0.414004  0.924391  1
  Pd  Pd10  1  0.334932  0.334932  0.334932  1
  Pd  Pd11  1  0.665069  0.665069  0.665069  1
