# generated using pymatgen
data_Li4ErPaSe6
_symmetry_space_group_name_H-M   'P 1'
_cell_length_a   6.97610077
_cell_length_b   6.97589104
_cell_length_c   6.81863400
_cell_angle_alpha   99.79073225
_cell_angle_beta   99.79733606
_cell_angle_gamma   119.99463044
_symmetry_Int_Tables_number   1
_chemical_formula_structural   Li4ErPaSe6
_chemical_formula_sum   'Li4 Er1 Pa1 Se6'
_cell_volume   270.24471657
_cell_formula_units_Z   1
loop_
 _symmetry_equiv_pos_site_id
 _symmetry_equiv_pos_as_xyz
  1  'x, y, z'
loop_
 _atom_site_type_symbol
 _atom_site_label
 _atom_site_symmetry_multiplicity
 _atom_site_fract_x
 _atom_site_fract_y
 _atom_site_fract_z
 _atom_site_occupancy
  Li  Li0  1  0.500299  0.499755  0.000042  1
  Li  Li1  1  0.002089  0.997896  0.499990  1
  Li  Li2  1  0.663337  0.336663  0.500007  1
  Li  Li3  1  0.336112  0.663865  0.499998  1
  Er  Er4  1  0.833182  0.166889  0.000108  1
  Pa  Pa5  1  0.166918  0.833059  0.999973  1
  Se  Se6  1  0.924070  0.587517  0.247249  1
  Se  Se7  1  0.578112  0.921023  0.250712  1
  Se  Se8  1  0.245099  0.240613  0.252431  1
  Se  Se9  1  0.759342  0.754911  0.747531  1
  Se  Se10  1  0.078919  0.421839  0.749266  1
  Se  Se11  1  0.412524  0.075977  0.752695  1
