# generated using pymatgen
data_Dy16CdHg3Pt4
_symmetry_space_group_name_H-M   'P 1'
_cell_length_a   9.67263870
_cell_length_b   9.67537339
_cell_length_c   9.67537400
_cell_angle_alpha   59.99999790
_cell_angle_beta   59.99064503
_cell_angle_gamma   59.99064095
_symmetry_Int_Tables_number   1
_chemical_formula_structural   Dy16CdHg3Pt4
_chemical_formula_sum   'Dy16 Cd1 Hg3 Pt4'
_cell_volume   640.18282658
_cell_formula_units_Z   1
loop_
 _symmetry_equiv_pos_site_id
 _symmetry_equiv_pos_as_xyz
  1  'x, y, z'
loop_
 _atom_site_type_symbol
 _atom_site_label
 _atom_site_symmetry_multiplicity
 _atom_site_fract_x
 _atom_site_fract_y
 _atom_site_fract_z
 _atom_site_occupancy
  Dy  Dy0  1  0.354049  0.353099  0.353099  1
  Dy  Dy1  1  0.354049  0.353099  0.939754  1
  Dy  Dy2  1  0.354049  0.939754  0.353099  1
  Dy  Dy3  1  0.937921  0.354027  0.354027  1
  Dy  Dy4  1  0.809680  0.190182  0.190182  1
  Dy  Dy5  1  0.189251  0.810447  0.810447  1
  Dy  Dy6  1  0.189251  0.810447  0.189856  1
  Dy  Dy7  1  0.809680  0.190182  0.809957  1
  Dy  Dy8  1  0.189251  0.189856  0.810447  1
  Dy  Dy9  1  0.809680  0.809957  0.190182  1
  Dy  Dy10  1  0.933270  0.565141  0.565141  1
  Dy  Dy11  1  0.564447  0.935469  0.935469  1
  Dy  Dy12  1  0.564447  0.935469  0.564616  1
  Dy  Dy13  1  0.933270  0.565140  0.936449  1
  Dy  Dy14  1  0.564447  0.564616  0.935469  1
  Dy  Dy15  1  0.933270  0.936449  0.565140  1
  Cd  Cd16  1  0.253829  0.582057  0.582057  1
  Hg  Hg17  1  0.585412  0.587177  0.587177  1
  Hg  Hg18  1  0.585412  0.587177  0.240232  1
  Hg  Hg19  1  0.585412  0.240232  0.587177  1
  Pt  Pt20  1  0.143393  0.143605  0.143605  1
  Pt  Pt21  1  0.143393  0.143605  0.569398  1
  Pt  Pt22  1  0.143393  0.569398  0.143605  1
  Pt  Pt23  1  0.569747  0.143418  0.143418  1
