# generated using pymatgen
data_EuTmNi2(SnH)2
_symmetry_space_group_name_H-M   'P 1'
_cell_length_a   4.29033500
_cell_length_b   7.19845236
_cell_length_c   8.31773077
_cell_angle_alpha   90.16510882
_cell_angle_beta   90.00000000
_cell_angle_gamma   90.00000000
_symmetry_Int_Tables_number   1
_chemical_formula_structural   EuTmNi2(SnH)2
_chemical_formula_sum   'Eu2 Tm2 Ni4 Sn4 H4'
_cell_volume   256.88183478
_cell_formula_units_Z   2
loop_
 _symmetry_equiv_pos_site_id
 _symmetry_equiv_pos_as_xyz
  1  'x, y, z'
loop_
 _atom_site_type_symbol
 _atom_site_label
 _atom_site_symmetry_multiplicity
 _atom_site_fract_x
 _atom_site_fract_y
 _atom_site_fract_z
 _atom_site_occupancy
  Eu  Eu0  1  0.750000  0.514125  0.812789  1
  Eu  Eu1  1  0.250000  0.485875  0.187211  1
  Tm  Tm2  1  0.250000  0.985378  0.316164  1
  Tm  Tm3  1  0.750000  0.014622  0.683836  1
  Ni  Ni4  1  0.750000  0.264134  0.399051  1
  Ni  Ni5  1  0.250000  0.735866  0.600949  1
  Ni  Ni6  1  0.250000  0.216152  0.885671  1
  Ni  Ni7  1  0.750000  0.783848  0.114329  1
  Sn  Sn8  1  0.750000  0.151198  0.070343  1
  Sn  Sn9  1  0.250000  0.848802  0.929657  1
  Sn  Sn10  1  0.250000  0.342021  0.567959  1
  Sn  Sn11  1  0.750000  0.657979  0.432041  1
  H  H12  1  0.250000  0.954487  0.577325  1
  H  H13  1  0.750000  0.045513  0.422675  1
  H  H14  1  0.750000  0.565464  0.084052  1
  H  H15  1  0.250000  0.434536  0.915948  1
