# generated using pymatgen
data_K8BaSr3Zr2AsP7
_symmetry_space_group_name_H-M   'P 1'
_cell_length_a   10.30670266
_cell_length_b   10.31838404
_cell_length_c   7.76731500
_cell_angle_alpha   88.85267329
_cell_angle_beta   88.22101998
_cell_angle_gamma   119.71631297
_symmetry_Int_Tables_number   1
_chemical_formula_structural   K8BaSr3Zr2AsP7
_chemical_formula_sum   'K8 Ba1 Sr3 Zr2 As1 P7'
_cell_volume   716.46725266
_cell_formula_units_Z   1
loop_
 _symmetry_equiv_pos_site_id
 _symmetry_equiv_pos_as_xyz
  1  'x, y, z'
loop_
 _atom_site_type_symbol
 _atom_site_label
 _atom_site_symmetry_multiplicity
 _atom_site_fract_x
 _atom_site_fract_y
 _atom_site_fract_z
 _atom_site_occupancy
  K  K0  1  0.061081  0.525334  0.615439  1
  K  K1  1  0.526834  0.060753  0.114783  1
  K  K2  1  0.275685  0.132315  0.824596  1
  K  K3  1  0.872242  0.731957  0.765306  1
  K  K4  1  0.862971  0.143396  0.797065  1
  K  K5  1  0.731720  0.871811  0.262619  1
  K  K6  1  0.134010  0.278759  0.320299  1
  K  K7  1  0.141092  0.862457  0.297786  1
  Ba  Ba8  1  0.466397  0.930939  0.603789  1
  Sr  Sr9  1  0.465774  0.522860  0.623467  1
  Sr  Sr10  1  0.932480  0.470267  0.108680  1
  Sr  Sr11  1  0.523952  0.470993  0.126297  1
  Zr  Zr12  1  0.667547  0.338667  0.501447  1
  Zr  Zr13  1  0.334204  0.662365  0.012629  1
  As  As14  1  0.670192  0.356161  0.842407  1
  P  P15  1  0.357201  0.661000  0.339770  1
  P  P16  1  0.597459  0.786157  0.873778  1
  P  P17  1  0.204083  0.394013  0.918425  1
  P  P18  1  0.191675  0.788690  0.909502  1
  P  P19  1  0.395191  0.209200  0.418329  1
  P  P20  1  0.791125  0.601174  0.367662  1
  P  P21  1  0.797082  0.200728  0.393413  1
