# generated using pymatgen
data_Tc2Ni3MoP3
_symmetry_space_group_name_H-M   'P 1'
_cell_length_a   5.83191800
_cell_length_b   5.83191795
_cell_length_c   3.71153100
_cell_angle_alpha   90.00000000
_cell_angle_beta   90.00000000
_cell_angle_gamma   120.00412813
_symmetry_Int_Tables_number   1
_chemical_formula_structural   Tc2Ni3MoP3
_chemical_formula_sum   'Tc2 Ni3 Mo1 P3'
_cell_volume   109.31719290
_cell_formula_units_Z   1
loop_
 _symmetry_equiv_pos_site_id
 _symmetry_equiv_pos_as_xyz
  1  'x, y, z'
loop_
 _atom_site_type_symbol
 _atom_site_label
 _atom_site_symmetry_multiplicity
 _atom_site_fract_x
 _atom_site_fract_y
 _atom_site_fract_z
 _atom_site_occupancy
  Tc  Tc0  1  0.000083  0.588769  0.500000  1
  Tc  Tc1  1  0.588769  0.000083  0.500000  1
  Ni  Ni2  1  0.747097  0.747097  0.000000  1
  Ni  Ni3  1  0.251756  0.999853  0.000000  1
  Ni  Ni4  1  0.999853  0.251756  0.000000  1
  Mo  Mo5  1  0.414497  0.414497  0.500000  1
  P  P6  1  0.998464  0.998464  0.500000  1
  P  P7  1  0.668309  0.331171  0.000000  1
  P  P8  1  0.331171  0.668309  0.000000  1
