# generated using pymatgen
data_SrYErGa8Ag3
_symmetry_space_group_name_H-M   'P 1'
_cell_length_a   4.36518248
_cell_length_b   8.51214534
_cell_length_c   8.51214630
_cell_angle_alpha   68.74166998
_cell_angle_beta   75.16895482
_cell_angle_gamma   75.16897597
_symmetry_Int_Tables_number   1
_chemical_formula_structural   SrYErGa8Ag3
_chemical_formula_sum   'Sr1 Y1 Er1 Ga8 Ag3'
_cell_volume   280.23253870
_cell_formula_units_Z   1
loop_
 _symmetry_equiv_pos_site_id
 _symmetry_equiv_pos_as_xyz
  1  'x, y, z'
loop_
 _atom_site_type_symbol
 _atom_site_label
 _atom_site_symmetry_multiplicity
 _atom_site_fract_x
 _atom_site_fract_y
 _atom_site_fract_z
 _atom_site_occupancy
  Sr  Sr0  1  0.000214  0.999790  0.999790  1
  Y  Y1  1  0.699212  0.300316  0.300316  1
  Er  Er2  1  0.301259  0.699296  0.699296  1
  Ga  Ga3  1  0.337562  0.296448  0.029118  1
  Ga  Ga4  1  0.662925  0.703560  0.969957  1
  Ga  Ga5  1  0.337562  0.029118  0.296448  1
  Ga  Ga6  1  0.662925  0.969957  0.703560  1
  Ga  Ga7  1  0.145869  0.571804  0.136054  1
  Ga  Ga8  1  0.854111  0.429603  0.862593  1
  Ga  Ga9  1  0.145869  0.136054  0.571804  1
  Ga  Ga10  1  0.854111  0.862593  0.429603  1
  Ag  Ag11  1  0.499464  0.307296  0.693637  1
  Ag  Ag12  1  0.499464  0.693637  0.307296  1
  Ag  Ag13  1  0.999456  0.500528  0.500528  1
