# generated using pymatgen
data_Ba4As4PdPt3
_symmetry_space_group_name_H-M   'P 1'
_cell_length_a   6.82993968
_cell_length_b   6.82993968
_cell_length_c   6.82993968
_cell_angle_alpha   89.96396689
_cell_angle_beta   90.03603311
_cell_angle_gamma   89.96396689
_symmetry_Int_Tables_number   1
_chemical_formula_structural   Ba4As4PdPt3
_chemical_formula_sum   'Ba4 As4 Pd1 Pt3'
_cell_volume   318.60335577
_cell_formula_units_Z   1
loop_
 _symmetry_equiv_pos_site_id
 _symmetry_equiv_pos_as_xyz
  1  'x, y, z'
loop_
 _atom_site_type_symbol
 _atom_site_label
 _atom_site_symmetry_multiplicity
 _atom_site_fract_x
 _atom_site_fract_y
 _atom_site_fract_z
 _atom_site_occupancy
  Ba  Ba0  1  0.610550  0.391083  0.889857  1
  Ba  Ba1  1  0.389857  0.889450  0.608917  1
  Ba  Ba2  1  0.108917  0.110143  0.110550  1
  Ba  Ba3  1  0.891003  0.608997  0.391003  1
  As  As4  1  0.171300  0.328700  0.671300  1
  As  As5  1  0.672359  0.174260  0.330230  1
  As  As6  1  0.325740  0.669770  0.172359  1
  As  As7  1  0.830230  0.827641  0.825740  1
  Pd  Pd8  1  0.595717  0.904283  0.095717  1
  Pt  Pt9  1  0.096564  0.595840  0.903603  1
  Pt  Pt10  1  0.403603  0.403436  0.404160  1
  Pt  Pt11  1  0.904160  0.096397  0.596564  1
