# generated using pymatgen
data_Er2Mn9Fe3P7
_symmetry_space_group_name_H-M   'P 1'
_cell_length_a   9.24342500
_cell_length_b   9.24342486
_cell_length_c   3.55906500
_cell_angle_alpha   90.00000000
_cell_angle_beta   90.00000000
_cell_angle_gamma   120.00000311
_symmetry_Int_Tables_number   1
_chemical_formula_structural   Er2Mn9Fe3P7
_chemical_formula_sum   'Er2 Mn9 Fe3 P7'
_cell_volume   263.34942530
_cell_formula_units_Z   1
loop_
 _symmetry_equiv_pos_site_id
 _symmetry_equiv_pos_as_xyz
  1  'x, y, z'
loop_
 _atom_site_type_symbol
 _atom_site_label
 _atom_site_symmetry_multiplicity
 _atom_site_fract_x
 _atom_site_fract_y
 _atom_site_fract_z
 _atom_site_occupancy
  Er  Er0  1  0.000000  0.000000  0.000000  1
  Er  Er1  1  0.333333  0.666667  0.500000  1
  Mn  Mn2  1  0.094560  0.711509  0.000000  1
  Mn  Mn3  1  0.288491  0.383051  0.000000  1
  Mn  Mn4  1  0.616949  0.905440  0.000000  1
  Mn  Mn5  1  0.059180  0.288376  0.500000  1
  Mn  Mn6  1  0.711624  0.770803  0.500000  1
  Mn  Mn7  1  0.229197  0.940820  0.500000  1
  Mn  Mn8  1  0.897140  0.460035  0.500000  1
  Mn  Mn9  1  0.539965  0.437107  0.500000  1
  Mn  Mn10  1  0.562893  0.102860  0.500000  1
  Fe  Fe11  1  0.822789  0.215815  0.000000  1
  Fe  Fe12  1  0.784185  0.606975  0.000000  1
  Fe  Fe13  1  0.393025  0.177211  0.000000  1
  P  P14  1  0.075827  0.453667  0.000000  1
  P  P15  1  0.546333  0.622160  0.000000  1
  P  P16  1  0.377840  0.924173  0.000000  1
  P  P17  1  0.793751  0.054087  0.500000  1
  P  P18  1  0.945913  0.739663  0.500000  1
  P  P19  1  0.260337  0.206249  0.500000  1
  P  P20  1  0.666667  0.333333  0.000000  1
