# generated using pymatgen
data_DySc2V2Si7Pt9
_symmetry_space_group_name_H-M   'P 1'
_cell_length_a   9.90907003
_cell_length_b   9.93723842
_cell_length_c   3.90362400
_cell_angle_alpha   90.00000000
_cell_angle_beta   90.00000000
_cell_angle_gamma   120.06078925
_symmetry_Int_Tables_number   1
_chemical_formula_structural   DySc2V2Si7Pt9
_chemical_formula_sum   'Dy1 Sc2 V2 Si7 Pt9'
_cell_volume   332.68319534
_cell_formula_units_Z   1
loop_
 _symmetry_equiv_pos_site_id
 _symmetry_equiv_pos_as_xyz
  1  'x, y, z'
loop_
 _atom_site_type_symbol
 _atom_site_label
 _atom_site_symmetry_multiplicity
 _atom_site_fract_x
 _atom_site_fract_y
 _atom_site_fract_z
 _atom_site_occupancy
  Dy  Dy0  1  0.332814  0.668181  0.500000  1
  Sc  Sc1  1  0.997326  0.996018  0.000000  1
  Sc  Sc2  1  0.545279  0.433143  0.500000  1
  V  V3  1  0.883214  0.451719  0.500000  1
  V  V4  1  0.571434  0.116566  0.500000  1
  Si  Si5  1  0.239834  0.195365  0.500000  1
  Si  Si6  1  0.795138  0.047328  0.500000  1
  Si  Si7  1  0.954432  0.745078  0.500000  1
  Si  Si8  1  0.555185  0.643623  0.000000  1
  Si  Si9  1  0.365873  0.920660  0.000000  1
  Si  Si10  1  0.081338  0.447258  0.000000  1
  Si  Si11  1  0.670869  0.328248  0.000000  1
  Pt  Pt12  1  0.221599  0.941568  0.500000  1
  Pt  Pt13  1  0.056386  0.279785  0.500000  1
  Pt  Pt14  1  0.726299  0.782552  0.500000  1
  Pt  Pt15  1  0.308008  0.412058  0.000000  1
  Pt  Pt16  1  0.592102  0.901408  0.000000  1
  Pt  Pt17  1  0.101191  0.693642  0.000000  1
  Pt  Pt18  1  0.388667  0.175985  0.000000  1
  Pt  Pt19  1  0.827284  0.212109  0.000000  1
  Pt  Pt20  1  0.785726  0.607709  0.000000  1
