# generated using pymatgen
data_Rb4Sr2TiP4
_symmetry_space_group_name_H-M   'P 1'
_cell_length_a   10.34521224
_cell_length_b   10.34521201
_cell_length_c   7.70475496
_cell_angle_alpha   87.69125058
_cell_angle_beta   87.69124835
_cell_angle_gamma   118.90074918
_symmetry_Int_Tables_number   1
_chemical_formula_structural   Rb4Sr2TiP4
_chemical_formula_sum   'Rb8 Sr4 Ti2 P8'
_cell_volume   719.62252375
_cell_formula_units_Z   2
loop_
 _symmetry_equiv_pos_site_id
 _symmetry_equiv_pos_as_xyz
  1  'x, y, z'
loop_
 _atom_site_type_symbol
 _atom_site_label
 _atom_site_symmetry_multiplicity
 _atom_site_fract_x
 _atom_site_fract_y
 _atom_site_fract_z
 _atom_site_occupancy
  Rb  Rb0  1  0.056560  0.524839  0.611080  1
  Rb  Rb1  1  0.524839  0.056560  0.111080  1
  Rb  Rb2  1  0.276435  0.133374  0.834344  1
  Rb  Rb3  1  0.873978  0.736089  0.761794  1
  Rb  Rb4  1  0.860166  0.143037  0.804584  1
  Rb  Rb5  1  0.736089  0.873978  0.261794  1
  Rb  Rb6  1  0.133374  0.276435  0.334344  1
  Rb  Rb7  1  0.143037  0.860166  0.304584  1
  Sr  Sr8  1  0.466982  0.927206  0.605657  1
  Sr  Sr9  1  0.470918  0.525654  0.621448  1
  Sr  Sr10  1  0.927206  0.466982  0.105657  1
  Sr  Sr11  1  0.525654  0.470918  0.121448  1
  Ti  Ti12  1  0.663282  0.335918  0.508522  1
  Ti  Ti13  1  0.335918  0.663282  0.008522  1
  P  P14  1  0.670504  0.362877  0.824562  1
  P  P15  1  0.362877  0.670504  0.324562  1
  P  P16  1  0.583291  0.780899  0.865178  1
  P  P17  1  0.213180  0.410071  0.927413  1
  P  P18  1  0.202014  0.782727  0.904166  1
  P  P19  1  0.410071  0.213180  0.427413  1
  P  P20  1  0.780899  0.583291  0.365178  1
  P  P21  1  0.782727  0.202014  0.404166  1
