# generated using pymatgen
data_La5Ni18Rh
_symmetry_space_group_name_H-M   'P 1'
_cell_length_a   5.03229156
_cell_length_b   5.03229072
_cell_length_c   16.70903100
_cell_angle_alpha   81.33911847
_cell_angle_beta   81.33911993
_cell_angle_gamma   60.00000089
_symmetry_Int_Tables_number   1
_chemical_formula_structural   La5Ni18Rh
_chemical_formula_sum   'La5 Ni18 Rh1'
_cell_volume   360.86662108
_cell_formula_units_Z   1
loop_
 _symmetry_equiv_pos_site_id
 _symmetry_equiv_pos_as_xyz
  1  'x, y, z'
loop_
 _atom_site_type_symbol
 _atom_site_label
 _atom_site_symmetry_multiplicity
 _atom_site_fract_x
 _atom_site_fract_y
 _atom_site_fract_z
 _atom_site_occupancy
  La  La0  1  0.000000  0.000000  0.000000  1
  La  La1  1  0.922172  0.922172  0.233484  1
  La  La2  1  0.077828  0.077828  0.766516  1
  La  La3  1  0.849053  0.849053  0.452844  1
  La  La4  1  0.150947  0.150947  0.547156  1
  Ni  Ni5  1  0.747772  0.747773  0.756684  1
  Ni  Ni6  1  0.252227  0.252227  0.243317  1
  Ni  Ni7  1  0.666719  0.666719  0.999846  1
  Ni  Ni8  1  0.333281  0.333281  0.000154  1
  Ni  Ni9  1  0.585940  0.585940  0.242181  1
  Ni  Ni10  1  0.414060  0.414060  0.757819  1
  Ni  Ni11  1  0.378165  0.378165  0.363000  1
  Ni  Ni12  1  0.880669  0.378165  0.363000  1
  Ni  Ni13  1  0.378165  0.880669  0.363000  1
  Ni  Ni14  1  0.621835  0.621835  0.637000  1
  Ni  Ni15  1  0.119331  0.621835  0.637000  1
  Ni  Ni16  1  0.621835  0.119331  0.637000  1
  Ni  Ni17  1  0.459505  0.459505  0.120772  1
  Ni  Ni18  1  0.960217  0.459505  0.120772  1
  Ni  Ni19  1  0.459505  0.960217  0.120772  1
  Ni  Ni20  1  0.540495  0.540495  0.879228  1
  Ni  Ni21  1  0.039783  0.540495  0.879228  1
  Ni  Ni22  1  0.540495  0.039783  0.879228  1
  Rh  Rh23  1  0.500000  0.500000  0.500000  1
