# generated using pymatgen
data_Dy2MnRh3
_symmetry_space_group_name_H-M   'P 1'
_cell_length_a   5.16658351
_cell_length_b   5.16658230
_cell_length_c   5.16658290
_cell_angle_alpha   64.75788769
_cell_angle_beta   64.75788915
_cell_angle_gamma   64.75788812
_symmetry_Int_Tables_number   1
_chemical_formula_structural   Dy2MnRh3
_chemical_formula_sum   'Dy2 Mn1 Rh3'
_cell_volume   107.67391567
_cell_formula_units_Z   1
loop_
 _symmetry_equiv_pos_site_id
 _symmetry_equiv_pos_as_xyz
  1  'x, y, z'
loop_
 _atom_site_type_symbol
 _atom_site_label
 _atom_site_symmetry_multiplicity
 _atom_site_fract_x
 _atom_site_fract_y
 _atom_site_fract_z
 _atom_site_occupancy
  Dy  Dy0  1  0.371430  0.371430  0.371430  1
  Dy  Dy1  1  0.628570  0.628570  0.628570  1
  Mn  Mn2  1  0.000000  0.000000  0.000000  1
  Rh  Rh3  1  0.500001  0.000000  0.000000  1
  Rh  Rh4  1  0.000000  0.500001  0.000000  1
  Rh  Rh5  1  0.000000  0.000000  0.500001  1
