# generated using pymatgen
data_Lu4Rh3AuO14
_symmetry_space_group_name_H-M   'P 1'
_cell_length_a   7.16998102
_cell_length_b   7.16998071
_cell_length_c   7.13996262
_cell_angle_alpha   59.86082912
_cell_angle_beta   59.86083361
_cell_angle_gamma   60.00000436
_symmetry_Int_Tables_number   1
_chemical_formula_structural   Lu4Rh3AuO14
_chemical_formula_sum   'Lu4 Rh3 Au1 O14'
_cell_volume   259.00025068
_cell_formula_units_Z   1
loop_
 _symmetry_equiv_pos_site_id
 _symmetry_equiv_pos_as_xyz
  1  'x, y, z'
loop_
 _atom_site_type_symbol
 _atom_site_label
 _atom_site_symmetry_multiplicity
 _atom_site_fract_x
 _atom_site_fract_y
 _atom_site_fract_z
 _atom_site_occupancy
  Lu  Lu0  1  0.625000  0.625000  0.125000  1
  Lu  Lu1  1  0.625000  0.625000  0.625000  1
  Lu  Lu2  1  0.625000  0.125000  0.625000  1
  Lu  Lu3  1  0.125000  0.625000  0.625000  1
  Rh  Rh4  1  0.125000  0.125000  0.125000  1
  Rh  Rh5  1  0.625000  0.125000  0.125000  1
  Rh  Rh6  1  0.125000  0.625000  0.125000  1
  Au  Au7  1  0.125000  0.125000  0.625000  1
  O  O8  1  0.029758  0.472509  0.467975  1
  O  O9  1  0.784064  0.784064  0.216536  1
  O  O10  1  0.784064  0.215336  0.216536  1
  O  O11  1  0.472509  0.029758  0.467975  1
  O  O12  1  0.750299  0.750299  0.749104  1
  O  O13  1  0.034664  0.465936  0.033464  1
  O  O14  1  0.029758  0.029758  0.467975  1
  O  O15  1  0.215336  0.784064  0.216536  1
  O  O16  1  0.220242  0.220242  0.782025  1
  O  O17  1  0.777491  0.220242  0.782025  1
  O  O18  1  0.499701  0.499701  0.500896  1
  O  O19  1  0.465936  0.034664  0.033464  1
  O  O20  1  0.465936  0.465936  0.033464  1
  O  O21  1  0.220242  0.777491  0.782025  1
