# generated using pymatgen
data_LaTh2MgIr8
_symmetry_space_group_name_H-M   'P 1'
_cell_length_a   9.38312608
_cell_length_b   9.38312599
_cell_length_c   9.38312571
_cell_angle_alpha   33.50311740
_cell_angle_beta   33.50310744
_cell_angle_gamma   33.50311304
_symmetry_Int_Tables_number   1
_chemical_formula_structural   LaTh2MgIr8
_chemical_formula_sum   'La1 Th2 Mg1 Ir8'
_cell_volume   224.18015689
_cell_formula_units_Z   1
loop_
 _symmetry_equiv_pos_site_id
 _symmetry_equiv_pos_as_xyz
  1  'x, y, z'
loop_
 _atom_site_type_symbol
 _atom_site_label
 _atom_site_symmetry_multiplicity
 _atom_site_fract_x
 _atom_site_fract_y
 _atom_site_fract_z
 _atom_site_occupancy
  La  La0  1  0.124470  0.124470  0.124470  1
  Th  Th1  1  0.997182  0.997182  0.997182  1
  Th  Th2  1  0.503381  0.503381  0.503381  1
  Mg  Mg3  1  0.625578  0.625578  0.625578  1
  Ir  Ir4  1  0.562392  0.562392  0.058238  1
  Ir  Ir5  1  0.064212  0.064212  0.563442  1
  Ir  Ir6  1  0.562392  0.058238  0.562392  1
  Ir  Ir7  1  0.064212  0.563442  0.064212  1
  Ir  Ir8  1  0.812286  0.812286  0.812286  1
  Ir  Ir9  1  0.312218  0.312218  0.312218  1
  Ir  Ir10  1  0.058238  0.562392  0.562392  1
  Ir  Ir11  1  0.563442  0.064212  0.064212  1
