# generated using pymatgen
data_TbDyEr2(ReB6)2
_symmetry_space_group_name_H-M   'P 1'
_cell_length_a   3.67152000
_cell_length_b   9.15325700
_cell_length_c   11.54424900
_cell_angle_alpha   89.99879854
_cell_angle_beta   90.00000000
_cell_angle_gamma   90.00000000
_symmetry_Int_Tables_number   1
_chemical_formula_structural   TbDyEr2(ReB6)2
_chemical_formula_sum   'Tb2 Dy2 Er4 Re4 B24'
_cell_volume   387.96025867
_cell_formula_units_Z   2
loop_
 _symmetry_equiv_pos_site_id
 _symmetry_equiv_pos_as_xyz
  1  'x, y, z'
loop_
 _atom_site_type_symbol
 _atom_site_label
 _atom_site_symmetry_multiplicity
 _atom_site_fract_x
 _atom_site_fract_y
 _atom_site_fract_z
 _atom_site_occupancy
  Tb  Tb0  1  0.000000  0.323466  0.413831  1
  Tb  Tb1  1  0.000000  0.676534  0.586169  1
  Dy  Dy2  1  0.000000  0.823549  0.086122  1
  Dy  Dy3  1  0.000000  0.176451  0.913878  1
  Er  Er4  1  0.000000  0.943359  0.370028  1
  Er  Er5  1  0.000000  0.056641  0.629972  1
  Er  Er6  1  0.000000  0.443406  0.129825  1
  Er  Er7  1  0.000000  0.556594  0.870175  1
  Re  Re8  1  0.000000  0.639191  0.320359  1
  Re  Re9  1  0.000000  0.360809  0.679641  1
  Re  Re10  1  0.000000  0.138972  0.179338  1
  Re  Re11  1  0.000000  0.861028  0.820662  1
  B  B12  1  0.500000  0.553696  0.432594  1
  B  B13  1  0.500000  0.446304  0.567406  1
  B  B14  1  0.500000  0.053547  0.067214  1
  B  B15  1  0.500000  0.946453  0.932786  1
  B  B16  1  0.500000  0.749892  0.418441  1
  B  B17  1  0.500000  0.250108  0.581559  1
  B  B18  1  0.500000  0.249827  0.081342  1
  B  B19  1  0.500000  0.750173  0.918658  1
  B  B20  1  0.500000  0.792623  0.265685  1
  B  B21  1  0.500000  0.207377  0.734315  1
  B  B22  1  0.500000  0.292536  0.234115  1
  B  B23  1  0.500000  0.707464  0.765885  1
  B  B24  1  0.500000  0.630899  0.185546  1
  B  B25  1  0.500000  0.369101  0.814454  1
  B  B26  1  0.500000  0.130750  0.314276  1
  B  B27  1  0.500000  0.869250  0.685724  1
  B  B28  1  0.500000  0.982394  0.212202  1
  B  B29  1  0.500000  0.017606  0.787798  1
  B  B30  1  0.500000  0.482582  0.287626  1
  B  B31  1  0.500000  0.517418  0.712374  1
  B  B32  1  0.500000  0.599470  0.027802  1
  B  B33  1  0.500000  0.400530  0.972198  1
  B  B34  1  0.500000  0.099216  0.472263  1
  B  B35  1  0.500000  0.900784  0.527737  1
