# generated using pymatgen
data_Yb3Er5(Sc3Sn4)4
_symmetry_space_group_name_H-M   'P 1'
_cell_length_a   7.65792958
_cell_length_b   7.97913140
_cell_length_c   14.92039408
_cell_angle_alpha   90.13351839
_cell_angle_beta   89.24320980
_cell_angle_gamma   90.08143413
_symmetry_Int_Tables_number   1
_chemical_formula_structural   Yb3Er5(Sc3Sn4)4
_chemical_formula_sum   'Yb3 Er5 Sc12 Sn16'
_cell_volume   911.60730093
_cell_formula_units_Z   1
loop_
 _symmetry_equiv_pos_site_id
 _symmetry_equiv_pos_as_xyz
  1  'x, y, z'
loop_
 _atom_site_type_symbol
 _atom_site_label
 _atom_site_symmetry_multiplicity
 _atom_site_fract_x
 _atom_site_fract_y
 _atom_site_fract_z
 _atom_site_occupancy
  Yb  Yb0  1  0.993789  0.176462  0.093679  1
  Yb  Yb1  1  0.005318  0.822882  0.907212  1
  Yb  Yb2  1  0.504962  0.677019  0.906788  1
  Er  Er3  1  0.003565  0.820965  0.591997  1
  Er  Er4  1  0.495732  0.320760  0.096796  1
  Er  Er5  1  0.996197  0.178864  0.406491  1
  Er  Er6  1  0.495196  0.321831  0.406887  1
  Er  Er7  1  0.504154  0.678721  0.591911  1
  Sc  Sc8  1  0.165804  0.498054  0.748446  1
  Sc  Sc9  1  0.834399  0.502293  0.251861  1
  Sc  Sc10  1  0.334661  0.997731  0.251109  1
  Sc  Sc11  1  0.665460  0.002223  0.748122  1
  Sc  Sc12  1  0.337045  0.160189  0.626231  1
  Sc  Sc13  1  0.663035  0.838988  0.372328  1
  Sc  Sc14  1  0.162342  0.660779  0.373261  1
  Sc  Sc15  1  0.669320  0.840345  0.128115  1
  Sc  Sc16  1  0.837888  0.339560  0.626110  1
  Sc  Sc17  1  0.332029  0.159536  0.872144  1
  Sc  Sc18  1  0.830338  0.340319  0.872477  1
  Sc  Sc19  1  0.169402  0.660010  0.127817  1
  Sn  Sn20  1  0.026853  0.125010  0.749395  1
  Sn  Sn21  1  0.973476  0.875783  0.250427  1
  Sn  Sn22  1  0.472939  0.623107  0.249595  1
  Sn  Sn23  1  0.527251  0.375839  0.749021  1
  Sn  Sn24  1  0.306429  0.850282  0.746492  1
  Sn  Sn25  1  0.692498  0.151043  0.252607  1
  Sn  Sn26  1  0.193741  0.349056  0.251874  1
  Sn  Sn27  1  0.806680  0.649757  0.747069  1
  Sn  Sn28  1  0.182867  0.455658  0.541291  1
  Sn  Sn29  1  0.816527  0.544168  0.458355  1
  Sn  Sn30  1  0.317886  0.956373  0.457990  1
  Sn  Sn31  1  0.825261  0.539877  0.044726  1
  Sn  Sn32  1  0.682531  0.043763  0.541027  1
  Sn  Sn33  1  0.174856  0.456639  0.957734  1
  Sn  Sn34  1  0.670859  0.043884  0.957884  1
  Sn  Sn35  1  0.328711  0.962229  0.044729  1
