# generated using pymatgen
data_LaPr3(Rh2O7)2
_symmetry_space_group_name_H-M   'P 1'
_cell_length_a   7.43707373
_cell_length_b   7.43707346
_cell_length_c   7.43707457
_cell_angle_alpha   59.91609256
_cell_angle_beta   59.91609385
_cell_angle_gamma   59.91609421
_symmetry_Int_Tables_number   1
_chemical_formula_structural   LaPr3(Rh2O7)2
_chemical_formula_sum   'La1 Pr3 Rh4 O14'
_cell_volume   290.31126335
_cell_formula_units_Z   1
loop_
 _symmetry_equiv_pos_site_id
 _symmetry_equiv_pos_as_xyz
  1  'x, y, z'
loop_
 _atom_site_type_symbol
 _atom_site_label
 _atom_site_symmetry_multiplicity
 _atom_site_fract_x
 _atom_site_fract_y
 _atom_site_fract_z
 _atom_site_occupancy
  La  La0  1  0.125000  0.125000  0.125000  1
  Pr  Pr1  1  0.625000  0.125000  0.125000  1
  Pr  Pr2  1  0.125000  0.625000  0.125000  1
  Pr  Pr3  1  0.125000  0.125000  0.625000  1
  Rh  Rh4  1  0.625000  0.625000  0.125000  1
  Rh  Rh5  1  0.625000  0.625000  0.625000  1
  Rh  Rh6  1  0.625000  0.125000  0.625000  1
  Rh  Rh7  1  0.125000  0.625000  0.625000  1
  O  O8  1  0.702987  0.294957  0.294957  1
  O  O9  1  0.705931  0.705931  0.294385  1
  O  O10  1  0.294957  0.702987  0.294957  1
  O  O11  1  0.000238  0.000238  0.000238  1
  O  O12  1  0.705931  0.294385  0.705931  1
  O  O13  1  0.955615  0.544069  0.544069  1
  O  O14  1  0.294385  0.705931  0.705931  1
  O  O15  1  0.544069  0.955615  0.544069  1
  O  O16  1  0.249762  0.249762  0.249762  1
  O  O17  1  0.955043  0.547013  0.955043  1
  O  O18  1  0.544069  0.544069  0.955615  1
  O  O19  1  0.955043  0.955043  0.547013  1
  O  O20  1  0.547013  0.955043  0.955043  1
  O  O21  1  0.294957  0.294957  0.702987  1
