# generated using pymatgen
data_Pr4Nd12Cd4CoPd3
_symmetry_space_group_name_H-M   'P 1'
_cell_length_a   10.01289991
_cell_length_b   10.01142900
_cell_length_c   10.01142849
_cell_angle_alpha   59.90441051
_cell_angle_beta   59.81993009
_cell_angle_gamma   59.81993477
_symmetry_Int_Tables_number   1
_chemical_formula_structural   Pr4Nd12Cd4CoPd3
_chemical_formula_sum   'Pr4 Nd12 Cd4 Co1 Pd3'
_cell_volume   707.19077305
_cell_formula_units_Z   1
loop_
 _symmetry_equiv_pos_site_id
 _symmetry_equiv_pos_as_xyz
  1  'x, y, z'
loop_
 _atom_site_type_symbol
 _atom_site_label
 _atom_site_symmetry_multiplicity
 _atom_site_fract_x
 _atom_site_fract_y
 _atom_site_fract_z
 _atom_site_occupancy
  Pr  Pr0  1  0.562569  0.938409  0.562746  1
  Pr  Pr1  1  0.935638  0.561486  0.935276  1
  Pr  Pr2  1  0.562569  0.562746  0.938409  1
  Pr  Pr3  1  0.935638  0.935276  0.561486  1
  Nd  Nd4  1  0.352212  0.352127  0.352127  1
  Nd  Nd5  1  0.345299  0.345609  0.951122  1
  Nd  Nd6  1  0.345299  0.951122  0.345609  1
  Nd  Nd7  1  0.950869  0.345648  0.345648  1
  Nd  Nd8  1  0.822011  0.188882  0.188882  1
  Nd  Nd9  1  0.189475  0.808727  0.808727  1
  Nd  Nd10  1  0.189086  0.821560  0.189023  1
  Nd  Nd11  1  0.808577  0.189351  0.808316  1
  Nd  Nd12  1  0.189086  0.189023  0.821560  1
  Nd  Nd13  1  0.808577  0.808316  0.189351  1
  Nd  Nd14  1  0.939149  0.561838  0.561838  1
  Nd  Nd15  1  0.560948  0.936205  0.936205  1
  Cd  Cd16  1  0.580169  0.579614  0.579614  1
  Cd  Cd17  1  0.580913  0.581679  0.258661  1
  Cd  Cd18  1  0.580913  0.258661  0.581679  1
  Cd  Cd19  1  0.258657  0.580958  0.580958  1
  Co  Co20  1  0.143834  0.143005  0.143005  1
  Pd  Pd21  1  0.144220  0.145051  0.570217  1
  Pd  Pd22  1  0.144220  0.570217  0.145051  1
  Pd  Pd23  1  0.570069  0.144490  0.144490  1
