# generated using pymatgen
data_Yb(Re2P)2
_symmetry_space_group_name_H-M   'P 1'
_cell_length_a   7.40128100
_cell_length_b   7.40128100
_cell_length_c   3.98836500
_cell_angle_alpha   90.00000000
_cell_angle_beta   90.00000000
_cell_angle_gamma   90.00000000
_symmetry_Int_Tables_number   1
_chemical_formula_structural   Yb(Re2P)2
_chemical_formula_sum   'Yb2 Re8 P4'
_cell_volume   218.47848856
_cell_formula_units_Z   2
loop_
 _symmetry_equiv_pos_site_id
 _symmetry_equiv_pos_as_xyz
  1  'x, y, z'
loop_
 _atom_site_type_symbol
 _atom_site_label
 _atom_site_symmetry_multiplicity
 _atom_site_fract_x
 _atom_site_fract_y
 _atom_site_fract_z
 _atom_site_occupancy
  Yb  Yb0  1  0.500000  0.500000  0.000000  1
  Yb  Yb1  1  0.000000  0.000000  0.500000  1
  Re  Re2  1  0.835018  0.414526  0.500000  1
  Re  Re3  1  0.164982  0.585474  0.500000  1
  Re  Re4  1  0.414526  0.835018  0.500000  1
  Re  Re5  1  0.585474  0.164982  0.500000  1
  Re  Re6  1  0.335018  0.085474  0.000000  1
  Re  Re7  1  0.664982  0.914526  0.000000  1
  Re  Re8  1  0.914526  0.664982  0.000000  1
  Re  Re9  1  0.085474  0.335018  0.000000  1
  P  P10  1  0.210181  0.789819  0.000000  1
  P  P11  1  0.289819  0.289819  0.500000  1
  P  P12  1  0.710181  0.710181  0.500000  1
  P  P13  1  0.789819  0.210181  0.000000  1
