# generated using pymatgen
data_Nd14Pd5Pt
_symmetry_space_group_name_H-M   'P 1'
_cell_length_a   6.48808303
_cell_length_b   10.20482622
_cell_length_c   10.20482648
_cell_angle_alpha   119.87462016
_cell_angle_beta   89.99032018
_cell_angle_gamma   90.00968150
_symmetry_Int_Tables_number   1
_chemical_formula_structural   Nd14Pd5Pt
_chemical_formula_sum   'Nd14 Pd5 Pt1'
_cell_volume   585.87581079
_cell_formula_units_Z   1
loop_
 _symmetry_equiv_pos_site_id
 _symmetry_equiv_pos_as_xyz
  1  'x, y, z'
loop_
 _atom_site_type_symbol
 _atom_site_label
 _atom_site_symmetry_multiplicity
 _atom_site_fract_x
 _atom_site_fract_y
 _atom_site_fract_z
 _atom_site_occupancy
  Nd  Nd0  1  0.451091  0.333767  0.666233  1
  Nd  Nd1  1  0.952834  0.667498  0.332502  1
  Nd  Nd2  1  0.242058  0.126445  0.873555  1
  Nd  Nd3  1  0.241593  0.747829  0.876031  1
  Nd  Nd4  1  0.241593  0.123969  0.252171  1
  Nd  Nd5  1  0.745538  0.872921  0.127079  1
  Nd  Nd6  1  0.742275  0.252636  0.126316  1
  Nd  Nd7  1  0.742275  0.873684  0.747364  1
  Nd  Nd8  1  0.447226  0.538126  0.461874  1
  Nd  Nd9  1  0.444603  0.923835  0.460603  1
  Nd  Nd10  1  0.444603  0.539397  0.076165  1
  Nd  Nd11  1  0.947079  0.461554  0.538446  1
  Nd  Nd12  1  0.946360  0.076120  0.537715  1
  Nd  Nd13  1  0.946360  0.462285  0.923880  1
  Pd  Pd14  1  0.191800  0.377202  0.188582  1
  Pd  Pd15  1  0.191800  0.811418  0.622798  1
  Pd  Pd16  1  0.691909  0.188726  0.811274  1
  Pd  Pd17  1  0.691870  0.622370  0.810968  1
  Pd  Pd18  1  0.691870  0.189032  0.377630  1
  Pt  Pt19  1  0.191266  0.811183  0.188817  1
