# generated using pymatgen
data_KCoPt(RhSe4)2
_symmetry_space_group_name_H-M   'P 1'
_cell_length_a   3.75016018
_cell_length_b   8.25988653
_cell_length_c   9.46010235
_cell_angle_alpha   81.78526185
_cell_angle_beta   78.56774146
_cell_angle_gamma   76.87887898
_symmetry_Int_Tables_number   1
_chemical_formula_structural   KCoPt(RhSe4)2
_chemical_formula_sum   'K1 Co1 Pt1 Rh2 Se8'
_cell_volume   278.24795018
_cell_formula_units_Z   1
loop_
 _symmetry_equiv_pos_site_id
 _symmetry_equiv_pos_as_xyz
  1  'x, y, z'
loop_
 _atom_site_type_symbol
 _atom_site_label
 _atom_site_symmetry_multiplicity
 _atom_site_fract_x
 _atom_site_fract_y
 _atom_site_fract_z
 _atom_site_occupancy
  K  K0  1  0.496242  0.002449  0.005066  1
  Co  Co1  1  0.633280  0.199486  0.533953  1
  Pt  Pt2  1  0.840664  0.495910  0.822758  1
  Rh  Rh3  1  0.163661  0.493136  0.179541  1
  Rh  Rh4  1  0.362906  0.809650  0.464537  1
  Se  Se5  1  0.466143  0.308980  0.758735  1
  Se  Se6  1  0.543176  0.680062  0.233585  1
  Se  Se7  1  0.899778  0.635036  0.565408  1
  Se  Se8  1  0.105702  0.358088  0.430509  1
  Se  Se9  1  0.207253  0.656301  0.929192  1
  Se  Se10  1  0.794946  0.333890  0.076219  1
  Se  Se11  1  0.821109  0.999216  0.358566  1
  Se  Se12  1  0.165138  0.027795  0.641929  1
