# generated using pymatgen
data_Ta3Hg4SbO14
_symmetry_space_group_name_H-M   'P 1'
_cell_length_a   7.51060052
_cell_length_b   7.51059997
_cell_length_c   7.47488177
_cell_angle_alpha   59.84180596
_cell_angle_beta   59.84180379
_cell_angle_gamma   59.99999658
_symmetry_Int_Tables_number   1
_chemical_formula_structural   Ta3Hg4SbO14
_chemical_formula_sum   'Ta3 Hg4 Sb1 O14'
_cell_volume   297.43770046
_cell_formula_units_Z   1
loop_
 _symmetry_equiv_pos_site_id
 _symmetry_equiv_pos_as_xyz
  1  'x, y, z'
loop_
 _atom_site_type_symbol
 _atom_site_label
 _atom_site_symmetry_multiplicity
 _atom_site_fract_x
 _atom_site_fract_y
 _atom_site_fract_z
 _atom_site_occupancy
  Ta  Ta0  1  0.125000  0.625000  0.125000  1
  Ta  Ta1  1  0.125000  0.125000  0.125000  1
  Ta  Ta2  1  0.625000  0.125000  0.125000  1
  Hg  Hg3  1  0.625000  0.625000  0.625000  1
  Hg  Hg4  1  0.625000  0.125000  0.625000  1
  Hg  Hg5  1  0.625000  0.625000  0.125000  1
  Hg  Hg6  1  0.125000  0.625000  0.625000  1
  Sb  Sb7  1  0.125000  0.125000  0.625000  1
  O  O8  1  0.813035  0.813035  0.187319  1
  O  O9  1  0.808254  0.192565  0.806615  1
  O  O10  1  0.057435  0.057435  0.443385  1
  O  O11  1  0.813035  0.186611  0.187319  1
  O  O12  1  0.436965  0.436965  0.062681  1
  O  O13  1  0.063389  0.436965  0.062681  1
  O  O14  1  0.192565  0.808254  0.806615  1
  O  O15  1  0.441746  0.057435  0.443385  1
  O  O16  1  0.501733  0.501733  0.494801  1
  O  O17  1  0.186611  0.813035  0.187319  1
  O  O18  1  0.192565  0.192565  0.806615  1
  O  O19  1  0.748267  0.748267  0.755199  1
  O  O20  1  0.436965  0.063389  0.062681  1
  O  O21  1  0.057435  0.441746  0.443385  1
