# generated using pymatgen
data_Pu2CdF12
_symmetry_space_group_name_H-M   'P 1'
_cell_length_a   7.61717594
_cell_length_b   7.61717689
_cell_length_c   10.88501065
_cell_angle_alpha   68.70949433
_cell_angle_beta   68.70948981
_cell_angle_gamma   76.64007851
_symmetry_Int_Tables_number   1
_chemical_formula_structural   Pu2CdF12
_chemical_formula_sum   'Pu4 Cd2 F24'
_cell_volume   544.70521569
_cell_formula_units_Z   2
loop_
 _symmetry_equiv_pos_site_id
 _symmetry_equiv_pos_as_xyz
  1  'x, y, z'
loop_
 _atom_site_type_symbol
 _atom_site_label
 _atom_site_symmetry_multiplicity
 _atom_site_fract_x
 _atom_site_fract_y
 _atom_site_fract_z
 _atom_site_occupancy
  Pu  Pu0  1  0.243988  0.259856  0.374133  1
  Pu  Pu1  1  0.259856  0.243988  0.874133  1
  Pu  Pu2  1  0.756012  0.740144  0.625867  1
  Pu  Pu3  1  0.740144  0.756012  0.125867  1
  Cd  Cd4  1  0.169161  0.830839  0.750000  1
  Cd  Cd5  1  0.830839  0.169161  0.250000  1
  F  F6  1  0.856957  0.883803  0.221206  1
  F  F7  1  0.143043  0.116197  0.778794  1
  F  F8  1  0.277722  0.985398  0.518459  1
  F  F9  1  0.980628  0.296581  0.504823  1
  F  F10  1  0.296581  0.980628  0.004823  1
  F  F11  1  0.364284  0.362312  0.468664  1
  F  F12  1  0.362312  0.364284  0.968664  1
  F  F13  1  0.883803  0.856957  0.721206  1
  F  F14  1  0.790369  0.472461  0.254171  1
  F  F15  1  0.014602  0.722278  0.981541  1
  F  F16  1  0.722278  0.014602  0.481541  1
  F  F17  1  0.985398  0.277722  0.018459  1
  F  F18  1  0.517237  0.204168  0.738369  1
  F  F19  1  0.635716  0.637688  0.531336  1
  F  F20  1  0.209631  0.527539  0.745829  1
  F  F21  1  0.637688  0.635716  0.031336  1
  F  F22  1  0.472461  0.790369  0.754171  1
  F  F23  1  0.795832  0.482763  0.761631  1
  F  F24  1  0.527539  0.209631  0.245829  1
  F  F25  1  0.482763  0.795832  0.261631  1
  F  F26  1  0.204168  0.517237  0.238369  1
  F  F27  1  0.703419  0.019372  0.995177  1
  F  F28  1  0.116197  0.143043  0.278794  1
  F  F29  1  0.019372  0.703419  0.495177  1
