# generated using pymatgen
data_Nd2Er3Nb3(Co4P3)4
_symmetry_space_group_name_H-M   'P 1'
_cell_length_a   12.24397600
_cell_length_b   12.24397578
_cell_length_c   3.71562300
_cell_angle_alpha   90.00000000
_cell_angle_beta   90.00000000
_cell_angle_gamma   120.00000061
_symmetry_Int_Tables_number   1
_chemical_formula_structural   Nd2Er3Nb3(Co4P3)4
_chemical_formula_sum   'Nd2 Er3 Nb3 Co16 P12'
_cell_volume   482.39989310
_cell_formula_units_Z   1
loop_
 _symmetry_equiv_pos_site_id
 _symmetry_equiv_pos_as_xyz
  1  'x, y, z'
loop_
 _atom_site_type_symbol
 _atom_site_label
 _atom_site_symmetry_multiplicity
 _atom_site_fract_x
 _atom_site_fract_y
 _atom_site_fract_z
 _atom_site_occupancy
  Nd  Nd0  1  0.333333  0.666667  0.000000  1
  Nd  Nd1  1  0.666667  0.333333  0.000000  1
  Er  Er2  1  0.816366  0.000000  0.500000  1
  Er  Er3  1  0.000000  0.816366  0.500000  1
  Er  Er4  1  0.183634  0.183634  0.500000  1
  Nb  Nb5  1  0.443580  0.000000  0.000000  1
  Nb  Nb6  1  0.000000  0.443580  0.000000  1
  Nb  Nb7  1  0.556420  0.556420  0.000000  1
  Co  Co8  1  0.276391  0.000000  0.500000  1
  Co  Co9  1  0.000000  0.276391  0.500000  1
  Co  Co10  1  0.723609  0.723609  0.500000  1
  Co  Co11  1  0.629503  0.805186  0.000000  1
  Co  Co12  1  0.194814  0.824317  0.000000  1
  Co  Co13  1  0.175683  0.370497  0.000000  1
  Co  Co14  1  0.370497  0.175683  0.000000  1
  Co  Co15  1  0.805186  0.629503  0.000000  1
  Co  Co16  1  0.824317  0.194814  0.000000  1
  Co  Co17  1  0.522600  0.875761  0.500000  1
  Co  Co18  1  0.124239  0.646839  0.500000  1
  Co  Co19  1  0.353161  0.477400  0.500000  1
  Co  Co20  1  0.477400  0.353161  0.500000  1
  Co  Co21  1  0.875761  0.522600  0.500000  1
  Co  Co22  1  0.646839  0.124239  0.500000  1
  Co  Co23  1  0.000000  0.000000  0.000000  1
  P  P24  1  0.176518  0.000000  0.000000  1
  P  P25  1  0.000000  0.176518  0.000000  1
  P  P26  1  0.823482  0.823482  0.000000  1
  P  P27  1  0.525468  0.690735  0.500000  1
  P  P28  1  0.309265  0.834732  0.500000  1
  P  P29  1  0.165268  0.474532  0.500000  1
  P  P30  1  0.474532  0.165268  0.500000  1
  P  P31  1  0.690735  0.525468  0.500000  1
  P  P32  1  0.834732  0.309265  0.500000  1
  P  P33  1  0.644143  0.000000  0.000000  1
  P  P34  1  0.000000  0.644143  0.000000  1
  P  P35  1  0.355857  0.355857  0.000000  1
