# generated using pymatgen
data_Ho3Lu7Cd3Ni
_symmetry_space_group_name_H-M   'P 1'
_cell_length_a   9.51610000
_cell_length_b   9.51610007
_cell_length_c   9.49996100
_cell_angle_alpha   90.00000000
_cell_angle_beta   90.00000000
_cell_angle_gamma   119.99999281
_symmetry_Int_Tables_number   1
_chemical_formula_structural   Ho3Lu7Cd3Ni
_chemical_formula_sum   'Ho6 Lu14 Cd6 Ni2'
_cell_volume   745.02437696
_cell_formula_units_Z   2
loop_
 _symmetry_equiv_pos_site_id
 _symmetry_equiv_pos_as_xyz
  1  'x, y, z'
loop_
 _atom_site_type_symbol
 _atom_site_label
 _atom_site_symmetry_multiplicity
 _atom_site_fract_x
 _atom_site_fract_y
 _atom_site_fract_z
 _atom_site_occupancy
  Ho  Ho0  1  0.542392  0.457608  0.250000  1
  Ho  Ho1  1  0.542392  0.084784  0.250000  1
  Ho  Ho2  1  0.915216  0.457608  0.250000  1
  Ho  Ho3  1  0.457608  0.542392  0.750000  1
  Ho  Ho4  1  0.457608  0.915216  0.750000  1
  Ho  Ho5  1  0.084784  0.542392  0.750000  1
  Lu  Lu6  1  0.000000  0.000000  0.500000  1
  Lu  Lu7  1  0.000000  0.000000  0.000000  1
  Lu  Lu8  1  0.211352  0.788648  0.437438  1
  Lu  Lu9  1  0.211352  0.422705  0.437438  1
  Lu  Lu10  1  0.577295  0.788648  0.437438  1
  Lu  Lu11  1  0.788648  0.211352  0.562562  1
  Lu  Lu12  1  0.788648  0.577295  0.562562  1
  Lu  Lu13  1  0.422705  0.211352  0.562562  1
  Lu  Lu14  1  0.788648  0.211352  0.937438  1
  Lu  Lu15  1  0.788648  0.577295  0.937438  1
  Lu  Lu16  1  0.422705  0.211352  0.937438  1
  Lu  Lu17  1  0.211352  0.788648  0.062562  1
  Lu  Lu18  1  0.211352  0.422705  0.062562  1
  Lu  Lu19  1  0.577295  0.788648  0.062562  1
  Cd  Cd20  1  0.885401  0.114599  0.250000  1
  Cd  Cd21  1  0.885401  0.770801  0.250000  1
  Cd  Cd22  1  0.229199  0.114599  0.250000  1
  Cd  Cd23  1  0.114599  0.885401  0.750000  1
  Cd  Cd24  1  0.114599  0.229199  0.750000  1
  Cd  Cd25  1  0.770801  0.885401  0.750000  1
  Ni  Ni26  1  0.333333  0.666667  0.250000  1
  Ni  Ni27  1  0.666667  0.333333  0.750000  1
