# generated using pymatgen
data_HfP2Cl8O3
_symmetry_space_group_name_H-M   'P 1'
_cell_length_a   9.08458515
_cell_length_b   9.34346449
_cell_length_c   11.19417619
_cell_angle_alpha   70.32205269
_cell_angle_beta   71.62924936
_cell_angle_gamma   65.89155069
_symmetry_Int_Tables_number   1
_chemical_formula_structural   HfP2Cl8O3
_chemical_formula_sum   'Hf2 P4 Cl16 O6'
_cell_volume   799.01832889
_cell_formula_units_Z   2
loop_
 _symmetry_equiv_pos_site_id
 _symmetry_equiv_pos_as_xyz
  1  'x, y, z'
loop_
 _atom_site_type_symbol
 _atom_site_label
 _atom_site_symmetry_multiplicity
 _atom_site_fract_x
 _atom_site_fract_y
 _atom_site_fract_z
 _atom_site_occupancy
  Hf  Hf0  1  0.912657  0.797245  0.232684  1
  Hf  Hf1  1  0.087343  0.202755  0.767316  1
  P  P2  1  0.793648  0.205264  0.064045  1
  P  P3  1  0.225000  0.807450  0.361412  1
  P  P4  1  0.206352  0.794736  0.935955  1
  P  P5  1  0.775000  0.192550  0.638588  1
  Cl  Cl6  1  0.549730  0.265217  0.081962  1
  Cl  Cl7  1  0.792250  0.206538  0.454310  1
  Cl  Cl8  1  0.032123  0.511333  0.292173  1
  Cl  Cl9  1  0.450270  0.734783  0.918038  1
  Cl  Cl10  1  0.238224  0.193365  0.910967  1
  Cl  Cl11  1  0.289786  0.998354  0.258857  1
  Cl  Cl12  1  0.308743  0.174913  0.584889  1
  Cl  Cl13  1  0.813089  0.390829  0.102587  1
  Cl  Cl14  1  0.411440  0.614940  0.318393  1
  Cl  Cl15  1  0.186911  0.609171  0.897413  1
  Cl  Cl16  1  0.710214  0.001646  0.741143  1
  Cl  Cl17  1  0.588560  0.385060  0.681607  1
  Cl  Cl18  1  0.691257  0.825087  0.415111  1
  Cl  Cl19  1  0.761776  0.806635  0.089033  1
  Cl  Cl20  1  0.207750  0.793462  0.545690  1
  Cl  Cl21  1  0.967877  0.488667  0.707827  1
  O  O22  1  0.932930  0.181062  0.661751  1
  O  O23  1  0.852215  0.055714  0.168376  1
  O  O24  1  0.147785  0.944286  0.831624  1
  O  O25  1  0.067070  0.818938  0.338249  1
  O  O26  1  0.124108  0.801567  0.074868  1
  O  O27  1  0.875892  0.198433  0.925132  1
