# generated using pymatgen
data_Zr6Si12OsRh5
_symmetry_space_group_name_H-M   'P 1'
_cell_length_a   10.01251775
_cell_length_b   9.99533716
_cell_length_c   9.98565136
_cell_angle_alpha   148.43180315
_cell_angle_beta   133.79210962
_cell_angle_gamma   57.11967787
_symmetry_Int_Tables_number   1
_chemical_formula_structural   Zr6Si12OsRh5
_chemical_formula_sum   'Zr6 Si12 Os1 Rh5'
_cell_volume   374.75409891
_cell_formula_units_Z   1
loop_
 _symmetry_equiv_pos_site_id
 _symmetry_equiv_pos_as_xyz
  1  'x, y, z'
loop_
 _atom_site_type_symbol
 _atom_site_label
 _atom_site_symmetry_multiplicity
 _atom_site_fract_x
 _atom_site_fract_y
 _atom_site_fract_z
 _atom_site_occupancy
  Zr  Zr0  1  0.348055  0.092603  0.252646  1
  Zr  Zr1  1  0.651945  0.907397  0.747354  1
  Zr  Zr2  1  0.160505  0.903125  0.251268  1
  Zr  Zr3  1  0.839495  0.096875  0.748732  1
  Zr  Zr4  1  0.637460  0.639622  0.999916  1
  Zr  Zr5  1  0.362540  0.360378  0.000084  1
  Si  Si6  1  0.000061  0.780002  0.781078  1
  Si  Si7  1  0.999939  0.219998  0.218922  1
  Si  Si8  1  0.500554  0.227651  0.727396  1
  Si  Si9  1  0.499446  0.772349  0.272604  1
  Si  Si10  1  0.202560  0.209202  0.007498  1
  Si  Si11  1  0.797440  0.790798  0.992502  1
  Si  Si12  1  0.295196  0.792080  0.498500  1
  Si  Si13  1  0.704804  0.207920  0.501500  1
  Si  Si14  1  0.715513  0.363267  0.355298  1
  Si  Si15  1  0.284487  0.636733  0.644702  1
  Si  Si16  1  0.987159  0.637863  0.353089  1
  Si  Si17  1  0.012841  0.362137  0.646911  1
  Os  Os18  1  0.500000  0.500000  0.500000  1
  Rh  Rh19  1  0.500000  0.000000  0.000000  1
  Rh  Rh20  1  0.000000  0.000000  0.500000  1
  Rh  Rh21  1  0.000000  0.500000  0.000000  1
  Rh  Rh22  1  0.245931  0.497517  0.740309  1
  Rh  Rh23  1  0.754069  0.502483  0.259691  1
