# generated using pymatgen
data_Sn4Sb8(PtAu)3
_symmetry_space_group_name_H-M   'P 1'
_cell_length_a   4.11188300
_cell_length_b   8.64403711
_cell_length_c   13.04341863
_cell_angle_alpha   97.72949166
_cell_angle_beta   90.00000000
_cell_angle_gamma   90.00000000
_symmetry_Int_Tables_number   1
_chemical_formula_structural   Sn4Sb8(PtAu)3
_chemical_formula_sum   'Sn4 Sb8 Pt3 Au3'
_cell_volume   459.39346552
_cell_formula_units_Z   1
loop_
 _symmetry_equiv_pos_site_id
 _symmetry_equiv_pos_as_xyz
  1  'x, y, z'
loop_
 _atom_site_type_symbol
 _atom_site_label
 _atom_site_symmetry_multiplicity
 _atom_site_fract_x
 _atom_site_fract_y
 _atom_site_fract_z
 _atom_site_occupancy
  Sn  Sn0  1  0.500000  0.328331  0.810868  1
  Sn  Sn1  1  0.500000  0.995745  0.146133  1
  Sn  Sn2  1  0.500000  0.662923  0.482248  1
  Sn  Sn3  1  0.500000  0.671495  0.185039  1
  Sb  Sb4  1  0.500000  0.339570  0.520123  1
  Sb  Sb5  1  0.500000  0.006869  0.854296  1
  Sb  Sb6  1  0.000000  0.323752  0.054240  1
  Sb  Sb7  1  0.000000  0.988513  0.386224  1
  Sb  Sb8  1  0.000000  0.654845  0.721741  1
  Sb  Sb9  1  0.000000  0.675798  0.948613  1
  Sb  Sb10  1  0.000000  0.344458  0.278899  1
  Sb  Sb11  1  0.000000  0.008508  0.612643  1
  Pt  Pt12  1  0.500000  0.832682  0.669451  1
  Pt  Pt13  1  0.500000  0.498157  0.999004  1
  Pt  Pt14  1  0.500000  0.168061  0.333891  1
  Au  Au15  1  0.000000  0.331655  0.664168  1
  Au  Au16  1  0.000000  0.001845  0.998930  1
  Au  Au17  1  0.000000  0.666793  0.333489  1
