# generated using pymatgen
data_La8Cd2NiPd
_symmetry_space_group_name_H-M   'P 1'
_cell_length_a   10.13299148
_cell_length_b   10.13299199
_cell_length_c   10.14764800
_cell_angle_alpha   59.95214305
_cell_angle_beta   59.95214140
_cell_angle_gamma   60.07727453
_symmetry_Int_Tables_number   1
_chemical_formula_structural   La8Cd2NiPd
_chemical_formula_sum   'La16 Cd4 Ni2 Pd2'
_cell_volume   736.65451866
_cell_formula_units_Z   2
loop_
 _symmetry_equiv_pos_site_id
 _symmetry_equiv_pos_as_xyz
  1  'x, y, z'
loop_
 _atom_site_type_symbol
 _atom_site_label
 _atom_site_symmetry_multiplicity
 _atom_site_fract_x
 _atom_site_fract_y
 _atom_site_fract_z
 _atom_site_occupancy
  La  La0  1  0.601350  0.601350  0.590055  1
  La  La1  1  0.601350  0.601350  0.207246  1
  La  La2  1  0.608183  0.201563  0.595128  1
  La  La3  1  0.201563  0.608183  0.595128  1
  La  La4  1  0.049743  0.442925  0.443868  1
  La  La5  1  0.442925  0.049743  0.063464  1
  La  La6  1  0.442925  0.049743  0.443868  1
  La  La7  1  0.049743  0.442925  0.063464  1
  La  La8  1  0.442994  0.442994  0.057006  1
  La  La9  1  0.056735  0.056735  0.443265  1
  La  La10  1  0.188920  0.811320  0.814259  1
  La  La11  1  0.811320  0.188920  0.185500  1
  La  La12  1  0.811320  0.188920  0.814259  1
  La  La13  1  0.188920  0.811320  0.185500  1
  La  La14  1  0.814797  0.814797  0.185203  1
  La  La15  1  0.188051  0.188051  0.811949  1
  Cd  Cd16  1  0.829673  0.829673  0.829570  1
  Cd  Cd17  1  0.829673  0.829673  0.511085  1
  Cd  Cd18  1  0.829250  0.512199  0.829276  1
  Cd  Cd19  1  0.512199  0.829250  0.829276  1
  Ni  Ni20  1  0.391794  0.823453  0.392377  1
  Ni  Ni21  1  0.823453  0.391794  0.392377  1
  Pd  Pd22  1  0.391561  0.391561  0.393884  1
  Pd  Pd23  1  0.391561  0.391561  0.822996  1
