# generated using pymatgen
data_Y2Zr2(Al8Pt3)3
_symmetry_space_group_name_H-M   'P 1'
_cell_length_a   7.50775497
_cell_length_b   7.51446737
_cell_length_c   13.05695472
_cell_angle_alpha   84.52800072
_cell_angle_beta   78.96971197
_cell_angle_gamma   59.94126625
_symmetry_Int_Tables_number   1
_chemical_formula_structural   Y2Zr2(Al8Pt3)3
_chemical_formula_sum   'Y2 Zr2 Al24 Pt9'
_cell_volume   625.78522599
_cell_formula_units_Z   1
loop_
 _symmetry_equiv_pos_site_id
 _symmetry_equiv_pos_as_xyz
  1  'x, y, z'
loop_
 _atom_site_type_symbol
 _atom_site_label
 _atom_site_symmetry_multiplicity
 _atom_site_fract_x
 _atom_site_fract_y
 _atom_site_fract_z
 _atom_site_occupancy
  Y  Y0  1  0.733513  0.498600  0.808096  1
  Y  Y1  1  0.266487  0.501400  0.191904  1
  Zr  Zr2  1  0.393836  0.167587  0.810068  1
  Zr  Zr3  1  0.606164  0.832413  0.189932  1
  Al  Al4  1  0.681314  0.836188  0.943671  1
  Al  Al5  1  0.318686  0.163812  0.056329  1
  Al  Al6  1  0.146013  0.833032  0.562974  1
  Al  Al7  1  0.853987  0.166968  0.437026  1
  Al  Al8  1  0.479864  0.166895  0.561086  1
  Al  Al9  1  0.520136  0.833105  0.438914  1
  Al  Al10  1  0.220466  0.163213  0.327133  1
  Al  Al11  1  0.779534  0.836787  0.672867  1
  Al  Al12  1  0.436326  0.504327  0.672899  1
  Al  Al13  1  0.563674  0.495673  0.327101  1
  Al  Al14  1  0.111266  0.159982  0.671649  1
  Al  Al15  1  0.888734  0.840018  0.328351  1
  Al  Al16  1  0.353149  0.496889  0.942363  1
  Al  Al17  1  0.646851  0.503111  0.057637  1
  Al  Al18  1  0.018627  0.167619  0.951028  1
  Al  Al19  1  0.981373  0.832381  0.048972  1
  Al  Al20  1  0.186572  0.499716  0.440630  1
  Al  Al21  1  0.813428  0.500284  0.559370  1
  Al  Al22  1  0.733798  0.158759  0.183681  1
  Al  Al23  1  0.266202  0.841241  0.816319  1
  Al  Al24  1  0.066066  0.626651  0.815185  1
  Al  Al25  1  0.933934  0.373349  0.184815  1
  Al  Al26  1  0.850688  0.040757  0.815733  1
  Al  Al27  1  0.149312  0.959243  0.184267  1
  Pt  Pt28  1  0.120320  0.491040  0.639064  1
  Pt  Pt29  1  0.879680  0.508960  0.360936  1
  Pt  Pt30  1  0.657149  0.172555  0.999580  1
  Pt  Pt31  1  0.342851  0.827445  0.000420  1
  Pt  Pt32  1  0.537358  0.166547  0.361641  1
  Pt  Pt33  1  0.462642  0.833453  0.638359  1
  Pt  Pt34  1  0.778568  0.175695  0.637526  1
  Pt  Pt35  1  0.221432  0.824305  0.362474  1
  Pt  Pt36  1  0.000000  0.500000  0.000000  1
