# generated using pymatgen
data_Ac3Ta(P3Rh4)2
_symmetry_space_group_name_H-M   'P 1'
_cell_length_a   4.08389700
_cell_length_b   11.57474900
_cell_length_c   13.33712300
_cell_angle_alpha   90.00000000
_cell_angle_beta   90.00000000
_cell_angle_gamma   90.00000000
_symmetry_Int_Tables_number   1
_chemical_formula_structural   Ac3Ta(P3Rh4)2
_chemical_formula_sum   'Ac6 Ta2 P12 Rh16'
_cell_volume   630.44690741
_cell_formula_units_Z   2
loop_
 _symmetry_equiv_pos_site_id
 _symmetry_equiv_pos_as_xyz
  1  'x, y, z'
loop_
 _atom_site_type_symbol
 _atom_site_label
 _atom_site_symmetry_multiplicity
 _atom_site_fract_x
 _atom_site_fract_y
 _atom_site_fract_z
 _atom_site_occupancy
  Ac  Ac0  1  0.000000  0.500000  0.520038  1
  Ac  Ac1  1  0.500000  0.000000  0.479962  1
  Ac  Ac2  1  0.500000  0.819135  0.203833  1
  Ac  Ac3  1  0.500000  0.180865  0.203833  1
  Ac  Ac4  1  0.000000  0.680865  0.796167  1
  Ac  Ac5  1  0.000000  0.319135  0.796167  1
  Ta  Ta6  1  0.500000  0.500000  0.153420  1
  Ta  Ta7  1  0.000000  0.000000  0.846580  1
  P  P8  1  0.500000  0.500000  0.886049  1
  P  P9  1  0.000000  0.000000  0.113951  1
  P  P10  1  0.500000  0.500000  0.337476  1
  P  P11  1  0.000000  0.000000  0.662524  1
  P  P12  1  0.500000  0.303968  0.613829  1
  P  P13  1  0.500000  0.696032  0.613829  1
  P  P14  1  0.000000  0.196032  0.386171  1
  P  P15  1  0.000000  0.803968  0.386171  1
  P  P16  1  0.500000  0.850265  0.891070  1
  P  P17  1  0.500000  0.149735  0.891070  1
  P  P18  1  0.000000  0.649735  0.108930  1
  P  P19  1  0.000000  0.350265  0.108930  1
  Rh  Rh20  1  0.500000  0.500000  0.700744  1
  Rh  Rh21  1  0.000000  0.000000  0.299256  1
  Rh  Rh22  1  0.000000  0.500000  0.990152  1
  Rh  Rh23  1  0.500000  0.000000  0.009848  1
  Rh  Rh24  1  0.500000  0.332640  0.989987  1
  Rh  Rh25  1  0.500000  0.667360  0.989987  1
  Rh  Rh26  1  0.000000  0.167360  0.010013  1
  Rh  Rh27  1  0.000000  0.832640  0.010013  1
  Rh  Rh28  1  0.500000  0.289459  0.431918  1
  Rh  Rh29  1  0.500000  0.710541  0.431918  1
  Rh  Rh30  1  0.000000  0.210541  0.568082  1
  Rh  Rh31  1  0.000000  0.789459  0.568082  1
  Rh  Rh32  1  0.500000  0.878805  0.709303  1
  Rh  Rh33  1  0.500000  0.121195  0.709303  1
  Rh  Rh34  1  0.000000  0.621195  0.290697  1
  Rh  Rh35  1  0.000000  0.378805  0.290697  1
