# generated using pymatgen
data_ZnAg(NO3)4
_symmetry_space_group_name_H-M   'P 1'
_cell_length_a   7.90531667
_cell_length_b   7.48546000
_cell_length_c   8.12082627
_cell_angle_alpha   90.00000000
_cell_angle_beta   85.26845465
_cell_angle_gamma   90.00000000
_symmetry_Int_Tables_number   1
_chemical_formula_structural   ZnAg(NO3)4
_chemical_formula_sum   'Zn2 Ag2 N8 O24'
_cell_volume   478.91168740
_cell_formula_units_Z   2
loop_
 _symmetry_equiv_pos_site_id
 _symmetry_equiv_pos_as_xyz
  1  'x, y, z'
loop_
 _atom_site_type_symbol
 _atom_site_label
 _atom_site_symmetry_multiplicity
 _atom_site_fract_x
 _atom_site_fract_y
 _atom_site_fract_z
 _atom_site_occupancy
  Zn  Zn0  1  0.000000  0.500000  0.000000  1
  Zn  Zn1  1  0.000000  0.000000  0.500000  1
  Ag  Ag2  1  0.500000  0.500000  0.500000  1
  Ag  Ag3  1  0.500000  0.000000  0.000000  1
  N  N4  1  0.690026  0.158267  0.345528  1
  N  N5  1  0.690026  0.341733  0.845528  1
  N  N6  1  0.839200  0.815510  0.827727  1
  N  N7  1  0.839200  0.684490  0.327727  1
  N  N8  1  0.160800  0.184490  0.172273  1
  N  N9  1  0.160800  0.315510  0.672273  1
  N  N10  1  0.309974  0.658267  0.154472  1
  N  N11  1  0.309974  0.841733  0.654472  1
  O  O12  1  0.571143  0.226752  0.833492  1
  O  O13  1  0.571143  0.273248  0.333492  1
  O  O14  1  0.704654  0.464572  0.742596  1
  O  O15  1  0.704654  0.035428  0.242596  1
  O  O16  1  0.725003  0.693446  0.446471  1
  O  O17  1  0.725003  0.806554  0.946471  1
  O  O18  1  0.787986  0.325802  0.961215  1
  O  O19  1  0.787986  0.174198  0.461215  1
  O  O20  1  0.826321  0.925585  0.712102  1
  O  O21  1  0.826321  0.574415  0.212102  1
  O  O22  1  0.965940  0.711354  0.826709  1
  O  O23  1  0.965940  0.788646  0.326709  1
  O  O24  1  0.034060  0.211354  0.673291  1
  O  O25  1  0.034060  0.288646  0.173291  1
  O  O26  1  0.173679  0.425585  0.787898  1
  O  O27  1  0.173679  0.074415  0.287898  1
  O  O28  1  0.212014  0.674198  0.038785  1
  O  O29  1  0.212014  0.825802  0.538785  1
  O  O30  1  0.274997  0.193446  0.053529  1
  O  O31  1  0.274997  0.306554  0.553529  1
  O  O32  1  0.295346  0.535428  0.257404  1
  O  O33  1  0.295346  0.964572  0.757404  1
  O  O34  1  0.428857  0.726752  0.666508  1
  O  O35  1  0.428857  0.773248  0.166508  1
