# generated using pymatgen
data_TbTm4Mn2O12
_symmetry_space_group_name_H-M   'P 1'
_cell_length_a   6.75636678
_cell_length_b   6.75636787
_cell_length_c   7.16396548
_cell_angle_alpha   74.61567402
_cell_angle_beta   74.61567330
_cell_angle_gamma   49.95984918
_symmetry_Int_Tables_number   1
_chemical_formula_structural   TbTm4Mn2O12
_chemical_formula_sum   'Tb1 Tm4 Mn2 O12'
_cell_volume   239.40503868
_cell_formula_units_Z   1
loop_
 _symmetry_equiv_pos_site_id
 _symmetry_equiv_pos_as_xyz
  1  'x, y, z'
loop_
 _atom_site_type_symbol
 _atom_site_label
 _atom_site_symmetry_multiplicity
 _atom_site_fract_x
 _atom_site_fract_y
 _atom_site_fract_z
 _atom_site_occupancy
  Tb  Tb0  1  0.000000  0.000000  0.000000  1
  Tm  Tm1  1  0.692914  0.692914  0.664149  1
  Tm  Tm2  1  0.695055  0.695055  0.143306  1
  Tm  Tm3  1  0.304945  0.304945  0.856694  1
  Tm  Tm4  1  0.307086  0.307086  0.335851  1
  Mn  Mn5  1  0.246495  0.753505  0.500000  1
  Mn  Mn6  1  0.753505  0.246495  0.500000  1
  O  O7  1  0.406843  0.903014  0.923874  1
  O  O8  1  0.576319  0.098291  0.581948  1
  O  O9  1  0.901709  0.423681  0.418052  1
  O  O10  1  0.096986  0.593157  0.076126  1
  O  O11  1  0.999786  0.999786  0.321341  1
  O  O12  1  0.500206  0.500206  0.683911  1
  O  O13  1  0.903014  0.406843  0.923874  1
  O  O14  1  0.098291  0.576319  0.581948  1
  O  O15  1  0.423681  0.901709  0.418052  1
  O  O16  1  0.593157  0.096986  0.076126  1
  O  O17  1  0.499794  0.499794  0.316089  1
  O  O18  1  0.000214  0.000214  0.678659  1
