# generated using pymatgen
data_Ce2Nd(GaRh)3
_symmetry_space_group_name_H-M   'P 1'
_cell_length_a   7.19917100
_cell_length_b   7.11358080
_cell_length_c   3.98131300
_cell_angle_alpha   90.00000000
_cell_angle_beta   90.00000000
_cell_angle_gamma   119.60749083
_symmetry_Int_Tables_number   1
_chemical_formula_structural   Ce2Nd(GaRh)3
_chemical_formula_sum   'Ce2 Nd1 Ga3 Rh3'
_cell_volume   177.26862394
_cell_formula_units_Z   1
loop_
 _symmetry_equiv_pos_site_id
 _symmetry_equiv_pos_as_xyz
  1  'x, y, z'
loop_
 _atom_site_type_symbol
 _atom_site_label
 _atom_site_symmetry_multiplicity
 _atom_site_fract_x
 _atom_site_fract_y
 _atom_site_fract_z
 _atom_site_occupancy
  Ce  Ce0  1  0.583169  0.587083  0.500000  1
  Ce  Ce1  1  0.416831  0.003914  0.500000  1
  Nd  Nd2  1  0.000000  0.414854  0.500000  1
  Ga  Ga3  1  0.000000  0.748895  0.000000  1
  Ga  Ga4  1  0.232828  0.240651  0.000000  1
  Ga  Ga5  1  0.767172  0.007824  0.000000  1
  Rh  Rh6  1  0.359043  0.688359  0.000000  1
  Rh  Rh7  1  0.640957  0.329317  0.000000  1
  Rh  Rh8  1  0.000000  0.979102  0.500000  1
