# generated using pymatgen
data_Hf18ZnCo(Re3Mo)2
_symmetry_space_group_name_H-M   'P 1'
_cell_length_a   8.66591100
_cell_length_b   8.66591069
_cell_length_c   8.50437300
_cell_angle_alpha   90.00000000
_cell_angle_beta   90.00000000
_cell_angle_gamma   119.99999738
_symmetry_Int_Tables_number   1
_chemical_formula_structural   Hf18ZnCo(Re3Mo)2
_chemical_formula_sum   'Hf18 Zn1 Co1 Re6 Mo2'
_cell_volume   553.09709365
_cell_formula_units_Z   1
loop_
 _symmetry_equiv_pos_site_id
 _symmetry_equiv_pos_as_xyz
  1  'x, y, z'
loop_
 _atom_site_type_symbol
 _atom_site_label
 _atom_site_symmetry_multiplicity
 _atom_site_fract_x
 _atom_site_fract_y
 _atom_site_fract_z
 _atom_site_occupancy
  Hf  Hf0  1  0.193536  0.806464  0.450008  1
  Hf  Hf1  1  0.193536  0.387073  0.450008  1
  Hf  Hf2  1  0.612927  0.806464  0.450008  1
  Hf  Hf3  1  0.798967  0.201033  0.557905  1
  Hf  Hf4  1  0.798967  0.597932  0.557905  1
  Hf  Hf5  1  0.402068  0.201033  0.557905  1
  Hf  Hf6  1  0.798967  0.201033  0.942095  1
  Hf  Hf7  1  0.798967  0.597932  0.942095  1
  Hf  Hf8  1  0.402068  0.201033  0.942095  1
  Hf  Hf9  1  0.193536  0.806464  0.049992  1
  Hf  Hf10  1  0.193536  0.387073  0.049992  1
  Hf  Hf11  1  0.612927  0.806464  0.049992  1
  Hf  Hf12  1  0.540659  0.459341  0.250000  1
  Hf  Hf13  1  0.540659  0.081318  0.250000  1
  Hf  Hf14  1  0.918682  0.459341  0.250000  1
  Hf  Hf15  1  0.459497  0.540503  0.750000  1
  Hf  Hf16  1  0.459497  0.918993  0.750000  1
  Hf  Hf17  1  0.081007  0.540503  0.750000  1
  Zn  Zn18  1  0.333333  0.666667  0.250000  1
  Co  Co19  1  0.666667  0.333333  0.750000  1
  Re  Re20  1  0.888043  0.111957  0.250000  1
  Re  Re21  1  0.888043  0.776086  0.250000  1
  Re  Re22  1  0.223914  0.111957  0.250000  1
  Re  Re23  1  0.111011  0.888989  0.750000  1
  Re  Re24  1  0.111011  0.222020  0.750000  1
  Re  Re25  1  0.777980  0.888989  0.750000  1
  Mo  Mo26  1  0.000000  0.000000  0.498781  1
  Mo  Mo27  1  0.000000  0.000000  0.001219  1
