# generated using pymatgen
data_Tb15Th(HgIr)4
_symmetry_space_group_name_H-M   'P 1'
_cell_length_a   9.69849571
_cell_length_b   9.65424826
_cell_length_c   9.69849500
_cell_angle_alpha   59.84826458
_cell_angle_beta   59.99999218
_cell_angle_gamma   59.84826919
_symmetry_Int_Tables_number   1
_chemical_formula_structural   Tb15Th(HgIr)4
_chemical_formula_sum   'Tb15 Th1 Hg4 Ir4'
_cell_volume   640.63743994
_cell_formula_units_Z   1
loop_
 _symmetry_equiv_pos_site_id
 _symmetry_equiv_pos_as_xyz
  1  'x, y, z'
loop_
 _atom_site_type_symbol
 _atom_site_label
 _atom_site_symmetry_multiplicity
 _atom_site_fract_x
 _atom_site_fract_y
 _atom_site_fract_z
 _atom_site_occupancy
  Tb  Tb0  1  0.940929  0.938660  0.560206  1
  Tb  Tb1  1  0.938614  0.560289  0.938614  1
  Tb  Tb2  1  0.314480  0.685668  0.314480  1
  Tb  Tb3  1  0.938614  0.560289  0.562483  1
  Tb  Tb4  1  0.313132  0.311573  0.687648  1
  Tb  Tb5  1  0.100344  0.101660  0.100344  1
  Tb  Tb6  1  0.562483  0.560289  0.938614  1
  Tb  Tb7  1  0.100344  0.101660  0.697654  1
  Tb  Tb8  1  0.687648  0.311573  0.687648  1
  Tb  Tb9  1  0.685372  0.685668  0.314480  1
  Tb  Tb10  1  0.687648  0.311573  0.313132  1
  Tb  Tb11  1  0.314480  0.685668  0.685372  1
  Tb  Tb12  1  0.560206  0.938660  0.560206  1
  Tb  Tb13  1  0.697654  0.101660  0.100344  1
  Tb  Tb14  1  0.560206  0.938660  0.940929  1
  Th  Th15  1  0.097967  0.706099  0.097967  1
  Hg  Hg16  1  0.335138  0.333391  0.335138  1
  Hg  Hg17  1  0.996334  0.333391  0.335138  1
  Hg  Hg18  1  0.333877  0.998367  0.333877  1
  Hg  Hg19  1  0.335138  0.333391  0.996334  1
  Ir  Ir20  1  0.891855  0.892865  0.891855  1
  Ir  Ir21  1  0.891855  0.892865  0.323424  1
  Ir  Ir22  1  0.323424  0.892865  0.891855  1
  Ir  Ir23  1  0.892261  0.323219  0.892261  1
