# generated using pymatgen
data_Tb3YTmSi3
_symmetry_space_group_name_H-M   'P 1'
_cell_length_a   8.45558418
_cell_length_b   8.45558396
_cell_length_c   6.35691000
_cell_angle_alpha   89.99902973
_cell_angle_beta   89.99902558
_cell_angle_gamma   120.02342299
_symmetry_Int_Tables_number   1
_chemical_formula_structural   Tb3YTmSi3
_chemical_formula_sum   'Tb6 Y2 Tm2 Si6'
_cell_volume   393.51506643
_cell_formula_units_Z   2
loop_
 _symmetry_equiv_pos_site_id
 _symmetry_equiv_pos_as_xyz
  1  'x, y, z'
loop_
 _atom_site_type_symbol
 _atom_site_label
 _atom_site_symmetry_multiplicity
 _atom_site_fract_x
 _atom_site_fract_y
 _atom_site_fract_z
 _atom_site_occupancy
  Tb  Tb0  1  0.666722  0.333327  0.500021  1
  Tb  Tb1  1  0.333327  0.666722  0.500021  1
  Tb  Tb2  1  0.755934  0.755934  0.248124  1
  Tb  Tb3  1  0.244182  0.999984  0.248126  1
  Tb  Tb4  1  0.999984  0.244182  0.248126  1
  Tb  Tb5  1  0.244234  0.244234  0.751880  1
  Y  Y6  1  0.755699  0.000003  0.751962  1
  Y  Y7  1  0.000003  0.755699  0.751962  1
  Tm  Tm8  1  0.333345  0.666712  0.999924  1
  Tm  Tm9  1  0.666712  0.333345  0.999924  1
  Si  Si10  1  0.394744  0.394744  0.244515  1
  Si  Si11  1  0.605141  0.999916  0.244504  1
  Si  Si12  1  0.999916  0.605141  0.244504  1
  Si  Si13  1  0.605608  0.605608  0.755457  1
  Si  Si14  1  0.394618  0.999830  0.755476  1
  Si  Si15  1  0.999830  0.394618  0.755476  1
