# generated using pymatgen
data_Ta3Ti2ZnOs6
_symmetry_space_group_name_H-M   'P 1'
_cell_length_a   4.43320200
_cell_length_b   6.27721900
_cell_length_c   13.33217700
_cell_angle_alpha   90.00000000
_cell_angle_beta   90.00049052
_cell_angle_gamma   90.00000000
_symmetry_Int_Tables_number   1
_chemical_formula_structural   Ta3Ti2ZnOs6
_chemical_formula_sum   'Ta6 Ti4 Zn2 Os12'
_cell_volume   371.01021901
_cell_formula_units_Z   2
loop_
 _symmetry_equiv_pos_site_id
 _symmetry_equiv_pos_as_xyz
  1  'x, y, z'
loop_
 _atom_site_type_symbol
 _atom_site_label
 _atom_site_symmetry_multiplicity
 _atom_site_fract_x
 _atom_site_fract_y
 _atom_site_fract_z
 _atom_site_occupancy
  Ta  Ta0  1  0.000010  0.999999  0.005030  1
  Ta  Ta1  1  0.499954  0.500000  0.161606  1
  Ta  Ta2  1  0.999960  0.999999  0.328629  1
  Ta  Ta3  1  0.499998  0.500001  0.499344  1
  Ta  Ta4  1  0.000040  0.000000  0.667338  1
  Ta  Ta5  1  0.500047  0.500000  0.838055  1
  Ti  Ti6  1  0.999967  0.500000  0.331584  1
  Ti  Ti7  1  0.500000  0.000000  0.499206  1
  Ti  Ti8  1  0.000034  0.499999  0.667445  1
  Ti  Ti9  1  0.500040  0.000000  0.835082  1
  Zn  Zn10  1  0.000004  0.500000  0.001096  1
  Zn  Zn11  1  0.499951  0.000000  0.165564  1
  Os  Os12  1  0.500006  0.247561  0.997675  1
  Os  Os13  1  0.500006  0.752438  0.997675  1
  Os  Os14  1  0.999955  0.252420  0.168992  1
  Os  Os15  1  0.999954  0.747579  0.168991  1
  Os  Os16  1  0.499964  0.252480  0.334677  1
  Os  Os17  1  0.499963  0.747520  0.334677  1
  Os  Os18  1  0.999998  0.249875  0.499562  1
  Os  Os19  1  0.999998  0.750125  0.499562  1
  Os  Os20  1  0.500037  0.250201  0.667117  1
  Os  Os21  1  0.500037  0.749799  0.667117  1
  Os  Os22  1  0.000040  0.247590  0.831987  1
  Os  Os23  1  0.000040  0.752409  0.831987  1
