# generated using pymatgen
data_Nb5B4SbRu10
_symmetry_space_group_name_H-M   'P 1'
_cell_length_a   3.01589700
_cell_length_b   9.51089000
_cell_length_c   9.51089000
_cell_angle_alpha   90.00000000
_cell_angle_beta   90.00000000
_cell_angle_gamma   90.00000000
_symmetry_Int_Tables_number   1
_chemical_formula_structural   Nb5B4SbRu10
_chemical_formula_sum   'Nb5 B4 Sb1 Ru10'
_cell_volume   272.80908116
_cell_formula_units_Z   1
loop_
 _symmetry_equiv_pos_site_id
 _symmetry_equiv_pos_as_xyz
  1  'x, y, z'
loop_
 _atom_site_type_symbol
 _atom_site_label
 _atom_site_symmetry_multiplicity
 _atom_site_fract_x
 _atom_site_fract_y
 _atom_site_fract_z
 _atom_site_occupancy
  Nb  Nb0  1  0.000000  0.677834  0.825448  1
  Nb  Nb1  1  0.000000  0.322166  0.174552  1
  Nb  Nb2  1  0.000000  0.825448  0.322166  1
  Nb  Nb3  1  0.000000  0.174552  0.677834  1
  Nb  Nb4  1  0.000000  0.000000  0.000000  1
  B  B5  1  0.000000  0.878079  0.620278  1
  B  B6  1  0.000000  0.121921  0.379722  1
  B  B7  1  0.000000  0.620278  0.121921  1
  B  B8  1  0.000000  0.379722  0.878079  1
  Sb  Sb9  1  0.000000  0.500000  0.500000  1
  Ru  Ru10  1  0.500000  0.719601  0.573568  1
  Ru  Ru11  1  0.500000  0.280399  0.426432  1
  Ru  Ru12  1  0.500000  0.780580  0.069238  1
  Ru  Ru13  1  0.500000  0.219420  0.930762  1
  Ru  Ru14  1  0.500000  0.573568  0.280399  1
  Ru  Ru15  1  0.500000  0.426432  0.719601  1
  Ru  Ru16  1  0.500000  0.069238  0.219420  1
  Ru  Ru17  1  0.500000  0.930762  0.780580  1
  Ru  Ru18  1  0.500000  0.000000  0.500000  1
  Ru  Ru19  1  0.500000  0.500000  0.000000  1
