# generated using pymatgen
data_Th10CuSn2Sb5
_symmetry_space_group_name_H-M   'P 1'
_cell_length_a   6.56204470
_cell_length_b   9.54868438
_cell_length_c   9.55274582
_cell_angle_alpha   119.98593052
_cell_angle_beta   89.99952861
_cell_angle_gamma   90.00095338
_symmetry_Int_Tables_number   1
_chemical_formula_structural   Th10CuSn2Sb5
_chemical_formula_sum   'Th10 Cu1 Sn2 Sb5'
_cell_volume   518.44552529
_cell_formula_units_Z   1
loop_
 _symmetry_equiv_pos_site_id
 _symmetry_equiv_pos_as_xyz
  1  'x, y, z'
loop_
 _atom_site_type_symbol
 _atom_site_label
 _atom_site_symmetry_multiplicity
 _atom_site_fract_x
 _atom_site_fract_y
 _atom_site_fract_z
 _atom_site_occupancy
  Th  Th0  1  0.499227  0.333345  0.666909  1
  Th  Th1  1  0.499227  0.666437  0.333091  1
  Th  Th2  1  0.001004  0.666589  0.332707  1
  Th  Th3  1  0.001004  0.333882  0.667293  1
  Th  Th4  1  0.735829  0.271010  0.000000  1
  Th  Th5  1  0.735352  0.729295  0.729435  1
  Th  Th6  1  0.735352  0.999860  0.270565  1
  Th  Th7  1  0.264560  0.725664  0.000000  1
  Th  Th8  1  0.265769  0.272561  0.272226  1
  Th  Th9  1  0.265769  0.000334  0.727774  1
  Cu  Cu10  1  0.496837  0.999950  0.000000  1
  Sn  Sn11  1  0.245110  0.618562  0.618391  1
  Sn  Sn12  1  0.245110  0.000171  0.381609  1
  Sb  Sb13  1  0.753703  0.616980  0.000000  1
  Sb  Sb14  1  0.754025  0.383761  0.384468  1
  Sb  Sb15  1  0.754025  0.999291  0.615532  1
  Sb  Sb16  1  0.246268  0.382472  0.000000  1
  Sb  Sb17  1  0.001827  0.999836  0.000000  1
