# generated using pymatgen
data_CeSc3(SnRu3)2
_symmetry_space_group_name_H-M   'P 1'
_cell_length_a   4.57042700
_cell_length_b   6.51587700
_cell_length_c   13.76608001
_cell_angle_alpha   90.00000000
_cell_angle_beta   90.00366557
_cell_angle_gamma   90.00000000
_symmetry_Int_Tables_number   1
_chemical_formula_structural   CeSc3(SnRu3)2
_chemical_formula_sum   'Ce2 Sc6 Sn4 Ru12'
_cell_volume   409.95854478
_cell_formula_units_Z   2
loop_
 _symmetry_equiv_pos_site_id
 _symmetry_equiv_pos_as_xyz
  1  'x, y, z'
loop_
 _atom_site_type_symbol
 _atom_site_label
 _atom_site_symmetry_multiplicity
 _atom_site_fract_x
 _atom_site_fract_y
 _atom_site_fract_z
 _atom_site_occupancy
  Ce  Ce0  1  0.999994  0.000000  0.997805  1
  Ce  Ce1  1  0.499953  0.500001  0.168845  1
  Sc  Sc2  1  0.000009  0.500001  0.987627  1
  Sc  Sc3  1  0.499979  0.000000  0.179072  1
  Sc  Sc4  1  0.999957  0.500001  0.345273  1
  Sc  Sc5  1  0.500000  0.000000  0.499980  1
  Sc  Sc6  1  0.000011  0.500001  0.666709  1
  Sc  Sc7  1  0.500055  0.000000  0.821394  1
  Sn  Sn8  1  0.000007  0.000000  0.337885  1
  Sn  Sn9  1  0.500005  0.500001  0.503808  1
  Sn  Sn10  1  0.000045  0.000000  0.662867  1
  Sn  Sn11  1  0.500015  0.500001  0.828792  1
  Ru  Ru12  1  0.499997  0.246024  0.998584  1
  Ru  Ru13  1  0.499997  0.753977  0.998584  1
  Ru  Ru14  1  0.999978  0.253702  0.168006  1
  Ru  Ru15  1  0.999978  0.746297  0.168006  1
  Ru  Ru16  1  0.499975  0.255151  0.334308  1
  Ru  Ru17  1  0.499975  0.744849  0.334308  1
  Ru  Ru18  1  0.999997  0.249450  0.500960  1
  Ru  Ru19  1  0.999997  0.750551  0.500960  1
  Ru  Ru20  1  0.500018  0.250554  0.665702  1
  Ru  Ru21  1  0.500018  0.749446  0.665702  1
  Ru  Ru22  1  0.000020  0.244765  0.832410  1
  Ru  Ru23  1  0.000020  0.755234  0.832410  1
