# generated using pymatgen
data_Hf9Sc3(TiOs2)4
_symmetry_space_group_name_H-M   'P 1'
_cell_length_a   8.57811423
_cell_length_b   8.58030845
_cell_length_c   8.57070514
_cell_angle_alpha   60.02007929
_cell_angle_beta   59.96970434
_cell_angle_gamma   59.93441978
_symmetry_Int_Tables_number   1
_chemical_formula_structural   Hf9Sc3(TiOs2)4
_chemical_formula_sum   'Hf9 Sc3 Ti4 Os8'
_cell_volume   445.80701951
_cell_formula_units_Z   1
loop_
 _symmetry_equiv_pos_site_id
 _symmetry_equiv_pos_as_xyz
  1  'x, y, z'
loop_
 _atom_site_type_symbol
 _atom_site_label
 _atom_site_symmetry_multiplicity
 _atom_site_fract_x
 _atom_site_fract_y
 _atom_site_fract_z
 _atom_site_occupancy
  Hf  Hf0  1  0.192287  0.807713  0.192287  1
  Hf  Hf1  1  0.192689  0.806692  0.807491  1
  Hf  Hf2  1  0.807491  0.193129  0.192689  1
  Hf  Hf3  1  0.442176  0.440379  0.058405  1
  Hf  Hf4  1  0.058405  0.059040  0.442176  1
  Hf  Hf5  1  0.441890  0.058110  0.441890  1
  Hf  Hf6  1  0.057707  0.442293  0.057707  1
  Hf  Hf7  1  0.056791  0.442443  0.443357  1
  Hf  Hf8  1  0.443357  0.057410  0.056791  1
  Sc  Sc9  1  0.809341  0.809434  0.190337  1
  Sc  Sc10  1  0.190337  0.190887  0.809341  1
  Sc  Sc11  1  0.809206  0.190794  0.809206  1
  Ti  Ti12  1  0.125532  0.622821  0.625233  1
  Ti  Ti13  1  0.623510  0.125666  0.626519  1
  Ti  Ti14  1  0.625233  0.626413  0.125532  1
  Ti  Ti15  1  0.626519  0.624304  0.623510  1
  Os  Os16  1  0.758346  0.411629  0.412624  1
  Os  Os17  1  0.410533  0.758894  0.415522  1
  Os  Os18  1  0.412624  0.417399  0.758346  1
  Os  Os19  1  0.415522  0.415048  0.410533  1
  Os  Os20  1  0.492746  0.833961  0.836742  1
  Os  Os21  1  0.833648  0.495208  0.837368  1
  Os  Os22  1  0.836742  0.836553  0.492746  1
  Os  Os23  1  0.837368  0.833779  0.833648  1
