# generated using pymatgen
data_Rb4RhWCl12
_symmetry_space_group_name_H-M   'P 1'
_cell_length_a   7.20782233
_cell_length_b   7.20782233
_cell_length_c   10.48482000
_cell_angle_alpha   90.00000000
_cell_angle_beta   90.00000000
_cell_angle_gamma   89.76368866
_symmetry_Int_Tables_number   1
_chemical_formula_structural   Rb4RhWCl12
_chemical_formula_sum   'Rb4 Rh1 W1 Cl12'
_cell_volume   544.71010319
_cell_formula_units_Z   1
loop_
 _symmetry_equiv_pos_site_id
 _symmetry_equiv_pos_as_xyz
  1  'x, y, z'
loop_
 _atom_site_type_symbol
 _atom_site_label
 _atom_site_symmetry_multiplicity
 _atom_site_fract_x
 _atom_site_fract_y
 _atom_site_fract_z
 _atom_site_occupancy
  Rb  Rb0  1  0.500000  0.000000  0.786422  1
  Rb  Rb1  1  0.000000  0.500000  0.213578  1
  Rb  Rb2  1  0.500000  0.000000  0.213578  1
  Rb  Rb3  1  0.000000  0.500000  0.786422  1
  Rh  Rh4  1  0.000000  0.000000  0.000000  1
  W  W5  1  0.500000  0.500000  0.500000  1
  Cl  Cl6  1  0.000000  0.000000  0.773579  1
  Cl  Cl7  1  0.500000  0.500000  0.274457  1
  Cl  Cl8  1  0.730207  0.730207  0.500000  1
  Cl  Cl9  1  0.233011  0.233011  0.000000  1
  Cl  Cl10  1  0.730613  0.269387  0.500000  1
  Cl  Cl11  1  0.233370  0.766630  0.000000  1
  Cl  Cl12  1  0.000000  0.000000  0.226421  1
  Cl  Cl13  1  0.500000  0.500000  0.725543  1
  Cl  Cl14  1  0.269793  0.269793  0.500000  1
  Cl  Cl15  1  0.766989  0.766989  0.000000  1
  Cl  Cl16  1  0.269387  0.730613  0.500000  1
  Cl  Cl17  1  0.766630  0.233370  0.000000  1
