# generated using pymatgen
data_Lu4MnOs7
_symmetry_space_group_name_H-M   'P 1'
_cell_length_a   5.29751200
_cell_length_b   5.29751289
_cell_length_c   8.62953800
_cell_angle_alpha   90.00000000
_cell_angle_beta   90.00000000
_cell_angle_gamma   119.99999442
_symmetry_Int_Tables_number   1
_chemical_formula_structural   Lu4MnOs7
_chemical_formula_sum   'Lu4 Mn1 Os7'
_cell_volume   209.73078053
_cell_formula_units_Z   1
loop_
 _symmetry_equiv_pos_site_id
 _symmetry_equiv_pos_as_xyz
  1  'x, y, z'
loop_
 _atom_site_type_symbol
 _atom_site_label
 _atom_site_symmetry_multiplicity
 _atom_site_fract_x
 _atom_site_fract_y
 _atom_site_fract_z
 _atom_site_occupancy
  Lu  Lu0  1  0.333333  0.666667  0.435692  1
  Lu  Lu1  1  0.666667  0.333333  0.564308  1
  Lu  Lu2  1  0.666667  0.333333  0.931633  1
  Lu  Lu3  1  0.333333  0.666667  0.068367  1
  Mn  Mn4  1  0.000000  0.000000  0.000000  1
  Os  Os5  1  0.171594  0.343189  0.753204  1
  Os  Os6  1  0.171594  0.828406  0.753204  1
  Os  Os7  1  0.343189  0.171594  0.246796  1
  Os  Os8  1  0.828406  0.656811  0.246796  1
  Os  Os9  1  0.656811  0.828406  0.753204  1
  Os  Os10  1  0.828406  0.171594  0.246796  1
  Os  Os11  1  0.000000  0.000000  0.500000  1
