# generated using pymatgen
data_P2OsO7
_symmetry_space_group_name_H-M   'P 1'
_cell_length_a   8.19277600
_cell_length_b   4.91543231
_cell_length_c   6.99223292
_cell_angle_alpha   73.98684023
_cell_angle_beta   90.00000000
_cell_angle_gamma   90.00000000
_symmetry_Int_Tables_number   1
_chemical_formula_structural   P2OsO7
_chemical_formula_sum   'P4 Os2 O14'
_cell_volume   270.65852420
_cell_formula_units_Z   2
loop_
 _symmetry_equiv_pos_site_id
 _symmetry_equiv_pos_as_xyz
  1  'x, y, z'
loop_
 _atom_site_type_symbol
 _atom_site_label
 _atom_site_symmetry_multiplicity
 _atom_site_fract_x
 _atom_site_fract_y
 _atom_site_fract_z
 _atom_site_occupancy
  P  P0  1  0.867338  0.612358  0.508022  1
  P  P1  1  0.284893  0.762702  0.104082  1
  P  P2  1  0.784893  0.237298  0.895918  1
  P  P3  1  0.367338  0.387642  0.491978  1
  Os  Os4  1  0.553806  0.785016  0.726358  1
  Os  Os5  1  0.053806  0.214984  0.273642  1
  O  O6  1  0.734985  0.979991  0.824712  1
  O  O7  1  0.387803  0.868511  0.918098  1
  O  O8  1  0.995852  0.845669  0.469465  1
  O  O9  1  0.691194  0.719871  0.504746  1
  O  O10  1  0.375730  0.580185  0.632172  1
  O  O11  1  0.636784  0.420153  0.918013  1
  O  O12  1  0.907663  0.426706  0.730873  1
  O  O13  1  0.407663  0.573294  0.269127  1
  O  O14  1  0.136784  0.579847  0.081987  1
  O  O15  1  0.875730  0.419815  0.367828  1
  O  O16  1  0.191194  0.280129  0.495254  1
  O  O17  1  0.495852  0.154331  0.530535  1
  O  O18  1  0.887803  0.131489  0.081902  1
  O  O19  1  0.234985  0.020009  0.175288  1
