# generated using pymatgen
data_Ca9ErIr4
_symmetry_space_group_name_H-M   'P 1'
_cell_length_a   8.60955604
_cell_length_b   8.60955668
_cell_length_c   7.57034549
_cell_angle_alpha   82.69784814
_cell_angle_beta   97.30214975
_cell_angle_gamma   135.54828723
_symmetry_Int_Tables_number   1
_chemical_formula_structural   Ca9ErIr4
_chemical_formula_sum   'Ca9 Er1 Ir4'
_cell_volume   389.25435821
_cell_formula_units_Z   1
loop_
 _symmetry_equiv_pos_site_id
 _symmetry_equiv_pos_as_xyz
  1  'x, y, z'
loop_
 _atom_site_type_symbol
 _atom_site_label
 _atom_site_symmetry_multiplicity
 _atom_site_fract_x
 _atom_site_fract_y
 _atom_site_fract_z
 _atom_site_occupancy
  Ca  Ca0  1  0.203353  0.031463  0.419402  1
  Ca  Ca1  1  0.031463  0.203353  0.080599  1
  Ca  Ca2  1  0.800769  0.974804  0.582170  1
  Ca  Ca3  1  0.974805  0.800768  0.917830  1
  Ca  Ca4  1  0.796500  0.361919  0.322812  1
  Ca  Ca5  1  0.361918  0.796500  0.177187  1
  Ca  Ca6  1  0.199958  0.637387  0.678185  1
  Ca  Ca7  1  0.637387  0.199959  0.821815  1
  Ca  Ca8  1  0.575227  0.575226  0.250000  1
  Er  Er9  1  0.435089  0.435088  0.749999  1
  Ir  Ir10  1  0.396428  0.184816  0.069192  1
  Ir  Ir11  1  0.184816  0.396429  0.430807  1
  Ir  Ir12  1  0.594281  0.808008  0.914608  1
  Ir  Ir13  1  0.808007  0.594281  0.585391  1
