# generated using pymatgen
data_CsTe8Rh5
_symmetry_space_group_name_H-M   'P 1'
_cell_length_a   10.58264218
_cell_length_b   10.58264228
_cell_length_c   9.14319381
_cell_angle_alpha   76.38198969
_cell_angle_beta   76.38198956
_cell_angle_gamma   22.17003298
_symmetry_Int_Tables_number   1
_chemical_formula_structural   CsTe8Rh5
_chemical_formula_sum   'Cs1 Te8 Rh5'
_cell_volume   375.11464868
_cell_formula_units_Z   1
loop_
 _symmetry_equiv_pos_site_id
 _symmetry_equiv_pos_as_xyz
  1  'x, y, z'
loop_
 _atom_site_type_symbol
 _atom_site_label
 _atom_site_symmetry_multiplicity
 _atom_site_fract_x
 _atom_site_fract_y
 _atom_site_fract_z
 _atom_site_occupancy
  Cs  Cs0  1  0.500000  0.500000  0.500000  1
  Te  Te1  1  0.762986  0.762986  0.151855  1
  Te  Te2  1  0.237014  0.237014  0.848145  1
  Te  Te3  1  0.428151  0.428151  0.149215  1
  Te  Te4  1  0.571849  0.571849  0.850785  1
  Te  Te5  1  0.906678  0.906678  0.841212  1
  Te  Te6  1  0.093322  0.093322  0.158788  1
  Te  Te7  1  0.821461  0.821461  0.486044  1
  Te  Te8  1  0.178539  0.178539  0.513956  1
  Rh  Rh9  1  0.661688  0.661688  0.012952  1
  Rh  Rh10  1  0.338312  0.338312  0.987048  1
  Rh  Rh11  1  0.704377  0.704377  0.681557  1
  Rh  Rh12  1  0.295623  0.295623  0.318443  1
  Rh  Rh13  1  0.000000  0.000000  0.000000  1
