# generated using pymatgen
data_BaSbPt4
_symmetry_space_group_name_H-M   'P 1'
_cell_length_a   5.92022000
_cell_length_b   5.68883885
_cell_length_c   4.41050500
_cell_angle_alpha   90.00000000
_cell_angle_beta   90.00000000
_cell_angle_gamma   121.35483188
_symmetry_Int_Tables_number   1
_chemical_formula_structural   BaSbPt4
_chemical_formula_sum   'Ba1 Sb1 Pt4'
_cell_volume   126.84926818
_cell_formula_units_Z   1
loop_
 _symmetry_equiv_pos_site_id
 _symmetry_equiv_pos_as_xyz
  1  'x, y, z'
loop_
 _atom_site_type_symbol
 _atom_site_label
 _atom_site_symmetry_multiplicity
 _atom_site_fract_x
 _atom_site_fract_y
 _atom_site_fract_z
 _atom_site_occupancy
  Ba  Ba0  1  0.000000  0.000000  0.000000  1
  Sb  Sb1  1  0.500000  0.000000  0.500000  1
  Pt  Pt2  1  0.330858  0.661716  0.000000  1
  Pt  Pt3  1  0.669142  0.338284  0.000000  1
  Pt  Pt4  1  0.500000  0.500000  0.500000  1
  Pt  Pt5  1  0.000000  0.500000  0.500000  1
