# generated using pymatgen
data_Sc10Si5Bi
_symmetry_space_group_name_H-M   'P 1'
_cell_length_a   8.01916200
_cell_length_b   8.04595002
_cell_length_c   5.87581700
_cell_angle_alpha   90.00000000
_cell_angle_beta   90.00000000
_cell_angle_gamma   119.88992601
_symmetry_Int_Tables_number   1
_chemical_formula_structural   Sc10Si5Bi
_chemical_formula_sum   'Sc10 Si5 Bi1'
_cell_volume   328.68951657
_cell_formula_units_Z   1
loop_
 _symmetry_equiv_pos_site_id
 _symmetry_equiv_pos_as_xyz
  1  'x, y, z'
loop_
 _atom_site_type_symbol
 _atom_site_label
 _atom_site_symmetry_multiplicity
 _atom_site_fract_x
 _atom_site_fract_y
 _atom_site_fract_z
 _atom_site_occupancy
  Sc  Sc0  1  0.677828  0.347392  0.006004  1
  Sc  Sc1  1  0.330435  0.652608  0.493996  1
  Sc  Sc2  1  0.330435  0.652608  0.006004  1
  Sc  Sc3  1  0.677828  0.347392  0.493996  1
  Sc  Sc4  1  0.770699  0.000000  0.750000  1
  Sc  Sc5  1  0.755765  0.757057  0.250000  1
  Sc  Sc6  1  0.998706  0.242943  0.250000  1
  Sc  Sc7  1  0.982731  0.744555  0.750000  1
  Sc  Sc8  1  0.238175  0.255445  0.750000  1
  Sc  Sc9  1  0.238104  0.000000  0.250000  1
  Si  Si10  1  0.393906  0.390472  0.250000  1
  Si  Si11  1  0.003434  0.609528  0.250000  1
  Si  Si12  1  0.998210  0.395142  0.750000  1
  Si  Si13  1  0.603068  0.604858  0.750000  1
  Si  Si14  1  0.607692  0.000000  0.250000  1
  Bi  Bi15  1  0.392983  0.000000  0.750000  1
