# generated using pymatgen
data_KCl37
_symmetry_space_group_name_H-M   'P 1'
_cell_length_a   12.78763379
_cell_length_b   13.76759013
_cell_length_c   12.98174600
_cell_angle_alpha   103.00376751
_cell_angle_beta   48.80056927
_cell_angle_gamma   81.50743368
_symmetry_Int_Tables_number   1
_chemical_formula_structural   KCl37
_chemical_formula_sum   'K1 Cl37'
_cell_volume   1533.02354663
_cell_formula_units_Z   1
loop_
 _symmetry_equiv_pos_site_id
 _symmetry_equiv_pos_as_xyz
  1  'x, y, z'
loop_
 _atom_site_type_symbol
 _atom_site_label
 _atom_site_symmetry_multiplicity
 _atom_site_fract_x
 _atom_site_fract_y
 _atom_site_fract_z
 _atom_site_occupancy
  K  K0  1  0.500000  0.000000  0.000000  1
  Cl  Cl1  1  0.770527  0.307216  0.154375  1
  Cl  Cl2  1  0.229473  0.692784  0.845625  1
  Cl  Cl3  1  0.721942  0.080605  0.364066  1
  Cl  Cl4  1  0.278058  0.919395  0.635934  1
  Cl  Cl5  1  0.142648  0.333157  0.157070  1
  Cl  Cl6  1  0.857352  0.666843  0.842930  1
  Cl  Cl7  1  0.856982  0.527333  0.245235  1
  Cl  Cl8  1  0.143018  0.472667  0.754765  1
  Cl  Cl9  1  0.680508  0.286298  0.532781  1
  Cl  Cl10  1  0.319492  0.713702  0.467219  1
  Cl  Cl11  1  0.036284  0.140625  0.500662  1
  Cl  Cl12  1  0.963716  0.859375  0.499338  1
  Cl  Cl13  1  0.977567  0.006867  0.286087  1
  Cl  Cl14  1  0.022433  0.993133  0.713913  1
  Cl  Cl15  1  0.950721  0.333318  0.610143  1
  Cl  Cl16  1  0.049279  0.666682  0.389857  1
  Cl  Cl17  1  0.582620  0.422786  0.234408  1
  Cl  Cl18  1  0.417380  0.577214  0.765592  1
  Cl  Cl19  1  0.168429  0.489268  0.287590  1
  Cl  Cl20  1  0.831571  0.510732  0.712410  1
  Cl  Cl21  1  0.000000  0.500000  0.000000  1
  Cl  Cl22  1  0.543952  0.948221  0.197793  1
  Cl  Cl23  1  0.456048  0.051779  0.802207  1
  Cl  Cl24  1  0.301969  0.044068  0.345141  1
  Cl  Cl25  1  0.698031  0.955932  0.654859  1
  Cl  Cl26  1  0.523231  0.133482  0.417671  1
  Cl  Cl27  1  0.476769  0.866518  0.582329  1
  Cl  Cl28  1  0.102326  0.220512  0.064925  1
  Cl  Cl29  1  0.897674  0.779488  0.935075  1
  Cl  Cl30  1  0.665916  0.685540  0.397455  1
  Cl  Cl31  1  0.334084  0.314460  0.602545  1
  Cl  Cl32  1  0.905998  0.133744  0.904120  1
  Cl  Cl33  1  0.094002  0.866256  0.095880  1
  Cl  Cl34  1  0.379790  0.249802  0.118010  1
  Cl  Cl35  1  0.620210  0.750198  0.881990  1
  Cl  Cl36  1  0.667063  0.422576  0.645938  1
  Cl  Cl37  1  0.332937  0.577424  0.354062  1
