# generated using pymatgen
data_Zn2Ni5Mo12RhN4
_symmetry_space_group_name_H-M   'P 1'
_cell_length_a   6.72281403
_cell_length_b   6.72926423
_cell_length_c   6.72862058
_cell_angle_alpha   90.00282043
_cell_angle_beta   89.95978483
_cell_angle_gamma   90.38511559
_symmetry_Int_Tables_number   1
_chemical_formula_structural   Zn2Ni5Mo12RhN4
_chemical_formula_sum   'Zn2 Ni5 Mo12 Rh1 N4'
_cell_volume   304.39309795
_cell_formula_units_Z   1
loop_
 _symmetry_equiv_pos_site_id
 _symmetry_equiv_pos_as_xyz
  1  'x, y, z'
loop_
 _atom_site_type_symbol
 _atom_site_label
 _atom_site_symmetry_multiplicity
 _atom_site_fract_x
 _atom_site_fract_y
 _atom_site_fract_z
 _atom_site_occupancy
  Zn  Zn0  1  0.187452  0.826614  0.315655  1
  Zn  Zn1  1  0.318822  0.177144  0.818561  1
  Ni  Ni2  1  0.433151  0.929685  0.569679  1
  Ni  Ni3  1  0.677196  0.684334  0.690124  1
  Ni  Ni4  1  0.815781  0.312251  0.178791  1
  Ni  Ni5  1  0.566840  0.430472  0.934299  1
  Ni  Ni6  1  0.067650  0.069936  0.069392  1
  Mo  Mo7  1  0.196124  0.453512  0.124714  1
  Mo  Mo8  1  0.039257  0.874325  0.700077  1
  Mo  Mo9  1  0.460729  0.127250  0.202021  1
  Mo  Mo10  1  0.305106  0.545101  0.630252  1
  Mo  Mo11  1  0.948209  0.375176  0.800472  1
  Mo  Mo12  1  0.550803  0.621732  0.296905  1
  Mo  Mo13  1  0.707563  0.046369  0.878791  1
  Mo  Mo14  1  0.625974  0.303478  0.542073  1
  Mo  Mo15  1  0.873158  0.699492  0.040620  1
  Mo  Mo16  1  0.380780  0.790853  0.949225  1
  Mo  Mo17  1  0.121264  0.206235  0.449429  1
  Mo  Mo18  1  0.792170  0.955650  0.380424  1
  Rh  Rh19  1  0.933483  0.567688  0.434623  1
  N  N20  1  0.873027  0.128747  0.624377  1
  N  N21  1  0.627605  0.872904  0.125669  1
  N  N22  1  0.124756  0.624986  0.871512  1
  N  N23  1  0.373099  0.376068  0.372312  1
