# generated using pymatgen
data_Tb9Ho3Os4
_symmetry_space_group_name_H-M   'P 1'
_cell_length_a   7.38881989
_cell_length_b   9.12705214
_cell_length_c   6.34635361
_cell_angle_alpha   89.85734722
_cell_angle_beta   89.94678187
_cell_angle_gamma   89.98356288
_symmetry_Int_Tables_number   1
_chemical_formula_structural   Tb9Ho3Os4
_chemical_formula_sum   'Tb9 Ho3 Os4'
_cell_volume   427.98478222
_cell_formula_units_Z   1
loop_
 _symmetry_equiv_pos_site_id
 _symmetry_equiv_pos_as_xyz
  1  'x, y, z'
loop_
 _atom_site_type_symbol
 _atom_site_label
 _atom_site_symmetry_multiplicity
 _atom_site_fract_x
 _atom_site_fract_y
 _atom_site_fract_z
 _atom_site_occupancy
  Tb  Tb0  1  0.037704  0.750566  0.129535  1
  Tb  Tb1  1  0.324754  0.062416  0.167722  1
  Tb  Tb2  1  0.324969  0.437092  0.167803  1
  Tb  Tb3  1  0.824667  0.062468  0.332024  1
  Tb  Tb4  1  0.824008  0.437005  0.331692  1
  Tb  Tb5  1  0.538338  0.750297  0.370498  1
  Tb  Tb6  1  0.462619  0.249549  0.631757  1
  Tb  Tb7  1  0.175605  0.564113  0.668777  1
  Tb  Tb8  1  0.962115  0.249474  0.868351  1
  Ho  Ho9  1  0.174763  0.936416  0.668664  1
  Ho  Ho10  1  0.675090  0.564394  0.831978  1
  Ho  Ho11  1  0.675205  0.935709  0.831726  1
  Os  Os12  1  0.616835  0.250302  0.039468  1
  Os  Os13  1  0.116474  0.248851  0.459610  1
  Os  Os14  1  0.882752  0.750599  0.542787  1
  Os  Os15  1  0.384097  0.750750  0.957612  1
