# generated using pymatgen
data_Ho2ErIn3HgPt2
_symmetry_space_group_name_H-M   'P 1'
_cell_length_a   7.71177945
_cell_length_b   7.71770547
_cell_length_c   3.96754800
_cell_angle_alpha   90.00000000
_cell_angle_beta   90.00000000
_cell_angle_gamma   120.04488096
_symmetry_Int_Tables_number   1
_chemical_formula_structural   Ho2ErIn3HgPt2
_chemical_formula_sum   'Ho2 Er1 In3 Hg1 Pt2'
_cell_volume   204.40853949
_cell_formula_units_Z   1
loop_
 _symmetry_equiv_pos_site_id
 _symmetry_equiv_pos_as_xyz
  1  'x, y, z'
loop_
 _atom_site_type_symbol
 _atom_site_label
 _atom_site_symmetry_multiplicity
 _atom_site_fract_x
 _atom_site_fract_y
 _atom_site_fract_z
 _atom_site_occupancy
  Ho  Ho0  1  0.608950  0.020266  0.500000  1
  Ho  Ho1  1  0.411416  0.391232  0.500000  1
  Er  Er2  1  0.979330  0.588582  0.500000  1
  In  In3  1  0.746157  0.743427  0.000000  1
  In  In4  1  0.997471  0.254158  0.000000  1
  In  In5  1  0.256134  0.002030  0.000000  1
  Hg  Hg6  1  0.333217  0.666677  0.000000  1
  Pt  Pt7  1  0.667311  0.333701  0.000000  1
  Pt  Pt8  1  0.000013  0.999926  0.500000  1
