# generated using pymatgen
data_Tb4Dy2Al24Os5Pt3
_symmetry_space_group_name_H-M   'P 1'
_cell_length_a   8.82191950
_cell_length_b   8.84209222
_cell_length_c   9.55815680
_cell_angle_alpha   90.11686393
_cell_angle_beta   89.75523960
_cell_angle_gamma   119.52595306
_symmetry_Int_Tables_number   1
_chemical_formula_structural   Tb4Dy2Al24Os5Pt3
_chemical_formula_sum   'Tb4 Dy2 Al24 Os5 Pt3'
_cell_volume   648.74456907
_cell_formula_units_Z   1
loop_
 _symmetry_equiv_pos_site_id
 _symmetry_equiv_pos_as_xyz
  1  'x, y, z'
loop_
 _atom_site_type_symbol
 _atom_site_label
 _atom_site_symmetry_multiplicity
 _atom_site_fract_x
 _atom_site_fract_y
 _atom_site_fract_z
 _atom_site_occupancy
  Tb  Tb0  1  0.187579  0.382589  0.250836  1
  Tb  Tb1  1  0.812421  0.617411  0.749164  1
  Tb  Tb2  1  0.614491  0.813969  0.252223  1
  Tb  Tb3  1  0.385509  0.186031  0.747777  1
  Dy  Dy4  1  0.195057  0.809016  0.251419  1
  Dy  Dy5  1  0.804943  0.190984  0.748581  1
  Al  Al6  1  0.335172  0.671284  0.028653  1
  Al  Al7  1  0.664828  0.328716  0.971347  1
  Al  Al8  1  0.669131  0.331150  0.526929  1
  Al  Al9  1  0.330869  0.668850  0.473071  1
  Al  Al10  1  0.158100  0.325553  0.575096  1
  Al  Al11  1  0.841900  0.674447  0.424904  1
  Al  Al12  1  0.673307  0.840770  0.575658  1
  Al  Al13  1  0.837008  0.676107  0.077915  1
  Al  Al14  1  0.326693  0.159230  0.424342  1
  Al  Al15  1  0.162992  0.323893  0.922085  1
  Al  Al16  1  0.163887  0.835109  0.575766  1
  Al  Al17  1  0.325663  0.158770  0.076202  1
  Al  Al18  1  0.836113  0.164891  0.424234  1
  Al  Al19  1  0.674337  0.841230  0.923798  1
  Al  Al20  1  0.831831  0.159405  0.077279  1
  Al  Al21  1  0.168169  0.840595  0.922721  1
  Al  Al22  1  0.560717  0.124719  0.249795  1
  Al  Al23  1  0.439283  0.875281  0.750205  1
  Al  Al24  1  0.874166  0.437894  0.252683  1
  Al  Al25  1  0.125834  0.562106  0.747317  1
  Al  Al26  1  0.562724  0.436494  0.249752  1
  Al  Al27  1  0.437276  0.563506  0.750248  1
  Al  Al28  1  0.998925  0.002533  0.250176  1
  Al  Al29  1  0.001075  0.997467  0.749824  1
  Os  Os30  1  0.500000  0.000000  0.000000  1
  Os  Os31  1  0.500000  0.000000  0.500000  1
  Os  Os32  1  0.000000  0.500000  0.500000  1
  Os  Os33  1  0.000000  0.000000  0.000000  1
  Os  Os34  1  0.000000  0.000000  0.500000  1
  Pt  Pt35  1  0.000000  0.500000  0.000000  1
  Pt  Pt36  1  0.500000  0.500000  0.000000  1
  Pt  Pt37  1  0.500000  0.500000  0.500000  1
