# generated using pymatgen
data_Ta2GaB2Ru5
_symmetry_space_group_name_H-M   'P 1'
_cell_length_a   9.32072100
_cell_length_b   9.32072100
_cell_length_c   2.99707600
_cell_angle_alpha   90.00000000
_cell_angle_beta   90.00000000
_cell_angle_gamma   90.00000000
_symmetry_Int_Tables_number   1
_chemical_formula_structural   Ta2GaB2Ru5
_chemical_formula_sum   'Ta4 Ga2 B4 Ru10'
_cell_volume   260.37349492
_cell_formula_units_Z   2
loop_
 _symmetry_equiv_pos_site_id
 _symmetry_equiv_pos_as_xyz
  1  'x, y, z'
loop_
 _atom_site_type_symbol
 _atom_site_label
 _atom_site_symmetry_multiplicity
 _atom_site_fract_x
 _atom_site_fract_y
 _atom_site_fract_z
 _atom_site_occupancy
  Ta  Ta0  1  0.823540  0.676460  0.000000  1
  Ta  Ta1  1  0.176460  0.323540  0.000000  1
  Ta  Ta2  1  0.323540  0.823540  0.000000  1
  Ta  Ta3  1  0.676460  0.176460  0.000000  1
  Ga  Ga4  1  0.500000  0.500000  0.000000  1
  Ga  Ga5  1  0.000000  0.000000  0.000000  1
  B  B6  1  0.624714  0.875286  0.000000  1
  B  B7  1  0.375286  0.124714  0.000000  1
  B  B8  1  0.124714  0.624714  0.000000  1
  B  B9  1  0.875286  0.375286  0.000000  1
  Ru  Ru10  1  0.568837  0.714691  0.500000  1
  Ru  Ru11  1  0.431163  0.285309  0.500000  1
  Ru  Ru12  1  0.068837  0.785309  0.500000  1
  Ru  Ru13  1  0.931163  0.214691  0.500000  1
  Ru  Ru14  1  0.285309  0.568837  0.500000  1
  Ru  Ru15  1  0.714691  0.431163  0.500000  1
  Ru  Ru16  1  0.214691  0.068837  0.500000  1
  Ru  Ru17  1  0.785309  0.931163  0.500000  1
  Ru  Ru18  1  0.500000  0.000000  0.500000  1
  Ru  Ru19  1  0.000000  0.500000  0.500000  1
