# generated using pymatgen
data_Y12TlZnSi4
_symmetry_space_group_name_H-M   'P 1'
_cell_length_a   8.51786142
_cell_length_b   8.51786251
_cell_length_c   8.51786300
_cell_angle_alpha   111.68139514
_cell_angle_beta   112.02154806
_cell_angle_gamma   104.80913074
_symmetry_Int_Tables_number   1
_chemical_formula_structural   Y12TlZnSi4
_chemical_formula_sum   'Y12 Tl1 Zn1 Si4'
_cell_volume   473.39874470
_cell_formula_units_Z   1
loop_
 _symmetry_equiv_pos_site_id
 _symmetry_equiv_pos_as_xyz
  1  'x, y, z'
loop_
 _atom_site_type_symbol
 _atom_site_label
 _atom_site_symmetry_multiplicity
 _atom_site_fract_x
 _atom_site_fract_y
 _atom_site_fract_z
 _atom_site_occupancy
  Y  Y0  1  0.433371  0.236646  0.196725  1
  Y  Y1  1  0.566629  0.763354  0.803275  1
  Y  Y2  1  0.039920  0.236646  0.803275  1
  Y  Y3  1  0.960080  0.763354  0.196725  1
  Y  Y4  1  0.179665  0.270835  0.450501  1
  Y  Y5  1  0.820335  0.729165  0.549499  1
  Y  Y6  1  0.179665  0.729165  0.908831  1
  Y  Y7  1  0.820335  0.270835  0.091169  1
  Y  Y8  1  0.319859  0.619250  0.299391  1
  Y  Y9  1  0.680141  0.380750  0.700609  1
  Y  Y10  1  0.319859  0.020469  0.700609  1
  Y  Y11  1  0.680141  0.979531  0.299391  1
  Tl  Tl12  1  0.500000  0.500000  0.000000  1
  Zn  Zn13  1  0.000000  0.000000  0.000000  1
  Si  Si14  1  0.362558  0.000000  0.362558  1
  Si  Si15  1  0.637442  0.000000  0.637442  1
  Si  Si16  1  0.116222  0.616222  0.500000  1
  Si  Si17  1  0.883778  0.383778  0.500000  1
