# generated using pymatgen
data_Hf6Al5GaIrPd5
_symmetry_space_group_name_H-M   'P 1'
_cell_length_a   7.23842615
_cell_length_b   7.26160108
_cell_length_c   6.92003007
_cell_angle_alpha   89.99289467
_cell_angle_beta   89.87153481
_cell_angle_gamma   120.06998426
_symmetry_Int_Tables_number   1
_chemical_formula_structural   Hf6Al5GaIrPd5
_chemical_formula_sum   'Hf6 Al5 Ga1 Ir1 Pd5'
_cell_volume   314.77983666
_cell_formula_units_Z   1
loop_
 _symmetry_equiv_pos_site_id
 _symmetry_equiv_pos_as_xyz
  1  'x, y, z'
loop_
 _atom_site_type_symbol
 _atom_site_label
 _atom_site_symmetry_multiplicity
 _atom_site_fract_x
 _atom_site_fract_y
 _atom_site_fract_z
 _atom_site_occupancy
  Hf  Hf0  1  0.605225  0.593163  0.253562  1
  Hf  Hf1  1  0.020175  0.411596  0.745732  1
  Hf  Hf2  1  0.407451  0.011854  0.253945  1
  Hf  Hf3  1  0.988654  0.397488  0.253973  1
  Hf  Hf4  1  0.388751  0.978574  0.745942  1
  Hf  Hf5  1  0.590078  0.610884  0.745140  1
  Al  Al6  1  0.258512  0.258070  0.498453  1
  Al  Al7  1  0.743008  0.002880  0.498571  1
  Al  Al8  1  0.998533  0.740936  0.498673  1
  Al  Al9  1  0.738148  0.007687  0.999606  1
  Al  Al10  1  0.266131  0.265534  0.999715  1
  Ga  Ga11  1  0.995750  0.725161  0.999790  1
  Ir  Ir12  1  0.333638  0.666621  0.484337  1
  Pd  Pd13  1  0.999915  0.999980  0.754890  1
  Pd  Pd14  1  0.000184  0.999966  0.242621  1
  Pd  Pd15  1  0.338314  0.667572  0.025858  1
  Pd  Pd16  1  0.666439  0.333335  0.527080  1
  Pd  Pd17  1  0.661093  0.328699  0.972114  1
