# generated using pymatgen
data_Nd8Sc11Si16Mo
_symmetry_space_group_name_H-M   'P 1'
_cell_length_a   7.21294636
_cell_length_b   7.45854355
_cell_length_c   14.09452718
_cell_angle_alpha   90.21353529
_cell_angle_beta   89.72662371
_cell_angle_gamma   89.55728096
_symmetry_Int_Tables_number   1
_chemical_formula_structural   Nd8Sc11Si16Mo
_chemical_formula_sum   'Nd8 Sc11 Si16 Mo1'
_cell_volume   758.22178639
_cell_formula_units_Z   1
loop_
 _symmetry_equiv_pos_site_id
 _symmetry_equiv_pos_as_xyz
  1  'x, y, z'
loop_
 _atom_site_type_symbol
 _atom_site_label
 _atom_site_symmetry_multiplicity
 _atom_site_fract_x
 _atom_site_fract_y
 _atom_site_fract_z
 _atom_site_occupancy
  Nd  Nd0  1  0.012021  0.171607  0.097250  1
  Nd  Nd1  1  0.988933  0.828151  0.898444  1
  Nd  Nd2  1  0.486683  0.674136  0.898476  1
  Nd  Nd3  1  0.992607  0.831429  0.595954  1
  Nd  Nd4  1  0.513672  0.326284  0.096977  1
  Nd  Nd5  1  0.011501  0.172804  0.403195  1
  Nd  Nd6  1  0.508061  0.327462  0.408918  1
  Nd  Nd7  1  0.486290  0.673822  0.597488  1
  Sc  Sc8  1  0.163218  0.489296  0.744287  1
  Sc  Sc9  1  0.838442  0.500064  0.252248  1
  Sc  Sc10  1  0.338321  0.000225  0.251701  1
  Sc  Sc11  1  0.656220  0.004126  0.747241  1
  Sc  Sc12  1  0.666108  0.826600  0.378721  1
  Sc  Sc13  1  0.169336  0.676589  0.377575  1
  Sc  Sc14  1  0.669777  0.824268  0.124623  1
  Sc  Sc15  1  0.832226  0.324943  0.624285  1
  Sc  Sc16  1  0.332295  0.177337  0.875383  1
  Sc  Sc17  1  0.828919  0.323305  0.870907  1
  Sc  Sc18  1  0.170838  0.675737  0.125762  1
  Si  Si19  1  0.044109  0.126052  0.744921  1
  Si  Si20  1  0.963264  0.877867  0.251629  1
  Si  Si21  1  0.466330  0.624880  0.251095  1
  Si  Si22  1  0.529642  0.367337  0.745090  1
  Si  Si23  1  0.288838  0.891369  0.746445  1
  Si  Si24  1  0.710319  0.118915  0.250981  1
  Si  Si25  1  0.213740  0.380520  0.250851  1
  Si  Si26  1  0.786093  0.617452  0.746932  1
  Si  Si27  1  0.169198  0.449368  0.542835  1
  Si  Si28  1  0.848675  0.534380  0.460321  1
  Si  Si29  1  0.340151  0.969585  0.470479  1
  Si  Si30  1  0.849115  0.536977  0.038663  1
  Si  Si31  1  0.641498  0.038641  0.546237  1
  Si  Si32  1  0.149199  0.464558  0.958698  1
  Si  Si33  1  0.655655  0.037352  0.957846  1
  Si  Si34  1  0.346799  0.961759  0.038868  1
  Mo  Mo35  1  0.331911  0.174801  0.628673  1
