# generated using pymatgen
data_SrTm7(Si3Pt)4
_symmetry_space_group_name_H-M   'P 1'
_cell_length_a   8.18139600
_cell_length_b   8.16974659
_cell_length_c   7.92035800
_cell_angle_alpha   90.00000000
_cell_angle_beta   90.00000000
_cell_angle_gamma   120.04718028
_symmetry_Int_Tables_number   1
_chemical_formula_structural   SrTm7(Si3Pt)4
_chemical_formula_sum   'Sr1 Tm7 Si12 Pt4'
_cell_volume   458.25242862
_cell_formula_units_Z   1
loop_
 _symmetry_equiv_pos_site_id
 _symmetry_equiv_pos_as_xyz
  1  'x, y, z'
loop_
 _atom_site_type_symbol
 _atom_site_label
 _atom_site_symmetry_multiplicity
 _atom_site_fract_x
 _atom_site_fract_y
 _atom_site_fract_z
 _atom_site_occupancy
  Sr  Sr0  1  0.512554  0.025108  0.250000  1
  Tm  Tm1  1  0.489545  0.979091  0.750000  1
  Tm  Tm2  1  0.981726  0.491060  0.250000  1
  Tm  Tm3  1  0.022551  0.510139  0.750000  1
  Tm  Tm4  1  0.509335  0.491060  0.250000  1
  Tm  Tm5  1  0.487586  0.510139  0.750000  1
  Tm  Tm6  1  0.999724  0.999447  0.250000  1
  Tm  Tm7  1  0.000402  0.000804  0.750000  1
  Si  Si8  1  0.163133  0.326265  0.000718  1
  Si  Si9  1  0.835086  0.670174  0.998970  1
  Si  Si10  1  0.670221  0.834173  0.998950  1
  Si  Si11  1  0.835086  0.670174  0.501030  1
  Si  Si12  1  0.330603  0.166620  0.991050  1
  Si  Si13  1  0.163133  0.326265  0.499282  1
  Si  Si14  1  0.163953  0.834173  0.998950  1
  Si  Si15  1  0.330603  0.166620  0.508950  1
  Si  Si16  1  0.836016  0.166620  0.991050  1
  Si  Si17  1  0.670221  0.834173  0.501050  1
  Si  Si18  1  0.836016  0.166620  0.508950  1
  Si  Si19  1  0.163953  0.834173  0.501050  1
  Pt  Pt20  1  0.330423  0.660848  0.025039  1
  Pt  Pt21  1  0.668853  0.337705  0.953448  1
  Pt  Pt22  1  0.668853  0.337705  0.546552  1
  Pt  Pt23  1  0.330423  0.660848  0.474961  1
