# generated using pymatgen
data_CrI9
_symmetry_space_group_name_H-M   'P 1'
_cell_length_a   10.04593123
_cell_length_b   10.03447752
_cell_length_c   10.05312896
_cell_angle_alpha   92.75732913
_cell_angle_beta   92.81919673
_cell_angle_gamma   92.85688064
_symmetry_Int_Tables_number   1
_chemical_formula_structural   CrI9
_chemical_formula_sum   'Cr2 I18'
_cell_volume   1009.62871612
_cell_formula_units_Z   2
loop_
 _symmetry_equiv_pos_site_id
 _symmetry_equiv_pos_as_xyz
  1  'x, y, z'
loop_
 _atom_site_type_symbol
 _atom_site_label
 _atom_site_symmetry_multiplicity
 _atom_site_fract_x
 _atom_site_fract_y
 _atom_site_fract_z
 _atom_site_occupancy
  Cr  Cr0  1  0.500000  0.500000  0.500000  1
  Cr  Cr1  1  0.000000  0.000000  0.000000  1
  I  I2  1  0.771583  0.483465  0.519685  1
  I  I3  1  0.519938  0.771880  0.482673  1
  I  I4  1  0.484172  0.520532  0.771670  1
  I  I5  1  0.228417  0.516535  0.480315  1
  I  I6  1  0.480062  0.228120  0.517327  1
  I  I7  1  0.515828  0.479468  0.228330  1
  I  I8  1  0.886343  0.368668  0.762340  1
  I  I9  1  0.762691  0.886294  0.368061  1
  I  I10  1  0.368528  0.762751  0.886101  1
  I  I11  1  0.113657  0.631332  0.237660  1
  I  I12  1  0.237309  0.113706  0.631939  1
  I  I13  1  0.631472  0.237249  0.113899  1
  I  I14  1  0.003973  0.965630  0.728844  1
  I  I15  1  0.728789  0.004288  0.965816  1
  I  I16  1  0.965554  0.728414  0.004668  1
  I  I17  1  0.996027  0.034370  0.271156  1
  I  I18  1  0.271211  0.995712  0.034184  1
  I  I19  1  0.034446  0.271586  0.995332  1
