# generated using pymatgen
data_Ti10Sn4Sb3
_symmetry_space_group_name_H-M   'P 1'
_cell_length_a   5.58483708
_cell_length_b   8.23712865
_cell_length_c   8.22493637
_cell_angle_alpha   119.95221623
_cell_angle_beta   89.84530680
_cell_angle_gamma   90.07889316
_symmetry_Int_Tables_number   1
_chemical_formula_structural   Ti10Sn4Sb3
_chemical_formula_sum   'Ti10 Sn4 Sb3'
_cell_volume   327.83616783
_cell_formula_units_Z   1
loop_
 _symmetry_equiv_pos_site_id
 _symmetry_equiv_pos_as_xyz
  1  'x, y, z'
loop_
 _atom_site_type_symbol
 _atom_site_label
 _atom_site_symmetry_multiplicity
 _atom_site_fract_x
 _atom_site_fract_y
 _atom_site_fract_z
 _atom_site_occupancy
  Ti  Ti0  1  0.500341  0.335271  0.666838  1
  Ti  Ti1  1  0.500345  0.664729  0.331562  1
  Ti  Ti2  1  0.001182  0.665469  0.332472  1
  Ti  Ti3  1  0.001183  0.334533  0.667016  1
  Ti  Ti4  1  0.773266  0.268035  0.000930  1
  Ti  Ti5  1  0.773272  0.731964  0.732905  1
  Ti  Ti6  1  0.773053  0.999995  0.265753  1
  Ti  Ti7  1  0.227416  0.731201  0.000199  1
  Ti  Ti8  1  0.227412  0.268794  0.268995  1
  Ti  Ti9  1  0.223828  0.000009  0.732727  1
  Sn  Sn10  1  0.743719  0.000019  0.611026  1
  Sn  Sn11  1  0.254904  0.386065  0.999068  1
  Sn  Sn12  1  0.254913  0.613931  0.613033  1
  Sn  Sn13  1  0.254343  0.000003  0.389115  1
  Sb  Sb14  1  0.746747  0.610977  0.000242  1
  Sb  Sb15  1  0.746743  0.389006  0.389254  1
  Sb  Sb16  1  0.497332  0.000000  0.998865  1
