# generated using pymatgen
data_Tb3Tm5Au4
_symmetry_space_group_name_H-M   'P 1'
_cell_length_a   4.90298200
_cell_length_b   7.11659223
_cell_length_c   8.90353165
_cell_angle_alpha   89.81506236
_cell_angle_beta   90.00000000
_cell_angle_gamma   90.00000000
_symmetry_Int_Tables_number   1
_chemical_formula_structural   Tb3Tm5Au4
_chemical_formula_sum   'Tb3 Tm5 Au4'
_cell_volume   310.66506968
_cell_formula_units_Z   1
loop_
 _symmetry_equiv_pos_site_id
 _symmetry_equiv_pos_as_xyz
  1  'x, y, z'
loop_
 _atom_site_type_symbol
 _atom_site_label
 _atom_site_symmetry_multiplicity
 _atom_site_fract_x
 _atom_site_fract_y
 _atom_site_fract_z
 _atom_site_occupancy
  Tb  Tb0  1  0.250000  0.985709  0.321980  1
  Tb  Tb1  1  0.750000  0.514365  0.823189  1
  Tb  Tb2  1  0.750000  0.014621  0.677262  1
  Tm  Tm3  1  0.250000  0.852105  0.921172  1
  Tm  Tm4  1  0.250000  0.353120  0.578962  1
  Tm  Tm5  1  0.750000  0.148235  0.079894  1
  Tm  Tm6  1  0.750000  0.646757  0.418990  1
  Tm  Tm7  1  0.250000  0.485162  0.176370  1
  Au  Au8  1  0.250000  0.254954  0.901679  1
  Au  Au9  1  0.250000  0.754034  0.600363  1
  Au  Au10  1  0.750000  0.744429  0.100755  1
  Au  Au11  1  0.750000  0.246509  0.399385  1
