# generated using pymatgen
data_NdScSe3
_symmetry_space_group_name_H-M   'P 1'
_cell_length_a   6.78985700
_cell_length_b   7.50691800
_cell_length_c   10.03367200
_cell_angle_alpha   90.00000000
_cell_angle_beta   90.00000000
_cell_angle_gamma   90.00000000
_symmetry_Int_Tables_number   1
_chemical_formula_structural   NdScSe3
_chemical_formula_sum   'Nd4 Sc4 Se12'
_cell_volume   511.42528944
_cell_formula_units_Z   4
loop_
 _symmetry_equiv_pos_site_id
 _symmetry_equiv_pos_as_xyz
  1  'x, y, z'
loop_
 _atom_site_type_symbol
 _atom_site_label
 _atom_site_symmetry_multiplicity
 _atom_site_fract_x
 _atom_site_fract_y
 _atom_site_fract_z
 _atom_site_occupancy
  Nd  Nd0  1  0.542645  0.396812  0.750000  1
  Nd  Nd1  1  0.457355  0.603188  0.250000  1
  Nd  Nd2  1  0.042645  0.103188  0.250000  1
  Nd  Nd3  1  0.957355  0.896812  0.750000  1
  Sc  Sc4  1  0.000000  0.500000  0.000000  1
  Sc  Sc5  1  0.000000  0.500000  0.500000  1
  Sc  Sc6  1  0.500000  0.000000  0.500000  1
  Sc  Sc7  1  0.500000  0.000000  0.000000  1
  Se  Se8  1  0.823937  0.185541  0.563599  1
  Se  Se9  1  0.176063  0.814459  0.063599  1
  Se  Se10  1  0.323937  0.314459  0.063599  1
  Se  Se11  1  0.676063  0.685541  0.563599  1
  Se  Se12  1  0.823937  0.185541  0.936401  1
  Se  Se13  1  0.176063  0.814459  0.436401  1
  Se  Se14  1  0.323937  0.314459  0.436401  1
  Se  Se15  1  0.676063  0.685541  0.936401  1
  Se  Se16  1  0.864475  0.461409  0.250000  1
  Se  Se17  1  0.135525  0.538591  0.750000  1
  Se  Se18  1  0.364475  0.038591  0.750000  1
  Se  Se19  1  0.635525  0.961409  0.250000  1
