# generated using pymatgen
data_HfBi6RuO14
_symmetry_space_group_name_H-M   'P 1'
_cell_length_a   6.69113589
_cell_length_b   6.94581581
_cell_length_c   7.67005355
_cell_angle_alpha   106.94650318
_cell_angle_beta   88.81141533
_cell_angle_gamma   102.97673092
_symmetry_Int_Tables_number   1
_chemical_formula_structural   HfBi6RuO14
_chemical_formula_sum   'Hf1 Bi6 Ru1 O14'
_cell_volume   331.89909255
_cell_formula_units_Z   1
loop_
 _symmetry_equiv_pos_site_id
 _symmetry_equiv_pos_as_xyz
  1  'x, y, z'
loop_
 _atom_site_type_symbol
 _atom_site_label
 _atom_site_symmetry_multiplicity
 _atom_site_fract_x
 _atom_site_fract_y
 _atom_site_fract_z
 _atom_site_occupancy
  Hf  Hf0  1  0.000000  0.000000  0.500000  1
  Bi  Bi1  1  0.526791  0.012659  0.736518  1
  Bi  Bi2  1  0.473209  0.987341  0.263482  1
  Bi  Bi3  1  0.263496  0.517431  0.875001  1
  Bi  Bi4  1  0.736504  0.482569  0.124999  1
  Bi  Bi5  1  0.745226  0.543335  0.631677  1
  Bi  Bi6  1  0.254774  0.456665  0.368323  1
  Ru  Ru7  1  0.000000  0.000000  0.000000  1
  O  O8  1  0.470820  0.628573  0.185224  1
  O  O9  1  0.529180  0.371427  0.814776  1
  O  O10  1  0.263037  0.942893  0.934508  1
  O  O11  1  0.736963  0.057107  0.065492  1
  O  O12  1  0.289454  0.945522  0.520881  1
  O  O13  1  0.710546  0.054478  0.479119  1
  O  O14  1  0.534420  0.340189  0.359438  1
  O  O15  1  0.465580  0.659811  0.640562  1
  O  O16  1  0.899276  0.701895  0.969596  1
  O  O17  1  0.100724  0.298105  0.030404  1
  O  O18  1  0.100793  0.320134  0.618998  1
  O  O19  1  0.899207  0.679866  0.381002  1
  O  O20  1  0.899905  0.926390  0.739281  1
  O  O21  1  0.100095  0.073610  0.260719  1
