# generated using pymatgen
data_SrMnFe2Sb12Ru
_symmetry_space_group_name_H-M   'P 1'
_cell_length_a   8.09605256
_cell_length_b   8.05141618
_cell_length_c   8.03871803
_cell_angle_alpha   109.31613184
_cell_angle_beta   109.38585232
_cell_angle_gamma   109.46277665
_symmetry_Int_Tables_number   1
_chemical_formula_structural   SrMnFe2Sb12Ru
_chemical_formula_sum   'Sr1 Mn1 Fe2 Sb12 Ru1'
_cell_volume   404.61025236
_cell_formula_units_Z   1
loop_
 _symmetry_equiv_pos_site_id
 _symmetry_equiv_pos_as_xyz
  1  'x, y, z'
loop_
 _atom_site_type_symbol
 _atom_site_label
 _atom_site_symmetry_multiplicity
 _atom_site_fract_x
 _atom_site_fract_y
 _atom_site_fract_z
 _atom_site_occupancy
  Sr  Sr0  1  0.000000  0.000000  0.000000  1
  Mn  Mn1  1  0.000000  0.000000  0.500000  1
  Fe  Fe2  1  0.500000  0.000000  0.000000  1
  Fe  Fe3  1  0.500000  0.500000  0.500000  1
  Sb  Sb4  1  0.347903  0.180307  0.848713  1
  Sb  Sb5  1  0.652097  0.819693  0.151287  1
  Sb  Sb6  1  0.657260  0.501257  0.833715  1
  Sb  Sb7  1  0.342740  0.498743  0.166285  1
  Sb  Sb8  1  0.187362  0.841615  0.342061  1
  Sb  Sb9  1  0.812638  0.158385  0.657939  1
  Sb  Sb10  1  0.503322  0.836759  0.666528  1
  Sb  Sb11  1  0.496678  0.163241  0.333472  1
  Sb  Sb12  1  0.833745  0.331770  0.176335  1
  Sb  Sb13  1  0.166255  0.668230  0.823665  1
  Sb  Sb14  1  0.832250  0.652253  0.501203  1
  Sb  Sb15  1  0.167750  0.347747  0.498797  1
  Ru  Ru16  1  0.000000  0.500000  0.000000  1
