# generated using pymatgen
data_Cs6Lu3IrBr18
_symmetry_space_group_name_H-M   'P 1'
_cell_length_a   7.97525800
_cell_length_b   7.97525834
_cell_length_c   20.10710100
_cell_angle_alpha   90.00000000
_cell_angle_beta   90.00000000
_cell_angle_gamma   119.99999029
_symmetry_Int_Tables_number   1
_chemical_formula_structural   Cs6Lu3IrBr18
_chemical_formula_sum   'Cs6 Lu3 Ir1 Br18'
_cell_volume   1107.56605004
_cell_formula_units_Z   1
loop_
 _symmetry_equiv_pos_site_id
 _symmetry_equiv_pos_as_xyz
  1  'x, y, z'
loop_
 _atom_site_type_symbol
 _atom_site_label
 _atom_site_symmetry_multiplicity
 _atom_site_fract_x
 _atom_site_fract_y
 _atom_site_fract_z
 _atom_site_occupancy
  Cs  Cs0  1  0.333333  0.666667  0.070828  1
  Cs  Cs1  1  0.666667  0.333333  0.930949  1
  Cs  Cs2  1  0.666667  0.333333  0.573192  1
  Cs  Cs3  1  0.333333  0.666667  0.433026  1
  Cs  Cs4  1  0.000000  0.000000  0.250321  1
  Cs  Cs5  1  0.000000  0.000000  0.746560  1
  Lu  Lu6  1  0.666667  0.333333  0.344628  1
  Lu  Lu7  1  0.666667  0.333333  0.156231  1
  Lu  Lu8  1  0.333333  0.666667  0.837264  1
  Ir  Ir9  1  0.333333  0.666667  0.668494  1
  Br  Br10  1  0.185241  0.370481  0.596563  1
  Br  Br11  1  0.832334  0.664668  0.411770  1
  Br  Br12  1  0.629519  0.814759  0.596563  1
  Br  Br13  1  0.832005  0.664012  0.088312  1
  Br  Br14  1  0.335332  0.167666  0.411770  1
  Br  Br15  1  0.169373  0.338747  0.907712  1
  Br  Br16  1  0.185241  0.814759  0.596563  1
  Br  Br17  1  0.335988  0.167995  0.088312  1
  Br  Br18  1  0.832334  0.167666  0.411770  1
  Br  Br19  1  0.661253  0.830627  0.907712  1
  Br  Br20  1  0.832005  0.167995  0.088312  1
  Br  Br21  1  0.169373  0.830627  0.907712  1
  Br  Br22  1  0.510824  0.021650  0.250046  1
  Br  Br23  1  0.485535  0.971068  0.741766  1
  Br  Br24  1  0.978350  0.489176  0.250046  1
  Br  Br25  1  0.028932  0.514465  0.741766  1
  Br  Br26  1  0.510824  0.489176  0.250046  1
  Br  Br27  1  0.485535  0.514465  0.741766  1
