# generated using pymatgen
data_Pr2Y4Ga17Pd5
_symmetry_space_group_name_H-M   'P 1'
_cell_length_a   8.23224612
_cell_length_b   8.23224554
_cell_length_c   15.88390937
_cell_angle_alpha   76.07447838
_cell_angle_beta   76.07448038
_cell_angle_gamma   30.38086032
_symmetry_Int_Tables_number   1
_chemical_formula_structural   Pr2Y4Ga17Pd5
_chemical_formula_sum   'Pr2 Y4 Ga17 Pd5'
_cell_volume   527.21078371
_cell_formula_units_Z   1
loop_
 _symmetry_equiv_pos_site_id
 _symmetry_equiv_pos_as_xyz
  1  'x, y, z'
loop_
 _atom_site_type_symbol
 _atom_site_label
 _atom_site_symmetry_multiplicity
 _atom_site_fract_x
 _atom_site_fract_y
 _atom_site_fract_z
 _atom_site_occupancy
  Pr  Pr0  1  0.746643  0.746643  0.749652  1
  Pr  Pr1  1  0.253357  0.253357  0.250348  1
  Y  Y2  1  0.592376  0.592376  0.594256  1
  Y  Y3  1  0.099945  0.099945  0.097701  1
  Y  Y4  1  0.900055  0.900055  0.902299  1
  Y  Y5  1  0.407624  0.407624  0.405744  1
  Ga  Ga6  1  0.828356  0.828356  0.542387  1
  Ga  Ga7  1  0.322132  0.322132  0.039116  1
  Ga  Ga8  1  0.677868  0.677868  0.960884  1
  Ga  Ga9  1  0.171644  0.171644  0.457613  1
  Ga  Ga10  1  0.538213  0.538213  0.823184  1
  Ga  Ga11  1  0.044608  0.044608  0.327325  1
  Ga  Ga12  1  0.955392  0.955392  0.672675  1
  Ga  Ga13  1  0.461787  0.461787  0.176816  1
  Ga  Ga14  1  0.261288  0.261288  0.896368  1
  Ga  Ga15  1  0.767963  0.767963  0.399701  1
  Ga  Ga16  1  0.232037  0.232037  0.600299  1
  Ga  Ga17  1  0.738712  0.738712  0.103632  1
  Ga  Ga18  1  0.394534  0.394534  0.765861  1
  Ga  Ga19  1  0.901351  0.901351  0.264203  1
  Ga  Ga20  1  0.098649  0.098649  0.735797  1
  Ga  Ga21  1  0.605466  0.605466  0.234139  1
  Ga  Ga22  1  0.500000  0.500000  0.000000  1
  Pd  Pd23  1  0.093457  0.093457  0.905168  1
  Pd  Pd24  1  0.604783  0.604783  0.396870  1
  Pd  Pd25  1  0.395217  0.395217  0.603130  1
  Pd  Pd26  1  0.906543  0.906543  0.094832  1
  Pd  Pd27  1  0.000000  0.000000  0.500000  1
