# generated using pymatgen
data_Sr2PaInO6
_symmetry_space_group_name_H-M   'P 1'
_cell_length_a   6.07830200
_cell_length_b   5.95851324
_cell_length_c   10.34505389
_cell_angle_alpha   55.08152524
_cell_angle_beta   90.00000000
_cell_angle_gamma   90.00000000
_symmetry_Int_Tables_number   1
_chemical_formula_structural   Sr2PaInO6
_chemical_formula_sum   'Sr4 Pa2 In2 O12'
_cell_volume   307.22000965
_cell_formula_units_Z   2
loop_
 _symmetry_equiv_pos_site_id
 _symmetry_equiv_pos_as_xyz
  1  'x, y, z'
loop_
 _atom_site_type_symbol
 _atom_site_label
 _atom_site_symmetry_multiplicity
 _atom_site_fract_x
 _atom_site_fract_y
 _atom_site_fract_z
 _atom_site_occupancy
  Sr  Sr0  1  0.043541  0.237755  0.251253  1
  Sr  Sr1  1  0.543541  0.762245  0.248747  1
  Sr  Sr2  1  0.456459  0.237755  0.751253  1
  Sr  Sr3  1  0.956459  0.762245  0.748747  1
  Pa  Pa4  1  0.500000  0.500000  0.000000  1
  Pa  Pa5  1  0.000000  0.500000  0.500000  1
  In  In6  1  0.500000  0.000000  0.500000  1
  In  In7  1  0.000000  0.000000  0.000000  1
  O  O8  1  0.533077  0.655849  0.751571  1
  O  O9  1  0.033077  0.344151  0.748429  1
  O  O10  1  0.466923  0.344151  0.248429  1
  O  O11  1  0.966923  0.655849  0.251571  1
  O  O12  1  0.794853  0.839761  0.452902  1
  O  O13  1  0.294853  0.160239  0.047098  1
  O  O14  1  0.205147  0.160239  0.547098  1
  O  O15  1  0.705147  0.839761  0.952902  1
  O  O16  1  0.209552  0.754664  0.949304  1
  O  O17  1  0.709552  0.245336  0.550696  1
  O  O18  1  0.790448  0.245336  0.050696  1
  O  O19  1  0.290448  0.754664  0.449304  1
