# generated using pymatgen
data_EuInGa3Ni
_symmetry_space_group_name_H-M   'P 1'
_cell_length_a   8.33063108
_cell_length_b   8.33063200
_cell_length_c   6.58268900
_cell_angle_alpha   90.00000000
_cell_angle_beta   90.00000000
_cell_angle_gamma   150.00643904
_symmetry_Int_Tables_number   1
_chemical_formula_structural   EuInGa3Ni
_chemical_formula_sum   'Eu2 In2 Ga6 Ni2'
_cell_volume   228.37294188
_cell_formula_units_Z   2
loop_
 _symmetry_equiv_pos_site_id
 _symmetry_equiv_pos_as_xyz
  1  'x, y, z'
loop_
 _atom_site_type_symbol
 _atom_site_label
 _atom_site_symmetry_multiplicity
 _atom_site_fract_x
 _atom_site_fract_y
 _atom_site_fract_z
 _atom_site_occupancy
  Eu  Eu0  1  0.877593  0.122407  0.750000  1
  Eu  Eu1  1  0.122407  0.877593  0.250000  1
  In  In2  1  0.500000  0.500000  0.000000  1
  In  In3  1  0.500000  0.500000  0.500000  1
  Ga  Ga4  1  0.078155  0.921845  0.750000  1
  Ga  Ga5  1  0.921845  0.078155  0.250000  1
  Ga  Ga6  1  0.691009  0.308991  0.948491  1
  Ga  Ga7  1  0.308991  0.691009  0.051509  1
  Ga  Ga8  1  0.691009  0.308991  0.551509  1
  Ga  Ga9  1  0.308991  0.691009  0.448491  1
  Ni  Ni10  1  0.223234  0.776766  0.750000  1
  Ni  Ni11  1  0.776766  0.223234  0.250000  1
