# generated using pymatgen
data_BaTh(ReO4)6
_symmetry_space_group_name_H-M   'P 1'
_cell_length_a   10.88289800
_cell_length_b   10.88289755
_cell_length_c   6.54398100
_cell_angle_alpha   90.00000000
_cell_angle_beta   90.00000000
_cell_angle_gamma   120.00000261
_symmetry_Int_Tables_number   1
_chemical_formula_structural   BaTh(ReO4)6
_chemical_formula_sum   'Ba1 Th1 Re6 O24'
_cell_volume   671.21514892
_cell_formula_units_Z   1
loop_
 _symmetry_equiv_pos_site_id
 _symmetry_equiv_pos_as_xyz
  1  'x, y, z'
loop_
 _atom_site_type_symbol
 _atom_site_label
 _atom_site_symmetry_multiplicity
 _atom_site_fract_x
 _atom_site_fract_y
 _atom_site_fract_z
 _atom_site_occupancy
  Ba  Ba0  1  0.666667  0.333333  0.750000  1
  Th  Th1  1  0.333333  0.666667  0.250000  1
  Re  Re2  1  0.109829  0.410258  0.750000  1
  Re  Re3  1  0.381545  0.317489  0.250000  1
  Re  Re4  1  0.589742  0.699569  0.750000  1
  Re  Re5  1  0.935943  0.618455  0.250000  1
  Re  Re6  1  0.300431  0.890171  0.750000  1
  Re  Re7  1  0.682511  0.064057  0.250000  1
  O  O8  1  0.481174  0.651665  0.528167  1
  O  O9  1  0.348335  0.829509  0.528167  1
  O  O10  1  0.895497  0.752901  0.250000  1
  O  O11  1  0.119348  0.823015  0.750000  1
  O  O12  1  0.247099  0.142596  0.250000  1
  O  O13  1  0.176985  0.296333  0.750000  1
  O  O14  1  0.487691  0.348718  0.033749  1
  O  O15  1  0.857404  0.104503  0.250000  1
  O  O16  1  0.124106  0.689273  0.250000  1
  O  O17  1  0.170491  0.518826  0.971833  1
  O  O18  1  0.170491  0.518826  0.528167  1
  O  O19  1  0.925533  0.312184  0.750000  1
  O  O20  1  0.310727  0.434832  0.250000  1
  O  O21  1  0.687816  0.613350  0.750000  1
  O  O22  1  0.861027  0.512309  0.466251  1
  O  O23  1  0.386650  0.074467  0.750000  1
  O  O24  1  0.651282  0.138973  0.033749  1
  O  O25  1  0.481174  0.651665  0.971833  1
  O  O26  1  0.348335  0.829509  0.971833  1
  O  O27  1  0.651282  0.138973  0.466251  1
  O  O28  1  0.487691  0.348718  0.466251  1
  O  O29  1  0.861027  0.512309  0.033749  1
  O  O30  1  0.703667  0.880652  0.750000  1
  O  O31  1  0.565168  0.875894  0.250000  1
