# generated using pymatgen
data_Ho4ErRuPb3
_symmetry_space_group_name_H-M   'P 1'
_cell_length_a   9.28353029
_cell_length_b   9.28353027
_cell_length_c   6.55509300
_cell_angle_alpha   90.00000000
_cell_angle_beta   90.00000000
_cell_angle_gamma   119.97131116
_symmetry_Int_Tables_number   1
_chemical_formula_structural   Ho4ErRuPb3
_chemical_formula_sum   'Ho8 Er2 Ru2 Pb6'
_cell_volume   489.39697726
_cell_formula_units_Z   2
loop_
 _symmetry_equiv_pos_site_id
 _symmetry_equiv_pos_as_xyz
  1  'x, y, z'
loop_
 _atom_site_type_symbol
 _atom_site_label
 _atom_site_symmetry_multiplicity
 _atom_site_fract_x
 _atom_site_fract_y
 _atom_site_fract_z
 _atom_site_occupancy
  Ho  Ho0  1  0.000044  0.763438  0.750000  1
  Ho  Ho1  1  0.236562  0.999956  0.250000  1
  Ho  Ho2  1  0.763438  0.000044  0.750000  1
  Ho  Ho3  1  0.333359  0.666641  0.500000  1
  Ho  Ho4  1  0.999956  0.236562  0.250000  1
  Ho  Ho5  1  0.666641  0.333359  0.500000  1
  Ho  Ho6  1  0.333359  0.666641  0.000000  1
  Ho  Ho7  1  0.666641  0.333359  0.000000  1
  Er  Er8  1  0.763556  0.763556  0.250000  1
  Er  Er9  1  0.236444  0.236444  0.750000  1
  Ru  Ru10  1  0.000000  0.000000  0.000000  1
  Ru  Ru11  1  0.000000  0.000000  0.500000  1
  Pb  Pb12  1  0.402560  0.402560  0.250000  1
  Pb  Pb13  1  0.999939  0.402228  0.750000  1
  Pb  Pb14  1  0.000061  0.597772  0.250000  1
  Pb  Pb15  1  0.597772  0.000061  0.250000  1
  Pb  Pb16  1  0.402228  0.999939  0.750000  1
  Pb  Pb17  1  0.597440  0.597440  0.750000  1
