# generated using pymatgen
data_Pu7Ta(ReB6)4
_symmetry_space_group_name_H-M   'P 1'
_cell_length_a   3.63430400
_cell_length_b   9.18781638
_cell_length_c   11.42033290
_cell_angle_alpha   90.82322352
_cell_angle_beta   90.00000000
_cell_angle_gamma   90.00000000
_symmetry_Int_Tables_number   1
_chemical_formula_structural   Pu7Ta(ReB6)4
_chemical_formula_sum   'Pu7 Ta1 Re4 B24'
_cell_volume   381.30060467
_cell_formula_units_Z   1
loop_
 _symmetry_equiv_pos_site_id
 _symmetry_equiv_pos_as_xyz
  1  'x, y, z'
loop_
 _atom_site_type_symbol
 _atom_site_label
 _atom_site_symmetry_multiplicity
 _atom_site_fract_x
 _atom_site_fract_y
 _atom_site_fract_z
 _atom_site_occupancy
  Pu  Pu0  1  0.000000  0.335117  0.410772  1
  Pu  Pu1  1  0.000000  0.665707  0.591760  1
  Pu  Pu2  1  0.000000  0.824762  0.087627  1
  Pu  Pu3  1  0.000000  0.173913  0.910894  1
  Pu  Pu4  1  0.000000  0.956274  0.397373  1
  Pu  Pu5  1  0.000000  0.044632  0.604370  1
  Pu  Pu6  1  0.000000  0.446697  0.124158  1
  Ta  Ta7  1  0.000000  0.554288  0.872627  1
  Re  Re8  1  0.000000  0.646034  0.320432  1
  Re  Re9  1  0.000000  0.358187  0.681922  1
  Re  Re10  1  0.000000  0.141040  0.180708  1
  Re  Re11  1  0.000000  0.852817  0.818990  1
  B  B12  1  0.500000  0.553142  0.433285  1
  B  B13  1  0.500000  0.448740  0.568972  1
  B  B14  1  0.500000  0.051892  0.066939  1
  B  B15  1  0.500000  0.943135  0.932618  1
  B  B16  1  0.500000  0.745066  0.422082  1
  B  B17  1  0.500000  0.255857  0.579555  1
  B  B18  1  0.500000  0.249564  0.078397  1
  B  B19  1  0.500000  0.745337  0.920279  1
  B  B20  1  0.500000  0.799585  0.269475  1
  B  B21  1  0.500000  0.200322  0.732148  1
  B  B22  1  0.500000  0.298096  0.230786  1
  B  B23  1  0.500000  0.697696  0.768678  1
  B  B24  1  0.500000  0.636257  0.184812  1
  B  B25  1  0.500000  0.367853  0.815834  1
  B  B26  1  0.500000  0.140332  0.313103  1
  B  B27  1  0.500000  0.858651  0.686917  1
  B  B28  1  0.500000  0.984676  0.217198  1
  B  B29  1  0.500000  0.014590  0.783521  1
  B  B30  1  0.500000  0.486654  0.285659  1
  B  B31  1  0.500000  0.516416  0.716299  1
  B  B32  1  0.500000  0.603170  0.022608  1
  B  B33  1  0.500000  0.401814  0.966476  1
  B  B34  1  0.500000  0.140235  0.463210  1
  B  B35  1  0.500000  0.861451  0.539513  1
