# generated using pymatgen
data_Ce5Th3(Ta3Si4)4
_symmetry_space_group_name_H-M   'P 1'
_cell_length_a   7.12453916
_cell_length_b   7.12461216
_cell_length_c   13.26900560
_cell_angle_alpha   89.97555289
_cell_angle_beta   90.02436998
_cell_angle_gamma   90.00233478
_symmetry_Int_Tables_number   1
_chemical_formula_structural   Ce5Th3(Ta3Si4)4
_chemical_formula_sum   'Ce5 Th3 Ta12 Si16'
_cell_volume   673.52900706
_cell_formula_units_Z   1
loop_
 _symmetry_equiv_pos_site_id
 _symmetry_equiv_pos_as_xyz
  1  'x, y, z'
loop_
 _atom_site_type_symbol
 _atom_site_label
 _atom_site_symmetry_multiplicity
 _atom_site_fract_x
 _atom_site_fract_y
 _atom_site_fract_z
 _atom_site_occupancy
  Ce  Ce0  1  0.998391  0.337091  0.216999  1
  Ce  Ce1  1  0.001158  0.663000  0.718134  1
  Ce  Ce2  1  0.163036  0.498517  0.467730  1
  Ce  Ce3  1  0.502609  0.835004  0.032278  1
  Ce  Ce4  1  0.835160  0.503301  0.968523  1
  Th  Th5  1  0.496799  0.165026  0.531843  1
  Th  Th6  1  0.335353  0.996513  0.782648  1
  Th  Th7  1  0.664655  0.002979  0.281392  1
  Ta  Ta8  1  0.168043  0.169154  0.000228  1
  Ta  Ta9  1  0.831603  0.831389  0.500065  1
  Ta  Ta10  1  0.331947  0.669304  0.249490  1
  Ta  Ta11  1  0.668550  0.331442  0.750566  1
  Ta  Ta12  1  0.159372  0.994236  0.373365  1
  Ta  Ta13  1  0.840920  0.004936  0.874259  1
  Ta  Ta14  1  0.506001  0.658928  0.623808  1
  Ta  Ta15  1  0.340539  0.494038  0.876174  1
  Ta  Ta16  1  0.493653  0.340864  0.123583  1
  Ta  Ta17  1  0.660703  0.505386  0.375534  1
  Ta  Ta18  1  0.995211  0.160563  0.625833  1
  Ta  Ta19  1  0.005123  0.839705  0.125783  1
  Si  Si20  1  0.289250  0.040615  0.184402  1
  Si  Si21  1  0.712831  0.957527  0.686555  1
  Si  Si22  1  0.457302  0.787314  0.436052  1
  Si  Si23  1  0.207572  0.540191  0.064093  1
  Si  Si24  1  0.542198  0.209125  0.937409  1
  Si  Si25  1  0.794818  0.462765  0.564645  1
  Si  Si26  1  0.037116  0.294925  0.815239  1
  Si  Si27  1  0.962416  0.705423  0.314027  1
  Si  Si28  1  0.370055  0.301422  0.313850  1
  Si  Si29  1  0.629054  0.699331  0.815068  1
  Si  Si30  1  0.198652  0.870223  0.564423  1
  Si  Si31  1  0.124900  0.795758  0.936826  1
  Si  Si32  1  0.798783  0.127330  0.064006  1
  Si  Si33  1  0.878479  0.204568  0.435328  1
  Si  Si34  1  0.295012  0.378495  0.685757  1
  Si  Si35  1  0.702736  0.623613  0.184084  1
