# generated using pymatgen
data_HoHf8ZrSn6
_symmetry_space_group_name_H-M   'P 1'
_cell_length_a   8.55732540
_cell_length_b   8.55732560
_cell_length_c   5.77190700
_cell_angle_alpha   90.00000000
_cell_angle_beta   90.00000000
_cell_angle_gamma   121.04779398
_symmetry_Int_Tables_number   1
_chemical_formula_structural   HoHf8ZrSn6
_chemical_formula_sum   'Ho1 Hf8 Zr1 Sn6'
_cell_volume   362.11218843
_cell_formula_units_Z   1
loop_
 _symmetry_equiv_pos_site_id
 _symmetry_equiv_pos_as_xyz
  1  'x, y, z'
loop_
 _atom_site_type_symbol
 _atom_site_label
 _atom_site_symmetry_multiplicity
 _atom_site_fract_x
 _atom_site_fract_y
 _atom_site_fract_z
 _atom_site_occupancy
  Ho  Ho0  1  0.768741  0.768741  0.750000  1
  Hf  Hf1  1  0.250505  0.001204  0.750000  1
  Hf  Hf2  1  0.001204  0.250505  0.750000  1
  Hf  Hf3  1  0.751037  0.000626  0.250000  1
  Hf  Hf4  1  0.000626  0.751037  0.250000  1
  Hf  Hf5  1  0.665164  0.333584  0.000377  1
  Hf  Hf6  1  0.333584  0.665164  0.000377  1
  Hf  Hf7  1  0.333584  0.665164  0.499623  1
  Hf  Hf8  1  0.665164  0.333584  0.499623  1
  Zr  Zr9  1  0.233513  0.233513  0.250000  1
  Sn  Sn10  1  0.390908  0.390908  0.750000  1
  Sn  Sn11  1  0.605869  0.003147  0.750000  1
  Sn  Sn12  1  0.003147  0.605869  0.750000  1
  Sn  Sn13  1  0.606136  0.606136  0.250000  1
  Sn  Sn14  1  0.391866  0.998947  0.250000  1
  Sn  Sn15  1  0.998947  0.391866  0.250000  1
