# generated using pymatgen
data_La3Tm5Np4O24
_symmetry_space_group_name_H-M   'P 1'
_cell_length_a   5.63361100
_cell_length_b   7.92889835
_cell_length_c   11.82891738
_cell_angle_alpha   74.41926233
_cell_angle_beta   90.00000000
_cell_angle_gamma   90.00000000
_symmetry_Int_Tables_number   1
_chemical_formula_structural   La3Tm5Np4O24
_chemical_formula_sum   'La3 Tm5 Np4 O24'
_cell_volume   508.96162553
_cell_formula_units_Z   1
loop_
 _symmetry_equiv_pos_site_id
 _symmetry_equiv_pos_as_xyz
  1  'x, y, z'
loop_
 _atom_site_type_symbol
 _atom_site_label
 _atom_site_symmetry_multiplicity
 _atom_site_fract_x
 _atom_site_fract_y
 _atom_site_fract_z
 _atom_site_occupancy
  La  La0  1  0.748341  0.000000  0.750000  1
  La  La1  1  0.695042  0.500000  0.750000  1
  La  La2  1  0.302493  0.500000  0.250000  1
  Tm  Tm3  1  0.252077  0.000000  0.250000  1
  Tm  Tm4  1  0.188214  0.795053  0.578126  1
  Tm  Tm5  1  0.815396  0.794578  0.081902  1
  Tm  Tm6  1  0.188214  0.204947  0.921874  1
  Tm  Tm7  1  0.815396  0.205422  0.418098  1
  Np  Np8  1  0.254699  0.720236  0.889814  1
  Np  Np9  1  0.743661  0.729796  0.385024  1
  Np  Np10  1  0.254699  0.279764  0.610186  1
  Np  Np11  1  0.743661  0.270204  0.114976  1
  O  O12  1  0.058369  0.943048  0.903546  1
  O  O13  1  0.554439  0.837475  0.939544  1
  O  O14  1  0.953461  0.948898  0.396107  1
  O  O15  1  0.439186  0.795204  0.727992  1
  O  O16  1  0.438548  0.848568  0.431349  1
  O  O17  1  0.976423  0.718675  0.766105  1
  O  O18  1  0.551240  0.806523  0.225024  1
  O  O19  1  0.882999  0.637579  0.549466  1
  O  O20  1  0.372885  0.478827  0.889554  1
  O  O21  1  0.028629  0.727806  0.263858  1
  O  O22  1  0.372885  0.521173  0.610446  1
  O  O23  1  0.882999  0.362421  0.950534  1
  O  O24  1  0.112236  0.629078  0.052991  1
  O  O25  1  0.630639  0.487224  0.384432  1
  O  O26  1  0.976423  0.281325  0.733895  1
  O  O27  1  0.630639  0.512776  0.115568  1
  O  O28  1  0.112236  0.370922  0.447009  1
  O  O29  1  0.439186  0.204796  0.772008  1
  O  O30  1  0.028629  0.272194  0.236142  1
  O  O31  1  0.554439  0.162525  0.560456  1
  O  O32  1  0.551240  0.193477  0.274976  1
  O  O33  1  0.058369  0.056952  0.596454  1
  O  O34  1  0.438548  0.151432  0.068651  1
  O  O35  1  0.953461  0.051102  0.103893  1
