# generated using pymatgen
data_Ho3Si3Ru2
_symmetry_space_group_name_H-M   'P 1'
_cell_length_a   5.72858895
_cell_length_b   5.72858816
_cell_length_c   13.72254600
_cell_angle_alpha   90.00000000
_cell_angle_beta   90.00000000
_cell_angle_gamma   137.29210781
_symmetry_Int_Tables_number   1
_chemical_formula_structural   Ho3Si3Ru2
_chemical_formula_sum   'Ho6 Si6 Ru4'
_cell_volume   305.44057946
_cell_formula_units_Z   2
loop_
 _symmetry_equiv_pos_site_id
 _symmetry_equiv_pos_as_xyz
  1  'x, y, z'
loop_
 _atom_site_type_symbol
 _atom_site_label
 _atom_site_symmetry_multiplicity
 _atom_site_fract_x
 _atom_site_fract_y
 _atom_site_fract_z
 _atom_site_occupancy
  Ho  Ho0  1  0.924045  0.075955  0.385464  1
  Ho  Ho1  1  0.075955  0.924045  0.614536  1
  Ho  Ho2  1  0.924045  0.075955  0.114536  1
  Ho  Ho3  1  0.075955  0.924045  0.885464  1
  Ho  Ho4  1  0.643759  0.356241  0.250000  1
  Ho  Ho5  1  0.356241  0.643759  0.750000  1
  Si  Si6  1  0.617317  0.382683  0.461464  1
  Si  Si7  1  0.382683  0.617317  0.538536  1
  Si  Si8  1  0.617317  0.382683  0.038536  1
  Si  Si9  1  0.382683  0.617317  0.961464  1
  Si  Si10  1  0.331157  0.668843  0.250000  1
  Si  Si11  1  0.668843  0.331157  0.750000  1
  Ru  Ru12  1  0.786511  0.213489  0.919022  1
  Ru  Ru13  1  0.213489  0.786511  0.080978  1
  Ru  Ru14  1  0.786511  0.213489  0.580978  1
  Ru  Ru15  1  0.213489  0.786511  0.419022  1
