# generated using pymatgen
data_Nd3Zr(P3Rh4)2
_symmetry_space_group_name_H-M   'P 1'
_cell_length_a   3.99420500
_cell_length_b   11.35139900
_cell_length_c   13.09758800
_cell_angle_alpha   90.00000000
_cell_angle_beta   90.00000000
_cell_angle_gamma   90.00000000
_symmetry_Int_Tables_number   1
_chemical_formula_structural   Nd3Zr(P3Rh4)2
_chemical_formula_sum   'Nd6 Zr2 P12 Rh16'
_cell_volume   593.84221219
_cell_formula_units_Z   2
loop_
 _symmetry_equiv_pos_site_id
 _symmetry_equiv_pos_as_xyz
  1  'x, y, z'
loop_
 _atom_site_type_symbol
 _atom_site_label
 _atom_site_symmetry_multiplicity
 _atom_site_fract_x
 _atom_site_fract_y
 _atom_site_fract_z
 _atom_site_occupancy
  Nd  Nd0  1  0.000000  0.500000  0.523767  1
  Nd  Nd1  1  0.500000  0.000000  0.476233  1
  Nd  Nd2  1  0.500000  0.819978  0.202794  1
  Nd  Nd3  1  0.500000  0.180022  0.202794  1
  Nd  Nd4  1  0.000000  0.680022  0.797206  1
  Nd  Nd5  1  0.000000  0.319978  0.797206  1
  Zr  Zr6  1  0.500000  0.500000  0.157957  1
  Zr  Zr7  1  0.000000  0.000000  0.842043  1
  P  P8  1  0.500000  0.500000  0.881616  1
  P  P9  1  0.000000  0.000000  0.118384  1
  P  P10  1  0.500000  0.500000  0.356651  1
  P  P11  1  0.000000  0.000000  0.643349  1
  P  P12  1  0.500000  0.310115  0.615237  1
  P  P13  1  0.500000  0.689885  0.615237  1
  P  P14  1  0.000000  0.189885  0.384763  1
  P  P15  1  0.000000  0.810115  0.384763  1
  P  P16  1  0.500000  0.843346  0.889668  1
  P  P17  1  0.500000  0.156654  0.889668  1
  P  P18  1  0.000000  0.656654  0.110332  1
  P  P19  1  0.000000  0.343346  0.110332  1
  Rh  Rh20  1  0.500000  0.500000  0.701630  1
  Rh  Rh21  1  0.000000  0.000000  0.298370  1
  Rh  Rh22  1  0.000000  0.500000  0.986574  1
  Rh  Rh23  1  0.500000  0.000000  0.013426  1
  Rh  Rh24  1  0.500000  0.331601  0.990735  1
  Rh  Rh25  1  0.500000  0.668399  0.990735  1
  Rh  Rh26  1  0.000000  0.168399  0.009265  1
  Rh  Rh27  1  0.000000  0.831601  0.009265  1
  Rh  Rh28  1  0.500000  0.292072  0.432376  1
  Rh  Rh29  1  0.500000  0.707928  0.432376  1
  Rh  Rh30  1  0.000000  0.207928  0.567624  1
  Rh  Rh31  1  0.000000  0.792072  0.567624  1
  Rh  Rh32  1  0.500000  0.874960  0.705358  1
  Rh  Rh33  1  0.500000  0.125040  0.705358  1
  Rh  Rh34  1  0.000000  0.625040  0.294642  1
  Rh  Rh35  1  0.000000  0.374960  0.294642  1
