# generated using pymatgen
data_YHo11(BCl3)4
_symmetry_space_group_name_H-M   'P 1'
_cell_length_a   9.38999122
_cell_length_b   9.38998840
_cell_length_c   9.39061902
_cell_angle_alpha   109.47589182
_cell_angle_beta   109.47582021
_cell_angle_gamma   109.46844936
_symmetry_Int_Tables_number   1
_chemical_formula_structural   YHo11(BCl3)4
_chemical_formula_sum   'Y1 Ho11 B4 Cl12'
_cell_volume   637.33494259
_cell_formula_units_Z   1
loop_
 _symmetry_equiv_pos_site_id
 _symmetry_equiv_pos_as_xyz
  1  'x, y, z'
loop_
 _atom_site_type_symbol
 _atom_site_label
 _atom_site_symmetry_multiplicity
 _atom_site_fract_x
 _atom_site_fract_y
 _atom_site_fract_z
 _atom_site_occupancy
  Y  Y0  1  0.234958  0.265037  0.750002  1
  Ho  Ho1  1  0.469276  0.484647  0.234704  1
  Ho  Ho2  1  0.749969  0.234607  0.265315  1
  Ho  Ho3  1  0.749958  0.015335  0.484594  1
  Ho  Ho4  1  0.234647  0.469268  0.484578  1
  Ho  Ho5  1  0.265390  0.750032  0.234683  1
  Ho  Ho6  1  0.030729  0.265352  0.015421  1
  Ho  Ho7  1  0.015357  0.030725  0.265302  1
  Ho  Ho8  1  0.484660  0.750042  0.015401  1
  Ho  Ho9  1  0.484664  0.234623  0.469232  1
  Ho  Ho10  1  0.015199  0.484800  0.749997  1
  Ho  Ho11  1  0.265376  0.015334  0.030767  1
  B  B12  1  0.250021  0.249980  0.250000  1
  B  B13  1  0.499998  0.000004  0.250001  1
  B  B14  1  0.999444  0.249992  0.499405  1
  B  B15  1  0.250010  0.500557  0.000595  1
  Cl  Cl16  1  0.250024  0.755980  0.744018  1
  Cl  Cl17  1  0.512432  0.506469  0.755945  1
  Cl  Cl18  1  0.988057  0.744010  0.994028  1
  Cl  Cl19  1  0.744021  0.249974  0.755980  1
  Cl  Cl20  1  0.993536  0.987572  0.744057  1
  Cl  Cl21  1  0.250004  0.993758  0.505727  1
  Cl  Cl22  1  0.755989  0.511940  0.505972  1
  Cl  Cl23  1  0.506239  0.249991  0.994270  1
  Cl  Cl24  1  0.756008  0.743998  0.250002  1
  Cl  Cl25  1  0.744022  0.994010  0.988037  1
  Cl  Cl26  1  0.994020  0.505982  0.250000  1
  Cl  Cl27  1  0.505993  0.755981  0.511966  1
