# generated using pymatgen
data_TbEr3(Si5Os3)2
_symmetry_space_group_name_H-M   'P 1'
_cell_length_a   8.12181777
_cell_length_b   8.11486060
_cell_length_c   5.78564645
_cell_angle_alpha   70.55465976
_cell_angle_beta   70.52508279
_cell_angle_gamma   94.05219975
_symmetry_Int_Tables_number   1
_chemical_formula_structural   TbEr3(Si5Os3)2
_chemical_formula_sum   'Tb1 Er3 Si10 Os6'
_cell_volume   331.84248515
_cell_formula_units_Z   1
loop_
 _symmetry_equiv_pos_site_id
 _symmetry_equiv_pos_as_xyz
  1  'x, y, z'
loop_
 _atom_site_type_symbol
 _atom_site_label
 _atom_site_symmetry_multiplicity
 _atom_site_fract_x
 _atom_site_fract_y
 _atom_site_fract_z
 _atom_site_occupancy
  Tb  Tb0  1  0.868252  0.601869  0.753152  1
  Er  Er1  1  0.399415  0.130312  0.746734  1
  Er  Er2  1  0.130724  0.399028  0.246898  1
  Er  Er3  1  0.601373  0.868451  0.253707  1
  Si  Si4  1  0.069461  0.261735  0.833237  1
  Si  Si5  1  0.737624  0.933103  0.666675  1
  Si  Si6  1  0.931878  0.738477  0.166223  1
  Si  Si7  1  0.261487  0.068590  0.333384  1
  Si  Si8  1  0.206656  0.794278  0.750024  1
  Si  Si9  1  0.793952  0.206348  0.249430  1
  Si  Si10  1  0.511695  0.486218  0.750843  1
  Si  Si11  1  0.486860  0.512187  0.249985  1
  Si  Si12  1  0.774768  0.224706  0.750190  1
  Si  Si13  1  0.225595  0.774804  0.249345  1
  Os  Os14  1  0.256250  0.544251  0.630999  1
  Os  Os15  1  0.456013  0.744339  0.868512  1
  Os  Os16  1  0.744018  0.455579  0.369315  1
  Os  Os17  1  0.543765  0.254579  0.131590  1
  Os  Os18  1  0.002439  0.998376  0.749622  1
  Os  Os19  1  0.997773  0.002770  0.250135  1
