# generated using pymatgen
data_K5Sm(CrH9)3
_symmetry_space_group_name_H-M   'P 1'
_cell_length_a   8.94240800
_cell_length_b   8.68232238
_cell_length_c   4.95290600
_cell_angle_alpha   90.00000000
_cell_angle_beta   90.00000000
_cell_angle_gamma   119.04248475
_symmetry_Int_Tables_number   1
_chemical_formula_structural   K5Sm(CrH9)3
_chemical_formula_sum   'K5 Sm1 Cr3 H27'
_cell_volume   336.19486292
_cell_formula_units_Z   1
loop_
 _symmetry_equiv_pos_site_id
 _symmetry_equiv_pos_as_xyz
  1  'x, y, z'
loop_
 _atom_site_type_symbol
 _atom_site_label
 _atom_site_symmetry_multiplicity
 _atom_site_fract_x
 _atom_site_fract_y
 _atom_site_fract_z
 _atom_site_occupancy
  K  K0  1  0.731649  0.740160  0.500000  1
  K  K1  1  0.268351  0.008511  0.500000  1
  K  K2  1  0.000000  0.612946  0.000000  1
  K  K3  1  0.419625  0.398301  0.000000  1
  K  K4  1  0.580375  0.978676  0.000000  1
  Sm  Sm5  1  0.000000  0.262408  0.500000  1
  Cr  Cr6  1  0.695991  0.324493  0.500000  1
  Cr  Cr7  1  0.304009  0.628503  0.500000  1
  Cr  Cr8  1  0.000000  0.030948  0.000000  1
  H  H9  1  0.806840  0.308902  0.750512  1
  H  H10  1  0.710104  0.465711  0.718719  1
  H  H11  1  0.546609  0.209862  0.712191  1
  H  H12  1  0.193160  0.502063  0.249488  1
  H  H13  1  0.546609  0.209862  0.287809  1
  H  H14  1  0.806840  0.308902  0.249488  1
  H  H15  1  0.710104  0.465711  0.281281  1
  H  H16  1  0.289896  0.755609  0.718719  1
  H  H17  1  0.453391  0.663253  0.712191  1
  H  H18  1  0.168666  0.013530  0.000000  1
  H  H19  1  0.831334  0.844862  0.000000  1
  H  H20  1  0.000000  0.220323  0.000000  1
  H  H21  1  0.865118  0.020633  0.228277  1
  H  H22  1  0.134882  0.155515  0.771723  1
  H  H23  1  0.000000  0.897199  0.781256  1
  H  H24  1  0.000000  0.897199  0.218744  1
  H  H25  1  0.134882  0.155515  0.228277  1
  H  H26  1  0.865118  0.020633  0.771723  1
  H  H27  1  0.136482  0.654912  0.500000  1
  H  H28  1  0.437900  0.831883  0.500000  1
  H  H29  1  0.325133  0.452384  0.500000  1
  H  H30  1  0.562100  0.393983  0.500000  1
  H  H31  1  0.863518  0.518430  0.500000  1
  H  H32  1  0.674867  0.127250  0.500000  1
  H  H33  1  0.193160  0.502063  0.750512  1
  H  H34  1  0.289896  0.755609  0.281281  1
  H  H35  1  0.453391  0.663253  0.287809  1
