# generated using pymatgen
data_La15PrCd2(HgIr2)2
_symmetry_space_group_name_H-M   'P 1'
_cell_length_a   10.10719171
_cell_length_b   10.10719187
_cell_length_c   10.12849500
_cell_angle_alpha   59.93025594
_cell_angle_beta   59.93025540
_cell_angle_gamma   59.85819026
_symmetry_Int_Tables_number   1
_chemical_formula_structural   La15PrCd2(HgIr2)2
_chemical_formula_sum   'La15 Pr1 Cd2 Hg2 Ir4'
_cell_volume   730.07197118
_cell_formula_units_Z   1
loop_
 _symmetry_equiv_pos_site_id
 _symmetry_equiv_pos_as_xyz
  1  'x, y, z'
loop_
 _atom_site_type_symbol
 _atom_site_label
 _atom_site_symmetry_multiplicity
 _atom_site_fract_x
 _atom_site_fract_y
 _atom_site_fract_z
 _atom_site_occupancy
  La  La0  1  0.347795  0.347795  0.347509  1
  La  La1  1  0.347795  0.347795  0.956899  1
  La  La2  1  0.348429  0.954297  0.348637  1
  La  La3  1  0.954297  0.348429  0.348637  1
  La  La4  1  0.809391  0.189589  0.191725  1
  La  La5  1  0.189589  0.809391  0.809293  1
  La  La6  1  0.189589  0.809391  0.191725  1
  La  La7  1  0.809391  0.189589  0.809293  1
  La  La8  1  0.189127  0.189127  0.810873  1
  La  La9  1  0.808345  0.808345  0.191655  1
  La  La10  1  0.939548  0.560301  0.560760  1
  La  La11  1  0.560301  0.939548  0.939391  1
  La  La12  1  0.560301  0.939548  0.560760  1
  La  La13  1  0.939548  0.560301  0.939391  1
  La  La14  1  0.560225  0.560225  0.939775  1
  Pr  Pr15  1  0.938972  0.938972  0.561028  1
  Cd  Cd16  1  0.579069  0.261777  0.579577  1
  Cd  Cd17  1  0.261777  0.579069  0.579577  1
  Hg  Hg18  1  0.582551  0.582551  0.584846  1
  Hg  Hg19  1  0.582551  0.582551  0.250050  1
  Ir  Ir20  1  0.141714  0.141714  0.140702  1
  Ir  Ir21  1  0.141714  0.141714  0.575869  1
  Ir  Ir22  1  0.141543  0.576432  0.141013  1
  Ir  Ir23  1  0.576432  0.141543  0.141013  1
