# generated using pymatgen
data_Ce2VOs3
_symmetry_space_group_name_H-M   'P 1'
_cell_length_a   5.64601885
_cell_length_b   5.13558533
_cell_length_c   5.64602000
_cell_angle_alpha   56.65386311
_cell_angle_beta   60.00000498
_cell_angle_gamma   56.65386507
_symmetry_Int_Tables_number   1
_chemical_formula_structural   Ce2VOs3
_chemical_formula_sum   'Ce2 V1 Os3'
_cell_volume   109.55534389
_cell_formula_units_Z   1
loop_
 _symmetry_equiv_pos_site_id
 _symmetry_equiv_pos_as_xyz
  1  'x, y, z'
loop_
 _atom_site_type_symbol
 _atom_site_label
 _atom_site_symmetry_multiplicity
 _atom_site_fract_x
 _atom_site_fract_y
 _atom_site_fract_z
 _atom_site_occupancy
  Ce  Ce0  1  0.748944  0.753168  0.748944  1
  Ce  Ce1  1  0.501056  0.496832  0.501056  1
  V  V2  1  0.125000  0.625000  0.125000  1
  Os  Os3  1  0.125000  0.125000  0.625000  1
  Os  Os4  1  0.625000  0.125000  0.125000  1
  Os  Os5  1  0.125000  0.125000  0.125000  1
