# generated using pymatgen
data_Sr3InSnPd2
_symmetry_space_group_name_H-M   'P 1'
_cell_length_a   6.22244600
_cell_length_b   9.03479400
_cell_length_c   14.43700800
_cell_angle_alpha   90.00000000
_cell_angle_beta   90.00000000
_cell_angle_gamma   90.00000000
_symmetry_Int_Tables_number   1
_chemical_formula_structural   Sr3InSnPd2
_chemical_formula_sum   'Sr12 In4 Sn4 Pd8'
_cell_volume   811.62719103
_cell_formula_units_Z   4
loop_
 _symmetry_equiv_pos_site_id
 _symmetry_equiv_pos_as_xyz
  1  'x, y, z'
loop_
 _atom_site_type_symbol
 _atom_site_label
 _atom_site_symmetry_multiplicity
 _atom_site_fract_x
 _atom_site_fract_y
 _atom_site_fract_z
 _atom_site_occupancy
  Sr  Sr0  1  0.146648  0.395844  0.599355  1
  Sr  Sr1  1  0.853352  0.604156  0.099355  1
  Sr  Sr2  1  0.146648  0.104156  0.400645  1
  Sr  Sr3  1  0.853352  0.895844  0.900645  1
  Sr  Sr4  1  0.853352  0.604156  0.400645  1
  Sr  Sr5  1  0.146648  0.395844  0.900645  1
  Sr  Sr6  1  0.853352  0.895844  0.599355  1
  Sr  Sr7  1  0.146648  0.104156  0.099355  1
  Sr  Sr8  1  0.647392  0.251592  0.750000  1
  Sr  Sr9  1  0.352608  0.748408  0.250000  1
  Sr  Sr10  1  0.647392  0.248408  0.250000  1
  Sr  Sr11  1  0.352608  0.751592  0.750000  1
  In  In12  1  0.632700  0.250000  0.500000  1
  In  In13  1  0.367300  0.750000  0.000000  1
  In  In14  1  0.367300  0.750000  0.500000  1
  In  In15  1  0.632700  0.250000  0.000000  1
  Sn  Sn16  1  0.158558  0.102102  0.750000  1
  Sn  Sn17  1  0.841442  0.897898  0.250000  1
  Sn  Sn18  1  0.158558  0.397898  0.250000  1
  Sn  Sn19  1  0.841442  0.602102  0.750000  1
  Pd  Pd20  1  0.378547  0.029917  0.588790  1
  Pd  Pd21  1  0.621453  0.970083  0.088790  1
  Pd  Pd22  1  0.378547  0.470083  0.411210  1
  Pd  Pd23  1  0.621453  0.529917  0.911210  1
  Pd  Pd24  1  0.621453  0.970083  0.411210  1
  Pd  Pd25  1  0.378547  0.029917  0.911210  1
  Pd  Pd26  1  0.621453  0.529917  0.588790  1
  Pd  Pd27  1  0.378547  0.470083  0.088790  1
