# generated using pymatgen
data_BaFeCoAs2
_symmetry_space_group_name_H-M   'P 1'
_cell_length_a   7.03063033
_cell_length_b   7.03063044
_cell_length_c   7.03062953
_cell_angle_alpha   147.55103960
_cell_angle_beta   147.55104109
_cell_angle_gamma   46.54856288
_symmetry_Int_Tables_number   1
_chemical_formula_structural   BaFeCoAs2
_chemical_formula_sum   'Ba1 Fe1 Co1 As2'
_cell_volume   99.68676705
_cell_formula_units_Z   1
loop_
 _symmetry_equiv_pos_site_id
 _symmetry_equiv_pos_as_xyz
  1  'x, y, z'
loop_
 _atom_site_type_symbol
 _atom_site_label
 _atom_site_symmetry_multiplicity
 _atom_site_fract_x
 _atom_site_fract_y
 _atom_site_fract_z
 _atom_site_occupancy
  Ba  Ba0  1  0.000000  0.000000  0.000000  1
  Fe  Fe1  1  0.750000  0.250000  0.500000  1
  Co  Co2  1  0.250000  0.750000  0.500000  1
  As  As3  1  0.653072  0.653072  0.000000  1
  As  As4  1  0.346928  0.346928  0.000000  1
