# generated using pymatgen
data_Pr2Nd3Th3(ZnRh)8
_symmetry_space_group_name_H-M   'P 1'
_cell_length_a   3.95620100
_cell_length_b   7.52157567
_cell_length_c   16.58073313
_cell_angle_alpha   90.16428031
_cell_angle_beta   90.00000000
_cell_angle_gamma   90.00000000
_symmetry_Int_Tables_number   1
_chemical_formula_structural   Pr2Nd3Th3(ZnRh)8
_chemical_formula_sum   'Pr2 Nd3 Th3 Zn8 Rh8'
_cell_volume   493.38861243
_cell_formula_units_Z   1
loop_
 _symmetry_equiv_pos_site_id
 _symmetry_equiv_pos_as_xyz
  1  'x, y, z'
loop_
 _atom_site_type_symbol
 _atom_site_label
 _atom_site_symmetry_multiplicity
 _atom_site_fract_x
 _atom_site_fract_y
 _atom_site_fract_z
 _atom_site_occupancy
  Pr  Pr0  1  0.750000  0.944890  0.283876  1
  Pr  Pr1  1  0.250000  0.053437  0.715360  1
  Nd  Nd2  1  0.750000  0.829090  0.061202  1
  Nd  Nd3  1  0.750000  0.449668  0.214256  1
  Nd  Nd4  1  0.250000  0.551366  0.785699  1
  Th  Th5  1  0.250000  0.171970  0.940466  1
  Th  Th6  1  0.250000  0.673022  0.561351  1
  Th  Th7  1  0.750000  0.326262  0.438473  1
  Zn  Zn8  1  0.750000  0.007191  0.561026  1
  Zn  Zn9  1  0.250000  0.620291  0.346174  1
  Zn  Zn10  1  0.750000  0.379950  0.654307  1
  Zn  Zn11  1  0.250000  0.502681  0.059852  1
  Zn  Zn12  1  0.750000  0.509479  0.940161  1
  Zn  Zn13  1  0.250000  0.992206  0.438543  1
  Zn  Zn14  1  0.250000  0.118892  0.151943  1
  Zn  Zn15  1  0.750000  0.878869  0.846528  1
  Rh  Rh16  1  0.750000  0.740143  0.441759  1
  Rh  Rh17  1  0.250000  0.250418  0.320371  1
  Rh  Rh18  1  0.750000  0.246927  0.821136  1
  Rh  Rh19  1  0.750000  0.748161  0.678950  1
  Rh  Rh20  1  0.250000  0.258949  0.558819  1
  Rh  Rh21  1  0.250000  0.744821  0.186685  1
  Rh  Rh22  1  0.750000  0.248230  0.059081  1
  Rh  Rh23  1  0.250000  0.753088  0.933983  1
