# generated using pymatgen
data_YHo3Er4(B6Os)4
_symmetry_space_group_name_H-M   'P 1'
_cell_length_a   3.64056700
_cell_length_b   9.12082300
_cell_length_c   11.50202900
_cell_angle_alpha   89.99964478
_cell_angle_beta   90.00000000
_cell_angle_gamma   90.00000000
_symmetry_Int_Tables_number   1
_chemical_formula_structural   YHo3Er4(B6Os)4
_chemical_formula_sum   'Y1 Ho3 Er4 B24 Os4'
_cell_volume   381.92449598
_cell_formula_units_Z   1
loop_
 _symmetry_equiv_pos_site_id
 _symmetry_equiv_pos_as_xyz
  1  'x, y, z'
loop_
 _atom_site_type_symbol
 _atom_site_label
 _atom_site_symmetry_multiplicity
 _atom_site_fract_x
 _atom_site_fract_y
 _atom_site_fract_z
 _atom_site_occupancy
  Y  Y0  1  0.000000  0.178235  0.913838  1
  Ho  Ho1  1  0.000000  0.321872  0.413854  1
  Ho  Ho2  1  0.000000  0.678118  0.586138  1
  Ho  Ho3  1  0.000000  0.821844  0.086162  1
  Er  Er4  1  0.000000  0.944238  0.373104  1
  Er  Er5  1  0.000000  0.055721  0.626848  1
  Er  Er6  1  0.000000  0.444343  0.126990  1
  Er  Er7  1  0.000000  0.555839  0.873075  1
  B  B8  1  0.500000  0.553986  0.433075  1
  B  B9  1  0.500000  0.446031  0.566895  1
  B  B10  1  0.500000  0.053840  0.067150  1
  B  B11  1  0.500000  0.945729  0.933076  1
  B  B12  1  0.500000  0.748658  0.420012  1
  B  B13  1  0.500000  0.251325  0.579935  1
  B  B14  1  0.500000  0.248762  0.080282  1
  B  B15  1  0.500000  0.751277  0.920027  1
  B  B16  1  0.500000  0.791582  0.266592  1
  B  B17  1  0.500000  0.208481  0.733170  1
  B  B18  1  0.500000  0.291616  0.233470  1
  B  B19  1  0.500000  0.708385  0.766559  1
  B  B20  1  0.500000  0.631777  0.185085  1
  B  B21  1  0.500000  0.368495  0.814758  1
  B  B22  1  0.500000  0.131755  0.314941  1
  B  B23  1  0.500000  0.868194  0.685035  1
  B  B24  1  0.500000  0.983141  0.213316  1
  B  B25  1  0.500000  0.016549  0.786560  1
  B  B26  1  0.500000  0.483185  0.286746  1
  B  B27  1  0.500000  0.516876  0.713241  1
  B  B28  1  0.500000  0.607302  0.029673  1
  B  B29  1  0.500000  0.393024  0.970423  1
  B  B30  1  0.500000  0.107309  0.470319  1
  B  B31  1  0.500000  0.892675  0.529665  1
  Os  Os32  1  0.000000  0.637879  0.321135  1
  Os  Os33  1  0.000000  0.362258  0.678722  1
  Os  Os34  1  0.000000  0.137865  0.179108  1
  Os  Os35  1  0.000000  0.861833  0.821021  1
