# generated using pymatgen
data_Sr2UVO6
_symmetry_space_group_name_H-M   'P 1'
_cell_length_a   5.80537564
_cell_length_b   5.81928787
_cell_length_c   8.40156633
_cell_angle_alpha   90.35412441
_cell_angle_beta   90.03606504
_cell_angle_gamma   89.87436570
_symmetry_Int_Tables_number   1
_chemical_formula_structural   Sr2UVO6
_chemical_formula_sum   'Sr4 U2 V2 O12'
_cell_volume   283.82523527
_cell_formula_units_Z   2
loop_
 _symmetry_equiv_pos_site_id
 _symmetry_equiv_pos_as_xyz
  1  'x, y, z'
loop_
 _atom_site_type_symbol
 _atom_site_label
 _atom_site_symmetry_multiplicity
 _atom_site_fract_x
 _atom_site_fract_y
 _atom_site_fract_z
 _atom_site_occupancy
  Sr  Sr0  1  0.999252  0.501289  0.249639  1
  Sr  Sr1  1  0.498662  0.001385  0.749892  1
  Sr  Sr2  1  0.501332  0.998622  0.250108  1
  Sr  Sr3  1  0.000752  0.498701  0.750359  1
  U  U4  1  0.000008  0.000004  0.999996  1
  U  U5  1  0.499983  0.500010  0.499998  1
  V  V6  1  0.000025  0.999974  0.500003  1
  V  V7  1  0.499980  0.500000  0.000002  1
  O  O8  1  0.000132  0.000147  0.254613  1
  O  O9  1  0.499748  0.500415  0.754472  1
  O  O10  1  0.500274  0.499580  0.245537  1
  O  O11  1  0.999844  0.999861  0.745374  1
  O  O12  1  0.701030  0.808113  0.500033  1
  O  O13  1  0.203020  0.308464  0.000006  1
  O  O14  1  0.796989  0.691530  0.000012  1
  O  O15  1  0.298960  0.191896  0.499952  1
  O  O16  1  0.690175  0.203792  0.000193  1
  O  O17  1  0.188525  0.704551  0.500151  1
  O  O18  1  0.811470  0.295441  0.499833  1
  O  O19  1  0.309836  0.796225  0.999826  1
