# generated using pymatgen
data_Dy10Si6C
_symmetry_space_group_name_H-M   'P 1'
_cell_length_a   8.46856900
_cell_length_b   8.46856885
_cell_length_c   6.37259600
_cell_angle_alpha   90.00000000
_cell_angle_beta   90.00000000
_cell_angle_gamma   119.99999669
_symmetry_Int_Tables_number   1
_chemical_formula_structural   Dy10Si6C
_chemical_formula_sum   'Dy10 Si6 C1'
_cell_volume   395.79206750
_cell_formula_units_Z   1
loop_
 _symmetry_equiv_pos_site_id
 _symmetry_equiv_pos_as_xyz
  1  'x, y, z'
loop_
 _atom_site_type_symbol
 _atom_site_label
 _atom_site_symmetry_multiplicity
 _atom_site_fract_x
 _atom_site_fract_y
 _atom_site_fract_z
 _atom_site_occupancy
  Dy  Dy0  1  0.000000  0.765082  0.269868  1
  Dy  Dy1  1  0.234918  0.234918  0.269868  1
  Dy  Dy2  1  0.765082  0.000000  0.269868  1
  Dy  Dy3  1  0.000000  0.234918  0.730132  1
  Dy  Dy4  1  0.765082  0.765082  0.730132  1
  Dy  Dy5  1  0.234918  0.000000  0.730132  1
  Dy  Dy6  1  0.333333  0.666667  0.000000  1
  Dy  Dy7  1  0.666667  0.333333  0.000000  1
  Dy  Dy8  1  0.666667  0.333333  0.500000  1
  Dy  Dy9  1  0.333333  0.666667  0.500000  1
  Si  Si10  1  0.000000  0.399264  0.252513  1
  Si  Si11  1  0.600736  0.600736  0.252513  1
  Si  Si12  1  0.399264  0.000000  0.252513  1
  Si  Si13  1  0.000000  0.600736  0.747487  1
  Si  Si14  1  0.399264  0.399264  0.747487  1
  Si  Si15  1  0.600736  0.000000  0.747487  1
  C  C16  1  0.000000  0.000000  0.500000  1
