# generated using pymatgen
data_CsAcHgS3
_symmetry_space_group_name_H-M   'P 1'
_cell_length_a   4.46664100
_cell_length_b   8.15091046
_cell_length_c   11.52779400
_cell_angle_alpha   90.00000000
_cell_angle_beta   90.00000000
_cell_angle_gamma   74.09778581
_symmetry_Int_Tables_number   1
_chemical_formula_structural   CsAcHgS3
_chemical_formula_sum   'Cs2 Ac2 Hg2 S6'
_cell_volume   403.63318695
_cell_formula_units_Z   2
loop_
 _symmetry_equiv_pos_site_id
 _symmetry_equiv_pos_as_xyz
  1  'x, y, z'
loop_
 _atom_site_type_symbol
 _atom_site_label
 _atom_site_symmetry_multiplicity
 _atom_site_fract_x
 _atom_site_fract_y
 _atom_site_fract_z
 _atom_site_occupancy
  Cs  Cs0  1  0.260051  0.479900  0.250000  1
  Cs  Cs1  1  0.739950  0.520100  0.750000  1
  Ac  Ac2  1  0.000000  0.000000  0.000000  1
  Ac  Ac3  1  0.000000  0.000000  0.500000  1
  Hg  Hg4  1  0.546243  0.907513  0.250000  1
  Hg  Hg5  1  0.453757  0.092486  0.750000  1
  S  S6  1  0.621734  0.756532  0.057536  1
  S  S7  1  0.943015  0.113969  0.250000  1
  S  S8  1  0.621734  0.756532  0.442465  1
  S  S9  1  0.378266  0.243468  0.557535  1
  S  S10  1  0.056985  0.886031  0.750000  1
  S  S11  1  0.378266  0.243468  0.942464  1
