# generated using pymatgen
data_Nd3NiI3
_symmetry_space_group_name_H-M   'P 1'
_cell_length_a   10.77105395
_cell_length_b   10.77104447
_cell_length_c   10.77163883
_cell_angle_alpha   109.11134420
_cell_angle_beta   109.11919797
_cell_angle_gamma   110.18544257
_symmetry_Int_Tables_number   1
_chemical_formula_structural   Nd3NiI3
_chemical_formula_sum   'Nd12 Ni4 I12'
_cell_volume   961.89013389
_cell_formula_units_Z   4
loop_
 _symmetry_equiv_pos_site_id
 _symmetry_equiv_pos_as_xyz
  1  'x, y, z'
loop_
 _atom_site_type_symbol
 _atom_site_label
 _atom_site_symmetry_multiplicity
 _atom_site_fract_x
 _atom_site_fract_y
 _atom_site_fract_z
 _atom_site_occupancy
  Nd  Nd0  1  0.397389  0.602662  0.999962  1
  Nd  Nd1  1  0.602562  0.397367  0.000011  1
  Nd  Nd2  1  0.647423  0.147404  0.294784  1
  Nd  Nd3  1  0.852615  0.352561  0.705213  1
  Nd  Nd4  1  0.420265  0.402828  0.272463  1
  Nd  Nd5  1  0.130473  0.147851  0.727593  1
  Nd  Nd6  1  0.119621  0.347182  0.517459  1
  Nd  Nd7  1  0.829636  0.602145  0.482516  1
  Nd  Nd8  1  0.597119  0.579698  0.727576  1
  Nd  Nd9  1  0.852147  0.869647  0.272412  1
  Nd  Nd10  1  0.652888  0.880443  0.482583  1
  Nd  Nd11  1  0.397879  0.170239  0.517504  1
  Ni  Ni12  1  0.625857  0.626120  0.252055  1
  Ni  Ni13  1  0.373905  0.373791  0.747671  1
  Ni  Ni14  1  0.876185  0.123864  0.499973  1
  Ni  Ni15  1  0.623881  0.376092  0.500010  1
  I  I16  1  0.365145  0.634981  0.500080  1
  I  I17  1  0.134808  0.865017  0.499902  1
  I  I18  1  0.115199  0.115096  0.230257  1
  I  I19  1  0.884903  0.884934  0.769849  1
  I  I20  1  0.891900  0.635373  0.004529  1
  I  I21  1  0.630919  0.887520  0.995446  1
  I  I22  1  0.619168  0.114555  0.756625  1
  I  I23  1  0.358088  0.862596  0.243490  1
  I  I24  1  0.364603  0.107940  0.995458  1
  I  I25  1  0.112676  0.369223  0.004623  1
  I  I26  1  0.885414  0.380870  0.243393  1
  I  I27  1  0.137333  0.641999  0.756562  1
