# generated using pymatgen
data_CaNbBrF12
_symmetry_space_group_name_H-M   'P 1'
_cell_length_a   11.79613384
_cell_length_b   5.93951455
_cell_length_c   5.94228744
_cell_angle_alpha   57.13578990
_cell_angle_beta   56.90057014
_cell_angle_gamma   56.87322002
_symmetry_Int_Tables_number   1
_chemical_formula_structural   CaNbBrF12
_chemical_formula_sum   'Ca1 Nb1 Br1 F12'
_cell_volume   273.81858544
_cell_formula_units_Z   1
loop_
 _symmetry_equiv_pos_site_id
 _symmetry_equiv_pos_as_xyz
  1  'x, y, z'
loop_
 _atom_site_type_symbol
 _atom_site_label
 _atom_site_symmetry_multiplicity
 _atom_site_fract_x
 _atom_site_fract_y
 _atom_site_fract_z
 _atom_site_occupancy
  Ca  Ca0  1  0.746984  0.508761  0.494681  1
  Nb  Nb1  1  0.014904  0.987595  0.991941  1
  Br  Br2  1  0.494046  0.006687  0.001853  1
  F  F3  1  0.168650  0.125800  0.760954  1
  F  F4  1  0.664019  0.138492  0.765035  1
  F  F5  1  0.060952  0.781383  0.327144  1
  F  F6  1  0.556286  0.778093  0.342582  1
  F  F7  1  0.114141  0.669535  0.873870  1
  F  F8  1  0.609049  0.671228  0.868910  1
  F  F9  1  0.437234  0.215197  0.697099  1
  F  F10  1  0.926792  0.235211  0.688480  1
  F  F11  1  0.341047  0.891882  0.211864  1
  F  F12  1  0.842566  0.860561  0.222112  1
  F  F13  1  0.388815  0.313277  0.114597  1
  F  F14  1  0.884516  0.316297  0.138879  1
