# generated using pymatgen
data_Lu2Sc2CrCoB12
_symmetry_space_group_name_H-M   'P 1'
_cell_length_a   3.40840300
_cell_length_b   8.89877662
_cell_length_c   11.26179735
_cell_angle_alpha   89.72734504
_cell_angle_beta   90.00000000
_cell_angle_gamma   90.00000000
_symmetry_Int_Tables_number   1
_chemical_formula_structural   Lu2Sc2CrCoB12
_chemical_formula_sum   'Lu4 Sc4 Cr2 Co2 B24'
_cell_volume   341.57339387
_cell_formula_units_Z   2
loop_
 _symmetry_equiv_pos_site_id
 _symmetry_equiv_pos_as_xyz
  1  'x, y, z'
loop_
 _atom_site_type_symbol
 _atom_site_label
 _atom_site_symmetry_multiplicity
 _atom_site_fract_x
 _atom_site_fract_y
 _atom_site_fract_z
 _atom_site_occupancy
  Lu  Lu0  1  0.000000  0.820215  0.086367  1
  Lu  Lu1  1  0.000000  0.179785  0.913633  1
  Lu  Lu2  1  0.000000  0.323154  0.415674  1
  Lu  Lu3  1  0.000000  0.676846  0.584326  1
  Sc  Sc4  1  0.000000  0.444881  0.129063  1
  Sc  Sc5  1  0.000000  0.555119  0.870937  1
  Sc  Sc6  1  0.000000  0.942756  0.371367  1
  Sc  Sc7  1  0.000000  0.057244  0.628633  1
  Cr  Cr8  1  0.000000  0.641212  0.317196  1
  Cr  Cr9  1  0.000000  0.358788  0.682804  1
  Co  Co10  1  0.000000  0.140288  0.180583  1
  Co  Co11  1  0.000000  0.859712  0.819417  1
  B  B12  1  0.500000  0.054864  0.066551  1
  B  B13  1  0.500000  0.945136  0.933449  1
  B  B14  1  0.500000  0.553334  0.432703  1
  B  B15  1  0.500000  0.446666  0.567297  1
  B  B16  1  0.500000  0.250743  0.081523  1
  B  B17  1  0.500000  0.749257  0.918477  1
  B  B18  1  0.500000  0.751808  0.418754  1
  B  B19  1  0.500000  0.248192  0.581246  1
  B  B20  1  0.500000  0.292376  0.235439  1
  B  B21  1  0.500000  0.707624  0.764561  1
  B  B22  1  0.500000  0.795759  0.263935  1
  B  B23  1  0.500000  0.204241  0.736065  1
  B  B24  1  0.500000  0.130514  0.316487  1
  B  B25  1  0.500000  0.869486  0.683513  1
  B  B26  1  0.500000  0.630568  0.182569  1
  B  B27  1  0.500000  0.369432  0.817431  1
  B  B28  1  0.500000  0.480551  0.286305  1
  B  B29  1  0.500000  0.519449  0.713695  1
  B  B30  1  0.500000  0.984152  0.212274  1
  B  B31  1  0.500000  0.015848  0.787726  1
  B  B32  1  0.500000  0.099596  0.472443  1
  B  B33  1  0.500000  0.900404  0.527557  1
  B  B34  1  0.500000  0.600157  0.026248  1
  B  B35  1  0.500000  0.399843  0.973752  1
