# generated using pymatgen
data_Sm4AlV3(WO6)4
_symmetry_space_group_name_H-M   'P 1'
_cell_length_a   5.31624796
_cell_length_b   7.48137849
_cell_length_c   11.11176009
_cell_angle_alpha   89.86736835
_cell_angle_beta   90.15080211
_cell_angle_gamma   89.95829882
_symmetry_Int_Tables_number   1
_chemical_formula_structural   Sm4AlV3(WO6)4
_chemical_formula_sum   'Sm4 Al1 V3 W4 O24'
_cell_volume   441.94367971
_cell_formula_units_Z   1
loop_
 _symmetry_equiv_pos_site_id
 _symmetry_equiv_pos_as_xyz
  1  'x, y, z'
loop_
 _atom_site_type_symbol
 _atom_site_label
 _atom_site_symmetry_multiplicity
 _atom_site_fract_x
 _atom_site_fract_y
 _atom_site_fract_z
 _atom_site_occupancy
  Sm  Sm0  1  0.546893  0.254671  0.047217  1
  Sm  Sm1  1  0.045229  0.753312  0.451252  1
  Sm  Sm2  1  0.956401  0.253701  0.544888  1
  Sm  Sm3  1  0.455668  0.751386  0.959979  1
  Al  Al4  1  0.044823  0.507839  0.135122  1
  V  V5  1  0.551944  0.005487  0.364918  1
  V  V6  1  0.451460  0.506267  0.633848  1
  V  V7  1  0.949908  0.005087  0.865738  1
  W  W8  1  0.057145  0.999374  0.143328  1
  W  W9  1  0.552986  0.498288  0.351668  1
  W  W10  1  0.444756  0.998397  0.643951  1
  W  W11  1  0.946636  0.498758  0.859183  1
  O  O12  1  0.769651  0.540728  0.025552  1
  O  O13  1  0.766783  0.963231  0.030489  1
  O  O14  1  0.157032  0.750767  0.121382  1
  O  O15  1  0.952582  0.251273  0.142447  1
  O  O16  1  0.374318  0.065421  0.207406  1
  O  O17  1  0.364355  0.446364  0.213009  1
  O  O18  1  0.888582  0.942293  0.286645  1
  O  O19  1  0.866827  0.559376  0.279322  1
  O  O20  1  0.448080  0.746873  0.355216  1
  O  O21  1  0.666904  0.256309  0.378591  1
  O  O22  1  0.267521  0.461429  0.468133  1
  O  O23  1  0.260915  0.042149  0.479483  1
  O  O24  1  0.739800  0.542273  0.515548  1
  O  O25  1  0.733916  0.960884  0.530134  1
  O  O26  1  0.330102  0.754986  0.617264  1
  O  O27  1  0.558329  0.246749  0.642849  1
  O  O28  1  0.130650  0.067602  0.708085  1
  O  O29  1  0.117051  0.440347  0.716699  1
  O  O30  1  0.612546  0.938228  0.786447  1
  O  O31  1  0.630027  0.566418  0.795625  1
  O  O32  1  0.060339  0.746002  0.857081  1
  O  O33  1  0.831779  0.254846  0.881491  1
  O  O34  1  0.227194  0.463168  0.979563  1
  O  O35  1  0.240855  0.040121  0.980450  1
