# generated using pymatgen
data_Dy6VMoO12
_symmetry_space_group_name_H-M   'P 1'
_cell_length_a   6.57383415
_cell_length_b   6.57383436
_cell_length_c   6.57383400
_cell_angle_alpha   92.66224566
_cell_angle_beta   92.66224575
_cell_angle_gamma   92.66224670
_symmetry_Int_Tables_number   1
_chemical_formula_structural   Dy6VMoO12
_chemical_formula_sum   'Dy6 V1 Mo1 O12'
_cell_volume   283.14077173
_cell_formula_units_Z   1
loop_
 _symmetry_equiv_pos_site_id
 _symmetry_equiv_pos_as_xyz
  1  'x, y, z'
loop_
 _atom_site_type_symbol
 _atom_site_label
 _atom_site_symmetry_multiplicity
 _atom_site_fract_x
 _atom_site_fract_y
 _atom_site_fract_z
 _atom_site_occupancy
  Dy  Dy0  1  0.742371  0.926828  0.436460  1
  Dy  Dy1  1  0.926828  0.436460  0.742371  1
  Dy  Dy2  1  0.436460  0.742371  0.926828  1
  Dy  Dy3  1  0.257629  0.073172  0.563540  1
  Dy  Dy4  1  0.073172  0.563540  0.257629  1
  Dy  Dy5  1  0.563540  0.257629  0.073172  1
  V  V6  1  0.500000  0.500000  0.500000  1
  Mo  Mo7  1  0.000000  0.000000  0.000000  1
  O  O8  1  0.589049  0.461086  0.800756  1
  O  O9  1  0.461086  0.800756  0.589049  1
  O  O10  1  0.800756  0.589049  0.461086  1
  O  O11  1  0.410951  0.538914  0.199244  1
  O  O12  1  0.538914  0.199244  0.410951  1
  O  O13  1  0.199244  0.410951  0.538914  1
  O  O14  1  0.068801  0.911503  0.311428  1
  O  O15  1  0.911503  0.311428  0.068801  1
  O  O16  1  0.688572  0.931199  0.088497  1
  O  O17  1  0.088497  0.688572  0.931199  1
  O  O18  1  0.931199  0.088497  0.688572  1
  O  O19  1  0.311428  0.068801  0.911503  1
