# generated using pymatgen
data_Ce2Hf3InF22
_symmetry_space_group_name_H-M   'P 1'
_cell_length_a   8.40180464
_cell_length_b   8.40180597
_cell_length_c   8.43890470
_cell_angle_alpha   125.02002246
_cell_angle_beta   106.41952039
_cell_angle_gamma   98.02972724
_symmetry_Int_Tables_number   1
_chemical_formula_structural   Ce2Hf3InF22
_chemical_formula_sum   'Ce2 Hf3 In1 F22'
_cell_volume   432.01964041
_cell_formula_units_Z   1
loop_
 _symmetry_equiv_pos_site_id
 _symmetry_equiv_pos_as_xyz
  1  'x, y, z'
loop_
 _atom_site_type_symbol
 _atom_site_label
 _atom_site_symmetry_multiplicity
 _atom_site_fract_x
 _atom_site_fract_y
 _atom_site_fract_z
 _atom_site_occupancy
  Ce  Ce0  1  0.749514  0.248062  0.496330  1
  Ce  Ce1  1  0.248267  0.746816  0.496330  1
  Hf  Hf2  1  0.320970  0.366382  0.687352  1
  Hf  Hf3  1  0.179632  0.866822  0.046455  1
  Hf  Hf4  1  0.816645  0.135432  0.952076  1
  In  In5  1  0.681385  0.637126  0.318511  1
  F  F6  1  0.706661  0.910287  0.344988  1
  F  F7  1  0.293401  0.100915  0.653992  1
  F  F8  1  0.553076  0.360592  0.653992  1
  F  F9  1  0.946343  0.605344  0.812915  1
  F  F10  1  0.434701  0.638327  0.344988  1
  F  F11  1  0.056066  0.391443  0.185513  1
  F  F12  1  0.794069  0.129446  0.185513  1
  F  F13  1  0.207571  0.866572  0.812915  1
  F  F14  1  0.494430  0.496014  0.990444  1
  F  F15  1  0.002245  0.002253  0.004498  1
  F  F16  1  0.783546  0.878228  0.661774  1
  F  F17  1  0.221136  0.130137  0.351272  1
  F  F18  1  0.277941  0.630461  0.908402  1
  F  F19  1  0.719733  0.364115  0.083847  1
  F  F20  1  0.967426  0.738850  0.421594  1
  F  F21  1  0.048716  0.263807  0.584149  1
  F  F22  1  0.320342  0.535433  0.584149  1
  F  F23  1  0.175925  0.761402  0.211964  1
  F  F24  1  0.682743  0.454168  0.421594  1
  F  F25  1  0.823506  0.242794  0.786241  1
  F  F26  1  0.543447  0.962734  0.786241  1
  F  F27  1  0.450563  0.036039  0.211964  1
