# generated using pymatgen
data_Dy4TcOs4Ru3
_symmetry_space_group_name_H-M   'P 1'
_cell_length_a   5.36847797
_cell_length_b   5.16395601
_cell_length_c   9.05834600
_cell_angle_alpha   90.00000000
_cell_angle_beta   90.00000000
_cell_angle_gamma   119.97739484
_symmetry_Int_Tables_number   1
_chemical_formula_structural   Dy4TcOs4Ru3
_chemical_formula_sum   'Dy4 Tc1 Os4 Ru3'
_cell_volume   217.52647723
_cell_formula_units_Z   1
loop_
 _symmetry_equiv_pos_site_id
 _symmetry_equiv_pos_as_xyz
  1  'x, y, z'
loop_
 _atom_site_type_symbol
 _atom_site_label
 _atom_site_symmetry_multiplicity
 _atom_site_fract_x
 _atom_site_fract_y
 _atom_site_fract_z
 _atom_site_occupancy
  Dy  Dy0  1  0.669458  0.336137  0.565332  1
  Dy  Dy1  1  0.330564  0.664783  0.433380  1
  Dy  Dy2  1  0.330564  0.664783  0.066620  1
  Dy  Dy3  1  0.669458  0.336137  0.934668  1
  Tc  Tc4  1  0.168960  0.334627  0.750000  1
  Os  Os5  1  0.170538  0.829834  0.750000  1
  Os  Os6  1  0.656074  0.827527  0.750000  1
  Os  Os7  1  0.834533  0.663895  0.250000  1
  Os  Os8  1  0.834255  0.171174  0.250000  1
  Ru  Ru9  1  0.993035  0.998474  0.498502  1
  Ru  Ru10  1  0.993035  0.998474  0.001498  1
  Ru  Ru11  1  0.349526  0.174153  0.250000  1
