# generated using pymatgen
data_LuMoN2
_symmetry_space_group_name_H-M   'P 1'
_cell_length_a   3.14533800
_cell_length_b   5.62171600
_cell_length_c   10.48412200
_cell_angle_alpha   90.00000000
_cell_angle_beta   90.00000000
_cell_angle_gamma   90.00000000
_symmetry_Int_Tables_number   1
_chemical_formula_structural   LuMoN2
_chemical_formula_sum   'Lu4 Mo4 N8'
_cell_volume   185.38231016
_cell_formula_units_Z   4
loop_
 _symmetry_equiv_pos_site_id
 _symmetry_equiv_pos_as_xyz
  1  'x, y, z'
loop_
 _atom_site_type_symbol
 _atom_site_label
 _atom_site_symmetry_multiplicity
 _atom_site_fract_x
 _atom_site_fract_y
 _atom_site_fract_z
 _atom_site_occupancy
  Lu  Lu0  1  0.250000  0.078217  0.853458  1
  Lu  Lu1  1  0.250000  0.578217  0.646542  1
  Lu  Lu2  1  0.750000  0.921783  0.146542  1
  Lu  Lu3  1  0.750000  0.421783  0.353458  1
  Mo  Mo4  1  0.250000  0.431833  0.093816  1
  Mo  Mo5  1  0.250000  0.931833  0.406184  1
  Mo  Mo6  1  0.750000  0.568167  0.906184  1
  Mo  Mo7  1  0.750000  0.068167  0.593816  1
  N  N8  1  0.250000  0.164928  0.248177  1
  N  N9  1  0.250000  0.664928  0.251823  1
  N  N10  1  0.750000  0.835072  0.751823  1
  N  N11  1  0.750000  0.335072  0.748177  1
  N  N12  1  0.250000  0.766776  0.995242  1
  N  N13  1  0.250000  0.266776  0.504758  1
  N  N14  1  0.750000  0.233224  0.004758  1
  N  N15  1  0.750000  0.733224  0.495242  1
