# generated using pymatgen
data_Tc6Te7Cl4
_symmetry_space_group_name_H-M   'P 1'
_cell_length_a   12.46937875
_cell_length_b   12.46937847
_cell_length_c   12.46937790
_cell_angle_alpha   49.16952692
_cell_angle_beta   49.16952005
_cell_angle_gamma   49.16952338
_symmetry_Int_Tables_number   1
_chemical_formula_structural   Tc6Te7Cl4
_chemical_formula_sum   'Tc12 Te14 Cl8'
_cell_volume   1019.56996537
_cell_formula_units_Z   2
loop_
 _symmetry_equiv_pos_site_id
 _symmetry_equiv_pos_as_xyz
  1  'x, y, z'
loop_
 _atom_site_type_symbol
 _atom_site_label
 _atom_site_symmetry_multiplicity
 _atom_site_fract_x
 _atom_site_fract_y
 _atom_site_fract_z
 _atom_site_occupancy
  Tc  Tc0  1  0.538871  0.382581  0.680498  1
  Tc  Tc1  1  0.382581  0.680498  0.538871  1
  Tc  Tc2  1  0.680498  0.538871  0.382581  1
  Tc  Tc3  1  0.180498  0.882581  0.038871  1
  Tc  Tc4  1  0.882581  0.038871  0.180498  1
  Tc  Tc5  1  0.038871  0.180498  0.882581  1
  Tc  Tc6  1  0.461820  0.615936  0.320332  1
  Tc  Tc7  1  0.615936  0.320332  0.461820  1
  Tc  Tc8  1  0.320332  0.461820  0.615936  1
  Tc  Tc9  1  0.820332  0.115936  0.961820  1
  Tc  Tc10  1  0.115936  0.961820  0.820332  1
  Tc  Tc11  1  0.961820  0.820332  0.115936  1
  Te  Te12  1  0.835447  0.235135  0.521776  1
  Te  Te13  1  0.235135  0.521776  0.835447  1
  Te  Te14  1  0.521776  0.835447  0.235135  1
  Te  Te15  1  0.021776  0.735135  0.335447  1
  Te  Te16  1  0.735135  0.335447  0.021776  1
  Te  Te17  1  0.335447  0.021776  0.735135  1
  Te  Te18  1  0.163516  0.766322  0.475651  1
  Te  Te19  1  0.766322  0.475651  0.163516  1
  Te  Te20  1  0.475651  0.163516  0.766322  1
  Te  Te21  1  0.975651  0.266322  0.663516  1
  Te  Te22  1  0.266322  0.663516  0.975651  1
  Te  Te23  1  0.663516  0.975651  0.266322  1
  Te  Te24  1  0.600954  0.600954  0.600954  1
  Te  Te25  1  0.100954  0.100954  0.100954  1
  Cl  Cl26  1  0.927421  0.578882  0.239117  1
  Cl  Cl27  1  0.578882  0.239117  0.927421  1
  Cl  Cl28  1  0.239117  0.927421  0.578882  1
  Cl  Cl29  1  0.739117  0.078882  0.427421  1
  Cl  Cl30  1  0.078882  0.427421  0.739117  1
  Cl  Cl31  1  0.427421  0.739117  0.078882  1
  Cl  Cl32  1  0.405704  0.405704  0.405704  1
  Cl  Cl33  1  0.905704  0.905704  0.905704  1
