# generated using pymatgen
data_Dy5Y3Tc(B8Ru)3
_symmetry_space_group_name_H-M   'P 1'
_cell_length_a   3.67475100
_cell_length_b   9.15194509
_cell_length_c   11.53685400
_cell_angle_alpha   89.89795039
_cell_angle_beta   90.00000000
_cell_angle_gamma   90.00000000
_symmetry_Int_Tables_number   1
_chemical_formula_structural   Dy5Y3Tc(B8Ru)3
_chemical_formula_sum   'Dy5 Y3 Tc1 B24 Ru3'
_cell_volume   387.99669858
_cell_formula_units_Z   1
loop_
 _symmetry_equiv_pos_site_id
 _symmetry_equiv_pos_as_xyz
  1  'x, y, z'
loop_
 _atom_site_type_symbol
 _atom_site_label
 _atom_site_symmetry_multiplicity
 _atom_site_fract_x
 _atom_site_fract_y
 _atom_site_fract_z
 _atom_site_occupancy
  Dy  Dy0  1  0.000000  0.176400  0.914971  1
  Dy  Dy1  1  0.000000  0.943605  0.372277  1
  Dy  Dy2  1  0.000000  0.057008  0.628428  1
  Dy  Dy3  1  0.000000  0.444226  0.128136  1
  Dy  Dy4  1  0.000000  0.556576  0.871238  1
  Y  Y5  1  0.000000  0.324633  0.413256  1
  Y  Y6  1  0.000000  0.676440  0.583545  1
  Y  Y7  1  0.000000  0.821095  0.088013  1
  Tc  Tc8  1  0.000000  0.637981  0.321144  1
  B  B9  1  0.500000  0.553138  0.433010  1
  B  B10  1  0.500000  0.446098  0.567623  1
  B  B11  1  0.500000  0.054066  0.067257  1
  B  B12  1  0.500000  0.946037  0.932884  1
  B  B13  1  0.500000  0.748151  0.419429  1
  B  B14  1  0.500000  0.252167  0.580644  1
  B  B15  1  0.500000  0.247897  0.080274  1
  B  B16  1  0.500000  0.751932  0.919486  1
  B  B17  1  0.500000  0.791635  0.266303  1
  B  B18  1  0.500000  0.209047  0.733774  1
  B  B19  1  0.500000  0.290999  0.232910  1
  B  B20  1  0.500000  0.709468  0.766340  1
  B  B21  1  0.500000  0.632070  0.185757  1
  B  B22  1  0.500000  0.367472  0.814658  1
  B  B23  1  0.500000  0.132195  0.314034  1
  B  B24  1  0.500000  0.868275  0.685588  1
  B  B25  1  0.500000  0.984004  0.212674  1
  B  B26  1  0.500000  0.016070  0.787831  1
  B  B27  1  0.500000  0.483128  0.287287  1
  B  B28  1  0.500000  0.515676  0.712667  1
  B  B29  1  0.500000  0.608315  0.029338  1
  B  B30  1  0.500000  0.391083  0.969569  1
  B  B31  1  0.500000  0.109063  0.470232  1
  B  B32  1  0.500000  0.892392  0.530421  1
  Ru  Ru33  1  0.000000  0.361516  0.679493  1
  Ru  Ru34  1  0.000000  0.138020  0.178275  1
  Ru  Ru35  1  0.000000  0.862124  0.821234  1
