# generated using pymatgen
data_Tb3Er4Tm(CdIr)2
_symmetry_space_group_name_H-M   'P 1'
_cell_length_a   9.59608164
_cell_length_b   9.59608184
_cell_length_c   9.59497700
_cell_angle_alpha   60.00380511
_cell_angle_beta   60.00380442
_cell_angle_gamma   59.99238583
_symmetry_Int_Tables_number   1
_chemical_formula_structural   Tb3Er4Tm(CdIr)2
_chemical_formula_sum   'Tb6 Er8 Tm2 Cd4 Ir4'
_cell_volume   624.76514268
_cell_formula_units_Z   2
loop_
 _symmetry_equiv_pos_site_id
 _symmetry_equiv_pos_as_xyz
  1  'x, y, z'
loop_
 _atom_site_type_symbol
 _atom_site_label
 _atom_site_symmetry_multiplicity
 _atom_site_fract_x
 _atom_site_fract_y
 _atom_site_fract_z
 _atom_site_occupancy
  Tb  Tb0  1  0.188813  0.811187  0.811187  1
  Tb  Tb1  1  0.811187  0.188813  0.188813  1
  Tb  Tb2  1  0.811187  0.188813  0.811187  1
  Tb  Tb3  1  0.188813  0.811187  0.188813  1
  Tb  Tb4  1  0.811207  0.811207  0.188793  1
  Tb  Tb5  1  0.188793  0.188793  0.811207  1
  Er  Er6  1  0.598731  0.598731  0.598769  1
  Er  Er7  1  0.598731  0.598731  0.203768  1
  Er  Er8  1  0.598769  0.203768  0.598731  1
  Er  Er9  1  0.203768  0.598769  0.598731  1
  Er  Er10  1  0.061652  0.438348  0.438348  1
  Er  Er11  1  0.438348  0.061652  0.061652  1
  Er  Er12  1  0.438348  0.061652  0.438348  1
  Er  Er13  1  0.061652  0.438348  0.061652  1
  Tm  Tm14  1  0.438371  0.438371  0.061629  1
  Tm  Tm15  1  0.061629  0.061629  0.438371  1
  Cd  Cd16  1  0.830588  0.830588  0.830575  1
  Cd  Cd17  1  0.830588  0.830588  0.508250  1
  Cd  Cd18  1  0.830575  0.508250  0.830588  1
  Cd  Cd19  1  0.508250  0.830575  0.830588  1
  Ir  Ir20  1  0.391740  0.391740  0.391581  1
  Ir  Ir21  1  0.391740  0.391740  0.824939  1
  Ir  Ir22  1  0.391581  0.824939  0.391740  1
  Ir  Ir23  1  0.824939  0.391581  0.391740  1
