# generated using pymatgen
data_GeMo6Pt(RhN)2
_symmetry_space_group_name_H-M   'P 1'
_cell_length_a   6.86641800
_cell_length_b   6.85645842
_cell_length_c   6.86092700
_cell_angle_alpha   89.44694361
_cell_angle_beta   90.00000000
_cell_angle_gamma   90.00000000
_symmetry_Int_Tables_number   1
_chemical_formula_structural   GeMo6Pt(RhN)2
_chemical_formula_sum   'Ge2 Mo12 Pt2 Rh4 N4'
_cell_volume   322.99265789
_cell_formula_units_Z   2
loop_
 _symmetry_equiv_pos_site_id
 _symmetry_equiv_pos_as_xyz
  1  'x, y, z'
loop_
 _atom_site_type_symbol
 _atom_site_label
 _atom_site_symmetry_multiplicity
 _atom_site_fract_x
 _atom_site_fract_y
 _atom_site_fract_z
 _atom_site_occupancy
  Ge  Ge0  1  0.685148  0.176882  0.936035  1
  Ge  Ge1  1  0.185148  0.823118  0.063965  1
  Mo  Mo2  1  0.618918  0.045967  0.543670  1
  Mo  Mo3  1  0.118918  0.954033  0.456330  1
  Mo  Mo4  1  0.868132  0.535824  0.944744  1
  Mo  Mo5  1  0.368132  0.464176  0.055256  1
  Mo  Mo6  1  0.203626  0.622838  0.698486  1
  Mo  Mo7  1  0.299983  0.124343  0.785574  1
  Mo  Mo8  1  0.799983  0.875657  0.214426  1
  Mo  Mo9  1  0.703626  0.377162  0.301514  1
  Mo  Mo10  1  0.047531  0.208832  0.129960  1
  Mo  Mo11  1  0.961219  0.301607  0.623804  1
  Mo  Mo12  1  0.547531  0.791168  0.870040  1
  Mo  Mo13  1  0.461219  0.698393  0.376196  1
  Pt  Pt14  1  0.811818  0.685687  0.566662  1
  Pt  Pt15  1  0.311818  0.314313  0.433338  1
  Rh  Rh16  1  0.062357  0.573617  0.295865  1
  Rh  Rh17  1  0.436095  0.060960  0.171570  1
  Rh  Rh18  1  0.562357  0.426383  0.704135  1
  Rh  Rh19  1  0.936095  0.939040  0.828430  1
  N  N20  1  0.374752  0.871729  0.619059  1
  N  N21  1  0.874752  0.128271  0.380941  1
  N  N22  1  0.130423  0.374811  0.875367  1
  N  N23  1  0.630423  0.625189  0.124633  1
