# generated using pymatgen
data_Pr4ErBe3P9Ir19
_symmetry_space_group_name_H-M   'P 1'
_cell_length_a   12.72665900
_cell_length_b   12.72665875
_cell_length_c   3.98809300
_cell_angle_alpha   90.00000000
_cell_angle_beta   90.00000000
_cell_angle_gamma   119.99999805
_symmetry_Int_Tables_number   1
_chemical_formula_structural   Pr4ErBe3P9Ir19
_chemical_formula_sum   'Pr4 Er1 Be3 P9 Ir19'
_cell_volume   559.40291409
_cell_formula_units_Z   1
loop_
 _symmetry_equiv_pos_site_id
 _symmetry_equiv_pos_as_xyz
  1  'x, y, z'
loop_
 _atom_site_type_symbol
 _atom_site_label
 _atom_site_symmetry_multiplicity
 _atom_site_fract_x
 _atom_site_fract_y
 _atom_site_fract_z
 _atom_site_occupancy
  Pr  Pr0  1  0.666667  0.333333  0.000000  1
  Pr  Pr1  1  0.814296  0.809485  0.500000  1
  Pr  Pr2  1  0.190515  0.004810  0.500000  1
  Pr  Pr3  1  0.995190  0.185704  0.500000  1
  Er  Er4  1  0.333333  0.666667  0.000000  1
  Be  Be5  1  0.683878  0.160787  0.500000  1
  Be  Be6  1  0.839213  0.523091  0.500000  1
  Be  Be7  1  0.476909  0.316122  0.500000  1
  P  P8  1  0.180349  0.697585  0.500000  1
  P  P9  1  0.517236  0.819651  0.500000  1
  P  P10  1  0.302415  0.482764  0.500000  1
  P  P11  1  0.637673  0.623783  0.000000  1
  P  P12  1  0.376217  0.013889  0.000000  1
  P  P13  1  0.986111  0.362327  0.000000  1
  P  P14  1  0.181675  0.184936  0.000000  1
  P  P15  1  0.815064  0.996740  0.000000  1
  P  P16  1  0.003260  0.818325  0.000000  1
  Ir  Ir17  1  0.799501  0.175112  0.000000  1
  Ir  Ir18  1  0.824888  0.624389  0.000000  1
  Ir  Ir19  1  0.375611  0.200499  0.000000  1
  Ir  Ir20  1  0.190370  0.808212  0.000000  1
  Ir  Ir21  1  0.617842  0.809630  0.000000  1
  Ir  Ir22  1  0.191788  0.382158  0.000000  1
  Ir  Ir23  1  0.454467  0.446511  0.000000  1
  Ir  Ir24  1  0.553489  0.007957  0.000000  1
  Ir  Ir25  1  0.992043  0.545533  0.000000  1
  Ir  Ir26  1  0.283721  0.291191  0.500000  1
  Ir  Ir27  1  0.708809  0.992530  0.500000  1
  Ir  Ir28  1  0.007470  0.716279  0.500000  1
  Ir  Ir29  1  0.874003  0.355345  0.500000  1
  Ir  Ir30  1  0.644655  0.518659  0.500000  1
  Ir  Ir31  1  0.481341  0.125997  0.500000  1
  Ir  Ir32  1  0.370425  0.869679  0.500000  1
  Ir  Ir33  1  0.499256  0.629575  0.500000  1
  Ir  Ir34  1  0.130321  0.500744  0.500000  1
  Ir  Ir35  1  0.000000  0.000000  0.000000  1
