# generated using pymatgen
data_PrNbP7Ru12
_symmetry_space_group_name_H-M   'P 1'
_cell_length_a   9.42324200
_cell_length_b   9.42324154
_cell_length_c   3.91429300
_cell_angle_alpha   90.00000000
_cell_angle_beta   90.00000000
_cell_angle_gamma   120.00000069
_symmetry_Int_Tables_number   1
_chemical_formula_structural   PrNbP7Ru12
_chemical_formula_sum   'Pr1 Nb1 P7 Ru12'
_cell_volume   301.01256702
_cell_formula_units_Z   1
loop_
 _symmetry_equiv_pos_site_id
 _symmetry_equiv_pos_as_xyz
  1  'x, y, z'
loop_
 _atom_site_type_symbol
 _atom_site_label
 _atom_site_symmetry_multiplicity
 _atom_site_fract_x
 _atom_site_fract_y
 _atom_site_fract_z
 _atom_site_occupancy
  Pr  Pr0  1  0.333333  0.666667  0.000000  1
  Nb  Nb1  1  0.666667  0.333333  0.500000  1
  P  P2  1  0.603079  0.718751  0.500000  1
  P  P3  1  0.000000  0.000000  0.000000  1
  P  P4  1  0.281249  0.884328  0.500000  1
  P  P5  1  0.115672  0.396921  0.500000  1
  P  P6  1  0.886712  0.572878  0.000000  1
  P  P7  1  0.427122  0.313834  0.000000  1
  P  P8  1  0.686166  0.113288  0.000000  1
  Ru  Ru9  1  0.562322  0.962388  0.500000  1
  Ru  Ru10  1  0.400066  0.437678  0.500000  1
  Ru  Ru11  1  0.912948  0.121917  0.500000  1
  Ru  Ru12  1  0.208969  0.087052  0.500000  1
  Ru  Ru13  1  0.878083  0.791031  0.500000  1
  Ru  Ru14  1  0.726912  0.888533  0.000000  1
  Ru  Ru15  1  0.111467  0.838378  0.000000  1
  Ru  Ru16  1  0.161622  0.273088  0.000000  1
  Ru  Ru17  1  0.430185  0.079518  0.000000  1
  Ru  Ru18  1  0.920482  0.350668  0.000000  1
  Ru  Ru19  1  0.649332  0.569815  0.000000  1
  Ru  Ru20  1  0.037612  0.599934  0.500000  1
