# generated using pymatgen
data_Zr5Cr3Co16(SiP5)2
_symmetry_space_group_name_H-M   'P 1'
_cell_length_a   11.92533967
_cell_length_b   11.91741593
_cell_length_c   3.61960300
_cell_angle_alpha   90.00000000
_cell_angle_beta   90.00000000
_cell_angle_gamma   119.97801669
_symmetry_Int_Tables_number   1
_chemical_formula_structural   Zr5Cr3Co16(SiP5)2
_chemical_formula_sum   'Zr5 Cr3 Co16 Si2 P10'
_cell_volume   445.59528578
_cell_formula_units_Z   1
loop_
 _symmetry_equiv_pos_site_id
 _symmetry_equiv_pos_as_xyz
  1  'x, y, z'
loop_
 _atom_site_type_symbol
 _atom_site_label
 _atom_site_symmetry_multiplicity
 _atom_site_fract_x
 _atom_site_fract_y
 _atom_site_fract_z
 _atom_site_occupancy
  Zr  Zr0  1  0.665776  0.333016  0.000000  1
  Zr  Zr1  1  0.334224  0.667240  0.000000  1
  Zr  Zr2  1  0.820386  0.820290  0.500000  1
  Zr  Zr3  1  0.179614  0.999903  0.500000  1
  Zr  Zr4  1  0.000000  0.181728  0.500000  1
  Cr  Cr5  1  0.440851  0.442350  0.000000  1
  Cr  Cr6  1  0.559149  0.001499  0.000000  1
  Cr  Cr7  1  0.000000  0.555058  0.000000  1
  Co  Co8  1  0.196448  0.374918  0.000000  1
  Co  Co9  1  0.173843  0.797727  0.000000  1
  Co  Co10  1  0.826157  0.623883  0.000000  1
  Co  Co11  1  0.803552  0.178472  0.000000  1
  Co  Co12  1  0.375238  0.201036  0.000000  1
  Co  Co13  1  0.127036  0.481673  0.500000  1
  Co  Co14  1  0.355036  0.870969  0.500000  1
  Co  Co15  1  0.515901  0.645047  0.500000  1
  Co  Co16  1  0.644964  0.515933  0.500000  1
  Co  Co17  1  0.872964  0.354639  0.500000  1
  Co  Co18  1  0.484099  0.129147  0.500000  1
  Co  Co19  1  0.000000  0.000119  0.000000  1
  Co  Co20  1  0.717844  0.001467  0.500000  1
  Co  Co21  1  0.000000  0.715343  0.500000  1
  Co  Co22  1  0.624762  0.825798  0.000000  1
  Co  Co23  1  0.282156  0.283623  0.500000  1
  Si  Si24  1  0.641700  0.641329  0.000000  1
  Si  Si25  1  0.358300  0.999629  0.000000  1
  P  P26  1  0.000000  0.359117  0.000000  1
  P  P27  1  0.481684  0.316439  0.500000  1
  P  P28  1  0.683662  0.166175  0.500000  1
  P  P29  1  0.833574  0.516570  0.500000  1
  P  P30  1  0.518316  0.834755  0.500000  1
  P  P31  1  0.166426  0.682997  0.500000  1
  P  P32  1  0.823450  0.000127  0.000000  1
  P  P33  1  0.000000  0.822795  0.000000  1
  P  P34  1  0.316338  0.482514  0.500000  1
  P  P35  1  0.176550  0.176676  0.000000  1
