# generated using pymatgen
data_Dy3Er9(InSi2)2
_symmetry_space_group_name_H-M   'P 1'
_cell_length_a   8.46774818
_cell_length_b   8.46774748
_cell_length_c   8.46027196
_cell_angle_alpha   112.40053394
_cell_angle_beta   110.88842442
_cell_angle_gamma   105.24949693
_symmetry_Int_Tables_number   1
_chemical_formula_structural   Dy3Er9(InSi2)2
_chemical_formula_sum   'Dy3 Er9 In2 Si4'
_cell_volume   464.76916452
_cell_formula_units_Z   1
loop_
 _symmetry_equiv_pos_site_id
 _symmetry_equiv_pos_as_xyz
  1  'x, y, z'
loop_
 _atom_site_type_symbol
 _atom_site_label
 _atom_site_symmetry_multiplicity
 _atom_site_fract_x
 _atom_site_fract_y
 _atom_site_fract_z
 _atom_site_occupancy
  Dy  Dy0  1  0.187174  0.279278  0.466453  1
  Dy  Dy1  1  0.812707  0.720679  0.533385  1
  Dy  Dy2  1  0.187127  0.720610  0.907736  1
  Er  Er3  1  0.813151  0.279501  0.092653  1
  Er  Er4  1  0.319282  0.615974  0.296379  1
  Er  Er5  1  0.680687  0.383758  0.703716  1
  Er  Er6  1  0.319957  0.023029  0.703716  1
  Er  Er7  1  0.680405  0.977097  0.296379  1
  Er  Er8  1  0.442436  0.237228  0.204655  1
  Er  Er9  1  0.558072  0.763319  0.795538  1
  Er  Er10  1  0.032219  0.237467  0.795538  1
  Er  Er11  1  0.967427  0.762218  0.204655  1
  In  In12  1  0.500021  0.499971  0.999992  1
  In  In13  1  0.999841  0.000467  0.000308  1
  Si  Si14  1  0.116217  0.616191  0.499250  1
  Si  Si15  1  0.883059  0.383033  0.499250  1
  Si  Si16  1  0.369752  0.000041  0.369793  1
  Si  Si17  1  0.630464  0.000139  0.630603  1
