# generated using pymatgen
data_Tm(FeRe2)4
_symmetry_space_group_name_H-M   'P 1'
_cell_length_a   4.79725023
_cell_length_b   6.73551104
_cell_length_c   6.73551035
_cell_angle_alpha   97.38062498
_cell_angle_beta   110.86187131
_cell_angle_gamma   69.13812772
_symmetry_Int_Tables_number   1
_chemical_formula_structural   Tm(FeRe2)4
_chemical_formula_sum   'Tm1 Fe4 Re8'
_cell_volume   190.03651294
_cell_formula_units_Z   1
loop_
 _symmetry_equiv_pos_site_id
 _symmetry_equiv_pos_as_xyz
  1  'x, y, z'
loop_
 _atom_site_type_symbol
 _atom_site_label
 _atom_site_symmetry_multiplicity
 _atom_site_fract_x
 _atom_site_fract_y
 _atom_site_fract_z
 _atom_site_occupancy
  Tm  Tm0  1  0.000000  0.000000  0.000000  1
  Fe  Fe1  1  0.500000  0.000000  0.500000  1
  Fe  Fe2  1  0.000000  0.000000  0.500000  1
  Fe  Fe3  1  0.500000  0.500000  0.000000  1
  Fe  Fe4  1  0.000000  0.500000  0.000000  1
  Re  Re5  1  0.000000  0.356938  0.356938  1
  Re  Re6  1  0.000000  0.643062  0.643062  1
  Re  Re7  1  0.714121  0.785879  0.214121  1
  Re  Re8  1  0.285879  0.214121  0.785879  1
  Re  Re9  1  0.500000  0.787196  0.787196  1
  Re  Re10  1  0.500000  0.212804  0.212804  1
  Re  Re11  1  0.642532  0.357468  0.642532  1
  Re  Re12  1  0.357468  0.642532  0.357468  1
