# generated using pymatgen
data_SrInBrO2
_symmetry_space_group_name_H-M   'P 1'
_cell_length_a   5.98583600
_cell_length_b   5.98583551
_cell_length_c   9.45337167
_cell_angle_alpha   101.65278878
_cell_angle_beta   101.65278946
_cell_angle_gamma   40.94180005
_symmetry_Int_Tables_number   1
_chemical_formula_structural   SrInBrO2
_chemical_formula_sum   'Sr2 In2 Br2 O4'
_cell_volume   216.73839172
_cell_formula_units_Z   2
loop_
 _symmetry_equiv_pos_site_id
 _symmetry_equiv_pos_as_xyz
  1  'x, y, z'
loop_
 _atom_site_type_symbol
 _atom_site_label
 _atom_site_symmetry_multiplicity
 _atom_site_fract_x
 _atom_site_fract_y
 _atom_site_fract_z
 _atom_site_occupancy
  Sr  Sr0  1  0.393771  0.393771  0.212415  1
  Sr  Sr1  1  0.606229  0.606229  0.787585  1
  In  In2  1  0.137111  0.137111  0.490847  1
  In  In3  1  0.862889  0.862889  0.509154  1
  Br  Br4  1  0.664238  0.664238  0.133555  1
  Br  Br5  1  0.335762  0.335762  0.866446  1
  O  O6  1  0.969578  0.969578  0.338629  1
  O  O7  1  0.314894  0.314894  0.446072  1
  O  O8  1  0.685106  0.685106  0.553928  1
  O  O9  1  0.030422  0.030422  0.661372  1
