# generated using pymatgen
data_Zr10AlSi(SnSb2)2
_symmetry_space_group_name_H-M   'P 1'
_cell_length_a   8.70314005
_cell_length_b   8.71560497
_cell_length_c   5.87629704
_cell_angle_alpha   89.98717731
_cell_angle_beta   90.00641683
_cell_angle_gamma   120.04739103
_symmetry_Int_Tables_number   1
_chemical_formula_structural   Zr10AlSi(SnSb2)2
_chemical_formula_sum   'Zr10 Al1 Si1 Sn2 Sb4'
_cell_volume   385.83380776
_cell_formula_units_Z   1
loop_
 _symmetry_equiv_pos_site_id
 _symmetry_equiv_pos_as_xyz
  1  'x, y, z'
loop_
 _atom_site_type_symbol
 _atom_site_label
 _atom_site_symmetry_multiplicity
 _atom_site_fract_x
 _atom_site_fract_y
 _atom_site_fract_z
 _atom_site_occupancy
  Zr  Zr0  1  0.733628  0.732737  0.756451  1
  Zr  Zr1  1  0.266372  0.999109  0.756451  1
  Zr  Zr2  1  0.000000  0.268960  0.756785  1
  Zr  Zr3  1  0.260270  0.259774  0.242965  1
  Zr  Zr4  1  0.739730  0.999503  0.242965  1
  Zr  Zr5  1  0.000000  0.740023  0.243392  1
  Zr  Zr6  1  0.667063  0.333498  0.998285  1
  Zr  Zr7  1  0.332937  0.666435  0.998285  1
  Zr  Zr8  1  0.332475  0.666424  0.501195  1
  Zr  Zr9  1  0.667525  0.333948  0.501195  1
  Al  Al10  1  0.000000  0.001646  0.508101  1
  Si  Si11  1  0.000000  0.001073  0.993287  1
  Sn  Sn12  1  0.387474  0.387381  0.747221  1
  Sn  Sn13  1  0.612526  0.999908  0.747221  1
  Sb  Sb14  1  0.000000  0.610886  0.747461  1
  Sb  Sb15  1  0.604588  0.605201  0.252895  1
  Sb  Sb16  1  0.395412  0.000614  0.252895  1
  Sb  Sb17  1  0.000000  0.392879  0.252950  1
