# generated using pymatgen
data_Li2La4As3P
_symmetry_space_group_name_H-M   'P 1'
_cell_length_a   4.35137800
_cell_length_b   4.35137810
_cell_length_c   15.18154000
_cell_angle_alpha   90.00000000
_cell_angle_beta   90.00000000
_cell_angle_gamma   119.99999927
_symmetry_Int_Tables_number   1
_chemical_formula_structural   Li2La4As3P
_chemical_formula_sum   'Li2 La4 As3 P1'
_cell_volume   248.94310149
_cell_formula_units_Z   1
loop_
 _symmetry_equiv_pos_site_id
 _symmetry_equiv_pos_as_xyz
  1  'x, y, z'
loop_
 _atom_site_type_symbol
 _atom_site_label
 _atom_site_symmetry_multiplicity
 _atom_site_fract_x
 _atom_site_fract_y
 _atom_site_fract_z
 _atom_site_occupancy
  Li  Li0  1  0.000000  0.000000  0.249562  1
  Li  Li1  1  0.000000  0.000000  0.750438  1
  La  La2  1  0.333333  0.666667  0.106590  1
  La  La3  1  0.333333  0.666667  0.388639  1
  La  La4  1  0.666667  0.333332  0.611361  1
  La  La5  1  0.666667  0.333332  0.893410  1
  As  As6  1  0.666667  0.333332  0.249592  1
  As  As7  1  0.000000  0.000000  0.500000  1
  As  As8  1  0.333333  0.666667  0.750408  1
  P  P9  1  0.000000  0.000000  0.000000  1
