# generated using pymatgen
data_Ho9ErZn3Bi2Au
_symmetry_space_group_name_H-M   'P 1'
_cell_length_a   8.65278216
_cell_length_b   8.65278336
_cell_length_c   8.65433007
_cell_angle_alpha   123.91204177
_cell_angle_beta   123.91086715
_cell_angle_gamma   83.33744104
_symmetry_Int_Tables_number   1
_chemical_formula_structural   Ho9ErZn3Bi2Au
_chemical_formula_sum   'Ho9 Er1 Zn3 Bi2 Au1'
_cell_volume   427.96281104
_cell_formula_units_Z   1
loop_
 _symmetry_equiv_pos_site_id
 _symmetry_equiv_pos_as_xyz
  1  'x, y, z'
loop_
 _atom_site_type_symbol
 _atom_site_label
 _atom_site_symmetry_multiplicity
 _atom_site_fract_x
 _atom_site_fract_y
 _atom_site_fract_z
 _atom_site_occupancy
  Ho  Ho0  1  0.500467  0.500291  0.000758  1
  Ho  Ho1  1  0.009089  0.510677  0.804515  1
  Ho  Ho2  1  0.704654  0.206096  0.195493  1
  Ho  Ho3  1  0.511575  0.705399  0.500090  1
  Ho  Ho4  1  0.205619  0.010753  0.499937  1
  Ho  Ho5  1  0.989398  0.490840  0.195493  1
  Ho  Ho6  1  0.293837  0.795426  0.804515  1
  Ho  Ho7  1  0.489184  0.294318  0.499937  1
  Ho  Ho8  1  0.794690  0.988514  0.500090  1
  Er  Er9  1  0.999682  0.999428  0.999110  1
  Zn  Zn10  1  0.638621  0.140138  0.778758  1
  Zn  Zn11  1  0.359786  0.861460  0.221248  1
  Zn  Zn12  1  0.140386  0.359544  0.499930  1
  Bi  Bi13  1  0.749065  0.751092  0.000007  1
  Bi  Bi14  1  0.248915  0.250942  0.000007  1
  Au  Au15  1  0.865032  0.635081  0.500113  1
