# generated using pymatgen
data_SrPr3Er3CoI12
_symmetry_space_group_name_H-M   'P 1'
_cell_length_a   9.82540222
_cell_length_b   9.97114169
_cell_length_c   9.90996536
_cell_angle_alpha   105.94113948
_cell_angle_beta   106.75478345
_cell_angle_gamma   106.12745523
_symmetry_Int_Tables_number   1
_chemical_formula_structural   SrPr3Er3CoI12
_chemical_formula_sum   'Sr1 Pr3 Er3 Co1 I12'
_cell_volume   824.00533638
_cell_formula_units_Z   1
loop_
 _symmetry_equiv_pos_site_id
 _symmetry_equiv_pos_as_xyz
  1  'x, y, z'
loop_
 _atom_site_type_symbol
 _atom_site_label
 _atom_site_symmetry_multiplicity
 _atom_site_fract_x
 _atom_site_fract_y
 _atom_site_fract_z
 _atom_site_occupancy
  Sr  Sr0  1  0.499815  0.500632  0.498725  1
  Pr  Pr1  1  0.286792  0.019539  0.091415  1
  Pr  Pr2  1  0.903770  0.699071  0.982388  1
  Pr  Pr3  1  0.713839  0.980675  0.908736  1
  Er  Er4  1  0.979575  0.910010  0.709816  1
  Er  Er5  1  0.021931  0.094838  0.290322  1
  Er  Er6  1  0.092556  0.286236  0.018466  1
  Co  Co7  1  0.000436  0.999935  0.000622  1
  I  I8  1  0.540969  0.626401  0.856170  1
  I  I9  1  0.445614  0.373063  0.136368  1
  I  I10  1  0.311094  0.923256  0.766188  1
  I  I11  1  0.364408  0.142592  0.455342  1
  I  I12  1  0.933423  0.791787  0.334558  1
  I  I13  1  0.689215  0.077947  0.234341  1
  I  I14  1  0.071197  0.220101  0.681477  1
  I  I15  1  0.782571  0.322933  0.926894  1
  I  I16  1  0.228419  0.671041  0.074444  1
  I  I17  1  0.866062  0.559452  0.626866  1
  I  I18  1  0.132936  0.441152  0.361500  1
  I  I19  1  0.635377  0.859339  0.545362  1
