# generated using pymatgen
data_LiLu4Ge6Ir5Ru
_symmetry_space_group_name_H-M   'P 1'
_cell_length_a   7.19390991
_cell_length_b   7.19397559
_cell_length_c   7.19391050
_cell_angle_alpha   109.55842166
_cell_angle_beta   109.56014273
_cell_angle_gamma   109.29486821
_symmetry_Int_Tables_number   1
_chemical_formula_structural   LiLu4Ge6Ir5Ru
_chemical_formula_sum   'Li1 Lu4 Ge6 Ir5 Ru1'
_cell_volume   286.59988551
_cell_formula_units_Z   1
loop_
 _symmetry_equiv_pos_site_id
 _symmetry_equiv_pos_as_xyz
  1  'x, y, z'
loop_
 _atom_site_type_symbol
 _atom_site_label
 _atom_site_symmetry_multiplicity
 _atom_site_fract_x
 _atom_site_fract_y
 _atom_site_fract_z
 _atom_site_occupancy
  Li  Li0  1  0.750001  0.250002  0.500002  1
  Lu  Lu1  1  0.002160  0.997830  0.499995  1
  Lu  Lu2  1  0.002165  0.502160  0.004322  1
  Lu  Lu3  1  0.497835  0.997830  0.995670  1
  Lu  Lu4  1  0.497837  0.502160  0.499995  1
  Ge  Ge5  1  0.688325  0.688321  0.999995  1
  Ge  Ge6  1  0.309947  0.997066  0.312886  1
  Ge  Ge7  1  0.002953  0.315837  0.312884  1
  Ge  Ge8  1  0.311673  0.311682  0.000009  1
  Ge  Ge9  1  0.684180  0.997066  0.687119  1
  Ge  Ge10  1  0.002928  0.690043  0.687115  1
  Ir  Ir11  1  0.748673  0.496210  0.252466  1
  Ir  Ir12  1  0.503794  0.251333  0.747539  1
  Ir  Ir13  1  0.243744  0.496210  0.747537  1
  Ir  Ir14  1  0.250000  0.749996  0.499996  1
  Ir  Ir15  1  0.503788  0.756249  0.252461  1
  Ru  Ru16  1  0.999999  0.000006  0.000006  1
