# generated using pymatgen
data_Ba4Cr(RuO4)3
_symmetry_space_group_name_H-M   'P 1'
_cell_length_a   10.18450169
_cell_length_b   10.18450138
_cell_length_c   10.18450182
_cell_angle_alpha   33.17159567
_cell_angle_beta   33.17159770
_cell_angle_gamma   33.17159316
_symmetry_Int_Tables_number   1
_chemical_formula_structural   Ba4Cr(RuO4)3
_chemical_formula_sum   'Ba4 Cr1 Ru3 O12'
_cell_volume   281.51296821
_cell_formula_units_Z   1
loop_
 _symmetry_equiv_pos_site_id
 _symmetry_equiv_pos_as_xyz
  1  'x, y, z'
loop_
 _atom_site_type_symbol
 _atom_site_label
 _atom_site_symmetry_multiplicity
 _atom_site_fract_x
 _atom_site_fract_y
 _atom_site_fract_z
 _atom_site_occupancy
  Ba  Ba0  1  0.710022  0.710022  0.710022  1
  Ba  Ba1  1  0.289978  0.289978  0.289978  1
  Ba  Ba2  1  0.875843  0.875843  0.875843  1
  Ba  Ba3  1  0.124157  0.124157  0.124157  1
  Cr  Cr4  1  0.000000  0.000000  0.000000  1
  Ru  Ru5  1  0.410814  0.410814  0.410814  1
  Ru  Ru6  1  0.500000  0.500000  0.500000  1
  Ru  Ru7  1  0.589186  0.589186  0.589186  1
  O  O8  1  0.207058  0.207058  0.706852  1
  O  O9  1  0.706852  0.207058  0.207058  1
  O  O10  1  0.207058  0.706852  0.207058  1
  O  O11  1  0.792942  0.293148  0.792942  1
  O  O12  1  0.792942  0.792942  0.293148  1
  O  O13  1  0.293148  0.792942  0.792942  1
  O  O14  1  0.388870  0.388870  0.854811  1
  O  O15  1  0.854811  0.388870  0.388870  1
  O  O16  1  0.145189  0.611130  0.611130  1
  O  O17  1  0.611130  0.611130  0.145189  1
  O  O18  1  0.611130  0.145189  0.611130  1
  O  O19  1  0.388870  0.854811  0.388870  1
