# generated using pymatgen
data_Tm3In4CoIr
_symmetry_space_group_name_H-M   'P 1'
_cell_length_a   7.93044500
_cell_length_b   7.93044539
_cell_length_c   3.57939500
_cell_angle_alpha   90.00000000
_cell_angle_beta   90.00000000
_cell_angle_gamma   120.00000253
_symmetry_Int_Tables_number   1
_chemical_formula_structural   Tm3In4CoIr
_chemical_formula_sum   'Tm3 In4 Co1 Ir1'
_cell_volume   194.95545176
_cell_formula_units_Z   1
loop_
 _symmetry_equiv_pos_site_id
 _symmetry_equiv_pos_as_xyz
  1  'x, y, z'
loop_
 _atom_site_type_symbol
 _atom_site_label
 _atom_site_symmetry_multiplicity
 _atom_site_fract_x
 _atom_site_fract_y
 _atom_site_fract_z
 _atom_site_occupancy
  Tm  Tm0  1  0.296494  0.254771  0.500000  1
  Tm  Tm1  1  0.745229  0.041723  0.500000  1
  Tm  Tm2  1  0.958277  0.703506  0.500000  1
  In  In3  1  0.077235  0.415744  0.000000  1
  In  In4  1  0.584256  0.661490  0.000000  1
  In  In5  1  0.338510  0.922765  0.000000  1
  In  In6  1  0.666667  0.333333  0.000000  1
  Co  Co7  1  0.333333  0.666667  0.500000  1
  Ir  Ir8  1  0.000000  0.000000  0.000000  1
