# generated using pymatgen
data_CaZnCdPt3
_symmetry_space_group_name_H-M   'P 1'
_cell_length_a   5.21032895
_cell_length_b   5.21032862
_cell_length_c   5.21032883
_cell_angle_alpha   64.49479661
_cell_angle_beta   64.49480028
_cell_angle_gamma   64.49479808
_symmetry_Int_Tables_number   1
_chemical_formula_structural   CaZnCdPt3
_chemical_formula_sum   'Ca1 Zn1 Cd1 Pt3'
_cell_volume   109.87858610
_cell_formula_units_Z   1
loop_
 _symmetry_equiv_pos_site_id
 _symmetry_equiv_pos_as_xyz
  1  'x, y, z'
loop_
 _atom_site_type_symbol
 _atom_site_label
 _atom_site_symmetry_multiplicity
 _atom_site_fract_x
 _atom_site_fract_y
 _atom_site_fract_z
 _atom_site_occupancy
  Ca  Ca0  1  0.123328  0.123328  0.123328  1
  Zn  Zn1  1  0.500780  0.500780  0.500780  1
  Cd  Cd2  1  0.872279  0.872279  0.872279  1
  Pt  Pt3  1  0.501985  0.501985  0.999642  1
  Pt  Pt4  1  0.999642  0.501985  0.501985  1
  Pt  Pt5  1  0.501985  0.999642  0.501985  1
