# generated using pymatgen
data_PdRu(SeO3)4
_symmetry_space_group_name_H-M   'P 1'
_cell_length_a   7.03738296
_cell_length_b   5.27239018
_cell_length_c   9.17085980
_cell_angle_alpha   55.91178599
_cell_angle_beta   89.83720584
_cell_angle_gamma   89.74524133
_symmetry_Int_Tables_number   1
_chemical_formula_structural   PdRu(SeO3)4
_chemical_formula_sum   'Pd1 Ru1 Se4 O12'
_cell_volume   281.80383807
_cell_formula_units_Z   1
loop_
 _symmetry_equiv_pos_site_id
 _symmetry_equiv_pos_as_xyz
  1  'x, y, z'
loop_
 _atom_site_type_symbol
 _atom_site_label
 _atom_site_symmetry_multiplicity
 _atom_site_fract_x
 _atom_site_fract_y
 _atom_site_fract_z
 _atom_site_occupancy
  Pd  Pd0  1  0.000000  0.000000  0.000000  1
  Ru  Ru1  1  0.500000  0.000000  0.500000  1
  Se  Se2  1  0.825503  0.321007  0.191966  1
  Se  Se3  1  0.677784  0.309732  0.700851  1
  Se  Se4  1  0.174497  0.678993  0.808034  1
  Se  Se5  1  0.322216  0.690268  0.299149  1
  O  O6  1  0.833602  0.314172  0.002104  1
  O  O7  1  0.665509  0.294936  0.512746  1
  O  O8  1  0.166398  0.685828  0.997896  1
  O  O9  1  0.334491  0.705064  0.487254  1
  O  O10  1  0.590189  0.192633  0.250651  1
  O  O11  1  0.914443  0.195232  0.746585  1
  O  O12  1  0.409811  0.807367  0.749349  1
  O  O13  1  0.085557  0.804768  0.253415  1
  O  O14  1  0.772884  0.709178  0.087115  1
  O  O15  1  0.716294  0.705528  0.587189  1
  O  O16  1  0.227116  0.290822  0.912885  1
  O  O17  1  0.283706  0.294472  0.412811  1
