# generated using pymatgen
data_YbSc3(ReB6)2
_symmetry_space_group_name_H-M   'P 1'
_cell_length_a   3.52839100
_cell_length_b   8.99100893
_cell_length_c   11.29732676
_cell_angle_alpha   89.97322073
_cell_angle_beta   90.00000000
_cell_angle_gamma   90.00000000
_symmetry_Int_Tables_number   1
_chemical_formula_structural   YbSc3(ReB6)2
_chemical_formula_sum   'Yb2 Sc6 Re4 B24'
_cell_volume   358.39403899
_cell_formula_units_Z   2
loop_
 _symmetry_equiv_pos_site_id
 _symmetry_equiv_pos_as_xyz
  1  'x, y, z'
loop_
 _atom_site_type_symbol
 _atom_site_label
 _atom_site_symmetry_multiplicity
 _atom_site_fract_x
 _atom_site_fract_y
 _atom_site_fract_z
 _atom_site_occupancy
  Yb  Yb0  1  0.000000  0.322344  0.413640  1
  Yb  Yb1  1  0.000000  0.677656  0.586360  1
  Sc  Sc2  1  0.000000  0.822192  0.085962  1
  Sc  Sc3  1  0.000000  0.177808  0.914038  1
  Sc  Sc4  1  0.000000  0.943594  0.367769  1
  Sc  Sc5  1  0.000000  0.056406  0.632231  1
  Sc  Sc6  1  0.000000  0.444472  0.128438  1
  Sc  Sc7  1  0.000000  0.555528  0.871562  1
  Re  Re8  1  0.000000  0.643920  0.316034  1
  Re  Re9  1  0.000000  0.356080  0.683966  1
  Re  Re10  1  0.000000  0.139160  0.178232  1
  Re  Re11  1  0.000000  0.860840  0.821768  1
  B  B12  1  0.500000  0.553879  0.432059  1
  B  B13  1  0.500000  0.446121  0.567941  1
  B  B14  1  0.500000  0.053147  0.064315  1
  B  B15  1  0.500000  0.946853  0.935685  1
  B  B16  1  0.500000  0.754568  0.418668  1
  B  B17  1  0.500000  0.245432  0.581332  1
  B  B18  1  0.500000  0.253151  0.077484  1
  B  B19  1  0.500000  0.746849  0.922516  1
  B  B20  1  0.500000  0.796793  0.261424  1
  B  B21  1  0.500000  0.203207  0.738576  1
  B  B22  1  0.500000  0.295262  0.233810  1
  B  B23  1  0.500000  0.704738  0.766190  1
  B  B24  1  0.500000  0.630879  0.180431  1
  B  B25  1  0.500000  0.369121  0.819569  1
  B  B26  1  0.500000  0.129211  0.315979  1
  B  B27  1  0.500000  0.870789  0.684021  1
  B  B28  1  0.500000  0.979706  0.210766  1
  B  B29  1  0.500000  0.020294  0.789234  1
  B  B30  1  0.500000  0.481123  0.285369  1
  B  B31  1  0.500000  0.518877  0.714631  1
  B  B32  1  0.500000  0.596504  0.026465  1
  B  B33  1  0.500000  0.403496  0.973535  1
  B  B34  1  0.500000  0.092841  0.474336  1
  B  B35  1  0.500000  0.907159  0.525664  1
