# generated using pymatgen
data_Sc4As6Ru4Rh3
_symmetry_space_group_name_H-M   'P 1'
_cell_length_a   7.08343674
_cell_length_b   7.08339532
_cell_length_c   7.08284240
_cell_angle_alpha   109.38914073
_cell_angle_beta   109.37391659
_cell_angle_gamma   109.65368438
_symmetry_Int_Tables_number   1
_chemical_formula_structural   Sc4As6Ru4Rh3
_chemical_formula_sum   'Sc4 As6 Ru4 Rh3'
_cell_volume   273.55976516
_cell_formula_units_Z   1
loop_
 _symmetry_equiv_pos_site_id
 _symmetry_equiv_pos_as_xyz
  1  'x, y, z'
loop_
 _atom_site_type_symbol
 _atom_site_label
 _atom_site_symmetry_multiplicity
 _atom_site_fract_x
 _atom_site_fract_y
 _atom_site_fract_z
 _atom_site_occupancy
  Sc  Sc0  1  0.001317  0.002432  0.501389  1
  Sc  Sc1  1  0.498936  0.997550  0.998875  1
  Sc  Sc2  1  0.001309  0.499941  0.998898  1
  Sc  Sc3  1  0.498943  0.500056  0.501392  1
  As  As4  1  0.313814  0.000048  0.313806  1
  As  As5  1  0.002302  0.314529  0.316752  1
  As  As6  1  0.002203  0.685486  0.687747  1
  As  As7  1  0.311796  0.313363  0.998476  1
  As  As8  1  0.685034  0.686619  0.998350  1
  As  As9  1  0.686113  0.999946  0.686140  1
  Ru  Ru10  1  0.749731  0.249862  0.499903  1
  Ru  Ru11  1  0.249975  0.750125  0.499782  1
  Ru  Ru12  1  0.251158  0.500002  0.751198  1
  Ru  Ru13  1  0.000934  0.000001  0.000943  1
  Rh  Rh14  1  0.749367  0.500022  0.249325  1
  Rh  Rh15  1  0.498493  0.749962  0.248482  1
  Rh  Rh16  1  0.498574  0.250055  0.748542  1
