# generated using pymatgen
data_TbY3NbOs7
_symmetry_space_group_name_H-M   'P 1'
_cell_length_a   5.46230500
_cell_length_b   5.46230534
_cell_length_c   8.67839600
_cell_angle_alpha   90.00000000
_cell_angle_beta   90.00000000
_cell_angle_gamma   120.00000398
_symmetry_Int_Tables_number   1
_chemical_formula_structural   TbY3NbOs7
_chemical_formula_sum   'Tb1 Y3 Nb1 Os7'
_cell_volume   224.24460193
_cell_formula_units_Z   1
loop_
 _symmetry_equiv_pos_site_id
 _symmetry_equiv_pos_as_xyz
  1  'x, y, z'
loop_
 _atom_site_type_symbol
 _atom_site_label
 _atom_site_symmetry_multiplicity
 _atom_site_fract_x
 _atom_site_fract_y
 _atom_site_fract_z
 _atom_site_occupancy
  Tb  Tb0  1  0.333333  0.666667  0.427828  1
  Y  Y1  1  0.666667  0.333333  0.571978  1
  Y  Y2  1  0.666667  0.333333  0.938170  1
  Y  Y3  1  0.333333  0.666667  0.061817  1
  Nb  Nb4  1  0.000000  0.000000  0.500088  1
  Os  Os5  1  0.000000  0.000000  0.000102  1
  Os  Os6  1  0.826390  0.173610  0.248105  1
  Os  Os7  1  0.826390  0.652778  0.248105  1
  Os  Os8  1  0.347222  0.173610  0.248105  1
  Os  Os9  1  0.173612  0.826388  0.751899  1
  Os  Os10  1  0.173612  0.347224  0.751899  1
  Os  Os11  1  0.652776  0.826388  0.751899  1
