# generated using pymatgen
data_Np3CoO10
_symmetry_space_group_name_H-M   'P 1'
_cell_length_a   5.59772522
_cell_length_b   5.56472291
_cell_length_c   7.59394085
_cell_angle_alpha   71.09334952
_cell_angle_beta   70.04290367
_cell_angle_gamma   72.60290076
_symmetry_Int_Tables_number   1
_chemical_formula_structural   Np3CoO10
_chemical_formula_sum   'Np3 Co1 O10'
_cell_volume   205.57344152
_cell_formula_units_Z   1
loop_
 _symmetry_equiv_pos_site_id
 _symmetry_equiv_pos_as_xyz
  1  'x, y, z'
loop_
 _atom_site_type_symbol
 _atom_site_label
 _atom_site_symmetry_multiplicity
 _atom_site_fract_x
 _atom_site_fract_y
 _atom_site_fract_z
 _atom_site_occupancy
  Np  Np0  1  0.974284  0.042286  0.231297  1
  Np  Np1  1  0.500000  0.500000  0.500000  1
  Np  Np2  1  0.025716  0.957714  0.768703  1
  Co  Co3  1  0.500000  0.500000  0.000000  1
  O  O4  1  0.414680  0.586334  0.743944  1
  O  O5  1  0.257244  0.184543  0.647819  1
  O  O6  1  0.742756  0.815457  0.352181  1
  O  O7  1  0.198648  0.266598  0.131103  1
  O  O8  1  0.585320  0.413666  0.256056  1
  O  O9  1  0.801352  0.733402  0.868897  1
  O  O10  1  0.195504  0.816373  0.037196  1
  O  O11  1  0.810271  0.208350  0.535225  1
  O  O12  1  0.804496  0.183627  0.962804  1
  O  O13  1  0.189729  0.791650  0.464775  1
