# generated using pymatgen
data_Y4MoOs6W
_symmetry_space_group_name_H-M   'P 1'
_cell_length_a   5.26170691
_cell_length_b   5.26170646
_cell_length_c   9.02400300
_cell_angle_alpha   90.00000000
_cell_angle_beta   90.00000000
_cell_angle_gamma   116.34623751
_symmetry_Int_Tables_number   1
_chemical_formula_structural   Y4MoOs6W
_chemical_formula_sum   'Y4 Mo1 Os6 W1'
_cell_volume   223.88388213
_cell_formula_units_Z   1
loop_
 _symmetry_equiv_pos_site_id
 _symmetry_equiv_pos_as_xyz
  1  'x, y, z'
loop_
 _atom_site_type_symbol
 _atom_site_label
 _atom_site_symmetry_multiplicity
 _atom_site_fract_x
 _atom_site_fract_y
 _atom_site_fract_z
 _atom_site_occupancy
  Y  Y0  1  0.329352  0.670648  0.435982  1
  Y  Y1  1  0.667699  0.332301  0.564314  1
  Y  Y2  1  0.667699  0.332301  0.935686  1
  Y  Y3  1  0.329352  0.670648  0.064018  1
  Mo  Mo4  1  0.167309  0.832691  0.750000  1
  Os  Os5  1  0.997239  0.002761  0.501272  1
  Os  Os6  1  0.997239  0.002761  0.998728  1
  Os  Os7  1  0.824377  0.646894  0.250000  1
  Os  Os8  1  0.353106  0.175623  0.250000  1
  Os  Os9  1  0.171693  0.346505  0.750000  1
  Os  Os10  1  0.653495  0.828307  0.750000  1
  W  W11  1  0.841441  0.158559  0.250000  1
