# generated using pymatgen
data_Dy16Cd4FeNi2Pt
_symmetry_space_group_name_H-M   'P 1'
_cell_length_a   9.57021155
_cell_length_b   9.59106533
_cell_length_c   9.56260200
_cell_angle_alpha   60.09812200
_cell_angle_beta   60.02629915
_cell_angle_gamma   60.25945507
_symmetry_Int_Tables_number   1
_chemical_formula_structural   Dy16Cd4FeNi2Pt
_chemical_formula_sum   'Dy16 Cd4 Fe1 Ni2 Pt1'
_cell_volume   622.44763069
_cell_formula_units_Z   1
loop_
 _symmetry_equiv_pos_site_id
 _symmetry_equiv_pos_as_xyz
  1  'x, y, z'
loop_
 _atom_site_type_symbol
 _atom_site_label
 _atom_site_symmetry_multiplicity
 _atom_site_fract_x
 _atom_site_fract_y
 _atom_site_fract_z
 _atom_site_occupancy
  Dy  Dy0  1  0.341022  0.353954  0.349539  1
  Dy  Dy1  1  0.341022  0.353954  0.955487  1
  Dy  Dy2  1  0.346272  0.946404  0.353663  1
  Dy  Dy3  1  0.960141  0.350404  0.344727  1
  Dy  Dy4  1  0.815790  0.190244  0.189810  1
  Dy  Dy5  1  0.188158  0.807037  0.815664  1
  Dy  Dy6  1  0.188158  0.807037  0.189142  1
  Dy  Dy7  1  0.815790  0.190244  0.804155  1
  Dy  Dy8  1  0.189436  0.191100  0.809733  1
  Dy  Dy9  1  0.820338  0.803037  0.188313  1
  Dy  Dy10  1  0.935389  0.566162  0.561492  1
  Dy  Dy11  1  0.561366  0.939306  0.936843  1
  Dy  Dy12  1  0.561366  0.939306  0.562485  1
  Dy  Dy13  1  0.935389  0.566161  0.936957  1
  Dy  Dy14  1  0.558135  0.563992  0.938936  1
  Dy  Dy15  1  0.934238  0.937864  0.563948  1
  Cd  Cd16  1  0.581835  0.580455  0.579930  1
  Cd  Cd17  1  0.581835  0.580455  0.257779  1
  Cd  Cd18  1  0.581383  0.258006  0.580305  1
  Cd  Cd19  1  0.254107  0.581359  0.582267  1
  Fe  Fe20  1  0.145382  0.574746  0.139936  1
  Ni  Ni21  1  0.145086  0.139272  0.142107  1
  Ni  Ni22  1  0.145086  0.139272  0.573534  1
  Pt  Pt23  1  0.573282  0.140229  0.143246  1
