# generated using pymatgen
data_HfMo7W8
_symmetry_space_group_name_H-M   'P 1'
_cell_length_a   6.38441546
_cell_length_b   6.38441592
_cell_length_c   6.38441600
_cell_angle_alpha   89.96128482
_cell_angle_beta   89.96128479
_cell_angle_gamma   89.96128550
_symmetry_Int_Tables_number   1
_chemical_formula_structural   HfMo7W8
_chemical_formula_sum   'Hf1 Mo7 W8'
_cell_volume   260.23349384
_cell_formula_units_Z   1
loop_
 _symmetry_equiv_pos_site_id
 _symmetry_equiv_pos_as_xyz
  1  'x, y, z'
loop_
 _atom_site_type_symbol
 _atom_site_label
 _atom_site_symmetry_multiplicity
 _atom_site_fract_x
 _atom_site_fract_y
 _atom_site_fract_z
 _atom_site_occupancy
  Hf  Hf0  1  0.750804  0.750804  0.750804  1
  Mo  Mo1  1  0.002454  0.002454  0.002454  1
  Mo  Mo2  1  0.497599  0.002458  0.002458  1
  Mo  Mo3  1  0.002458  0.497599  0.002458  1
  Mo  Mo4  1  0.497715  0.497715  0.002149  1
  Mo  Mo5  1  0.002458  0.002458  0.497599  1
  Mo  Mo6  1  0.497715  0.002149  0.497715  1
  Mo  Mo7  1  0.002149  0.497715  0.497715  1
  W  W8  1  0.249665  0.249665  0.249665  1
  W  W9  1  0.750252  0.249711  0.249711  1
  W  W10  1  0.249711  0.750252  0.249711  1
  W  W11  1  0.750077  0.750077  0.250016  1
  W  W12  1  0.497139  0.497139  0.497139  1
  W  W13  1  0.249711  0.249711  0.750252  1
  W  W14  1  0.750077  0.250016  0.750077  1
  W  W15  1  0.250016  0.750077  0.750077  1
