# generated using pymatgen
data_LiTa3(NbRu3)2
_symmetry_space_group_name_H-M   'P 1'
_cell_length_a   4.45647800
_cell_length_b   6.22378600
_cell_length_c   13.48726100
_cell_angle_alpha   90.00000000
_cell_angle_beta   89.99997865
_cell_angle_gamma   90.00000000
_symmetry_Int_Tables_number   1
_chemical_formula_structural   LiTa3(NbRu3)2
_chemical_formula_sum   'Li2 Ta6 Nb4 Ru12'
_cell_volume   374.08490170
_cell_formula_units_Z   2
loop_
 _symmetry_equiv_pos_site_id
 _symmetry_equiv_pos_as_xyz
  1  'x, y, z'
loop_
 _atom_site_type_symbol
 _atom_site_label
 _atom_site_symmetry_multiplicity
 _atom_site_fract_x
 _atom_site_fract_y
 _atom_site_fract_z
 _atom_site_occupancy
  Li  Li0  1  0.000009  0.500000  0.668325  1
  Li  Li1  1  0.500002  0.000000  0.831640  1
  Ta  Ta2  1  0.999996  0.000000  0.987368  1
  Ta  Ta3  1  0.499972  0.500000  0.167164  1
  Ta  Ta4  1  0.999982  0.000000  0.332760  1
  Ta  Ta5  1  0.499996  0.500000  0.512636  1
  Ta  Ta6  1  0.000026  0.000000  0.675476  1
  Ta  Ta7  1  0.500024  0.500000  0.824516  1
  Nb  Nb8  1  0.999999  0.500000  0.992159  1
  Nb  Nb9  1  0.499971  0.000000  0.169530  1
  Nb  Nb10  1  0.999982  0.500000  0.330439  1
  Nb  Nb11  1  0.499999  0.000000  0.507852  1
  Ru  Ru12  1  0.499997  0.250310  0.996992  1
  Ru  Ru13  1  0.499997  0.749689  0.996992  1
  Ru  Ru14  1  0.999977  0.250592  0.154360  1
  Ru  Ru15  1  0.999977  0.749408  0.154360  1
  Ru  Ru16  1  0.499975  0.249363  0.345707  1
  Ru  Ru17  1  0.499975  0.750637  0.345707  1
  Ru  Ru18  1  0.000001  0.249703  0.503006  1
  Ru  Ru19  1  0.000001  0.750296  0.503006  1
  Ru  Ru20  1  0.500036  0.248780  0.668213  1
  Ru  Ru21  1  0.500036  0.751220  0.668213  1
  Ru  Ru22  1  0.000036  0.251219  0.831787  1
  Ru  Ru23  1  0.000036  0.748781  0.831787  1
