# generated using pymatgen
data_Pr20Ga2Si9Ag
_symmetry_space_group_name_H-M   'P 1'
_cell_length_a   7.84361000
_cell_length_b   7.84361000
_cell_length_c   14.55535600
_cell_angle_alpha   90.00000000
_cell_angle_beta   90.00000000
_cell_angle_gamma   90.00000000
_symmetry_Int_Tables_number   1
_chemical_formula_structural   Pr20Ga2Si9Ag
_chemical_formula_sum   'Pr20 Ga2 Si9 Ag1'
_cell_volume   895.47778246
_cell_formula_units_Z   1
loop_
 _symmetry_equiv_pos_site_id
 _symmetry_equiv_pos_as_xyz
  1  'x, y, z'
loop_
 _atom_site_type_symbol
 _atom_site_label
 _atom_site_symmetry_multiplicity
 _atom_site_fract_x
 _atom_site_fract_y
 _atom_site_fract_z
 _atom_site_occupancy
  Pr  Pr0  1  0.809255  0.839185  0.607713  1
  Pr  Pr1  1  0.186794  0.831234  0.109010  1
  Pr  Pr2  1  0.175375  0.820993  0.393584  1
  Pr  Pr3  1  0.000000  0.500000  0.723657  1
  Pr  Pr4  1  0.824625  0.179007  0.393584  1
  Pr  Pr5  1  0.679007  0.675375  0.393584  1
  Pr  Pr6  1  0.660815  0.309255  0.607713  1
  Pr  Pr7  1  0.339185  0.690745  0.607713  1
  Pr  Pr8  1  0.000000  0.500000  0.227945  1
  Pr  Pr9  1  0.668766  0.686794  0.109010  1
  Pr  Pr10  1  0.683510  0.329291  0.891384  1
  Pr  Pr11  1  0.829291  0.816490  0.891384  1
  Pr  Pr12  1  0.320993  0.324625  0.393584  1
  Pr  Pr13  1  0.190745  0.160815  0.607713  1
  Pr  Pr14  1  0.813206  0.168766  0.109010  1
  Pr  Pr15  1  0.316490  0.670709  0.891384  1
  Pr  Pr16  1  0.331234  0.313206  0.109010  1
  Pr  Pr17  1  0.500000  0.000000  0.268681  1
  Pr  Pr18  1  0.170709  0.183510  0.891384  1
  Pr  Pr19  1  0.500000  0.000000  0.771148  1
  Ga  Ga20  1  0.500000  0.000000  0.995444  1
  Ga  Ga21  1  0.000000  0.500000  0.004790  1
  Si  Si22  1  0.615095  0.387471  0.251350  1
  Si  Si23  1  0.112925  0.884372  0.749894  1
  Si  Si24  1  0.384372  0.387075  0.749894  1
  Si  Si25  1  0.384905  0.612529  0.251350  1
  Si  Si26  1  0.887471  0.884905  0.251350  1
  Si  Si27  1  0.615628  0.612925  0.749894  1
  Si  Si28  1  0.887075  0.115628  0.749894  1
  Si  Si29  1  0.500000  0.000000  0.492600  1
  Si  Si30  1  0.112529  0.115095  0.251350  1
  Ag  Ag31  1  0.000000  0.500000  0.503997  1
