# generated using pymatgen
data_Pa3(Al3Tc)4
_symmetry_space_group_name_H-M   'P 1'
_cell_length_a   8.90731600
_cell_length_b   8.90731519
_cell_length_c   9.51784100
_cell_angle_alpha   90.00000000
_cell_angle_beta   90.00000000
_cell_angle_gamma   120.00000301
_symmetry_Int_Tables_number   1
_chemical_formula_structural   Pa3(Al3Tc)4
_chemical_formula_sum   'Pa6 Al24 Tc8'
_cell_volume   653.97740566
_cell_formula_units_Z   2
loop_
 _symmetry_equiv_pos_site_id
 _symmetry_equiv_pos_as_xyz
  1  'x, y, z'
loop_
 _atom_site_type_symbol
 _atom_site_label
 _atom_site_symmetry_multiplicity
 _atom_site_fract_x
 _atom_site_fract_y
 _atom_site_fract_z
 _atom_site_occupancy
  Pa  Pa0  1  0.198716  0.397433  0.250000  1
  Pa  Pa1  1  0.801284  0.602567  0.750000  1
  Pa  Pa2  1  0.602567  0.801284  0.250000  1
  Pa  Pa3  1  0.397433  0.198716  0.750000  1
  Pa  Pa4  1  0.198716  0.801284  0.250000  1
  Pa  Pa5  1  0.801284  0.198716  0.750000  1
  Al  Al6  1  0.333333  0.666667  0.009918  1
  Al  Al7  1  0.666667  0.333333  0.990082  1
  Al  Al8  1  0.666667  0.333333  0.509918  1
  Al  Al9  1  0.333333  0.666667  0.490082  1
  Al  Al10  1  0.161198  0.322394  0.581835  1
  Al  Al11  1  0.838802  0.677606  0.418165  1
  Al  Al12  1  0.677606  0.838802  0.581835  1
  Al  Al13  1  0.838802  0.677606  0.081835  1
  Al  Al14  1  0.322394  0.161198  0.418165  1
  Al  Al15  1  0.161198  0.322394  0.918165  1
  Al  Al16  1  0.161198  0.838802  0.581835  1
  Al  Al17  1  0.322394  0.161198  0.081835  1
  Al  Al18  1  0.838802  0.161198  0.418165  1
  Al  Al19  1  0.677606  0.838802  0.918165  1
  Al  Al20  1  0.838802  0.161198  0.081835  1
  Al  Al21  1  0.161198  0.838802  0.918165  1
  Al  Al22  1  0.562304  0.124607  0.250000  1
  Al  Al23  1  0.437696  0.875393  0.750000  1
  Al  Al24  1  0.875393  0.437696  0.250000  1
  Al  Al25  1  0.124607  0.562304  0.750000  1
  Al  Al26  1  0.562304  0.437696  0.250000  1
  Al  Al27  1  0.437696  0.562304  0.750000  1
  Al  Al28  1  0.000000  0.000000  0.250000  1
  Al  Al29  1  0.000000  0.000000  0.750000  1
  Tc  Tc30  1  0.500000  0.000000  0.000000  1
  Tc  Tc31  1  0.000000  0.500000  0.000000  1
  Tc  Tc32  1  0.500000  0.000000  0.500000  1
  Tc  Tc33  1  0.500000  0.500000  0.000000  1
  Tc  Tc34  1  0.000000  0.500000  0.500000  1
  Tc  Tc35  1  0.500000  0.500000  0.500000  1
  Tc  Tc36  1  0.000000  0.000000  0.000000  1
  Tc  Tc37  1  0.000000  0.000000  0.500000  1
