# generated using pymatgen
data_Er20IrOs3Pd8
_symmetry_space_group_name_H-M   'P 1'
_cell_length_a   11.00067900
_cell_length_b   11.00067900
_cell_length_c   6.31374500
_cell_angle_alpha   90.00000000
_cell_angle_beta   90.00000000
_cell_angle_gamma   90.00000000
_symmetry_Int_Tables_number   1
_chemical_formula_structural   Er20IrOs3Pd8
_chemical_formula_sum   'Er20 Ir1 Os3 Pd8'
_cell_volume   764.05746263
_cell_formula_units_Z   1
loop_
 _symmetry_equiv_pos_site_id
 _symmetry_equiv_pos_as_xyz
  1  'x, y, z'
loop_
 _atom_site_type_symbol
 _atom_site_label
 _atom_site_symmetry_multiplicity
 _atom_site_fract_x
 _atom_site_fract_y
 _atom_site_fract_z
 _atom_site_occupancy
  Er  Er0  1  0.298261  0.084476  0.364571  1
  Er  Er1  1  0.298377  0.915861  0.864738  1
  Er  Er2  1  0.701623  0.084139  0.864738  1
  Er  Er3  1  0.701739  0.915524  0.364571  1
  Er  Er4  1  0.584139  0.798377  0.864738  1
  Er  Er5  1  0.584476  0.201739  0.364571  1
  Er  Er6  1  0.415524  0.798261  0.364571  1
  Er  Er7  1  0.415861  0.201623  0.864738  1
  Er  Er8  1  0.203395  0.414711  0.637756  1
  Er  Er9  1  0.202694  0.585380  0.134043  1
  Er  Er10  1  0.797306  0.414620  0.134043  1
  Er  Er11  1  0.796605  0.585289  0.637756  1
  Er  Er12  1  0.914620  0.702694  0.134043  1
  Er  Er13  1  0.914711  0.296605  0.637756  1
  Er  Er14  1  0.085289  0.703395  0.637756  1
  Er  Er15  1  0.085380  0.297306  0.134043  1
  Er  Er16  1  0.000000  0.000000  0.498996  1
  Er  Er17  1  0.000000  0.000000  0.999034  1
  Er  Er18  1  0.500000  0.500000  0.999034  1
  Er  Er19  1  0.500000  0.500000  0.498996  1
  Ir  Ir20  1  0.000000  0.500000  0.385073  1
  Os  Os21  1  0.500000  0.000000  0.117297  1
  Os  Os22  1  0.500000  0.000000  0.616940  1
  Os  Os23  1  0.000000  0.500000  0.882901  1
  Pd  Pd24  1  0.847123  0.154340  0.249485  1
  Pd  Pd25  1  0.846691  0.845934  0.749839  1
  Pd  Pd26  1  0.153309  0.154066  0.749839  1
  Pd  Pd27  1  0.152877  0.845660  0.249485  1
  Pd  Pd28  1  0.654066  0.346691  0.749839  1
  Pd  Pd29  1  0.654340  0.652877  0.249485  1
  Pd  Pd30  1  0.345660  0.347123  0.249485  1
  Pd  Pd31  1  0.345934  0.653309  0.749839  1
