# generated using pymatgen
data_TmLu19(IrPt2)4
_symmetry_space_group_name_H-M   'P 1'
_cell_length_a   10.82944502
_cell_length_b   10.83024412
_cell_length_c   6.26144601
_cell_angle_alpha   89.99582120
_cell_angle_beta   89.99886959
_cell_angle_gamma   90.01020545
_symmetry_Int_Tables_number   1
_chemical_formula_structural   TmLu19(IrPt2)4
_chemical_formula_sum   'Tm1 Lu19 Ir4 Pt8'
_cell_volume   734.37702043
_cell_formula_units_Z   1
loop_
 _symmetry_equiv_pos_site_id
 _symmetry_equiv_pos_as_xyz
  1  'x, y, z'
loop_
 _atom_site_type_symbol
 _atom_site_label
 _atom_site_symmetry_multiplicity
 _atom_site_fract_x
 _atom_site_fract_y
 _atom_site_fract_z
 _atom_site_occupancy
  Tm  Tm0  1  0.086441  0.294936  0.125517  1
  Lu  Lu1  1  0.295687  0.086097  0.375238  1
  Lu  Lu2  1  0.295507  0.913643  0.875234  1
  Lu  Lu3  1  0.704526  0.086340  0.874930  1
  Lu  Lu4  1  0.704504  0.913560  0.375118  1
  Lu  Lu5  1  0.586403  0.795402  0.875082  1
  Lu  Lu6  1  0.586405  0.204588  0.375132  1
  Lu  Lu7  1  0.413711  0.795390  0.375113  1
  Lu  Lu8  1  0.413619  0.204598  0.875053  1
  Lu  Lu9  1  0.204721  0.413901  0.624956  1
  Lu  Lu10  1  0.204656  0.586788  0.124884  1
  Lu  Lu11  1  0.795111  0.413748  0.124883  1
  Lu  Lu12  1  0.795318  0.586394  0.624974  1
  Lu  Lu13  1  0.913543  0.704589  0.124900  1
  Lu  Lu14  1  0.913316  0.295470  0.625024  1
  Lu  Lu15  1  0.086506  0.704637  0.624860  1
  Lu  Lu16  1  0.999898  0.999899  0.499934  1
  Lu  Lu17  1  0.999830  0.999637  0.999822  1
  Lu  Lu18  1  0.499996  0.500044  0.999878  1
  Lu  Lu19  1  0.500050  0.500047  0.499947  1
  Ir  Ir20  1  0.500105  0.999973  0.121407  1
  Ir  Ir21  1  0.500043  0.999974  0.621443  1
  Ir  Ir22  1  0.999856  0.500357  0.878274  1
  Ir  Ir23  1  0.999819  0.500355  0.378846  1
  Pt  Pt24  1  0.846038  0.153620  0.250127  1
  Pt  Pt25  1  0.846293  0.846197  0.749975  1
  Pt  Pt26  1  0.153866  0.153517  0.749251  1
  Pt  Pt27  1  0.153735  0.846261  0.250026  1
  Pt  Pt28  1  0.653768  0.346266  0.750005  1
  Pt  Pt29  1  0.653771  0.653715  0.249958  1
  Pt  Pt30  1  0.346652  0.346325  0.250207  1
  Pt  Pt31  1  0.346304  0.653732  0.750003  1
