# generated using pymatgen
data_LiErMnPt3
_symmetry_space_group_name_H-M   'P 1'
_cell_length_a   5.15471147
_cell_length_b   5.15470741
_cell_length_c   5.15470900
_cell_angle_alpha   64.32964713
_cell_angle_beta   64.32964414
_cell_angle_gamma   64.32964583
_symmetry_Int_Tables_number   1
_chemical_formula_structural   LiErMnPt3
_chemical_formula_sum   'Li1 Er1 Mn1 Pt3'
_cell_volume   106.05925734
_cell_formula_units_Z   1
loop_
 _symmetry_equiv_pos_site_id
 _symmetry_equiv_pos_as_xyz
  1  'x, y, z'
loop_
 _atom_site_type_symbol
 _atom_site_label
 _atom_site_symmetry_multiplicity
 _atom_site_fract_x
 _atom_site_fract_y
 _atom_site_fract_z
 _atom_site_occupancy
  Li  Li0  1  0.257920  0.257920  0.257920  1
  Er  Er1  1  0.005018  0.005018  0.005018  1
  Mn  Mn2  1  0.621753  0.621753  0.621753  1
  Pt  Pt3  1  0.621002  0.621003  0.123303  1
  Pt  Pt4  1  0.621002  0.123303  0.621002  1
  Pt  Pt5  1  0.123303  0.621002  0.621002  1
