# generated using pymatgen
data_Hf3Zr7CuSn3Sb4
_symmetry_space_group_name_H-M   'P 1'
_cell_length_a   5.90003500
_cell_length_b   8.71129294
_cell_length_c   8.71129500
_cell_angle_alpha   119.99982878
_cell_angle_beta   89.99964750
_cell_angle_gamma   90.00022565
_symmetry_Int_Tables_number   1
_chemical_formula_structural   Hf3Zr7CuSn3Sb4
_chemical_formula_sum   'Hf3 Zr7 Cu1 Sn3 Sb4'
_cell_volume   387.74955540
_cell_formula_units_Z   1
loop_
 _symmetry_equiv_pos_site_id
 _symmetry_equiv_pos_as_xyz
  1  'x, y, z'
loop_
 _atom_site_type_symbol
 _atom_site_label
 _atom_site_symmetry_multiplicity
 _atom_site_fract_x
 _atom_site_fract_y
 _atom_site_fract_z
 _atom_site_occupancy
  Hf  Hf0  1  0.265377  0.720946  0.999999  1
  Hf  Hf1  1  0.265377  0.279057  0.279055  1
  Hf  Hf2  1  0.265375  0.000000  0.720943  1
  Zr  Zr3  1  0.498227  0.333332  0.666665  1
  Zr  Zr4  1  0.498226  0.666667  0.333334  1
  Zr  Zr5  1  0.003098  0.666667  0.333335  1
  Zr  Zr6  1  0.003100  0.333333  0.666665  1
  Zr  Zr7  1  0.737093  0.266331  0.999999  1
  Zr  Zr8  1  0.737094  0.733668  0.733670  1
  Zr  Zr9  1  0.737095  0.000000  0.266330  1
  Cu  Cu10  1  0.475595  0.000003  0.000000  1
  Sn  Sn11  1  0.247914  0.382181  0.000007  1
  Sn  Sn12  1  0.247934  0.617816  0.617815  1
  Sn  Sn13  1  0.247935  0.999998  0.382182  1
  Sb  Sb14  1  0.752025  0.608648  0.999999  1
  Sb  Sb15  1  0.752025  0.391352  0.391350  1
  Sb  Sb16  1  0.752024  0.000001  0.608650  1
  Sb  Sb17  1  0.014490  0.000000  0.000000  1
