# generated using pymatgen
data_Pr6Nd2GePd24
_symmetry_space_group_name_H-M   'P 1'
_cell_length_a   8.51982500
_cell_length_b   8.51982500
_cell_length_c   8.51982500
_cell_angle_alpha   90.00216543
_cell_angle_beta   89.99783457
_cell_angle_gamma   89.99783457
_symmetry_Int_Tables_number   1
_chemical_formula_structural   Pr6Nd2GePd24
_chemical_formula_sum   'Pr6 Nd2 Ge1 Pd24'
_cell_volume   618.43209816
_cell_formula_units_Z   1
loop_
 _symmetry_equiv_pos_site_id
 _symmetry_equiv_pos_as_xyz
  1  'x, y, z'
loop_
 _atom_site_type_symbol
 _atom_site_label
 _atom_site_symmetry_multiplicity
 _atom_site_fract_x
 _atom_site_fract_y
 _atom_site_fract_z
 _atom_site_occupancy
  Pr  Pr0  1  0.252853  0.252814  0.252814  1
  Pr  Pr1  1  0.747147  0.747186  0.747186  1
  Pr  Pr2  1  0.747186  0.747147  0.252814  1
  Pr  Pr3  1  0.747186  0.252814  0.747147  1
  Pr  Pr4  1  0.252814  0.252853  0.747186  1
  Pr  Pr5  1  0.252814  0.747186  0.252853  1
  Nd  Nd6  1  0.252879  0.747121  0.747121  1
  Nd  Nd7  1  0.747121  0.252879  0.252879  1
  Ge  Ge8  1  0.000000  0.000000  0.000000  1
  Pd  Pd9  1  0.260087  0.500157  0.999856  1
  Pd  Pd10  1  0.739913  0.499843  0.000144  1
  Pd  Pd11  1  0.999856  0.260087  0.499843  1
  Pd  Pd12  1  0.500157  0.260087  0.000144  1
  Pd  Pd13  1  0.000144  0.739913  0.500157  1
  Pd  Pd14  1  0.499843  0.739913  0.999856  1
  Pd  Pd15  1  0.500157  0.000144  0.260087  1
  Pd  Pd16  1  0.260087  0.999856  0.500157  1
  Pd  Pd17  1  0.499843  0.999856  0.739913  1
  Pd  Pd18  1  0.739913  0.000144  0.499843  1
  Pd  Pd19  1  0.999856  0.499843  0.260087  1
  Pd  Pd20  1  0.000144  0.500157  0.739913  1
  Pd  Pd21  1  0.253012  0.500160  0.500160  1
  Pd  Pd22  1  0.746988  0.499840  0.499840  1
  Pd  Pd23  1  0.500160  0.253012  0.499840  1
  Pd  Pd24  1  0.499840  0.746988  0.500160  1
  Pd  Pd25  1  0.500160  0.499840  0.253012  1
  Pd  Pd26  1  0.499840  0.500160  0.746988  1
  Pd  Pd27  1  0.290900  0.999843  0.999843  1
  Pd  Pd28  1  0.709100  0.000157  0.000157  1
  Pd  Pd29  1  0.999843  0.290900  0.000157  1
  Pd  Pd30  1  0.000157  0.709100  0.999843  1
  Pd  Pd31  1  0.999843  0.000157  0.290900  1
  Pd  Pd32  1  0.000157  0.999843  0.709100  1
