# generated using pymatgen
data_ZrIr5RhW
_symmetry_space_group_name_H-M   'P 1'
_cell_length_a   5.59784008
_cell_length_b   5.61090365
_cell_length_c   4.49501500
_cell_angle_alpha   90.00000000
_cell_angle_beta   90.00000000
_cell_angle_gamma   120.07722769
_symmetry_Int_Tables_number   1
_chemical_formula_structural   ZrIr5RhW
_chemical_formula_sum   'Zr1 Ir5 Rh1 W1'
_cell_volume   122.17337823
_cell_formula_units_Z   1
loop_
 _symmetry_equiv_pos_site_id
 _symmetry_equiv_pos_as_xyz
  1  'x, y, z'
loop_
 _atom_site_type_symbol
 _atom_site_label
 _atom_site_symmetry_multiplicity
 _atom_site_fract_x
 _atom_site_fract_y
 _atom_site_fract_z
 _atom_site_occupancy
  Zr  Zr0  1  0.666056  0.333028  0.750000  1
  Ir  Ir1  1  0.666976  0.833489  0.750000  1
  Ir  Ir2  1  0.839595  0.160891  0.250000  1
  Ir  Ir3  1  0.166262  0.333074  0.750000  1
  Ir  Ir4  1  0.166262  0.833189  0.750000  1
  Ir  Ir5  1  0.839595  0.678705  0.250000  1
  Rh  Rh6  1  0.322502  0.161251  0.250000  1
  W  W7  1  0.332750  0.666376  0.250000  1
