# generated using pymatgen
data_La6Al24Ir3Ru5
_symmetry_space_group_name_H-M   'P 1'
_cell_length_a   8.96906700
_cell_length_b   8.96906600
_cell_length_c   9.71287900
_cell_angle_alpha   90.00000000
_cell_angle_beta   90.00000000
_cell_angle_gamma   120.00000001
_symmetry_Int_Tables_number   1
_chemical_formula_structural   La6Al24Ir3Ru5
_chemical_formula_sum   'La6 Al24 Ir3 Ru5'
_cell_volume   676.66404103
_cell_formula_units_Z   1
loop_
 _symmetry_equiv_pos_site_id
 _symmetry_equiv_pos_as_xyz
  1  'x, y, z'
loop_
 _atom_site_type_symbol
 _atom_site_label
 _atom_site_symmetry_multiplicity
 _atom_site_fract_x
 _atom_site_fract_y
 _atom_site_fract_z
 _atom_site_occupancy
  La  La0  1  0.191911  0.383822  0.250110  1
  La  La1  1  0.808089  0.616178  0.749890  1
  La  La2  1  0.616178  0.808089  0.250110  1
  La  La3  1  0.383822  0.191911  0.749890  1
  La  La4  1  0.191911  0.808089  0.250110  1
  La  La5  1  0.808089  0.191911  0.749890  1
  Al  Al6  1  0.333333  0.666667  0.005183  1
  Al  Al7  1  0.666667  0.333333  0.994817  1
  Al  Al8  1  0.666667  0.333333  0.500405  1
  Al  Al9  1  0.333333  0.666667  0.499595  1
  Al  Al10  1  0.162396  0.324793  0.578018  1
  Al  Al11  1  0.837604  0.675207  0.421982  1
  Al  Al12  1  0.675207  0.837604  0.578018  1
  Al  Al13  1  0.837863  0.675727  0.075734  1
  Al  Al14  1  0.324793  0.162396  0.421982  1
  Al  Al15  1  0.162137  0.324273  0.924266  1
  Al  Al16  1  0.162396  0.837604  0.578018  1
  Al  Al17  1  0.324273  0.162137  0.075734  1
  Al  Al18  1  0.837604  0.162396  0.421982  1
  Al  Al19  1  0.675727  0.837863  0.924266  1
  Al  Al20  1  0.837863  0.162137  0.075734  1
  Al  Al21  1  0.162137  0.837863  0.924266  1
  Al  Al22  1  0.563824  0.127650  0.249077  1
  Al  Al23  1  0.436176  0.872350  0.750923  1
  Al  Al24  1  0.872350  0.436176  0.249077  1
  Al  Al25  1  0.127650  0.563824  0.750923  1
  Al  Al26  1  0.563824  0.436176  0.249077  1
  Al  Al27  1  0.436176  0.563824  0.750923  1
  Al  Al28  1  0.000000  0.000000  0.249938  1
  Al  Al29  1  0.000000  0.000000  0.750062  1
  Ir  Ir30  1  0.500000  0.000000  0.000000  1
  Ir  Ir31  1  0.000000  0.500000  0.000000  1
  Ir  Ir32  1  0.500000  0.500000  0.000000  1
  Ru  Ru33  1  0.500000  0.000000  0.500000  1
  Ru  Ru34  1  0.000000  0.500000  0.500000  1
  Ru  Ru35  1  0.500000  0.500000  0.500000  1
  Ru  Ru36  1  0.000000  0.000000  0.000000  1
  Ru  Ru37  1  0.000000  0.000000  0.500000  1
