# generated using pymatgen
data_DyEr5Al24(FeRu3)2
_symmetry_space_group_name_H-M   'P 1'
_cell_length_a   8.74606203
_cell_length_b   8.74954389
_cell_length_c   9.49773700
_cell_angle_alpha   89.99980176
_cell_angle_beta   90.00056522
_cell_angle_gamma   120.01333709
_symmetry_Int_Tables_number   1
_chemical_formula_structural   DyEr5Al24(FeRu3)2
_chemical_formula_sum   'Dy1 Er5 Al24 Fe2 Ru6'
_cell_volume   629.34727557
_cell_formula_units_Z   1
loop_
 _symmetry_equiv_pos_site_id
 _symmetry_equiv_pos_as_xyz
  1  'x, y, z'
loop_
 _atom_site_type_symbol
 _atom_site_label
 _atom_site_symmetry_multiplicity
 _atom_site_fract_x
 _atom_site_fract_y
 _atom_site_fract_z
 _atom_site_occupancy
  Dy  Dy0  1  0.385590  0.192795  0.750007  1
  Er  Er1  1  0.193871  0.806373  0.249905  1
  Er  Er2  1  0.193878  0.387514  0.249904  1
  Er  Er3  1  0.612774  0.806389  0.249904  1
  Er  Er4  1  0.806281  0.193810  0.750068  1
  Er  Er5  1  0.806283  0.612465  0.750055  1
  Al  Al6  1  0.561361  0.439028  0.249991  1
  Al  Al7  1  0.561361  0.122334  0.249995  1
  Al  Al8  1  0.877898  0.438949  0.249999  1
  Al  Al9  1  0.438988  0.561676  0.750030  1
  Al  Al10  1  0.438989  0.877314  0.750026  1
  Al  Al11  1  0.122307  0.561152  0.750023  1
  Al  Al12  1  0.318474  0.159234  0.423421  1
  Al  Al13  1  0.840889  0.159202  0.423806  1
  Al  Al14  1  0.840893  0.681690  0.423803  1
  Al  Al15  1  0.681643  0.840824  0.575897  1
  Al  Al16  1  0.159055  0.840363  0.575764  1
  Al  Al17  1  0.159050  0.318688  0.575765  1
  Al  Al18  1  0.681595  0.840796  0.924077  1
  Al  Al19  1  0.159084  0.840349  0.924220  1
  Al  Al20  1  0.159086  0.318736  0.924220  1
  Al  Al21  1  0.318527  0.159263  0.076594  1
  Al  Al22  1  0.840867  0.159226  0.076229  1
  Al  Al23  1  0.840867  0.681642  0.076227  1
  Al  Al24  1  0.666758  0.333371  0.516396  1
  Al  Al25  1  0.333429  0.666719  0.482988  1
  Al  Al26  1  0.333436  0.666719  0.016979  1
  Al  Al27  1  0.666732  0.333366  0.983652  1
  Al  Al28  1  0.000179  0.000092  0.250033  1
  Al  Al29  1  0.998596  0.999296  0.749964  1
  Fe  Fe30  1  0.000161  0.000081  0.499969  1
  Fe  Fe31  1  0.000169  0.000085  0.000037  1
  Ru  Ru32  1  0.500184  0.500362  0.499734  1
  Ru  Ru33  1  0.500183  0.999817  0.499732  1
  Ru  Ru34  1  0.000100  0.500053  0.499948  1
  Ru  Ru35  1  0.500183  0.500364  0.000280  1
  Ru  Ru36  1  0.500180  0.999814  0.000284  1
  Ru  Ru37  1  0.000100  0.500050  0.000074  1
