# generated using pymatgen
data_TbDy3Al10(Ga4Ir3)2
_symmetry_space_group_name_H-M   'P 1'
_cell_length_a   7.54125772
_cell_length_b   7.53940322
_cell_length_c   9.56023613
_cell_angle_alpha   90.09261967
_cell_angle_beta   89.86018973
_cell_angle_gamma   119.65375920
_symmetry_Int_Tables_number   1
_chemical_formula_structural   TbDy3Al10(Ga4Ir3)2
_chemical_formula_sum   'Tb1 Dy3 Al10 Ga8 Ir6'
_cell_volume   472.37113062
_cell_formula_units_Z   1
loop_
 _symmetry_equiv_pos_site_id
 _symmetry_equiv_pos_as_xyz
  1  'x, y, z'
loop_
 _atom_site_type_symbol
 _atom_site_label
 _atom_site_symmetry_multiplicity
 _atom_site_fract_x
 _atom_site_fract_y
 _atom_site_fract_z
 _atom_site_occupancy
  Tb  Tb0  1  0.996280  0.666943  0.745797  1
  Dy  Dy1  1  0.003722  0.333073  0.254206  1
  Dy  Dy2  1  0.672258  0.998496  0.749110  1
  Dy  Dy3  1  0.327734  0.001510  0.250895  1
  Al  Al4  1  0.997811  0.665325  0.070800  1
  Al  Al5  1  0.334552  0.000803  0.927742  1
  Al  Al6  1  0.002185  0.334602  0.929304  1
  Al  Al7  1  0.665520  0.999265  0.072290  1
  Al  Al8  1  0.664209  0.997064  0.426677  1
  Al  Al9  1  0.335876  0.003017  0.573289  1
  Al  Al10  1  0.333443  0.333416  0.055280  1
  Al  Al11  1  0.666493  0.666587  0.944761  1
  Al  Al12  1  0.666852  0.666188  0.554076  1
  Al  Al13  1  0.333075  0.333814  0.445881  1
  Ga  Ga14  1  0.129848  0.126464  0.750606  1
  Ga  Ga15  1  0.870197  0.873630  0.249394  1
  Ga  Ga16  1  0.999665  0.333578  0.579601  1
  Ga  Ga17  1  0.000327  0.666320  0.420297  1
  Ga  Ga18  1  0.341132  0.548760  0.750844  1
  Ga  Ga19  1  0.658916  0.451204  0.249156  1
  Ga  Ga20  1  0.546305  0.339685  0.750115  1
  Ga  Ga21  1  0.453590  0.660245  0.249886  1
  Ir  Ir22  1  0.667133  0.325925  0.499227  1
  Ir  Ir23  1  0.332866  0.674036  0.500705  1
  Ir  Ir24  1  0.328202  0.671719  0.000740  1
  Ir  Ir25  1  0.671791  0.328241  0.999324  1
  Ir  Ir26  1  0.000009  0.000047  0.499961  1
  Ir  Ir27  1  0.000008  0.000042  0.000034  1
