# generated using pymatgen
data_Na4Hf6FeBr18
_symmetry_space_group_name_H-M   'P 1'
_cell_length_a   10.33456811
_cell_length_b   10.28461843
_cell_length_c   10.31842224
_cell_angle_alpha   118.70190340
_cell_angle_beta   100.29148314
_cell_angle_gamma   102.52472161
_symmetry_Int_Tables_number   1
_chemical_formula_structural   Na4Hf6FeBr18
_chemical_formula_sum   'Na4 Hf6 Fe1 Br18'
_cell_volume   886.37208763
_cell_formula_units_Z   1
loop_
 _symmetry_equiv_pos_site_id
 _symmetry_equiv_pos_as_xyz
  1  'x, y, z'
loop_
 _atom_site_type_symbol
 _atom_site_label
 _atom_site_symmetry_multiplicity
 _atom_site_fract_x
 _atom_site_fract_y
 _atom_site_fract_z
 _atom_site_occupancy
  Na  Na0  1  0.626810  0.529075  0.215927  1
  Na  Na1  1  0.373190  0.470925  0.784073  1
  Na  Na2  1  0.654924  0.216138  0.550832  1
  Na  Na3  1  0.345076  0.783862  0.449168  1
  Hf  Hf4  1  0.155620  0.055069  0.238638  1
  Hf  Hf5  1  0.844380  0.944931  0.761362  1
  Hf  Hf6  1  0.862590  0.140332  0.145850  1
  Hf  Hf7  1  0.137410  0.859668  0.854150  1
  Hf  Hf8  1  0.147781  0.243188  0.042840  1
  Hf  Hf9  1  0.852219  0.756812  0.957160  1
  Fe  Fe10  1  0.000000  0.000000  0.000000  1
  Br  Br11  1  0.012821  0.426713  0.207305  1
  Br  Br12  1  0.987179  0.573287  0.792695  1
  Br  Br13  1  0.334750  0.337435  0.318567  1
  Br  Br14  1  0.665250  0.662565  0.681433  1
  Br  Br15  1  0.333901  0.527861  0.096420  1
  Br  Br16  1  0.666099  0.472139  0.903580  1
  Br  Br17  1  0.008458  0.790793  0.218966  1
  Br  Br18  1  0.991542  0.209207  0.781034  1
  Br  Br19  1  0.705236  0.304710  0.314404  1
  Br  Br20  1  0.294764  0.695290  0.685596  1
  Br  Br21  1  0.316912  0.116966  0.887691  1
  Br  Br22  1  0.683088  0.883034  0.112309  1
  Br  Br23  1  0.021309  0.214870  0.428073  1
  Br  Br24  1  0.978691  0.785130  0.571927  1
  Br  Br25  1  0.325847  0.909699  0.105681  1
  Br  Br26  1  0.674153  0.090301  0.894319  1
  Br  Br27  1  0.348118  0.118788  0.517356  1
  Br  Br28  1  0.651882  0.881212  0.482644  1
