# generated using pymatgen
data_Tm3Pa(Ga3Ir)6
_symmetry_space_group_name_H-M   'P 1'
_cell_length_a   7.60713939
_cell_length_b   7.59591068
_cell_length_c   9.42245700
_cell_angle_alpha   90.00000000
_cell_angle_beta   90.00000000
_cell_angle_gamma   119.93872676
_symmetry_Int_Tables_number   1
_chemical_formula_structural   Tm3Pa(Ga3Ir)6
_chemical_formula_sum   'Tm3 Pa1 Ga18 Ir6'
_cell_volume   471.80640779
_cell_formula_units_Z   1
loop_
 _symmetry_equiv_pos_site_id
 _symmetry_equiv_pos_as_xyz
  1  'x, y, z'
loop_
 _atom_site_type_symbol
 _atom_site_label
 _atom_site_symmetry_multiplicity
 _atom_site_fract_x
 _atom_site_fract_y
 _atom_site_fract_z
 _atom_site_occupancy
  Tm  Tm0  1  0.003828  0.331603  0.250000  1
  Tm  Tm1  1  0.668966  0.996542  0.750000  1
  Tm  Tm2  1  0.331528  0.003150  0.250000  1
  Pa  Pa3  1  0.997088  0.668488  0.750000  1
  Ga  Ga4  1  0.129080  0.129587  0.750000  1
  Ga  Ga5  1  0.873806  0.874622  0.250000  1
  Ga  Ga6  1  0.997833  0.330409  0.580118  1
  Ga  Ga7  1  0.002116  0.665878  0.416081  1
  Ga  Ga8  1  0.002116  0.665878  0.083919  1
  Ga  Ga9  1  0.337936  0.001740  0.919854  1
  Ga  Ga10  1  0.997833  0.330409  0.919882  1
  Ga  Ga11  1  0.665965  0.002217  0.081897  1
  Ga  Ga12  1  0.665965  0.002217  0.418103  1
  Ga  Ga13  1  0.337936  0.001740  0.580146  1
  Ga  Ga14  1  0.331230  0.331232  0.068544  1
  Ga  Ga15  1  0.664776  0.668506  0.933703  1
  Ga  Ga16  1  0.664776  0.668506  0.566297  1
  Ga  Ga17  1  0.331230  0.331232  0.431456  1
  Ga  Ga18  1  0.339809  0.545311  0.750000  1
  Ga  Ga19  1  0.660223  0.451948  0.250000  1
  Ga  Ga20  1  0.543909  0.338755  0.750000  1
  Ga  Ga21  1  0.452392  0.660917  0.250000  1
  Ir  Ir22  1  0.673507  0.330670  0.501700  1
  Ir  Ir23  1  0.326521  0.671402  0.501892  1
  Ir  Ir24  1  0.326521  0.671402  0.998108  1
  Ir  Ir25  1  0.673507  0.330670  0.998300  1
  Ir  Ir26  1  0.999802  0.997485  0.501920  1
  Ir  Ir27  1  0.999802  0.997485  0.998080  1
