# generated using pymatgen
data_Ca6AgSn3Hg2
_symmetry_space_group_name_H-M   'P 1'
_cell_length_a   5.41512247
_cell_length_b   7.56590465
_cell_length_c   16.28939109
_cell_angle_alpha   89.99988070
_cell_angle_beta   89.99728254
_cell_angle_gamma   89.95246434
_symmetry_Int_Tables_number   1
_chemical_formula_structural   Ca6AgSn3Hg2
_chemical_formula_sum   'Ca12 Ag2 Sn6 Hg4'
_cell_volume   667.38101424
_cell_formula_units_Z   2
loop_
 _symmetry_equiv_pos_site_id
 _symmetry_equiv_pos_as_xyz
  1  'x, y, z'
loop_
 _atom_site_type_symbol
 _atom_site_label
 _atom_site_symmetry_multiplicity
 _atom_site_fract_x
 _atom_site_fract_y
 _atom_site_fract_z
 _atom_site_occupancy
  Ca  Ca0  1  0.499975  0.251643  0.997935  1
  Ca  Ca1  1  0.500106  0.748361  0.997937  1
  Ca  Ca2  1  0.999997  0.250360  0.166438  1
  Ca  Ca3  1  0.999799  0.749643  0.166436  1
  Ca  Ca4  1  0.499851  0.249596  0.333570  1
  Ca  Ca5  1  0.500042  0.750394  0.333572  1
  Ca  Ca6  1  0.000058  0.248329  0.502111  1
  Ca  Ca7  1  0.999911  0.751669  0.502112  1
  Ca  Ca8  1  0.500040  0.248652  0.668462  1
  Ca  Ca9  1  0.500203  0.751346  0.668462  1
  Ca  Ca10  1  0.000130  0.251308  0.831494  1
  Ca  Ca11  1  0.999960  0.748688  0.831494  1
  Ag  Ag12  1  0.000018  0.999994  0.667205  1
  Ag  Ag13  1  0.500246  0.500003  0.832803  1
  Sn  Sn14  1  0.000003  0.500004  0.999194  1
  Sn  Sn15  1  0.499947  0.000011  0.166715  1
  Sn  Sn16  1  0.999955  0.500003  0.333298  1
  Sn  Sn17  1  0.500004  0.999996  0.500790  1
  Sn  Sn18  1  0.000047  0.499999  0.667374  1
  Sn  Sn19  1  0.500039  0.000000  0.832622  1
  Hg  Hg20  1  0.000000  0.000001  0.997882  1
  Hg  Hg21  1  0.499865  0.500002  0.165715  1
  Hg  Hg22  1  0.999774  0.999999  0.334281  1
  Hg  Hg23  1  0.500032  0.500000  0.502098  1
