# generated using pymatgen
data_Yb2Tm3CuPb3
_symmetry_space_group_name_H-M   'P 1'
_cell_length_a   9.09681800
_cell_length_b   9.09681758
_cell_length_c   6.80428800
_cell_angle_alpha   90.00000000
_cell_angle_beta   90.00000000
_cell_angle_gamma   120.00000152
_symmetry_Int_Tables_number   1
_chemical_formula_structural   Yb2Tm3CuPb3
_chemical_formula_sum   'Yb4 Tm6 Cu2 Pb6'
_cell_volume   487.63211966
_cell_formula_units_Z   2
loop_
 _symmetry_equiv_pos_site_id
 _symmetry_equiv_pos_as_xyz
  1  'x, y, z'
loop_
 _atom_site_type_symbol
 _atom_site_label
 _atom_site_symmetry_multiplicity
 _atom_site_fract_x
 _atom_site_fract_y
 _atom_site_fract_z
 _atom_site_occupancy
  Yb  Yb0  1  0.333333  0.666667  0.500000  1
  Yb  Yb1  1  0.666667  0.333333  0.500000  1
  Yb  Yb2  1  0.666667  0.333333  0.000000  1
  Yb  Yb3  1  0.333333  0.666667  0.000000  1
  Tm  Tm4  1  0.254663  0.000271  0.749377  1
  Tm  Tm5  1  0.745608  0.000271  0.250623  1
  Tm  Tm6  1  0.999729  0.254392  0.749377  1
  Tm  Tm7  1  0.999729  0.745337  0.250623  1
  Tm  Tm8  1  0.745608  0.745337  0.749377  1
  Tm  Tm9  1  0.254663  0.254392  0.250623  1
  Cu  Cu10  1  0.000000  0.000000  0.500000  1
  Cu  Cu11  1  0.000000  0.000000  0.000000  1
  Pb  Pb12  1  0.610943  0.999723  0.750964  1
  Pb  Pb13  1  0.388779  0.999723  0.249036  1
  Pb  Pb14  1  0.000277  0.611221  0.750964  1
  Pb  Pb15  1  0.000277  0.389057  0.249036  1
  Pb  Pb16  1  0.388779  0.389057  0.750964  1
  Pb  Pb17  1  0.610943  0.611221  0.249036  1
