# generated using pymatgen
data_Ho6Th2MgZnCo2
_symmetry_space_group_name_H-M   'P 1'
_cell_length_a   9.51118884
_cell_length_b   9.51118826
_cell_length_c   9.53130200
_cell_angle_alpha   59.93002010
_cell_angle_beta   59.93002212
_cell_angle_gamma   60.19615593
_symmetry_Int_Tables_number   1
_chemical_formula_structural   Ho6Th2MgZnCo2
_chemical_formula_sum   'Ho12 Th4 Mg2 Zn2 Co4'
_cell_volume   609.93696171
_cell_formula_units_Z   2
loop_
 _symmetry_equiv_pos_site_id
 _symmetry_equiv_pos_as_xyz
  1  'x, y, z'
loop_
 _atom_site_type_symbol
 _atom_site_label
 _atom_site_symmetry_multiplicity
 _atom_site_fract_x
 _atom_site_fract_y
 _atom_site_fract_z
 _atom_site_occupancy
  Ho  Ho0  1  0.812620  0.187063  0.187417  1
  Ho  Ho1  1  0.187063  0.812620  0.812900  1
  Ho  Ho2  1  0.187063  0.812620  0.187417  1
  Ho  Ho3  1  0.812620  0.187063  0.812900  1
  Ho  Ho4  1  0.187155  0.187155  0.812845  1
  Ho  Ho5  1  0.810874  0.810874  0.189126  1
  Ho  Ho6  1  0.931582  0.563982  0.565538  1
  Ho  Ho7  1  0.563982  0.931582  0.938898  1
  Ho  Ho8  1  0.563982  0.931582  0.565538  1
  Ho  Ho9  1  0.931582  0.563982  0.938898  1
  Ho  Ho10  1  0.564481  0.564481  0.935519  1
  Ho  Ho11  1  0.935380  0.935380  0.564620  1
  Th  Th12  1  0.346236  0.346236  0.345920  1
  Th  Th13  1  0.346236  0.346236  0.961609  1
  Th  Th14  1  0.349409  0.957356  0.346618  1
  Th  Th15  1  0.957356  0.349409  0.346618  1
  Mg  Mg16  1  0.580617  0.270271  0.574555  1
  Mg  Mg17  1  0.270271  0.580617  0.574555  1
  Zn  Zn18  1  0.582764  0.582764  0.583031  1
  Zn  Zn19  1  0.582764  0.582764  0.251439  1
  Co  Co20  1  0.143870  0.143870  0.145920  1
  Co  Co21  1  0.143870  0.143870  0.566339  1
  Co  Co22  1  0.143010  0.565211  0.145889  1
  Co  Co23  1  0.565211  0.143010  0.145889  1
