# generated using pymatgen
data_Er8Cu(Si4Ni)3
_symmetry_space_group_name_H-M   'P 1'
_cell_length_a   7.92212100
_cell_length_b   7.92212022
_cell_length_c   7.96868700
_cell_angle_alpha   90.00000000
_cell_angle_beta   90.00000000
_cell_angle_gamma   119.99999074
_symmetry_Int_Tables_number   1
_chemical_formula_structural   Er8Cu(Si4Ni)3
_chemical_formula_sum   'Er8 Cu1 Si12 Ni3'
_cell_volume   433.11212372
_cell_formula_units_Z   1
loop_
 _symmetry_equiv_pos_site_id
 _symmetry_equiv_pos_as_xyz
  1  'x, y, z'
loop_
 _atom_site_type_symbol
 _atom_site_label
 _atom_site_symmetry_multiplicity
 _atom_site_fract_x
 _atom_site_fract_y
 _atom_site_fract_z
 _atom_site_occupancy
  Er  Er0  1  0.501357  0.002715  0.248354  1
  Er  Er1  1  0.501367  0.002734  0.751628  1
  Er  Er2  1  0.997285  0.498643  0.248354  1
  Er  Er3  1  0.997266  0.498633  0.751628  1
  Er  Er4  1  0.501357  0.498643  0.248354  1
  Er  Er5  1  0.501367  0.498633  0.751628  1
  Er  Er6  1  0.000000  0.000000  0.249105  1
  Er  Er7  1  0.000000  0.000000  0.750859  1
  Cu  Cu8  1  0.333333  0.666667  0.499935  1
  Si  Si9  1  0.171079  0.342157  0.999993  1
  Si  Si10  1  0.829100  0.658200  0.000060  1
  Si  Si11  1  0.657843  0.828921  0.999993  1
  Si  Si12  1  0.828086  0.656172  0.500002  1
  Si  Si13  1  0.341800  0.170900  0.000060  1
  Si  Si14  1  0.167946  0.335890  0.499892  1
  Si  Si15  1  0.171079  0.828921  0.999993  1
  Si  Si16  1  0.343828  0.171914  0.500002  1
  Si  Si17  1  0.829100  0.170900  0.000060  1
  Si  Si18  1  0.664110  0.832054  0.499892  1
  Si  Si19  1  0.828086  0.171914  0.500002  1
  Si  Si20  1  0.167946  0.832054  0.499892  1
  Ni  Ni21  1  0.333333  0.666667  0.999996  1
  Ni  Ni22  1  0.666667  0.333333  0.000134  1
  Ni  Ni23  1  0.666667  0.333333  0.500188  1
