# generated using pymatgen
data_EuHoSe2
_symmetry_space_group_name_H-M   'P 1'
_cell_length_a   7.27803373
_cell_length_b   7.27803341
_cell_length_c   7.27803416
_cell_angle_alpha   33.24557413
_cell_angle_beta   33.24558181
_cell_angle_gamma   33.24557587
_symmetry_Int_Tables_number   1
_chemical_formula_structural   EuHoSe2
_chemical_formula_sum   'Eu1 Ho1 Se2'
_cell_volume   103.15420397
_cell_formula_units_Z   1
loop_
 _symmetry_equiv_pos_site_id
 _symmetry_equiv_pos_as_xyz
  1  'x, y, z'
loop_
 _atom_site_type_symbol
 _atom_site_label
 _atom_site_symmetry_multiplicity
 _atom_site_fract_x
 _atom_site_fract_y
 _atom_site_fract_z
 _atom_site_occupancy
  Eu  Eu0  1  0.500000  0.500000  0.500000  1
  Ho  Ho1  1  0.000000  0.000000  0.000000  1
  Se  Se2  1  0.744747  0.744747  0.744747  1
  Se  Se3  1  0.255253  0.255253  0.255253  1
