# generated using pymatgen
data_K4UBiSe6
_symmetry_space_group_name_H-M   'P 1'
_cell_length_a   7.62368712
_cell_length_b   7.62368685
_cell_length_c   8.03371513
_cell_angle_alpha   80.77483654
_cell_angle_beta   80.77482951
_cell_angle_gamma   120.13664257
_symmetry_Int_Tables_number   1
_chemical_formula_structural   K4UBiSe6
_chemical_formula_sum   'K4 U1 Bi1 Se6'
_cell_volume   382.40029734
_cell_formula_units_Z   1
loop_
 _symmetry_equiv_pos_site_id
 _symmetry_equiv_pos_as_xyz
  1  'x, y, z'
loop_
 _atom_site_type_symbol
 _atom_site_label
 _atom_site_symmetry_multiplicity
 _atom_site_fract_x
 _atom_site_fract_y
 _atom_site_fract_z
 _atom_site_occupancy
  K  K0  1  0.342744  0.657256  0.500000  1
  K  K1  1  0.653861  0.346139  0.500000  1
  K  K2  1  0.003651  0.996349  0.500000  1
  K  K3  1  0.499870  0.500130  0.000000  1
  U  U4  1  0.832330  0.167670  0.000000  1
  Bi  Bi5  1  0.169346  0.830654  0.000000  1
  Se  Se6  1  0.788099  0.807998  0.207430  1
  Se  Se7  1  0.447881  0.069226  0.210814  1
  Se  Se8  1  0.048545  0.409104  0.210541  1
  Se  Se9  1  0.590896  0.951455  0.789459  1
  Se  Se10  1  0.930774  0.552119  0.789186  1
  Se  Se11  1  0.192002  0.211901  0.792570  1
