# generated using pymatgen
data_CuReO3F2
_symmetry_space_group_name_H-M   'P 1'
_cell_length_a   3.84004070
_cell_length_b   10.12860100
_cell_length_c   5.39906335
_cell_angle_alpha   90.00000000
_cell_angle_beta   110.60787515
_cell_angle_gamma   90.00000000
_symmetry_Int_Tables_number   1
_chemical_formula_structural   CuReO3F2
_chemical_formula_sum   'Cu2 Re2 O6 F4'
_cell_volume   196.55529350
_cell_formula_units_Z   2
loop_
 _symmetry_equiv_pos_site_id
 _symmetry_equiv_pos_as_xyz
  1  'x, y, z'
loop_
 _atom_site_type_symbol
 _atom_site_label
 _atom_site_symmetry_multiplicity
 _atom_site_fract_x
 _atom_site_fract_y
 _atom_site_fract_z
 _atom_site_occupancy
  Cu  Cu0  1  0.000000  0.000000  0.000000  1
  Cu  Cu1  1  0.000000  0.500000  0.000000  1
  Re  Re2  1  0.805483  0.250000  0.499067  1
  Re  Re3  1  0.194517  0.750000  0.500934  1
  O  O4  1  0.124623  0.616699  0.276914  1
  O  O5  1  0.124623  0.883302  0.276914  1
  O  O6  1  0.249314  0.250000  0.456583  1
  O  O7  1  0.750685  0.750000  0.543418  1
  O  O8  1  0.875376  0.116698  0.723087  1
  O  O9  1  0.875376  0.383302  0.723087  1
  F  F10  1  0.611889  0.123122  0.196736  1
  F  F11  1  0.611889  0.376878  0.196736  1
  F  F12  1  0.388113  0.623122  0.803265  1
  F  F13  1  0.388113  0.876878  0.803265  1
