# generated using pymatgen
data_Hf5UFe16Si7
_symmetry_space_group_name_H-M   'P 1'
_cell_length_a   8.08092086
_cell_length_b   8.06988660
_cell_length_c   8.06988655
_cell_angle_alpha   60.09049067
_cell_angle_beta   59.95476200
_cell_angle_gamma   59.95476160
_symmetry_Int_Tables_number   1
_chemical_formula_structural   Hf5UFe16Si7
_chemical_formula_sum   'Hf5 U1 Fe16 Si7'
_cell_volume   372.11668043
_cell_formula_units_Z   1
loop_
 _symmetry_equiv_pos_site_id
 _symmetry_equiv_pos_as_xyz
  1  'x, y, z'
loop_
 _atom_site_type_symbol
 _atom_site_label
 _atom_site_symmetry_multiplicity
 _atom_site_fract_x
 _atom_site_fract_y
 _atom_site_fract_z
 _atom_site_occupancy
  Hf  Hf0  1  0.793014  0.206986  0.791205  1
  Hf  Hf1  1  0.208795  0.791205  0.206986  1
  Hf  Hf2  1  0.208795  0.206986  0.791205  1
  Hf  Hf3  1  0.793014  0.791205  0.206986  1
  Hf  Hf4  1  0.204233  0.795767  0.795767  1
  U  U5  1  0.781312  0.218688  0.218688  1
  Fe  Fe6  1  0.172035  0.175270  0.175270  1
  Fe  Fe7  1  0.175644  0.177176  0.471537  1
  Fe  Fe8  1  0.824730  0.827965  0.522574  1
  Fe  Fe9  1  0.824730  0.522574  0.827965  1
  Fe  Fe10  1  0.622065  0.134778  0.621092  1
  Fe  Fe11  1  0.822824  0.824356  0.824356  1
  Fe  Fe12  1  0.378908  0.377935  0.377935  1
  Fe  Fe13  1  0.622917  0.620353  0.620353  1
  Fe  Fe14  1  0.477426  0.175270  0.175270  1
  Fe  Fe15  1  0.528463  0.824356  0.824356  1
  Fe  Fe16  1  0.175644  0.471537  0.177176  1
  Fe  Fe17  1  0.622065  0.621092  0.134778  1
  Fe  Fe18  1  0.379647  0.377083  0.863623  1
  Fe  Fe19  1  0.865222  0.377935  0.377935  1
  Fe  Fe20  1  0.379647  0.863623  0.377083  1
  Fe  Fe21  1  0.136377  0.620353  0.620353  1
  Si  Si22  1  0.492889  0.507111  0.990278  1
  Si  Si23  1  0.498949  0.501051  0.501051  1
  Si  Si24  1  0.492889  0.990278  0.507111  1
  Si  Si25  1  0.009722  0.990278  0.507111  1
  Si  Si26  1  0.999162  0.500838  0.500838  1
  Si  Si27  1  0.009722  0.507111  0.990278  1
  Si  Si28  1  0.499162  0.000838  0.000838  1
