# generated using pymatgen
data_DyYEr2(ReC2)2
_symmetry_space_group_name_H-M   'P 1'
_cell_length_a   5.09148400
_cell_length_b   6.57549300
_cell_length_c   9.82492200
_cell_angle_alpha   90.00000000
_cell_angle_beta   90.00000000
_cell_angle_gamma   90.00000000
_symmetry_Int_Tables_number   1
_chemical_formula_structural   DyYEr2(ReC2)2
_chemical_formula_sum   'Dy2 Y2 Er4 Re4 C8'
_cell_volume   328.92873461
_cell_formula_units_Z   2
loop_
 _symmetry_equiv_pos_site_id
 _symmetry_equiv_pos_as_xyz
  1  'x, y, z'
loop_
 _atom_site_type_symbol
 _atom_site_label
 _atom_site_symmetry_multiplicity
 _atom_site_fract_x
 _atom_site_fract_y
 _atom_site_fract_z
 _atom_site_occupancy
  Dy  Dy0  1  0.750000  0.533931  0.784628  1
  Dy  Dy1  1  0.750000  0.033931  0.715372  1
  Y  Y2  1  0.250000  0.465731  0.215408  1
  Y  Y3  1  0.250000  0.965731  0.284592  1
  Er  Er4  1  0.250000  0.823214  0.942648  1
  Er  Er5  1  0.250000  0.323214  0.557352  1
  Er  Er6  1  0.750000  0.177010  0.057227  1
  Er  Er7  1  0.750000  0.677010  0.442773  1
  Re  Re8  1  0.250000  0.279923  0.866556  1
  Re  Re9  1  0.250000  0.779923  0.633444  1
  Re  Re10  1  0.750000  0.720285  0.133313  1
  Re  Re11  1  0.750000  0.220285  0.366687  1
  C  C12  1  0.250000  0.047639  0.740432  1
  C  C13  1  0.250000  0.547639  0.759568  1
  C  C14  1  0.750000  0.952505  0.259490  1
  C  C15  1  0.750000  0.452505  0.240510  1
  C  C16  1  0.250000  0.674020  0.450520  1
  C  C17  1  0.250000  0.174020  0.049480  1
  C  C18  1  0.750000  0.325743  0.549823  1
  C  C19  1  0.750000  0.825743  0.950177  1
