# generated using pymatgen
data_Nd3Dy(ZrPt)4
_symmetry_space_group_name_H-M   'P 1'
_cell_length_a   4.70037400
_cell_length_b   7.47666467
_cell_length_c   8.21078614
_cell_angle_alpha   89.44844287
_cell_angle_beta   90.00000000
_cell_angle_gamma   90.00000000
_symmetry_Int_Tables_number   1
_chemical_formula_structural   Nd3Dy(ZrPt)4
_chemical_formula_sum   'Nd3 Dy1 Zr4 Pt4'
_cell_volume   288.53927452
_cell_formula_units_Z   1
loop_
 _symmetry_equiv_pos_site_id
 _symmetry_equiv_pos_as_xyz
  1  'x, y, z'
loop_
 _atom_site_type_symbol
 _atom_site_label
 _atom_site_symmetry_multiplicity
 _atom_site_fract_x
 _atom_site_fract_y
 _atom_site_fract_z
 _atom_site_occupancy
  Nd  Nd0  1  0.250000  0.980424  0.326334  1
  Nd  Nd1  1  0.250000  0.484166  0.173790  1
  Nd  Nd2  1  0.750000  0.018815  0.675494  1
  Dy  Dy3  1  0.750000  0.521156  0.822522  1
  Zr  Zr4  1  0.250000  0.354513  0.583279  1
  Zr  Zr5  1  0.250000  0.855688  0.918721  1
  Zr  Zr6  1  0.750000  0.643543  0.422443  1
  Zr  Zr7  1  0.750000  0.145688  0.078298  1
  Pt  Pt8  1  0.250000  0.220912  0.907830  1
  Pt  Pt9  1  0.250000  0.711195  0.598553  1
  Pt  Pt10  1  0.750000  0.779371  0.085998  1
  Pt  Pt11  1  0.750000  0.284530  0.406739  1
