# generated using pymatgen
data_Hf18Ta4Re3As2W
_symmetry_space_group_name_H-M   'P 1'
_cell_length_a   8.72473525
_cell_length_b   8.75223739
_cell_length_c   8.76970800
_cell_angle_alpha   90.00000000
_cell_angle_beta   90.00000000
_cell_angle_gamma   120.29712551
_symmetry_Int_Tables_number   1
_chemical_formula_structural   Hf18Ta4Re3As2W
_chemical_formula_sum   'Hf18 Ta4 Re3 As2 W1'
_cell_volume   578.20123690
_cell_formula_units_Z   1
loop_
 _symmetry_equiv_pos_site_id
 _symmetry_equiv_pos_as_xyz
  1  'x, y, z'
loop_
 _atom_site_type_symbol
 _atom_site_label
 _atom_site_symmetry_multiplicity
 _atom_site_fract_x
 _atom_site_fract_y
 _atom_site_fract_z
 _atom_site_occupancy
  Hf  Hf0  1  0.804125  0.609112  0.546143  1
  Hf  Hf1  1  0.804123  0.195149  0.546864  1
  Hf  Hf2  1  0.387900  0.194102  0.544151  1
  Hf  Hf3  1  0.194634  0.388763  0.452663  1
  Hf  Hf4  1  0.195250  0.804886  0.451439  1
  Hf  Hf5  1  0.609946  0.804896  0.452551  1
  Hf  Hf6  1  0.194634  0.388763  0.047337  1
  Hf  Hf7  1  0.195250  0.804886  0.048561  1
  Hf  Hf8  1  0.609946  0.804896  0.047449  1
  Hf  Hf9  1  0.804125  0.609112  0.953857  1
  Hf  Hf10  1  0.804123  0.195149  0.953136  1
  Hf  Hf11  1  0.387900  0.194102  0.955849  1
  Hf  Hf12  1  0.460381  0.922005  0.750000  1
  Hf  Hf13  1  0.458548  0.536881  0.750000  1
  Hf  Hf14  1  0.078857  0.537739  0.750000  1
  Hf  Hf15  1  0.537469  0.080057  0.250000  1
  Hf  Hf16  1  0.537430  0.457358  0.250000  1
  Hf  Hf17  1  0.921168  0.460397  0.250000  1
  Ta  Ta18  1  0.111726  0.892189  0.750000  1
  Ta  Ta19  1  0.780468  0.891960  0.750000  1
  Ta  Ta20  1  0.894748  0.782647  0.250000  1
  Ta  Ta21  1  0.894566  0.112245  0.250000  1
  Re  Re22  1  0.222535  0.111647  0.250000  1
  Re  Re23  1  0.000905  0.000987  0.501142  1
  Re  Re24  1  0.000905  0.000987  0.998858  1
  As  As25  1  0.664857  0.332416  0.750000  1
  As  As26  1  0.332602  0.665852  0.250000  1
  W  W27  1  0.110882  0.220818  0.750000  1
