# generated using pymatgen
data_Pa4Sn2Ru3Au
_symmetry_space_group_name_H-M   'P 1'
_cell_length_a   7.63018000
_cell_length_b   7.63018015
_cell_length_c   3.74621000
_cell_angle_alpha   90.00000000
_cell_angle_beta   90.00000000
_cell_angle_gamma   90.89848552
_symmetry_Int_Tables_number   1
_chemical_formula_structural   Pa4Sn2Ru3Au
_chemical_formula_sum   'Pa4 Sn2 Ru3 Au1'
_cell_volume   218.07621113
_cell_formula_units_Z   1
loop_
 _symmetry_equiv_pos_site_id
 _symmetry_equiv_pos_as_xyz
  1  'x, y, z'
loop_
 _atom_site_type_symbol
 _atom_site_label
 _atom_site_symmetry_multiplicity
 _atom_site_fract_x
 _atom_site_fract_y
 _atom_site_fract_z
 _atom_site_occupancy
  Pa  Pa0  1  0.334055  0.810146  0.500000  1
  Pa  Pa1  1  0.822762  0.677238  0.500000  1
  Pa  Pa2  1  0.149227  0.350773  0.500000  1
  Pa  Pa3  1  0.689854  0.165945  0.500000  1
  Sn  Sn4  1  0.001324  0.995809  0.000000  1
  Sn  Sn5  1  0.504191  0.498676  0.000000  1
  Ru  Ru6  1  0.863174  0.360956  0.000000  1
  Ru  Ru7  1  0.139044  0.636826  0.000000  1
  Ru  Ru8  1  0.629831  0.870169  0.000000  1
  Au  Au9  1  0.366538  0.133462  0.000000  1
