# generated using pymatgen
data_Y3Sc(Si4Tc3)2
_symmetry_space_group_name_H-M   'P 1'
_cell_length_a   6.76148672
_cell_length_b   6.74098885
_cell_length_c   6.75198012
_cell_angle_alpha   70.03459916
_cell_angle_beta   89.96181269
_cell_angle_gamma   90.93244371
_symmetry_Int_Tables_number   1
_chemical_formula_structural   Y3Sc(Si4Tc3)2
_chemical_formula_sum   'Y3 Sc1 Si8 Tc6'
_cell_volume   289.20853647
_cell_formula_units_Z   1
loop_
 _symmetry_equiv_pos_site_id
 _symmetry_equiv_pos_as_xyz
  1  'x, y, z'
loop_
 _atom_site_type_symbol
 _atom_site_label
 _atom_site_symmetry_multiplicity
 _atom_site_fract_x
 _atom_site_fract_y
 _atom_site_fract_z
 _atom_site_occupancy
  Y  Y0  1  0.329558  0.445697  0.189524  1
  Y  Y1  1  0.832986  0.058373  0.808972  1
  Y  Y2  1  0.665440  0.558915  0.808357  1
  Sc  Sc3  1  0.171970  0.939539  0.195274  1
  Si  Si4  1  0.543540  0.128287  0.100276  1
  Si  Si5  1  0.356758  0.636924  0.508849  1
  Si  Si6  1  0.868526  0.863230  0.490384  1
  Si  Si7  1  0.050715  0.374903  0.899761  1
  Si  Si8  1  0.143837  0.125410  0.507338  1
  Si  Si9  1  0.647890  0.372551  0.472272  1
  Si  Si10  1  0.941233  0.617918  0.111519  1
  Si  Si11  1  0.447387  0.881312  0.903481  1
  Tc  Tc12  1  0.859497  0.221789  0.236957  1
  Tc  Tc13  1  0.342444  0.255271  0.760124  1
  Tc  Tc14  1  0.153185  0.754698  0.767728  1
  Tc  Tc15  1  0.647575  0.756645  0.243870  1
  Tc  Tc16  1  0.497320  0.004810  0.497995  1
  Tc  Tc17  1  0.000140  0.503728  0.497319  1
