# generated using pymatgen
data_HoEr4InSb2
_symmetry_space_group_name_H-M   'P 1'
_cell_length_a   8.90690244
_cell_length_b   8.88189633
_cell_length_c   6.41618000
_cell_angle_alpha   90.00000000
_cell_angle_beta   90.00000000
_cell_angle_gamma   119.90716229
_symmetry_Int_Tables_number   1
_chemical_formula_structural   HoEr4InSb2
_chemical_formula_sum   'Ho2 Er8 In2 Sb4'
_cell_volume   439.99231032
_cell_formula_units_Z   2
loop_
 _symmetry_equiv_pos_site_id
 _symmetry_equiv_pos_as_xyz
  1  'x, y, z'
loop_
 _atom_site_type_symbol
 _atom_site_label
 _atom_site_symmetry_multiplicity
 _atom_site_fract_x
 _atom_site_fract_y
 _atom_site_fract_z
 _atom_site_occupancy
  Ho  Ho0  1  0.002320  0.760752  0.750000  1
  Ho  Ho1  1  0.002320  0.241569  0.250000  1
  Er  Er2  1  0.758107  0.759720  0.250000  1
  Er  Er3  1  0.758107  0.998387  0.750000  1
  Er  Er4  1  0.241006  0.237361  0.750000  1
  Er  Er5  1  0.241006  0.003646  0.250000  1
  Er  Er6  1  0.334170  0.667085  0.500000  1
  Er  Er7  1  0.663277  0.331638  0.000000  1
  Er  Er8  1  0.663277  0.331638  0.500000  1
  Er  Er9  1  0.334170  0.667085  0.000000  1
  In  In10  1  0.394496  0.998636  0.750000  1
  In  In11  1  0.394496  0.395860  0.250000  1
  Sb  Sb12  1  0.999054  0.608030  0.250000  1
  Sb  Sb13  1  0.999054  0.391024  0.750000  1
  Sb  Sb14  1  0.607570  0.607247  0.750000  1
  Sb  Sb15  1  0.607570  0.000323  0.250000  1
