# generated using pymatgen
data_HoErTm3(In2Pt)2
_symmetry_space_group_name_H-M   'P 1'
_cell_length_a   3.61880500
_cell_length_b   8.07172900
_cell_length_c   18.12891500
_cell_angle_alpha   89.99878196
_cell_angle_beta   90.00000000
_cell_angle_gamma   90.00000000
_symmetry_Int_Tables_number   1
_chemical_formula_structural   HoErTm3(In2Pt)2
_chemical_formula_sum   'Ho2 Er2 Tm6 In8 Pt4'
_cell_volume   529.54584755
_cell_formula_units_Z   2
loop_
 _symmetry_equiv_pos_site_id
 _symmetry_equiv_pos_as_xyz
  1  'x, y, z'
loop_
 _atom_site_type_symbol
 _atom_site_label
 _atom_site_symmetry_multiplicity
 _atom_site_fract_x
 _atom_site_fract_y
 _atom_site_fract_z
 _atom_site_occupancy
  Ho  Ho0  1  0.000000  0.000000  0.000000  1
  Ho  Ho1  1  0.000000  0.500000  0.500000  1
  Er  Er2  1  0.000000  0.116747  0.414394  1
  Er  Er3  1  0.000000  0.883253  0.585606  1
  Tm  Tm4  1  0.000000  0.383317  0.914179  1
  Tm  Tm5  1  0.000000  0.616683  0.085821  1
  Tm  Tm6  1  0.000000  0.243946  0.220970  1
  Tm  Tm7  1  0.000000  0.756054  0.779030  1
  Tm  Tm8  1  0.000000  0.256248  0.721207  1
  Tm  Tm9  1  0.000000  0.743752  0.278793  1
  In  In10  1  0.500000  0.423794  0.351175  1
  In  In11  1  0.500000  0.576206  0.648825  1
  In  In12  1  0.500000  0.076730  0.851346  1
  In  In13  1  0.500000  0.923270  0.148654  1
  In  In14  1  0.500000  0.293390  0.066620  1
  In  In15  1  0.500000  0.706610  0.933380  1
  In  In16  1  0.500000  0.207600  0.567097  1
  In  In17  1  0.500000  0.792400  0.432903  1
  Pt  Pt18  1  0.500000  0.025047  0.303388  1
  Pt  Pt19  1  0.500000  0.974953  0.696612  1
  Pt  Pt20  1  0.500000  0.474738  0.803947  1
  Pt  Pt21  1  0.500000  0.525262  0.196053  1
