# generated using pymatgen
data_Tb4DyY3(CdIr)2
_symmetry_space_group_name_H-M   'P 1'
_cell_length_a   9.67505469
_cell_length_b   9.67505402
_cell_length_c   9.67165800
_cell_angle_alpha   60.01161058
_cell_angle_beta   60.01161287
_cell_angle_gamma   59.97677527
_symmetry_Int_Tables_number   1
_chemical_formula_structural   Tb4DyY3(CdIr)2
_chemical_formula_sum   'Tb8 Dy2 Y6 Cd4 Ir4'
_cell_volume   640.16606623
_cell_formula_units_Z   2
loop_
 _symmetry_equiv_pos_site_id
 _symmetry_equiv_pos_as_xyz
  1  'x, y, z'
loop_
 _atom_site_type_symbol
 _atom_site_label
 _atom_site_symmetry_multiplicity
 _atom_site_fract_x
 _atom_site_fract_y
 _atom_site_fract_z
 _atom_site_occupancy
  Tb  Tb0  1  0.348646  0.348646  0.349018  1
  Tb  Tb1  1  0.348646  0.348646  0.953688  1
  Tb  Tb2  1  0.349018  0.953688  0.348646  1
  Tb  Tb3  1  0.953688  0.349018  0.348646  1
  Tb  Tb4  1  0.810369  0.189631  0.189631  1
  Tb  Tb5  1  0.189631  0.810369  0.810369  1
  Tb  Tb6  1  0.189631  0.810369  0.189631  1
  Tb  Tb7  1  0.810369  0.189631  0.810369  1
  Dy  Dy8  1  0.189838  0.189838  0.810162  1
  Dy  Dy9  1  0.810162  0.810162  0.189838  1
  Y  Y10  1  0.937734  0.562266  0.562266  1
  Y  Y11  1  0.562266  0.937734  0.937734  1
  Y  Y12  1  0.562266  0.937734  0.562266  1
  Y  Y13  1  0.937734  0.562266  0.937734  1
  Y  Y14  1  0.562299  0.562299  0.937701  1
  Y  Y15  1  0.937701  0.937701  0.562299  1
  Cd  Cd16  1  0.580823  0.580823  0.580633  1
  Cd  Cd17  1  0.580823  0.580823  0.257720  1
  Cd  Cd18  1  0.580633  0.257720  0.580823  1
  Cd  Cd19  1  0.257720  0.580633  0.580823  1
  Ir  Ir20  1  0.141829  0.141829  0.141045  1
  Ir  Ir21  1  0.141829  0.141829  0.575297  1
  Ir  Ir22  1  0.141045  0.575297  0.141829  1
  Ir  Ir23  1  0.575297  0.141045  0.141829  1
