# generated using pymatgen
data_Lu12InNi4Ag
_symmetry_space_group_name_H-M   'P 1'
_cell_length_a   8.18458436
_cell_length_b   8.18458479
_cell_length_c   8.18458400
_cell_angle_alpha   112.16079478
_cell_angle_beta   109.76614209
_cell_angle_gamma   106.53558597
_symmetry_Int_Tables_number   1
_chemical_formula_structural   Lu12InNi4Ag
_chemical_formula_sum   'Lu12 In1 Ni4 Ag1'
_cell_volume   421.03404505
_cell_formula_units_Z   1
loop_
 _symmetry_equiv_pos_site_id
 _symmetry_equiv_pos_as_xyz
  1  'x, y, z'
loop_
 _atom_site_type_symbol
 _atom_site_label
 _atom_site_symmetry_multiplicity
 _atom_site_fract_x
 _atom_site_fract_y
 _atom_site_fract_z
 _atom_site_occupancy
  Lu  Lu0  1  0.675443  0.869635  0.194192  1
  Lu  Lu1  1  0.324557  0.518750  0.194192  1
  Lu  Lu2  1  0.817240  0.789073  0.606313  1
  Lu  Lu3  1  0.182760  0.789073  0.971833  1
  Lu  Lu4  1  0.817240  0.210927  0.028167  1
  Lu  Lu5  1  0.182760  0.210927  0.393687  1
  Lu  Lu6  1  0.675443  0.481250  0.805808  1
  Lu  Lu7  1  0.324557  0.130365  0.805808  1
  Lu  Lu8  1  0.569894  0.270203  0.299690  1
  Lu  Lu9  1  0.430106  0.729797  0.700310  1
  Lu  Lu10  1  0.029488  0.729797  0.299690  1
  Lu  Lu11  1  0.970512  0.270203  0.700310  1
  In  In12  1  0.500000  0.000000  0.500000  1
  Ni  Ni13  1  0.353571  0.500000  0.853571  1
  Ni  Ni14  1  0.646429  0.500000  0.146429  1
  Ni  Ni15  1  0.875858  0.875858  0.000000  1
  Ni  Ni16  1  0.124142  0.124142  0.000000  1
  Ag  Ag17  1  0.000000  0.500000  0.500000  1
