# generated using pymatgen
data_Er6Ta4NbGa11Os7
_symmetry_space_group_name_H-M   'P 1'
_cell_length_a   9.06451396
_cell_length_b   9.06864840
_cell_length_c   8.99976794
_cell_angle_alpha   59.73469891
_cell_angle_beta   59.72576834
_cell_angle_gamma   59.97944507
_symmetry_Int_Tables_number   1
_chemical_formula_structural   Er6Ta4NbGa11Os7
_chemical_formula_sum   'Er6 Ta4 Nb1 Ga11 Os7'
_cell_volume   520.89898278
_cell_formula_units_Z   1
loop_
 _symmetry_equiv_pos_site_id
 _symmetry_equiv_pos_as_xyz
  1  'x, y, z'
loop_
 _atom_site_type_symbol
 _atom_site_label
 _atom_site_symmetry_multiplicity
 _atom_site_fract_x
 _atom_site_fract_y
 _atom_site_fract_z
 _atom_site_occupancy
  Er  Er0  1  0.708026  0.708016  0.294290  1
  Er  Er1  1  0.289619  0.707994  0.294311  1
  Er  Er2  1  0.708095  0.289619  0.294244  1
  Er  Er3  1  0.297399  0.297412  0.710300  1
  Er  Er4  1  0.694892  0.297364  0.710288  1
  Er  Er5  1  0.297447  0.694839  0.710179  1
  Ta  Ta6  1  0.876273  0.368542  0.878906  1
  Ta  Ta7  1  0.368479  0.876280  0.878964  1
  Ta  Ta8  1  0.876263  0.876213  0.878943  1
  Ta  Ta9  1  0.126978  0.126988  0.619139  1
  Nb  Nb10  1  0.878162  0.878161  0.365515  1
  Ga  Ga11  1  0.116285  0.647089  0.120288  1
  Ga  Ga12  1  0.647020  0.116316  0.120428  1
  Ga  Ga13  1  0.116262  0.116277  0.120428  1
  Ga  Ga14  1  0.661912  0.661949  0.014206  1
  Ga  Ga15  1  0.663093  0.012855  0.660993  1
  Ga  Ga16  1  0.012800  0.663105  0.661027  1
  Ga  Ga17  1  0.663026  0.663050  0.661066  1
  Ga  Ga18  1  0.333313  0.333378  0.999886  1
  Ga  Ga19  1  0.338156  0.991114  0.332603  1
  Ga  Ga20  1  0.991067  0.338174  0.332651  1
  Ga  Ga21  1  0.338175  0.338168  0.332644  1
  Os  Os22  1  0.006662  0.006681  0.979956  1
  Os  Os23  1  0.998366  0.998318  0.509899  1
  Os  Os24  1  0.493423  0.998341  0.509929  1
  Os  Os25  1  0.998450  0.493449  0.509818  1
  Os  Os26  1  0.502757  0.502870  0.999670  1
  Os  Os27  1  0.994777  0.502737  0.999777  1
  Os  Os28  1  0.502824  0.994701  0.999654  1
