# generated using pymatgen
data_Er6MnB14Os
_symmetry_space_group_name_H-M   'P 1'
_cell_length_a   7.97291049
_cell_length_b   7.97291086
_cell_length_c   9.24700100
_cell_angle_alpha   90.00000000
_cell_angle_beta   90.00000000
_cell_angle_gamma   154.94208114
_symmetry_Int_Tables_number   1
_chemical_formula_structural   Er6MnB14Os
_chemical_formula_sum   'Er6 Mn1 B14 Os1'
_cell_volume   248.95634287
_cell_formula_units_Z   1
loop_
 _symmetry_equiv_pos_site_id
 _symmetry_equiv_pos_as_xyz
  1  'x, y, z'
loop_
 _atom_site_type_symbol
 _atom_site_label
 _atom_site_symmetry_multiplicity
 _atom_site_fract_x
 _atom_site_fract_y
 _atom_site_fract_z
 _atom_site_occupancy
  Er  Er0  1  0.894557  0.105443  0.443094  1
  Er  Er1  1  0.104804  0.895196  0.563572  1
  Er  Er2  1  0.894557  0.105443  0.056906  1
  Er  Er3  1  0.104804  0.895196  0.936428  1
  Er  Er4  1  0.244288  0.755712  0.250000  1
  Er  Er5  1  0.759155  0.240845  0.750000  1
  Mn  Mn6  1  0.947471  0.052529  0.750000  1
  B  B7  1  0.727361  0.272639  0.466478  1
  B  B8  1  0.272160  0.727840  0.534141  1
  B  B9  1  0.727361  0.272639  0.033522  1
  B  B10  1  0.272160  0.727840  0.965859  1
  B  B11  1  0.632097  0.367903  0.149910  1
  B  B12  1  0.369834  0.630166  0.846519  1
  B  B13  1  0.632097  0.367903  0.350090  1
  B  B14  1  0.369834  0.630166  0.653481  1
  B  B15  1  0.519858  0.480142  0.094937  1
  B  B16  1  0.478787  0.521213  0.901971  1
  B  B17  1  0.519858  0.480142  0.405063  1
  B  B18  1  0.478787  0.521213  0.598029  1
  B  B19  1  0.454765  0.545235  0.250000  1
  B  B20  1  0.541912  0.458088  0.750000  1
  Os  Os21  1  0.053492  0.946508  0.250000  1
