# generated using pymatgen
data_Pr4HfNb3F28
_symmetry_space_group_name_H-M   'P 1'
_cell_length_a   5.85764863
_cell_length_b   9.37788599
_cell_length_c   12.56142297
_cell_angle_alpha   62.47799343
_cell_angle_beta   90.04968989
_cell_angle_gamma   89.93664841
_symmetry_Int_Tables_number   1
_chemical_formula_structural   Pr4HfNb3F28
_chemical_formula_sum   'Pr4 Hf1 Nb3 F28'
_cell_volume   611.93932606
_cell_formula_units_Z   1
loop_
 _symmetry_equiv_pos_site_id
 _symmetry_equiv_pos_as_xyz
  1  'x, y, z'
loop_
 _atom_site_type_symbol
 _atom_site_label
 _atom_site_symmetry_multiplicity
 _atom_site_fract_x
 _atom_site_fract_y
 _atom_site_fract_z
 _atom_site_occupancy
  Pr  Pr0  1  0.756503  0.807497  0.769224  1
  Pr  Pr1  1  0.256116  0.189080  0.730968  1
  Pr  Pr2  1  0.243324  0.190391  0.232178  1
  Pr  Pr3  1  0.744353  0.812352  0.266440  1
  Hf  Hf4  1  0.752800  0.273450  0.956126  1
  Nb  Nb5  1  0.252752  0.726500  0.543642  1
  Nb  Nb6  1  0.247882  0.726802  0.044373  1
  Nb  Nb7  1  0.747392  0.273566  0.455801  1
  F  F8  1  0.456418  0.709007  0.921366  1
  F  F9  1  0.956853  0.291100  0.579122  1
  F  F10  1  0.542177  0.290967  0.075786  1
  F  F11  1  0.042643  0.709141  0.420703  1
  F  F12  1  0.464421  0.285209  0.548321  1
  F  F13  1  0.964824  0.715991  0.952380  1
  F  F14  1  0.535028  0.716163  0.450634  1
  F  F15  1  0.033118  0.286030  0.046179  1
  F  F16  1  0.764470  0.513438  0.860697  1
  F  F17  1  0.260963  0.490697  0.639367  1
  F  F18  1  0.238949  0.490644  0.138661  1
  F  F19  1  0.738018  0.508605  0.361454  1
  F  F20  1  0.759660  0.034126  0.055538  1
  F  F21  1  0.261848  0.961104  0.447492  1
  F  F22  1  0.238065  0.961297  0.947229  1
  F  F23  1  0.739173  0.039493  0.551766  1
  F  F24  1  0.978915  0.732889  0.640987  1
  F  F25  1  0.482426  0.265131  0.859859  1
  F  F26  1  0.021949  0.267349  0.358297  1
  F  F27  1  0.521523  0.729580  0.143018  1
  F  F28  1  0.043165  0.746553  0.168656  1
  F  F29  1  0.542205  0.251392  0.331952  1
  F  F30  1  0.957638  0.251758  0.834831  1
  F  F31  1  0.457488  0.749376  0.666988  1
  F  F32  1  0.420542  0.973105  0.231820  1
  F  F33  1  0.922160  0.030148  0.268324  1
  F  F34  1  0.577475  0.028021  0.768077  1
  F  F35  1  0.076765  0.972048  0.731743  1
