# generated using pymatgen
data_Ca5TmSi24Ir3Ru5
_symmetry_space_group_name_H-M   'P 1'
_cell_length_a   10.14102905
_cell_length_b   10.14102892
_cell_length_c   8.18660700
_cell_angle_alpha   90.00525907
_cell_angle_beta   90.00524190
_cell_angle_gamma   132.40233885
_symmetry_Int_Tables_number   1
_chemical_formula_structural   Ca5TmSi24Ir3Ru5
_chemical_formula_sum   'Ca5 Tm1 Si24 Ir3 Ru5'
_cell_volume   621.69307005
_cell_formula_units_Z   1
loop_
 _symmetry_equiv_pos_site_id
 _symmetry_equiv_pos_as_xyz
  1  'x, y, z'
loop_
 _atom_site_type_symbol
 _atom_site_label
 _atom_site_symmetry_multiplicity
 _atom_site_fract_x
 _atom_site_fract_y
 _atom_site_fract_z
 _atom_site_occupancy
  Ca  Ca0  1  0.999861  0.000139  0.000000  1
  Ca  Ca1  1  0.002069  0.501461  0.249927  1
  Ca  Ca2  1  0.498539  0.997931  0.750073  1
  Ca  Ca3  1  0.998787  0.498174  0.749277  1
  Ca  Ca4  1  0.501826  0.001213  0.250723  1
  Tm  Tm5  1  0.499287  0.500713  0.500000  1
  Si  Si6  1  0.295755  0.704245  0.000000  1
  Si  Si7  1  0.795187  0.204813  0.500000  1
  Si  Si8  1  0.705496  0.294504  0.000000  1
  Si  Si9  1  0.206786  0.793214  0.500000  1
  Si  Si10  1  0.831882  0.835255  0.331919  1
  Si  Si11  1  0.164745  0.168118  0.668081  1
  Si  Si12  1  0.667661  0.668584  0.833347  1
  Si  Si13  1  0.331416  0.332339  0.166653  1
  Si  Si14  1  0.619982  0.387435  0.224717  1
  Si  Si15  1  0.612565  0.380018  0.775283  1
  Si  Si16  1  0.110903  0.879145  0.725541  1
  Si  Si17  1  0.120855  0.889097  0.274459  1
  Si  Si18  1  0.376627  0.608962  0.770803  1
  Si  Si19  1  0.391038  0.623373  0.229197  1
  Si  Si20  1  0.887238  0.119803  0.275217  1
  Si  Si21  1  0.880197  0.112762  0.724783  1
  Si  Si22  1  0.841799  0.610161  0.001746  1
  Si  Si23  1  0.389839  0.158201  0.998254  1
  Si  Si24  1  0.891676  0.660031  0.503732  1
  Si  Si25  1  0.339969  0.108324  0.496268  1
  Si  Si26  1  0.159233  0.390399  0.996346  1
  Si  Si27  1  0.609601  0.840767  0.003654  1
  Si  Si28  1  0.112306  0.344877  0.496865  1
  Si  Si29  1  0.655123  0.887694  0.503135  1
  Ir  Ir30  1  0.168658  0.831342  0.000000  1
  Ir  Ir31  1  0.666789  0.333211  0.500000  1
  Ir  Ir32  1  0.832032  0.167968  0.000000  1
  Ru  Ru33  1  0.332353  0.667647  0.500000  1
  Ru  Ru34  1  0.625275  0.623553  0.127938  1
  Ru  Ru35  1  0.376447  0.374725  0.872062  1
  Ru  Ru36  1  0.872326  0.872127  0.624425  1
  Ru  Ru37  1  0.127873  0.127674  0.375575  1
