# generated using pymatgen
data_NdCo(BrO3)6
_symmetry_space_group_name_H-M   'P 1'
_cell_length_a   7.10810893
_cell_length_b   9.32430952
_cell_length_c   8.81835600
_cell_angle_alpha   57.35603289
_cell_angle_beta   89.05297888
_cell_angle_gamma   89.20254970
_symmetry_Int_Tables_number   1
_chemical_formula_structural   NdCo(BrO3)6
_chemical_formula_sum   'Nd1 Co1 Br6 O18'
_cell_volume   492.06610444
_cell_formula_units_Z   1
loop_
 _symmetry_equiv_pos_site_id
 _symmetry_equiv_pos_as_xyz
  1  'x, y, z'
loop_
 _atom_site_type_symbol
 _atom_site_label
 _atom_site_symmetry_multiplicity
 _atom_site_fract_x
 _atom_site_fract_y
 _atom_site_fract_z
 _atom_site_occupancy
  Nd  Nd0  1  0.504997  0.320718  0.348443  1
  Co  Co1  1  0.960422  0.683891  0.649128  1
  Br  Br2  1  0.785912  0.702317  0.968812  1
  Br  Br3  1  0.780224  0.313511  0.741058  1
  Br  Br4  1  0.677481  0.950574  0.301259  1
  Br  Br5  1  0.234992  0.381501  0.929445  1
  Br  Br6  1  0.158572  0.665834  0.332801  1
  Br  Br7  1  0.259819  0.899160  0.725971  1
  O  O8  1  0.663992  0.515328  0.081235  1
  O  O9  1  0.692232  0.327353  0.555300  1
  O  O10  1  0.680549  0.105264  0.348202  1
  O  O11  1  0.079151  0.551837  0.880642  1
  O  O12  1  0.143999  0.587995  0.564524  1
  O  O13  1  0.112444  0.880935  0.581844  1
  O  O14  1  0.769708  0.763840  0.743989  1
  O  O15  1  0.766029  0.519625  0.691088  1
  O  O16  1  0.877679  0.829456  0.403636  1
  O  O17  1  0.290736  0.325642  0.139261  1
  O  O18  1  0.345531  0.550729  0.338038  1
  O  O19  1  0.315328  0.107059  0.583898  1
  O  O20  1  0.645673  0.844562  0.968151  1
  O  O21  1  0.613265  0.221183  0.896036  1
  O  O22  1  0.103811  0.226510  0.954647  1
  O  O23  1  0.127879  0.892324  0.885728  1
  O  O24  1  0.487689  0.839216  0.402105  1
  O  O25  1  0.976889  0.584637  0.292758  1
