# generated using pymatgen
data_TmLu3(Pd2O7)2
_symmetry_space_group_name_H-M   'P 1'
_cell_length_a   7.15918022
_cell_length_b   7.16369832
_cell_length_c   7.15917900
_cell_angle_alpha   60.02086202
_cell_angle_beta   60.00000100
_cell_angle_gamma   60.02086435
_symmetry_Int_Tables_number   1
_chemical_formula_structural   TmLu3(Pd2O7)2
_chemical_formula_sum   'Tm1 Lu3 Pd4 O14'
_cell_volume   259.70821754
_cell_formula_units_Z   1
loop_
 _symmetry_equiv_pos_site_id
 _symmetry_equiv_pos_as_xyz
  1  'x, y, z'
loop_
 _atom_site_type_symbol
 _atom_site_label
 _atom_site_symmetry_multiplicity
 _atom_site_fract_x
 _atom_site_fract_y
 _atom_site_fract_z
 _atom_site_occupancy
  Tm  Tm0  1  0.625000  0.125000  0.625000  1
  Lu  Lu1  1  0.625000  0.625000  0.125000  1
  Lu  Lu2  1  0.625000  0.625000  0.625000  1
  Lu  Lu3  1  0.125000  0.625000  0.625000  1
  Pd  Pd4  1  0.125000  0.125000  0.125000  1
  Pd  Pd5  1  0.625000  0.125000  0.125000  1
  Pd  Pd6  1  0.125000  0.125000  0.625000  1
  Pd  Pd7  1  0.125000  0.625000  0.125000  1
  O  O8  1  0.031393  0.468603  0.468610  1
  O  O9  1  0.781390  0.781397  0.218607  1
  O  O10  1  0.781693  0.219041  0.217572  1
  O  O11  1  0.468307  0.030959  0.468307  1
  O  O12  1  0.750817  0.747549  0.750817  1
  O  O13  1  0.031393  0.468603  0.031393  1
  O  O14  1  0.032428  0.030959  0.468307  1
  O  O15  1  0.218607  0.781397  0.218607  1
  O  O16  1  0.217572  0.219041  0.781693  1
  O  O17  1  0.781693  0.219041  0.781693  1
  O  O18  1  0.499183  0.502451  0.499183  1
  O  O19  1  0.468307  0.030959  0.032428  1
  O  O20  1  0.468610  0.468603  0.031393  1
  O  O21  1  0.218607  0.781397  0.781390  1
