# generated using pymatgen
data_Ba2YbB2Pt7
_symmetry_space_group_name_H-M   'P 1'
_cell_length_a   8.59331925
_cell_length_b   8.59331923
_cell_length_c   8.59332024
_cell_angle_alpha   38.26316170
_cell_angle_beta   38.26316114
_cell_angle_gamma   38.26315846
_symmetry_Int_Tables_number   1
_chemical_formula_structural   Ba2YbB2Pt7
_chemical_formula_sum   'Ba2 Yb1 B2 Pt7'
_cell_volume   218.55682889
_cell_formula_units_Z   1
loop_
 _symmetry_equiv_pos_site_id
 _symmetry_equiv_pos_as_xyz
  1  'x, y, z'
loop_
 _atom_site_type_symbol
 _atom_site_label
 _atom_site_symmetry_multiplicity
 _atom_site_fract_x
 _atom_site_fract_y
 _atom_site_fract_z
 _atom_site_occupancy
  Ba  Ba0  1  0.857912  0.857912  0.857912  1
  Ba  Ba1  1  0.142088  0.142088  0.142088  1
  Yb  Yb2  1  0.000000  0.000000  0.000000  1
  B  B3  1  0.669192  0.669192  0.669192  1
  B  B4  1  0.330808  0.330808  0.330808  1
  Pt  Pt5  1  0.440069  0.934265  0.440069  1
  Pt  Pt6  1  0.440069  0.440069  0.934265  1
  Pt  Pt7  1  0.934265  0.440069  0.440069  1
  Pt  Pt8  1  0.559931  0.065735  0.559931  1
  Pt  Pt9  1  0.559931  0.559931  0.065735  1
  Pt  Pt10  1  0.065735  0.559931  0.559931  1
  Pt  Pt11  1  0.500000  0.500000  0.500000  1
