# generated using pymatgen
data_Ho2ZrVF14
_symmetry_space_group_name_H-M   'P 1'
_cell_length_a   5.61867700
_cell_length_b   8.92324298
_cell_length_c   11.98195358
_cell_angle_alpha   63.70799772
_cell_angle_beta   90.00000000
_cell_angle_gamma   90.00000000
_symmetry_Int_Tables_number   1
_chemical_formula_structural   Ho2ZrVF14
_chemical_formula_sum   'Ho4 Zr2 V2 F28'
_cell_volume   538.58976302
_cell_formula_units_Z   2
loop_
 _symmetry_equiv_pos_site_id
 _symmetry_equiv_pos_as_xyz
  1  'x, y, z'
loop_
 _atom_site_type_symbol
 _atom_site_label
 _atom_site_symmetry_multiplicity
 _atom_site_fract_x
 _atom_site_fract_y
 _atom_site_fract_z
 _atom_site_occupancy
  Ho  Ho0  1  0.756165  0.812035  0.762336  1
  Ho  Ho1  1  0.256165  0.187965  0.737664  1
  Ho  Ho2  1  0.242770  0.193202  0.219077  1
  Ho  Ho3  1  0.742770  0.806798  0.280923  1
  Zr  Zr4  1  0.246189  0.731939  0.042983  1
  Zr  Zr5  1  0.746189  0.268061  0.457017  1
  V  V6  1  0.753535  0.278522  0.949993  1
  V  V7  1  0.253535  0.721478  0.550007  1
  F  F8  1  0.462064  0.709444  0.915873  1
  F  F9  1  0.962064  0.290556  0.584127  1
  F  F10  1  0.539021  0.294275  0.068056  1
  F  F11  1  0.039021  0.705725  0.431944  1
  F  F12  1  0.446128  0.278727  0.550400  1
  F  F13  1  0.946128  0.721273  0.949600  1
  F  F14  1  0.526673  0.713319  0.455293  1
  F  F15  1  0.026673  0.286681  0.044707  1
  F  F16  1  0.767659  0.508798  0.863020  1
  F  F17  1  0.267659  0.491202  0.636980  1
  F  F18  1  0.233899  0.478517  0.142850  1
  F  F19  1  0.733899  0.521483  0.357150  1
  F  F20  1  0.754070  0.053422  0.038063  1
  F  F21  1  0.254070  0.946578  0.461937  1
  F  F22  1  0.243527  0.984476  0.943451  1
  F  F23  1  0.743527  0.015524  0.556549  1
  F  F24  1  0.992547  0.723200  0.650686  1
  F  F25  1  0.492547  0.276800  0.849314  1
  F  F26  1  0.030707  0.258089  0.353948  1
  F  F27  1  0.530707  0.741911  0.146052  1
  F  F28  1  0.034644  0.758246  0.173569  1
  F  F29  1  0.534644  0.241754  0.326431  1
  F  F30  1  0.963033  0.261899  0.829547  1
  F  F31  1  0.463033  0.738101  0.670453  1
  F  F32  1  0.436890  0.975970  0.235074  1
  F  F33  1  0.936890  0.024030  0.264926  1
  F  F34  1  0.570479  0.025428  0.763861  1
  F  F35  1  0.070479  0.974572  0.736139  1
