# generated using pymatgen
data_Lu2Sc4SnPb4
_symmetry_space_group_name_H-M   'P 1'
_cell_length_a   6.28928394
_cell_length_b   9.11558131
_cell_length_c   11.23971270
_cell_angle_alpha   114.22519592
_cell_angle_beta   106.24705169
_cell_angle_gamma   90.00000132
_symmetry_Int_Tables_number   1
_chemical_formula_structural   Lu2Sc4SnPb4
_chemical_formula_sum   'Lu4 Sc8 Sn2 Pb8'
_cell_volume   559.29551826
_cell_formula_units_Z   2
loop_
 _symmetry_equiv_pos_site_id
 _symmetry_equiv_pos_as_xyz
  1  'x, y, z'
loop_
 _atom_site_type_symbol
 _atom_site_label
 _atom_site_symmetry_multiplicity
 _atom_site_fract_x
 _atom_site_fract_y
 _atom_site_fract_z
 _atom_site_occupancy
  Lu  Lu0  1  0.144076  0.258752  0.288150  1
  Lu  Lu1  1  0.855924  0.741248  0.711850  1
  Lu  Lu2  1  0.641825  0.031616  0.283648  1
  Lu  Lu3  1  0.358175  0.968384  0.716352  1
  Sc  Sc4  1  0.555715  0.310884  0.611890  1
  Sc  Sc5  1  0.444285  0.689116  0.388110  1
  Sc  Sc6  1  0.943824  0.689116  0.388110  1
  Sc  Sc7  1  0.056176  0.310884  0.611890  1
  Sc  Sc8  1  0.437359  0.676674  0.874719  1
  Sc  Sc9  1  0.562641  0.323326  0.125281  1
  Sc  Sc10  1  0.938215  0.199309  0.876431  1
  Sc  Sc11  1  0.061785  0.800691  0.123569  1
  Sn  Sn12  1  0.291655  0.592196  0.583310  1
  Sn  Sn13  1  0.708345  0.407804  0.416690  1
  Pb  Pb14  1  0.791145  0.991118  0.582291  1
  Pb  Pb15  1  0.208855  0.008882  0.417709  1
  Pb  Pb16  1  0.248891  0.000000  0.000000  1
  Pb  Pb17  1  0.751109  0.000000  0.000000  1
  Pb  Pb18  1  0.072052  0.476602  0.144105  1
  Pb  Pb19  1  0.927948  0.523398  0.855895  1
  Pb  Pb20  1  0.571966  0.667535  0.143932  1
  Pb  Pb21  1  0.428034  0.332465  0.856068  1
