# generated using pymatgen
data_NaGaCoF6
_symmetry_space_group_name_H-M   'P 1'
_cell_length_a   8.95482300
_cell_length_b   8.95482394
_cell_length_c   4.98501100
_cell_angle_alpha   90.00000000
_cell_angle_beta   90.00000000
_cell_angle_gamma   120.00000023
_symmetry_Int_Tables_number   1
_chemical_formula_structural   NaGaCoF6
_chemical_formula_sum   'Na3 Ga3 Co3 F18'
_cell_volume   346.18704312
_cell_formula_units_Z   3
loop_
 _symmetry_equiv_pos_site_id
 _symmetry_equiv_pos_as_xyz
  1  'x, y, z'
loop_
 _atom_site_type_symbol
 _atom_site_label
 _atom_site_symmetry_multiplicity
 _atom_site_fract_x
 _atom_site_fract_y
 _atom_site_fract_z
 _atom_site_occupancy
  Na  Na0  1  0.628281  0.000000  0.000000  1
  Na  Na1  1  0.000000  0.628281  0.000000  1
  Na  Na2  1  0.371719  0.371719  0.000000  1
  Ga  Ga3  1  0.333333  0.666667  0.501315  1
  Ga  Ga4  1  0.666667  0.333333  0.498685  1
  Ga  Ga5  1  0.000000  0.000000  0.000000  1
  Co  Co6  1  0.301016  0.000000  0.500000  1
  Co  Co7  1  0.000000  0.301016  0.500000  1
  Co  Co8  1  0.698984  0.698984  0.500000  1
  F  F9  1  0.129116  0.533294  0.288318  1
  F  F10  1  0.466706  0.595822  0.288318  1
  F  F11  1  0.533294  0.129116  0.711682  1
  F  F12  1  0.404178  0.870884  0.288318  1
  F  F13  1  0.595822  0.466706  0.711682  1
  F  F14  1  0.870884  0.404178  0.711682  1
  F  F15  1  0.100686  0.202551  0.225260  1
  F  F16  1  0.797449  0.898135  0.225260  1
  F  F17  1  0.202551  0.100686  0.774740  1
  F  F18  1  0.101865  0.899314  0.225260  1
  F  F19  1  0.898135  0.797449  0.774740  1
  F  F20  1  0.899314  0.101865  0.774740  1
  F  F21  1  0.456525  0.230808  0.290860  1
  F  F22  1  0.769192  0.225718  0.290860  1
  F  F23  1  0.230808  0.456525  0.709140  1
  F  F24  1  0.774282  0.543475  0.290860  1
  F  F25  1  0.225718  0.769192  0.709140  1
  F  F26  1  0.543475  0.774282  0.709140  1
