# generated using pymatgen
data_Pr3ThAlGa17Ir6
_symmetry_space_group_name_H-M   'P 1'
_cell_length_a   7.67922365
_cell_length_b   7.67890267
_cell_length_c   9.61551042
_cell_angle_alpha   89.98423851
_cell_angle_beta   89.98195144
_cell_angle_gamma   119.53826498
_symmetry_Int_Tables_number   1
_chemical_formula_structural   Pr3ThAlGa17Ir6
_chemical_formula_sum   'Pr3 Th1 Al1 Ga17 Ir6'
_cell_volume   493.31156456
_cell_formula_units_Z   1
loop_
 _symmetry_equiv_pos_site_id
 _symmetry_equiv_pos_as_xyz
  1  'x, y, z'
loop_
 _atom_site_type_symbol
 _atom_site_label
 _atom_site_symmetry_multiplicity
 _atom_site_fract_x
 _atom_site_fract_y
 _atom_site_fract_z
 _atom_site_occupancy
  Pr  Pr0  1  0.001567  0.329921  0.749106  1
  Pr  Pr1  1  0.670606  0.996654  0.249762  1
  Pr  Pr2  1  0.329915  0.001678  0.749100  1
  Th  Th3  1  0.997231  0.670106  0.250014  1
  Al  Al4  1  0.335026  0.334937  0.952441  1
  Ga  Ga5  1  0.131374  0.131605  0.249651  1
  Ga  Ga6  1  0.871030  0.872085  0.749673  1
  Ga  Ga7  1  0.001212  0.332385  0.077422  1
  Ga  Ga8  1  0.997913  0.664464  0.918770  1
  Ga  Ga9  1  0.997584  0.664572  0.581084  1
  Ga  Ga10  1  0.338496  0.004392  0.420811  1
  Ga  Ga11  1  0.001733  0.332518  0.420862  1
  Ga  Ga12  1  0.664817  0.998246  0.578620  1
  Ga  Ga13  1  0.664676  0.998650  0.921053  1
  Ga  Ga14  1  0.338073  0.003677  0.077483  1
  Ga  Ga15  1  0.332080  0.331967  0.558306  1
  Ga  Ga16  1  0.664146  0.666700  0.443076  1
  Ga  Ga17  1  0.666756  0.669172  0.057039  1
  Ga  Ga18  1  0.342393  0.546424  0.249922  1
  Ga  Ga19  1  0.655331  0.452313  0.750268  1
  Ga  Ga20  1  0.545095  0.341066  0.249926  1
  Ga  Ga21  1  0.452058  0.656563  0.750279  1
  Ir  Ir22  1  0.670031  0.331675  0.001035  1
  Ir  Ir23  1  0.326965  0.667515  0.001064  1
  Ir  Ir24  1  0.327073  0.670626  0.497860  1
  Ir  Ir25  1  0.673171  0.331972  0.497845  1
  Ir  Ir26  1  0.004222  0.001528  0.000513  1
  Ir  Ir27  1  0.999432  0.996592  0.497015  1
