# generated using pymatgen
data_Zr6Ta6AlGa9Os7
_symmetry_space_group_name_H-M   'P 1'
_cell_length_a   8.94831141
_cell_length_b   8.92294953
_cell_length_c   8.92310847
_cell_angle_alpha   59.49190471
_cell_angle_beta   59.67740865
_cell_angle_gamma   59.67756066
_symmetry_Int_Tables_number   1
_chemical_formula_structural   Zr6Ta6AlGa9Os7
_chemical_formula_sum   'Zr6 Ta6 Al1 Ga9 Os7'
_cell_volume   499.38690985
_cell_formula_units_Z   1
loop_
 _symmetry_equiv_pos_site_id
 _symmetry_equiv_pos_as_xyz
  1  'x, y, z'
loop_
 _atom_site_type_symbol
 _atom_site_label
 _atom_site_symmetry_multiplicity
 _atom_site_fract_x
 _atom_site_fract_y
 _atom_site_fract_z
 _atom_site_occupancy
  Zr  Zr0  1  0.687918  0.699029  0.309178  1
  Zr  Zr1  1  0.303821  0.700632  0.308865  1
  Zr  Zr2  1  0.703956  0.296906  0.296905  1
  Zr  Zr3  1  0.303816  0.308861  0.700637  1
  Zr  Zr4  1  0.687915  0.309181  0.699025  1
  Zr  Zr5  1  0.307292  0.692696  0.692696  1
  Ta  Ta6  1  0.875256  0.880272  0.368936  1
  Ta  Ta7  1  0.875258  0.368936  0.880271  1
  Ta  Ta8  1  0.374931  0.876840  0.876839  1
  Ta  Ta9  1  0.871194  0.876285  0.876285  1
  Ta  Ta10  1  0.126012  0.127161  0.620384  1
  Ta  Ta11  1  0.126011  0.620384  0.127162  1
  Al  Al12  1  0.639607  0.120033  0.120034  1
  Ga  Ga13  1  0.117191  0.118273  0.118275  1
  Ga  Ga14  1  0.655540  0.652088  0.036888  1
  Ga  Ga15  1  0.655539  0.036890  0.652088  1
  Ga  Ga16  1  0.029370  0.656102  0.656103  1
  Ga  Ga17  1  0.658114  0.656096  0.656096  1
  Ga  Ga18  1  0.341956  0.336989  0.981285  1
  Ga  Ga19  1  0.341954  0.981286  0.336989  1
  Ga  Ga20  1  0.966564  0.343380  0.343380  1
  Ga  Ga21  1  0.348035  0.343331  0.343331  1
  Os  Os22  1  0.006404  0.990889  0.990889  1
  Os  Os23  1  0.999319  0.999110  0.505544  1
  Os  Os24  1  0.497379  0.999114  0.505328  1
  Os  Os25  1  0.999943  0.500380  0.500379  1
  Os  Os26  1  0.497379  0.505328  0.999115  1
  Os  Os27  1  0.999320  0.505544  0.999110  1
  Os  Os28  1  0.503004  0.997988  0.997987  1
