# generated using pymatgen
data_Mg9In2Ga7Rh6
_symmetry_space_group_name_H-M   'P 1'
_cell_length_a   7.50687745
_cell_length_b   7.50687745
_cell_length_c   8.76392116
_cell_angle_alpha   89.98763476
_cell_angle_beta   89.98763885
_cell_angle_gamma   119.72675219
_symmetry_Int_Tables_number   1
_chemical_formula_structural   Mg9In2Ga7Rh6
_chemical_formula_sum   'Mg9 In2 Ga7 Rh6'
_cell_volume   428.88112222
_cell_formula_units_Z   1
loop_
 _symmetry_equiv_pos_site_id
 _symmetry_equiv_pos_as_xyz
  1  'x, y, z'
loop_
 _atom_site_type_symbol
 _atom_site_label
 _atom_site_symmetry_multiplicity
 _atom_site_fract_x
 _atom_site_fract_y
 _atom_site_fract_z
 _atom_site_occupancy
  Mg  Mg0  1  0.699256  0.001041  0.574288  1
  Mg  Mg1  1  0.001041  0.699256  0.574288  1
  Mg  Mg2  1  0.697215  0.697215  0.080674  1
  Mg  Mg3  1  0.627087  0.627087  0.423397  1
  Mg  Mg4  1  0.999692  0.642150  0.908088  1
  Mg  Mg5  1  0.642150  0.999692  0.908088  1
  Mg  Mg6  1  0.361084  0.008063  0.418909  1
  Mg  Mg7  1  0.008063  0.361084  0.418909  1
  Mg  Mg8  1  0.361524  0.361524  0.908137  1
  In  In9  1  0.000872  0.306866  0.073691  1
  In  In10  1  0.306866  0.000872  0.073691  1
  Ga  Ga11  1  0.984527  0.984527  0.300073  1
  Ga  Ga12  1  0.991761  0.991761  0.779673  1
  Ga  Ga13  1  0.339992  0.667810  0.237236  1
  Ga  Ga14  1  0.675681  0.337269  0.717112  1
  Ga  Ga15  1  0.337269  0.675681  0.717112  1
  Ga  Ga16  1  0.667810  0.339992  0.237236  1
  Ga  Ga17  1  0.295794  0.295794  0.576228  1
  Rh  Rh18  1  0.318551  0.318551  0.260271  1
  Rh  Rh19  1  0.013265  0.332391  0.742930  1
  Rh  Rh20  1  0.332391  0.013265  0.742930  1
  Rh  Rh21  1  0.668557  0.003645  0.245602  1
  Rh  Rh22  1  0.003645  0.668557  0.245602  1
  Rh  Rh23  1  0.665910  0.665910  0.744833  1
