# generated using pymatgen
data_ThNi5P3
_symmetry_space_group_name_H-M   'P 1'
_cell_length_a   6.11296609
_cell_length_b   6.11296607
_cell_length_c   11.37666500
_cell_angle_alpha   90.00000000
_cell_angle_beta   90.00000000
_cell_angle_gamma   145.38716165
_symmetry_Int_Tables_number   1
_chemical_formula_structural   ThNi5P3
_chemical_formula_sum   'Th2 Ni10 P6'
_cell_volume   241.48425369
_cell_formula_units_Z   2
loop_
 _symmetry_equiv_pos_site_id
 _symmetry_equiv_pos_as_xyz
  1  'x, y, z'
loop_
 _atom_site_type_symbol
 _atom_site_label
 _atom_site_symmetry_multiplicity
 _atom_site_fract_x
 _atom_site_fract_y
 _atom_site_fract_z
 _atom_site_occupancy
  Th  Th0  1  0.157340  0.842660  0.250000  1
  Th  Th1  1  0.842660  0.157340  0.750000  1
  Ni  Ni2  1  0.800497  0.199503  0.067910  1
  Ni  Ni3  1  0.199503  0.800497  0.932090  1
  Ni  Ni4  1  0.199503  0.800497  0.567910  1
  Ni  Ni5  1  0.800497  0.199503  0.432090  1
  Ni  Ni6  1  0.445022  0.554978  0.145134  1
  Ni  Ni7  1  0.554978  0.445022  0.854866  1
  Ni  Ni8  1  0.554978  0.445022  0.645134  1
  Ni  Ni9  1  0.445022  0.554978  0.354866  1
  Ni  Ni10  1  0.000000  0.000000  0.000000  1
  Ni  Ni11  1  0.000000  0.000000  0.500000  1
  P  P12  1  0.882953  0.117047  0.250000  1
  P  P13  1  0.117047  0.882953  0.750000  1
  P  P14  1  0.616763  0.383237  0.042574  1
  P  P15  1  0.383237  0.616763  0.957426  1
  P  P16  1  0.383237  0.616763  0.542574  1
  P  P17  1  0.616763  0.383237  0.457426  1
