# generated using pymatgen
data_Pr20Si11Ag
_symmetry_space_group_name_H-M   'P 1'
_cell_length_a   7.81850800
_cell_length_b   7.81850800
_cell_length_c   14.42834500
_cell_angle_alpha   90.00000000
_cell_angle_beta   90.00000000
_cell_angle_gamma   90.00000000
_symmetry_Int_Tables_number   1
_chemical_formula_structural   Pr20Si11Ag
_chemical_formula_sum   'Pr20 Si11 Ag1'
_cell_volume   881.99127320
_cell_formula_units_Z   1
loop_
 _symmetry_equiv_pos_site_id
 _symmetry_equiv_pos_as_xyz
  1  'x, y, z'
loop_
 _atom_site_type_symbol
 _atom_site_label
 _atom_site_symmetry_multiplicity
 _atom_site_fract_x
 _atom_site_fract_y
 _atom_site_fract_z
 _atom_site_occupancy
  Pr  Pr0  1  0.322028  0.675863  0.107826  1
  Pr  Pr1  1  0.175863  0.177972  0.107826  1
  Pr  Pr2  1  0.500000  0.000000  0.727117  1
  Pr  Pr3  1  0.328614  0.685684  0.395358  1
  Pr  Pr4  1  0.658743  0.690682  0.890621  1
  Pr  Pr5  1  0.185684  0.171386  0.395358  1
  Pr  Pr6  1  0.671386  0.314316  0.395358  1
  Pr  Pr7  1  0.170795  0.814999  0.604608  1
  Pr  Pr8  1  0.341257  0.309318  0.890621  1
  Pr  Pr9  1  0.190682  0.841257  0.890621  1
  Pr  Pr10  1  0.500000  0.000000  0.234185  1
  Pr  Pr11  1  0.829205  0.185001  0.604608  1
  Pr  Pr12  1  0.314999  0.329205  0.604608  1
  Pr  Pr13  1  0.814316  0.828614  0.395358  1
  Pr  Pr14  1  0.809318  0.158743  0.890621  1
  Pr  Pr15  1  0.824137  0.822028  0.107826  1
  Pr  Pr16  1  0.000000  0.500000  0.270854  1
  Pr  Pr17  1  0.000000  0.500000  0.777055  1
  Pr  Pr18  1  0.677972  0.324137  0.107826  1
  Pr  Pr19  1  0.685001  0.670795  0.604608  1
  Si  Si20  1  0.112989  0.115964  0.746248  1
  Si  Si21  1  0.384036  0.612989  0.746248  1
  Si  Si22  1  0.615015  0.612890  0.252189  1
  Si  Si23  1  0.500000  0.000000  0.007205  1
  Si  Si24  1  0.112890  0.884985  0.252189  1
  Si  Si25  1  0.615964  0.387011  0.746248  1
  Si  Si26  1  0.887011  0.884036  0.746248  1
  Si  Si27  1  0.384985  0.387110  0.252189  1
  Si  Si28  1  0.887110  0.115015  0.252189  1
  Si  Si29  1  0.500000  0.000000  0.505332  1
  Si  Si30  1  0.000000  0.500000  0.492905  1
  Ag  Ag31  1  0.000000  0.500000  0.997949  1
