# generated using pymatgen
data_BaCd9Pd2
_symmetry_space_group_name_H-M   'P 1'
_cell_length_a   9.32537741
_cell_length_b   9.32537668
_cell_length_c   9.32537759
_cell_angle_alpha   99.87476690
_cell_angle_beta   99.87628519
_cell_angle_gamma   131.07020645
_symmetry_Int_Tables_number   1
_chemical_formula_structural   BaCd9Pd2
_chemical_formula_sum   'Ba2 Cd18 Pd4'
_cell_volume   556.49339819
_cell_formula_units_Z   2
loop_
 _symmetry_equiv_pos_site_id
 _symmetry_equiv_pos_as_xyz
  1  'x, y, z'
loop_
 _atom_site_type_symbol
 _atom_site_label
 _atom_site_symmetry_multiplicity
 _atom_site_fract_x
 _atom_site_fract_y
 _atom_site_fract_z
 _atom_site_occupancy
  Ba  Ba0  1  0.749999  0.249999  0.500000  1
  Ba  Ba1  1  0.500001  0.500001  0.000000  1
  Cd  Cd2  1  0.934296  0.013489  0.323686  1
  Cd  Cd3  1  0.689804  0.610612  0.676314  1
  Cd  Cd4  1  0.250001  0.750001  0.500000  1
  Cd  Cd5  1  0.999999  0.999999  0.000000  1
  Cd  Cd6  1  0.934297  0.610612  0.920808  1
  Cd  Cd7  1  0.860612  0.439805  0.176314  1
  Cd  Cd8  1  0.263490  0.684297  0.823686  1
  Cd  Cd9  1  0.689803  0.013489  0.079192  1
  Cd  Cd10  1  0.389388  0.065703  0.079192  1
  Cd  Cd11  1  0.986510  0.310195  0.920807  1
  Cd  Cd12  1  0.560196  0.139388  0.823686  1
  Cd  Cd13  1  0.315704  0.736511  0.176314  1
  Cd  Cd14  1  0.315703  0.139388  0.579192  1
  Cd  Cd15  1  0.389388  0.310195  0.323686  1
  Cd  Cd16  1  0.986510  0.065703  0.676314  1
  Cd  Cd17  1  0.560197  0.736511  0.420808  1
  Cd  Cd18  1  0.860612  0.684297  0.420808  1
  Cd  Cd19  1  0.263490  0.439805  0.579193  1
  Pd  Pd20  1  0.125000  0.875000  0.250000  1
  Pd  Pd21  1  0.125000  0.375000  0.250000  1
  Pd  Pd22  1  0.125000  0.875000  0.750000  1
  Pd  Pd23  1  0.625000  0.875000  0.750000  1
