# generated using pymatgen
data_SrCo3(BrO3)8
_symmetry_space_group_name_H-M   'P 1'
_cell_length_a   5.77988932
_cell_length_b   10.76568807
_cell_length_c   10.82789600
_cell_angle_alpha   119.12685833
_cell_angle_beta   90.09118931
_cell_angle_gamma   89.03674588
_symmetry_Int_Tables_number   1
_chemical_formula_structural   SrCo3(BrO3)8
_chemical_formula_sum   'Sr1 Co3 Br8 O24'
_cell_volume   588.45940096
_cell_formula_units_Z   1
loop_
 _symmetry_equiv_pos_site_id
 _symmetry_equiv_pos_as_xyz
  1  'x, y, z'
loop_
 _atom_site_type_symbol
 _atom_site_label
 _atom_site_symmetry_multiplicity
 _atom_site_fract_x
 _atom_site_fract_y
 _atom_site_fract_z
 _atom_site_occupancy
  Sr  Sr0  1  0.117412  0.772045  0.508654  1
  Co  Co1  1  0.653784  0.233415  0.491536  1
  Co  Co2  1  0.146953  0.262638  0.005444  1
  Co  Co3  1  0.649161  0.740484  0.991471  1
  Br  Br4  1  0.276220  0.400282  0.340782  1
  Br  Br5  1  0.740318  0.570250  0.653554  1
  Br  Br6  1  0.266503  0.921070  0.869390  1
  Br  Br7  1  0.777187  0.085025  0.152621  1
  Br  Br8  1  0.766710  0.116571  0.715703  1
  Br  Br9  1  0.312776  0.926490  0.296420  1
  Br  Br10  1  0.287068  0.417173  0.814801  1
  Br  Br11  1  0.777297  0.571427  0.162301  1
  O  O12  1  0.437659  0.899822  0.985213  1
  O  O13  1  0.941274  0.119859  0.044120  1
  O  O14  1  0.372394  0.802845  0.709522  1
  O  O15  1  0.885529  0.189177  0.317970  1
  O  O16  1  0.368534  0.285614  0.173895  1
  O  O17  1  0.848093  0.690364  0.813713  1
  O  O18  1  0.939263  0.244795  0.835370  1
  O  O19  1  0.452479  0.779320  0.168578  1
  O  O20  1  0.878492  0.963269  0.695984  1
  O  O21  1  0.461695  0.072640  0.325586  1
  O  O22  1  0.346419  0.079228  0.882373  1
  O  O23  1  0.869446  0.917869  0.111891  1
  O  O24  1  0.425133  0.281350  0.674844  1
  O  O25  1  0.891651  0.715303  0.297697  1
  O  O26  1  0.357626  0.390070  0.953557  1
  O  O27  1  0.844274  0.590173  0.019537  1
  O  O28  1  0.423234  0.568525  0.847397  1
  O  O29  1  0.943381  0.433291  0.149203  1
  O  O30  1  0.371726  0.558522  0.368752  1
  O  O31  1  0.842940  0.410460  0.628590  1
  O  O32  1  0.444378  0.371021  0.453212  1
  O  O33  1  0.900033  0.596149  0.539654  1
  O  O34  1  0.832329  0.107665  0.557241  1
  O  O35  1  0.360231  0.915801  0.443428  1
