# generated using pymatgen
data_Sr5(LiCd)4
_symmetry_space_group_name_H-M   'P 1'
_cell_length_a   9.63621150
_cell_length_b   9.63621073
_cell_length_c   9.63621075
_cell_angle_alpha   93.60935581
_cell_angle_beta   93.60935087
_cell_angle_gamma   150.93781723
_symmetry_Int_Tables_number   1
_chemical_formula_structural   Sr5(LiCd)4
_chemical_formula_sum   'Sr5 Li4 Cd4'
_cell_volume   420.74595921
_cell_formula_units_Z   1
loop_
 _symmetry_equiv_pos_site_id
 _symmetry_equiv_pos_as_xyz
  1  'x, y, z'
loop_
 _atom_site_type_symbol
 _atom_site_label
 _atom_site_symmetry_multiplicity
 _atom_site_fract_x
 _atom_site_fract_y
 _atom_site_fract_z
 _atom_site_occupancy
  Sr  Sr0  1  0.131271  0.793109  0.924380  1
  Sr  Sr1  1  0.206891  0.131271  0.338161  1
  Sr  Sr2  1  0.868729  0.206891  0.075620  1
  Sr  Sr3  1  0.500000  0.500000  0.000000  1
  Sr  Sr4  1  0.793109  0.868729  0.661839  1
  Li  Li5  1  0.598952  0.068442  0.667394  1
  Li  Li6  1  0.931558  0.598952  0.530510  1
  Li  Li7  1  0.068442  0.401048  0.469490  1
  Li  Li8  1  0.401048  0.931558  0.332606  1
  Cd  Cd9  1  0.446433  0.235466  0.681900  1
  Cd  Cd10  1  0.553567  0.764534  0.318100  1
  Cd  Cd11  1  0.235466  0.553567  0.789032  1
  Cd  Cd12  1  0.764534  0.446433  0.210968  1
