# generated using pymatgen
data_Tb6Al24Ir3Ru3Rh2
_symmetry_space_group_name_H-M   'P 1'
_cell_length_a   8.79107200
_cell_length_b   8.84297467
_cell_length_c   9.56149143
_cell_angle_alpha   90.09915451
_cell_angle_beta   90.00000000
_cell_angle_gamma   119.80603207
_symmetry_Int_Tables_number   1
_chemical_formula_structural   Tb6Al24Ir3Ru3Rh2
_chemical_formula_sum   'Tb6 Al24 Ir3 Ru3 Rh2'
_cell_volume   644.97244715
_cell_formula_units_Z   1
loop_
 _symmetry_equiv_pos_site_id
 _symmetry_equiv_pos_as_xyz
  1  'x, y, z'
loop_
 _atom_site_type_symbol
 _atom_site_label
 _atom_site_symmetry_multiplicity
 _atom_site_fract_x
 _atom_site_fract_y
 _atom_site_fract_z
 _atom_site_occupancy
  Tb  Tb0  1  0.385066  0.190354  0.250256  1
  Tb  Tb1  1  0.805288  0.190354  0.250256  1
  Tb  Tb2  1  0.807917  0.615834  0.250660  1
  Tb  Tb3  1  0.614934  0.809646  0.749744  1
  Tb  Tb4  1  0.194712  0.809646  0.749744  1
  Tb  Tb5  1  0.192083  0.384166  0.749340  1
  Al  Al6  1  0.437385  0.874771  0.248644  1
  Al  Al7  1  0.124079  0.561254  0.249616  1
  Al  Al8  1  0.437175  0.561254  0.249616  1
  Al  Al9  1  0.562615  0.125229  0.751356  1
  Al  Al10  1  0.875921  0.438746  0.750384  1
  Al  Al11  1  0.562825  0.438746  0.750384  1
  Al  Al12  1  0.162509  0.835491  0.423443  1
  Al  Al13  1  0.162857  0.325714  0.423773  1
  Al  Al14  1  0.672980  0.835491  0.423443  1
  Al  Al15  1  0.837491  0.164509  0.576557  1
  Al  Al16  1  0.837143  0.674286  0.576227  1
  Al  Al17  1  0.327020  0.164509  0.576557  1
  Al  Al18  1  0.835297  0.162444  0.923341  1
  Al  Al19  1  0.837002  0.674004  0.923470  1
  Al  Al20  1  0.327147  0.162444  0.923341  1
  Al  Al21  1  0.164703  0.837556  0.076659  1
  Al  Al22  1  0.162998  0.325996  0.076530  1
  Al  Al23  1  0.672853  0.837556  0.076659  1
  Al  Al24  1  0.333545  0.667090  0.526799  1
  Al  Al25  1  0.666455  0.332910  0.473201  1
  Al  Al26  1  0.665593  0.331185  0.026669  1
  Al  Al27  1  0.334407  0.668815  0.973331  1
  Al  Al28  1  0.999085  0.998170  0.250127  1
  Al  Al29  1  0.000915  0.001830  0.749873  1
  Ir  Ir30  1  0.500000  0.000000  0.500000  1
  Ir  Ir31  1  0.000000  0.500000  0.500000  1
  Ir  Ir32  1  0.500000  0.500000  0.500000  1
  Ru  Ru33  1  0.000000  0.000000  0.500000  1
  Ru  Ru34  1  0.000000  0.000000  0.000000  1
  Ru  Ru35  1  0.500000  0.000000  0.000000  1
  Rh  Rh36  1  0.000000  0.500000  0.000000  1
  Rh  Rh37  1  0.500000  0.500000  0.000000  1
