# generated using pymatgen
data_ErUTcB6
_symmetry_space_group_name_H-M   'P 1'
_cell_length_a   3.62068600
_cell_length_b   9.27682400
_cell_length_c   11.39324600
_cell_angle_alpha   90.00000000
_cell_angle_beta   90.00000000
_cell_angle_gamma   90.00000000
_symmetry_Int_Tables_number   1
_chemical_formula_structural   ErUTcB6
_chemical_formula_sum   'Er4 U4 Tc4 B24'
_cell_volume   382.68166480
_cell_formula_units_Z   4
loop_
 _symmetry_equiv_pos_site_id
 _symmetry_equiv_pos_as_xyz
  1  'x, y, z'
loop_
 _atom_site_type_symbol
 _atom_site_label
 _atom_site_symmetry_multiplicity
 _atom_site_fract_x
 _atom_site_fract_y
 _atom_site_fract_z
 _atom_site_occupancy
  Er  Er0  1  0.000000  0.337242  0.407545  1
  Er  Er1  1  0.000000  0.662758  0.592455  1
  Er  Er2  1  0.000000  0.837242  0.092455  1
  Er  Er3  1  0.000000  0.162758  0.907545  1
  U  U4  1  0.000000  0.956307  0.396387  1
  U  U5  1  0.000000  0.043693  0.603613  1
  U  U6  1  0.000000  0.456307  0.103613  1
  U  U7  1  0.000000  0.543693  0.896387  1
  Tc  Tc8  1  0.000000  0.645265  0.318964  1
  Tc  Tc9  1  0.000000  0.354735  0.681036  1
  Tc  Tc10  1  0.000000  0.145265  0.181036  1
  Tc  Tc11  1  0.000000  0.854735  0.818964  1
  B  B12  1  0.500000  0.551150  0.431273  1
  B  B13  1  0.500000  0.448850  0.568727  1
  B  B14  1  0.500000  0.051150  0.068727  1
  B  B15  1  0.500000  0.948850  0.931273  1
  B  B16  1  0.500000  0.742199  0.423645  1
  B  B17  1  0.500000  0.257801  0.576355  1
  B  B18  1  0.500000  0.242199  0.076355  1
  B  B19  1  0.500000  0.757801  0.923645  1
  B  B20  1  0.500000  0.802008  0.275304  1
  B  B21  1  0.500000  0.197992  0.724696  1
  B  B22  1  0.500000  0.302008  0.224696  1
  B  B23  1  0.500000  0.697992  0.775304  1
  B  B24  1  0.500000  0.644328  0.188939  1
  B  B25  1  0.500000  0.355672  0.811061  1
  B  B26  1  0.500000  0.144328  0.311061  1
  B  B27  1  0.500000  0.855672  0.688939  1
  B  B28  1  0.500000  0.988502  0.219286  1
  B  B29  1  0.500000  0.011498  0.780714  1
  B  B30  1  0.500000  0.488502  0.280714  1
  B  B31  1  0.500000  0.511498  0.719286  1
  B  B32  1  0.500000  0.641659  0.039532  1
  B  B33  1  0.500000  0.358341  0.960468  1
  B  B34  1  0.500000  0.141659  0.460468  1
  B  B35  1  0.500000  0.858341  0.539532  1
