# generated using pymatgen
data_PrSm7(SiBr6)2
_symmetry_space_group_name_H-M   'P 1'
_cell_length_a   4.16950200
_cell_length_b   13.59580574
_cell_length_c   14.39650358
_cell_angle_alpha   90.16502399
_cell_angle_beta   90.00000000
_cell_angle_gamma   90.00000000
_symmetry_Int_Tables_number   1
_chemical_formula_structural   PrSm7(SiBr6)2
_chemical_formula_sum   'Pr1 Sm7 Si2 Br12'
_cell_volume   816.10185582
_cell_formula_units_Z   1
loop_
 _symmetry_equiv_pos_site_id
 _symmetry_equiv_pos_as_xyz
  1  'x, y, z'
loop_
 _atom_site_type_symbol
 _atom_site_label
 _atom_site_symmetry_multiplicity
 _atom_site_fract_x
 _atom_site_fract_y
 _atom_site_fract_z
 _atom_site_occupancy
  Pr  Pr0  1  0.000000  0.380170  0.079538  1
  Sm  Sm1  1  0.500000  0.117971  0.341406  1
  Sm  Sm2  1  0.500000  0.881859  0.658789  1
  Sm  Sm3  1  0.500000  0.618694  0.159102  1
  Sm  Sm4  1  0.500000  0.381775  0.840617  1
  Sm  Sm5  1  0.000000  0.118454  0.578635  1
  Sm  Sm6  1  0.000000  0.881591  0.421178  1
  Sm  Sm7  1  0.000000  0.619846  0.920444  1
  Si  Si8  1  0.500000  0.999864  0.500134  1
  Si  Si9  1  0.500000  0.502221  0.998553  1
  Br  Br10  1  0.500000  0.241141  0.166360  1
  Br  Br11  1  0.500000  0.755267  0.835960  1
  Br  Br12  1  0.500000  0.745882  0.336765  1
  Br  Br13  1  0.500000  0.254065  0.663265  1
  Br  Br14  1  0.000000  0.253286  0.411903  1
  Br  Br15  1  0.000000  0.746786  0.588190  1
  Br  Br16  1  0.000000  0.753552  0.088631  1
  Br  Br17  1  0.000000  0.245063  0.908355  1
  Br  Br18  1  0.000000  0.001888  0.245095  1
  Br  Br19  1  0.000000  0.997927  0.754850  1
  Br  Br20  1  0.000000  0.504997  0.257549  1
  Br  Br21  1  0.000000  0.497698  0.744682  1
