# generated using pymatgen
data_Pm4Ta(NiO4)3
_symmetry_space_group_name_H-M   'P 1'
_cell_length_a   5.43203637
_cell_length_b   5.70557502
_cell_length_c   7.87981665
_cell_angle_alpha   90.69819590
_cell_angle_beta   89.62335791
_cell_angle_gamma   90.50056367
_symmetry_Int_Tables_number   1
_chemical_formula_structural   Pm4Ta(NiO4)3
_chemical_formula_sum   'Pm4 Ta1 Ni3 O12'
_cell_volume   244.18573913
_cell_formula_units_Z   1
loop_
 _symmetry_equiv_pos_site_id
 _symmetry_equiv_pos_as_xyz
  1  'x, y, z'
loop_
 _atom_site_type_symbol
 _atom_site_label
 _atom_site_symmetry_multiplicity
 _atom_site_fract_x
 _atom_site_fract_y
 _atom_site_fract_z
 _atom_site_occupancy
  Pm  Pm0  1  0.983464  0.072343  0.264985  1
  Pm  Pm1  1  0.514986  0.557157  0.267053  1
  Pm  Pm2  1  0.485014  0.442844  0.732946  1
  Pm  Pm3  1  0.016537  0.927657  0.735014  1
  Ta  Ta4  1  0.499999  0.000000  0.000000  1
  Ni  Ni5  1  0.000000  0.500000  0.000000  1
  Ni  Ni6  1  0.499999  0.000000  0.500000  1
  Ni  Ni7  1  0.000000  0.500000  0.500000  1
  O  O8  1  0.689304  0.291869  0.060393  1
  O  O9  1  0.794747  0.809213  0.054291  1
  O  O10  1  0.101147  0.468784  0.251252  1
  O  O11  1  0.397006  0.967322  0.241925  1
  O  O12  1  0.694871  0.295852  0.453471  1
  O  O13  1  0.795047  0.804777  0.452031  1
  O  O14  1  0.204951  0.195223  0.547969  1
  O  O15  1  0.305130  0.704149  0.546529  1
  O  O16  1  0.602995  0.032679  0.758074  1
  O  O17  1  0.898853  0.531218  0.748747  1
  O  O18  1  0.205251  0.190787  0.945709  1
  O  O19  1  0.310697  0.708132  0.939607  1
