# generated using pymatgen
data_Ho6Th2MgInIr2
_symmetry_space_group_name_H-M   'P 1'
_cell_length_a   9.77394186
_cell_length_b   9.77419002
_cell_length_c   9.77957600
_cell_angle_alpha   59.98133028
_cell_angle_beta   59.98275014
_cell_angle_gamma   60.04855170
_symmetry_Int_Tables_number   1
_chemical_formula_structural   Ho6Th2MgInIr2
_chemical_formula_sum   'Ho12 Th4 Mg2 In2 Ir4'
_cell_volume   660.68831340
_cell_formula_units_Z   2
loop_
 _symmetry_equiv_pos_site_id
 _symmetry_equiv_pos_as_xyz
  1  'x, y, z'
loop_
 _atom_site_type_symbol
 _atom_site_label
 _atom_site_symmetry_multiplicity
 _atom_site_fract_x
 _atom_site_fract_y
 _atom_site_fract_z
 _atom_site_occupancy
  Ho  Ho0  1  0.811685  0.187196  0.189281  1
  Ho  Ho1  1  0.187213  0.811693  0.811828  1
  Ho  Ho2  1  0.187209  0.811690  0.189285  1
  Ho  Ho3  1  0.811690  0.187197  0.811828  1
  Ho  Ho4  1  0.187030  0.187048  0.812961  1
  Ho  Ho5  1  0.810479  0.810477  0.189530  1
  Ho  Ho6  1  0.934973  0.565783  0.565123  1
  Ho  Ho7  1  0.565783  0.934977  0.934130  1
  Ho  Ho8  1  0.565755  0.934976  0.565130  1
  Ho  Ho9  1  0.934983  0.565772  0.934128  1
  Ho  Ho10  1  0.564718  0.564720  0.935280  1
  Ho  Ho11  1  0.935030  0.935024  0.564970  1
  Th  Th12  1  0.348285  0.348279  0.347315  1
  Th  Th13  1  0.348293  0.348294  0.956090  1
  Th  Th14  1  0.348425  0.954100  0.348740  1
  Th  Th15  1  0.954092  0.348421  0.348740  1
  Mg  Mg16  1  0.580544  0.259635  0.579928  1
  Mg  Mg17  1  0.259624  0.580530  0.579931  1
  In  In18  1  0.583107  0.583091  0.584385  1
  In  In19  1  0.583095  0.583096  0.249423  1
  Ir  Ir20  1  0.142027  0.142055  0.143234  1
  Ir  Ir21  1  0.142041  0.142022  0.572677  1
  Ir  Ir22  1  0.141887  0.572039  0.143027  1
  Ir  Ir23  1  0.572031  0.141886  0.143036  1
