# generated using pymatgen
data_TbSm3(GaCo)4
_symmetry_space_group_name_H-M   'P 1'
_cell_length_a   4.48841700
_cell_length_b   6.85878036
_cell_length_c   7.17997000
_cell_angle_alpha   90.08769634
_cell_angle_beta   90.00000000
_cell_angle_gamma   90.00000000
_symmetry_Int_Tables_number   1
_chemical_formula_structural   TbSm3(GaCo)4
_chemical_formula_sum   'Tb1 Sm3 Ga4 Co4'
_cell_volume   221.03559427
_cell_formula_units_Z   1
loop_
 _symmetry_equiv_pos_site_id
 _symmetry_equiv_pos_as_xyz
  1  'x, y, z'
loop_
 _atom_site_type_symbol
 _atom_site_label
 _atom_site_symmetry_multiplicity
 _atom_site_fract_x
 _atom_site_fract_y
 _atom_site_fract_z
 _atom_site_occupancy
  Tb  Tb0  1  0.750000  0.804305  0.469958  1
  Sm  Sm1  1  0.250000  0.190265  0.527830  1
  Sm  Sm2  1  0.250000  0.308394  0.028208  1
  Sm  Sm3  1  0.750000  0.692708  0.970061  1
  Ga  Ga4  1  0.250000  0.889799  0.192713  1
  Ga  Ga5  1  0.750000  0.392955  0.309834  1
  Ga  Ga6  1  0.250000  0.611613  0.687845  1
  Ga  Ga7  1  0.750000  0.108032  0.809376  1
  Co  Co8  1  0.250000  0.934679  0.848929  1
  Co  Co9  1  0.250000  0.567224  0.349858  1
  Co  Co10  1  0.750000  0.064103  0.154867  1
  Co  Co11  1  0.750000  0.435924  0.650520  1
