# generated using pymatgen
data_Er8Si12Ir2PtRh
_symmetry_space_group_name_H-M   'P 1'
_cell_length_a   8.14591400
_cell_length_b   8.14591310
_cell_length_c   7.82410700
_cell_angle_alpha   90.00000000
_cell_angle_beta   90.00000000
_cell_angle_gamma   119.99999553
_symmetry_Int_Tables_number   1
_chemical_formula_structural   Er8Si12Ir2PtRh
_chemical_formula_sum   'Er8 Si12 Ir2 Pt1 Rh1'
_cell_volume   449.61938359
_cell_formula_units_Z   1
loop_
 _symmetry_equiv_pos_site_id
 _symmetry_equiv_pos_as_xyz
  1  'x, y, z'
loop_
 _atom_site_type_symbol
 _atom_site_label
 _atom_site_symmetry_multiplicity
 _atom_site_fract_x
 _atom_site_fract_y
 _atom_site_fract_z
 _atom_site_occupancy
  Er  Er0  1  0.976118  0.488060  0.252410  1
  Er  Er1  1  0.511940  0.488060  0.252410  1
  Er  Er2  1  0.491259  0.982516  0.747938  1
  Er  Er3  1  0.017484  0.508741  0.747938  1
  Er  Er4  1  0.491259  0.508741  0.747938  1
  Er  Er5  1  0.511940  0.023882  0.252410  1
  Er  Er6  1  0.000000  0.000000  0.748747  1
  Er  Er7  1  0.000000  0.000000  0.250469  1
  Si  Si8  1  0.167126  0.832874  0.498690  1
  Si  Si9  1  0.167126  0.334251  0.498690  1
  Si  Si10  1  0.665749  0.832874  0.498690  1
  Si  Si11  1  0.334421  0.167211  0.999720  1
  Si  Si12  1  0.833865  0.667731  0.501673  1
  Si  Si13  1  0.832789  0.167211  0.999720  1
  Si  Si14  1  0.832789  0.665579  0.999720  1
  Si  Si15  1  0.164568  0.329137  0.000027  1
  Si  Si16  1  0.670863  0.835432  0.000027  1
  Si  Si17  1  0.332269  0.166135  0.501673  1
  Si  Si18  1  0.833865  0.166135  0.501673  1
  Si  Si19  1  0.164568  0.835432  0.000027  1
  Ir  Ir20  1  0.666667  0.333333  0.962325  1
  Ir  Ir21  1  0.666667  0.333333  0.537000  1
  Pt  Pt22  1  0.333333  0.666667  0.035106  1
  Rh  Rh23  1  0.333333  0.666667  0.464973  1
