# generated using pymatgen
data_Yb3Pa(BiPt2)2
_symmetry_space_group_name_H-M   'P 1'
_cell_length_a   7.83196929
_cell_length_b   7.83196883
_cell_length_c   7.51874600
_cell_angle_alpha   90.00000000
_cell_angle_beta   90.00000000
_cell_angle_gamma   92.45703075
_symmetry_Int_Tables_number   1
_chemical_formula_structural   Yb3Pa(BiPt2)2
_chemical_formula_sum   'Yb6 Pa2 Bi4 Pt8'
_cell_volume   460.77391941
_cell_formula_units_Z   2
loop_
 _symmetry_equiv_pos_site_id
 _symmetry_equiv_pos_as_xyz
  1  'x, y, z'
loop_
 _atom_site_type_symbol
 _atom_site_label
 _atom_site_symmetry_multiplicity
 _atom_site_fract_x
 _atom_site_fract_y
 _atom_site_fract_z
 _atom_site_occupancy
  Yb  Yb0  1  0.661525  0.661525  0.000000  1
  Yb  Yb1  1  0.835926  0.164074  0.500000  1
  Yb  Yb2  1  0.338475  0.338475  0.000000  1
  Yb  Yb3  1  0.164074  0.835926  0.500000  1
  Yb  Yb4  1  0.828721  0.171279  0.000000  1
  Yb  Yb5  1  0.171279  0.828721  0.000000  1
  Pa  Pa6  1  0.323513  0.323513  0.500000  1
  Pa  Pa7  1  0.676487  0.676487  0.500000  1
  Bi  Bi8  1  0.500000  0.000000  0.756653  1
  Bi  Bi9  1  0.500000  0.000000  0.243347  1
  Bi  Bi10  1  0.000000  0.500000  0.756653  1
  Bi  Bi11  1  0.000000  0.500000  0.243347  1
  Pt  Pt12  1  0.866620  0.866620  0.744668  1
  Pt  Pt13  1  0.133380  0.133380  0.744668  1
  Pt  Pt14  1  0.624799  0.375201  0.722006  1
  Pt  Pt15  1  0.624799  0.375201  0.277994  1
  Pt  Pt16  1  0.375201  0.624799  0.277994  1
  Pt  Pt17  1  0.133380  0.133380  0.255332  1
  Pt  Pt18  1  0.866620  0.866620  0.255332  1
  Pt  Pt19  1  0.375201  0.624799  0.722006  1
