# generated using pymatgen
data_Pr6Th4Sn5BiBr2
_symmetry_space_group_name_H-M   'P 1'
_cell_length_a   9.61627393
_cell_length_b   9.61627363
_cell_length_c   6.74537500
_cell_angle_alpha   90.00000000
_cell_angle_beta   90.00000000
_cell_angle_gamma   120.24471890
_symmetry_Int_Tables_number   1
_chemical_formula_structural   Pr6Th4Sn5BiBr2
_chemical_formula_sum   'Pr6 Th4 Sn5 Bi1 Br2'
_cell_volume   538.85774589
_cell_formula_units_Z   1
loop_
 _symmetry_equiv_pos_site_id
 _symmetry_equiv_pos_as_xyz
  1  'x, y, z'
loop_
 _atom_site_type_symbol
 _atom_site_label
 _atom_site_symmetry_multiplicity
 _atom_site_fract_x
 _atom_site_fract_y
 _atom_site_fract_z
 _atom_site_occupancy
  Pr  Pr0  1  0.271879  0.999644  0.750000  1
  Pr  Pr1  1  0.728626  0.004297  0.250000  1
  Pr  Pr2  1  0.999644  0.271879  0.750000  1
  Pr  Pr3  1  0.004297  0.728626  0.250000  1
  Pr  Pr4  1  0.728236  0.728236  0.750000  1
  Pr  Pr5  1  0.270559  0.270559  0.250000  1
  Th  Th6  1  0.331122  0.667316  0.501193  1
  Th  Th7  1  0.667316  0.331122  0.501193  1
  Th  Th8  1  0.667316  0.331122  0.998807  1
  Th  Th9  1  0.331122  0.667316  0.998807  1
  Sn  Sn10  1  0.614199  0.999453  0.750000  1
  Sn  Sn11  1  0.385910  0.000944  0.250000  1
  Sn  Sn12  1  0.999453  0.614199  0.750000  1
  Sn  Sn13  1  0.000944  0.385910  0.250000  1
  Sn  Sn14  1  0.385207  0.385207  0.750000  1
  Bi  Bi15  1  0.616393  0.616393  0.250000  1
  Br  Br16  1  0.998888  0.998888  0.499543  1
  Br  Br17  1  0.998888  0.998888  0.000457  1
