# generated using pymatgen
data_Y6Fe2Co15NiP12
_symmetry_space_group_name_H-M   'P 1'
_cell_length_a   3.70655800
_cell_length_b   10.51713200
_cell_length_c   12.19919400
_cell_angle_alpha   90.00000000
_cell_angle_beta   90.00000000
_cell_angle_gamma   90.00000000
_symmetry_Int_Tables_number   1
_chemical_formula_structural   Y6Fe2Co15NiP12
_chemical_formula_sum   'Y6 Fe2 Co15 Ni1 P12'
_cell_volume   475.55336919
_cell_formula_units_Z   1
loop_
 _symmetry_equiv_pos_site_id
 _symmetry_equiv_pos_as_xyz
  1  'x, y, z'
loop_
 _atom_site_type_symbol
 _atom_site_label
 _atom_site_symmetry_multiplicity
 _atom_site_fract_x
 _atom_site_fract_y
 _atom_site_fract_z
 _atom_site_occupancy
  Y  Y0  1  0.000000  0.500000  0.519809  1
  Y  Y1  1  0.500000  0.000000  0.478748  1
  Y  Y2  1  0.500000  0.817645  0.205302  1
  Y  Y3  1  0.500000  0.182355  0.205302  1
  Y  Y4  1  0.000000  0.684042  0.795626  1
  Y  Y5  1  0.000000  0.315958  0.795626  1
  Fe  Fe6  1  0.500000  0.500000  0.156582  1
  Fe  Fe7  1  0.000000  0.000000  0.843172  1
  Co  Co8  1  0.000000  0.000000  0.297694  1
  Co  Co9  1  0.000000  0.500000  0.986251  1
  Co  Co10  1  0.500000  0.000000  0.014064  1
  Co  Co11  1  0.500000  0.332978  0.994272  1
  Co  Co12  1  0.500000  0.667022  0.994272  1
  Co  Co13  1  0.000000  0.166794  0.005622  1
  Co  Co14  1  0.000000  0.833206  0.005622  1
  Co  Co15  1  0.500000  0.297299  0.430724  1
  Co  Co16  1  0.500000  0.702701  0.430724  1
  Co  Co17  1  0.000000  0.202708  0.569052  1
  Co  Co18  1  0.000000  0.797292  0.569052  1
  Co  Co19  1  0.500000  0.878793  0.709636  1
  Co  Co20  1  0.500000  0.121207  0.709636  1
  Co  Co21  1  0.000000  0.620926  0.290523  1
  Co  Co22  1  0.000000  0.379074  0.290523  1
  Ni  Ni23  1  0.500000  0.500000  0.702063  1
  P  P24  1  0.500000  0.500000  0.883470  1
  P  P25  1  0.000000  0.000000  0.117911  1
  P  P26  1  0.500000  0.500000  0.341767  1
  P  P27  1  0.000000  0.000000  0.657886  1
  P  P28  1  0.500000  0.309103  0.615118  1
  P  P29  1  0.500000  0.690897  0.615118  1
  P  P30  1  0.000000  0.189725  0.383973  1
  P  P31  1  0.000000  0.810275  0.383973  1
  P  P32  1  0.500000  0.848080  0.893294  1
  P  P33  1  0.500000  0.151920  0.893294  1
  P  P34  1  0.000000  0.652463  0.107148  1
  P  P35  1  0.000000  0.347537  0.107148  1
