# generated using pymatgen
data_Hf2U5PaSb10
_symmetry_space_group_name_H-M   'P 1'
_cell_length_a   9.26057000
_cell_length_b   9.25281940
_cell_length_c   6.15825500
_cell_angle_alpha   90.00000000
_cell_angle_beta   90.00000000
_cell_angle_gamma   120.02771303
_symmetry_Int_Tables_number   1
_chemical_formula_structural   Hf2U5PaSb10
_chemical_formula_sum   'Hf2 U5 Pa1 Sb10'
_cell_volume   456.85539471
_cell_formula_units_Z   1
loop_
 _symmetry_equiv_pos_site_id
 _symmetry_equiv_pos_as_xyz
  1  'x, y, z'
loop_
 _atom_site_type_symbol
 _atom_site_label
 _atom_site_symmetry_multiplicity
 _atom_site_fract_x
 _atom_site_fract_y
 _atom_site_fract_z
 _atom_site_occupancy
  Hf  Hf0  1  0.999017  0.000000  0.499513  1
  Hf  Hf1  1  0.999017  0.000000  0.000487  1
  U  U2  1  0.386553  0.386530  0.250000  1
  U  U3  1  0.000023  0.613470  0.250000  1
  U  U4  1  0.000471  0.386240  0.750000  1
  U  U5  1  0.614231  0.613760  0.750000  1
  U  U6  1  0.613730  0.000000  0.250000  1
  Pa  Pa7  1  0.387211  0.000000  0.750000  1
  Sb  Sb8  1  0.333537  0.666388  0.500098  1
  Sb  Sb9  1  0.667150  0.333612  0.999902  1
  Sb  Sb10  1  0.667150  0.333612  0.500098  1
  Sb  Sb11  1  0.333537  0.666388  0.999902  1
  Sb  Sb12  1  0.729429  0.000000  0.750000  1
  Sb  Sb13  1  0.729144  0.729483  0.250000  1
  Sb  Sb14  1  0.999661  0.270517  0.250000  1
  Sb  Sb15  1  0.999537  0.729577  0.750000  1
  Sb  Sb16  1  0.270642  0.000000  0.250000  1
  Sb  Sb17  1  0.269959  0.270423  0.750000  1
