# generated using pymatgen
data_Sc6Mn4Si5Ge
_symmetry_space_group_name_H-M   'P 1'
_cell_length_a   5.56798243
_cell_length_b   5.56798360
_cell_length_c   12.98179600
_cell_angle_alpha   90.00000000
_cell_angle_beta   90.00000000
_cell_angle_gamma   138.75286969
_symmetry_Int_Tables_number   1
_chemical_formula_structural   Sc6Mn4Si5Ge
_chemical_formula_sum   'Sc6 Mn4 Si5 Ge1'
_cell_volume   265.34996452
_cell_formula_units_Z   1
loop_
 _symmetry_equiv_pos_site_id
 _symmetry_equiv_pos_as_xyz
  1  'x, y, z'
loop_
 _atom_site_type_symbol
 _atom_site_label
 _atom_site_symmetry_multiplicity
 _atom_site_fract_x
 _atom_site_fract_y
 _atom_site_fract_z
 _atom_site_occupancy
  Sc  Sc0  1  0.644881  0.355119  0.750000  1
  Sc  Sc1  1  0.927320  0.072680  0.615607  1
  Sc  Sc2  1  0.927320  0.072680  0.884393  1
  Sc  Sc3  1  0.071951  0.928049  0.112745  1
  Sc  Sc4  1  0.355856  0.644144  0.250000  1
  Sc  Sc5  1  0.071951  0.928049  0.387255  1
  Mn  Mn6  1  0.781055  0.218945  0.076967  1
  Mn  Mn7  1  0.220617  0.779383  0.579935  1
  Mn  Mn8  1  0.781055  0.218945  0.423033  1
  Mn  Mn9  1  0.220617  0.779383  0.920065  1
  Si  Si10  1  0.394849  0.605151  0.459810  1
  Si  Si11  1  0.394849  0.605151  0.040190  1
  Si  Si12  1  0.605921  0.394079  0.541782  1
  Si  Si13  1  0.335895  0.664105  0.750000  1
  Si  Si14  1  0.605921  0.394079  0.958218  1
  Ge  Ge15  1  0.659943  0.340057  0.250000  1
