# generated using pymatgen
data_Er13Th3(NiHg)4
_symmetry_space_group_name_H-M   'P 1'
_cell_length_a   9.50483707
_cell_length_b   9.51922871
_cell_length_c   9.51923000
_cell_angle_alpha   60.00000248
_cell_angle_beta   59.94990253
_cell_angle_gamma   59.94989845
_symmetry_Int_Tables_number   1
_chemical_formula_structural   Er13Th3(NiHg)4
_chemical_formula_sum   'Er13 Th3 Ni4 Hg4'
_cell_volume   608.56081128
_cell_formula_units_Z   1
loop_
 _symmetry_equiv_pos_site_id
 _symmetry_equiv_pos_as_xyz
  1  'x, y, z'
loop_
 _atom_site_type_symbol
 _atom_site_label
 _atom_site_symmetry_multiplicity
 _atom_site_fract_x
 _atom_site_fract_y
 _atom_site_fract_z
 _atom_site_occupancy
  Er  Er0  1  0.941102  0.352966  0.352966  1
  Er  Er1  1  0.812752  0.188179  0.188179  1
  Er  Er2  1  0.188604  0.813389  0.813389  1
  Er  Er3  1  0.188604  0.813389  0.184617  1
  Er  Er4  1  0.812752  0.188179  0.810891  1
  Er  Er5  1  0.188604  0.184617  0.813389  1
  Er  Er6  1  0.812752  0.810891  0.188179  1
  Er  Er7  1  0.936395  0.565733  0.565733  1
  Er  Er8  1  0.565035  0.934349  0.934349  1
  Er  Er9  1  0.565035  0.934349  0.566267  1
  Er  Er10  1  0.936395  0.565733  0.932137  1
  Er  Er11  1  0.565035  0.566267  0.934349  1
  Er  Er12  1  0.936395  0.932137  0.565733  1
  Th  Th13  1  0.345038  0.350906  0.350906  1
  Th  Th14  1  0.345038  0.350906  0.953149  1
  Th  Th15  1  0.345038  0.953149  0.350906  1
  Ni  Ni16  1  0.144794  0.141602  0.141602  1
  Ni  Ni17  1  0.144794  0.141602  0.572001  1
  Ni  Ni18  1  0.144794  0.572001  0.141602  1
  Ni  Ni19  1  0.569545  0.143485  0.143485  1
  Hg  Hg20  1  0.589965  0.585196  0.585196  1
  Hg  Hg21  1  0.589965  0.585196  0.239642  1
  Hg  Hg22  1  0.589965  0.239642  0.585196  1
  Hg  Hg23  1  0.241597  0.586134  0.586134  1
