# generated using pymatgen
data_Ac5IrPb2
_symmetry_space_group_name_H-M   'P 1'
_cell_length_a   8.74455600
_cell_length_b   9.70447000
_cell_length_c   13.52209600
_cell_angle_alpha   90.00000000
_cell_angle_beta   90.00000000
_cell_angle_gamma   90.00000000
_symmetry_Int_Tables_number   1
_chemical_formula_structural   Ac5IrPb2
_chemical_formula_sum   'Ac20 Ir4 Pb8'
_cell_volume   1147.50239330
_cell_formula_units_Z   4
loop_
 _symmetry_equiv_pos_site_id
 _symmetry_equiv_pos_as_xyz
  1  'x, y, z'
loop_
 _atom_site_type_symbol
 _atom_site_label
 _atom_site_symmetry_multiplicity
 _atom_site_fract_x
 _atom_site_fract_y
 _atom_site_fract_z
 _atom_site_occupancy
  Ac  Ac0  1  0.676924  0.461602  0.925715  1
  Ac  Ac1  1  0.176924  0.961603  0.574285  1
  Ac  Ac2  1  0.676924  0.038398  0.925715  1
  Ac  Ac3  1  0.823076  0.461602  0.425715  1
  Ac  Ac4  1  0.940359  0.750000  0.998132  1
  Ac  Ac5  1  0.440359  0.250000  0.501868  1
  Ac  Ac6  1  0.059641  0.250000  0.001868  1
  Ac  Ac7  1  0.559641  0.750000  0.498132  1
  Ac  Ac8  1  0.323076  0.538397  0.074285  1
  Ac  Ac9  1  0.823076  0.038398  0.425715  1
  Ac  Ac10  1  0.323076  0.961603  0.074285  1
  Ac  Ac11  1  0.176924  0.538397  0.574285  1
  Ac  Ac12  1  0.368234  0.750000  0.807215  1
  Ac  Ac13  1  0.868234  0.250000  0.692785  1
  Ac  Ac14  1  0.631766  0.250000  0.192785  1
  Ac  Ac15  1  0.131766  0.750000  0.307215  1
  Ac  Ac16  1  0.836268  0.750000  0.708195  1
  Ac  Ac17  1  0.336268  0.250000  0.791805  1
  Ac  Ac18  1  0.163732  0.250000  0.291805  1
  Ac  Ac19  1  0.663732  0.750000  0.208195  1
  Ir  Ir20  1  0.574722  0.750000  0.992303  1
  Ir  Ir21  1  0.074722  0.250000  0.507697  1
  Ir  Ir22  1  0.425278  0.250000  0.007697  1
  Ir  Ir23  1  0.925278  0.750000  0.492303  1
  Pb  Pb24  1  0.562438  0.493794  0.671702  1
  Pb  Pb25  1  0.937562  0.006206  0.171702  1
  Pb  Pb26  1  0.437562  0.993794  0.328298  1
  Pb  Pb27  1  0.062438  0.506206  0.828298  1
  Pb  Pb28  1  0.437562  0.506206  0.328298  1
  Pb  Pb29  1  0.062438  0.993794  0.828298  1
  Pb  Pb30  1  0.562438  0.006206  0.671702  1
  Pb  Pb31  1  0.937562  0.493794  0.171702  1
