# generated using pymatgen
data_Tb4Sm(FeO6)2
_symmetry_space_group_name_H-M   'P 1'
_cell_length_a   6.82909143
_cell_length_b   6.82908987
_cell_length_c   7.34320784
_cell_angle_alpha   74.42646679
_cell_angle_beta   74.42647444
_cell_angle_gamma   50.97455842
_symmetry_Int_Tables_number   1
_chemical_formula_structural   Tb4Sm(FeO6)2
_chemical_formula_sum   'Tb4 Sm1 Fe2 O12'
_cell_volume   254.00730451
_cell_formula_units_Z   1
loop_
 _symmetry_equiv_pos_site_id
 _symmetry_equiv_pos_as_xyz
  1  'x, y, z'
loop_
 _atom_site_type_symbol
 _atom_site_label
 _atom_site_symmetry_multiplicity
 _atom_site_fract_x
 _atom_site_fract_y
 _atom_site_fract_z
 _atom_site_occupancy
  Tb  Tb0  1  0.305597  0.305597  0.358008  1
  Tb  Tb1  1  0.694403  0.694403  0.641992  1
  Tb  Tb2  1  0.306038  0.306038  0.834130  1
  Tb  Tb3  1  0.693962  0.693962  0.165870  1
  Sm  Sm4  1  0.000000  0.000000  0.500000  1
  Fe  Fe5  1  0.755947  0.244053  0.000000  1
  Fe  Fe6  1  0.244053  0.755947  0.000000  1
  O  O7  1  0.897868  0.420075  0.922333  1
  O  O8  1  0.420075  0.897868  0.922333  1
  O  O9  1  0.102132  0.579925  0.077667  1
  O  O10  1  0.579925  0.102132  0.077667  1
  O  O11  1  0.095798  0.591156  0.579697  1
  O  O12  1  0.591156  0.095798  0.579697  1
  O  O13  1  0.904202  0.408844  0.420303  1
  O  O14  1  0.408844  0.904202  0.420303  1
  O  O15  1  0.001440  0.001440  0.820808  1
  O  O16  1  0.998560  0.998560  0.179192  1
  O  O17  1  0.499701  0.499701  0.818036  1
  O  O18  1  0.500299  0.500299  0.181964  1
