# generated using pymatgen
data_Dy5Hf3(P3Ir4)4
_symmetry_space_group_name_H-M   'P 1'
_cell_length_a   12.86720800
_cell_length_b   12.86720800
_cell_length_c   3.97631200
_cell_angle_alpha   90.00000000
_cell_angle_beta   90.00000000
_cell_angle_gamma   120.00000001
_symmetry_Int_Tables_number   1
_chemical_formula_structural   Dy5Hf3(P3Ir4)4
_chemical_formula_sum   'Dy5 Hf3 P12 Ir16'
_cell_volume   570.13765911
_cell_formula_units_Z   1
loop_
 _symmetry_equiv_pos_site_id
 _symmetry_equiv_pos_as_xyz
  1  'x, y, z'
loop_
 _atom_site_type_symbol
 _atom_site_label
 _atom_site_symmetry_multiplicity
 _atom_site_fract_x
 _atom_site_fract_y
 _atom_site_fract_z
 _atom_site_occupancy
  Dy  Dy0  1  0.333333  0.666667  0.500000  1
  Dy  Dy1  1  0.666667  0.333333  0.500000  1
  Dy  Dy2  1  0.000000  0.813868  0.000000  1
  Dy  Dy3  1  0.186132  0.186132  0.000000  1
  Dy  Dy4  1  0.813868  0.000000  0.000000  1
  Hf  Hf5  1  0.000000  0.448378  0.500000  1
  Hf  Hf6  1  0.551622  0.551622  0.500000  1
  Hf  Hf7  1  0.448378  0.000000  0.500000  1
  P  P8  1  0.000000  0.648393  0.500000  1
  P  P9  1  0.351607  0.351607  0.500000  1
  P  P10  1  0.648393  0.000000  0.500000  1
  P  P11  1  0.517203  0.686608  0.000000  1
  P  P12  1  0.313392  0.830596  0.000000  1
  P  P13  1  0.169404  0.482797  0.000000  1
  P  P14  1  0.482797  0.169404  0.000000  1
  P  P15  1  0.686608  0.517203  0.000000  1
  P  P16  1  0.830596  0.313392  0.000000  1
  P  P17  1  0.000000  0.175242  0.500000  1
  P  P18  1  0.824758  0.824758  0.500000  1
  P  P19  1  0.175242  0.000000  0.500000  1
  Ir  Ir20  1  0.507476  0.865082  0.000000  1
  Ir  Ir21  1  0.134918  0.642395  0.000000  1
  Ir  Ir22  1  0.357605  0.492524  0.000000  1
  Ir  Ir23  1  0.492524  0.357605  0.000000  1
  Ir  Ir24  1  0.865082  0.507476  0.000000  1
  Ir  Ir25  1  0.642395  0.134918  0.000000  1
  Ir  Ir26  1  0.000000  0.280708  0.000000  1
  Ir  Ir27  1  0.719292  0.719292  0.000000  1
  Ir  Ir28  1  0.280708  0.000000  0.000000  1
  Ir  Ir29  1  0.628218  0.806179  0.500000  1
  Ir  Ir30  1  0.193821  0.822038  0.500000  1
  Ir  Ir31  1  0.177962  0.371782  0.500000  1
  Ir  Ir32  1  0.371782  0.177962  0.500000  1
  Ir  Ir33  1  0.806179  0.628218  0.500000  1
  Ir  Ir34  1  0.822038  0.193821  0.500000  1
  Ir  Ir35  1  0.000000  0.000000  0.500000  1
