# generated using pymatgen
data_Pr3Nd(Ru2I)2
_symmetry_space_group_name_H-M   'P 1'
_cell_length_a   4.33088000
_cell_length_b   4.33087991
_cell_length_c   17.64726500
_cell_angle_alpha   90.00000000
_cell_angle_beta   90.00000000
_cell_angle_gamma   120.00000067
_symmetry_Int_Tables_number   1
_chemical_formula_structural   Pr3Nd(Ru2I)2
_chemical_formula_sum   'Pr3 Nd1 Ru4 I2'
_cell_volume   286.65553259
_cell_formula_units_Z   1
loop_
 _symmetry_equiv_pos_site_id
 _symmetry_equiv_pos_as_xyz
  1  'x, y, z'
loop_
 _atom_site_type_symbol
 _atom_site_label
 _atom_site_symmetry_multiplicity
 _atom_site_fract_x
 _atom_site_fract_y
 _atom_site_fract_z
 _atom_site_occupancy
  Pr  Pr0  1  0.000000  0.000000  0.394147  1
  Pr  Pr1  1  0.000000  0.000000  0.894972  1
  Pr  Pr2  1  0.000000  0.000000  0.605539  1
  Nd  Nd3  1  0.000000  0.000000  0.104832  1
  Ru  Ru4  1  0.333333  0.666667  0.002332  1
  Ru  Ru5  1  0.666667  0.333333  0.999296  1
  Ru  Ru6  1  0.333333  0.666667  0.498885  1
  Ru  Ru7  1  0.666667  0.333333  0.500876  1
  I  I8  1  0.333333  0.666667  0.750267  1
  I  I9  1  0.666667  0.333333  0.248855  1
