# generated using pymatgen
data_K3LiRhO4
_symmetry_space_group_name_H-M   'P 1'
_cell_length_a   7.29131213
_cell_length_b   7.29131239
_cell_length_c   5.96398613
_cell_angle_alpha   79.40467743
_cell_angle_beta   79.40467791
_cell_angle_gamma   84.41690725
_symmetry_Int_Tables_number   1
_chemical_formula_structural   K3LiRhO4
_chemical_formula_sum   'K6 Li2 Rh2 O8'
_cell_volume   305.68336000
_cell_formula_units_Z   2
loop_
 _symmetry_equiv_pos_site_id
 _symmetry_equiv_pos_as_xyz
  1  'x, y, z'
loop_
 _atom_site_type_symbol
 _atom_site_label
 _atom_site_symmetry_multiplicity
 _atom_site_fract_x
 _atom_site_fract_y
 _atom_site_fract_z
 _atom_site_occupancy
  K  K0  1  0.066141  0.243915  0.026202  1
  K  K1  1  0.595166  0.404834  0.250000  1
  K  K2  1  0.243915  0.066141  0.526202  1
  K  K3  1  0.756085  0.933859  0.473798  1
  K  K4  1  0.933859  0.756085  0.973798  1
  K  K5  1  0.404834  0.595166  0.750000  1
  Li  Li6  1  0.731499  0.268501  0.750000  1
  Li  Li7  1  0.268501  0.731499  0.250000  1
  Rh  Rh8  1  0.500000  0.000000  0.000000  1
  Rh  Rh9  1  0.000000  0.500000  0.500000  1
  O  O10  1  0.204889  0.480788  0.243645  1
  O  O11  1  0.912526  0.264690  0.470418  1
  O  O12  1  0.480788  0.204889  0.743645  1
  O  O13  1  0.264690  0.912526  0.970418  1
  O  O14  1  0.087474  0.735310  0.529582  1
  O  O15  1  0.735310  0.087474  0.029582  1
  O  O16  1  0.519212  0.795111  0.256355  1
  O  O17  1  0.795111  0.519212  0.756355  1
