# generated using pymatgen
data_Li8Sm7ThPb8
_symmetry_space_group_name_H-M   'P 1'
_cell_length_a   9.67945300
_cell_length_b   9.68046202
_cell_length_c   7.67059600
_cell_angle_alpha   89.99048273
_cell_angle_beta   89.99998816
_cell_angle_gamma   119.99654182
_symmetry_Int_Tables_number   1
_chemical_formula_structural   Li8Sm7ThPb8
_chemical_formula_sum   'Li8 Sm7 Th1 Pb8'
_cell_volume   622.47478934
_cell_formula_units_Z   1
loop_
 _symmetry_equiv_pos_site_id
 _symmetry_equiv_pos_as_xyz
  1  'x, y, z'
loop_
 _atom_site_type_symbol
 _atom_site_label
 _atom_site_symmetry_multiplicity
 _atom_site_fract_x
 _atom_site_fract_y
 _atom_site_fract_z
 _atom_site_occupancy
  Li  Li0  1  0.167246  0.334495  0.286147  1
  Li  Li1  1  0.164158  0.831908  0.284557  1
  Li  Li2  1  0.667751  0.831908  0.284558  1
  Li  Li3  1  0.833162  0.666323  0.789173  1
  Li  Li4  1  0.834003  0.167792  0.787716  1
  Li  Li5  1  0.333789  0.167792  0.787717  1
  Li  Li6  1  0.331953  0.663909  0.675357  1
  Li  Li7  1  0.666876  0.333752  0.171678  1
  Sm  Sm8  1  0.511906  0.489397  0.495015  1
  Sm  Sm9  1  0.977490  0.489397  0.495015  1
  Sm  Sm10  1  0.487972  0.975943  0.994445  1
  Sm  Sm11  1  0.488287  0.511596  0.994594  1
  Sm  Sm12  1  0.023310  0.511596  0.994594  1
  Sm  Sm13  1  0.000491  0.000982  0.499358  1
  Sm  Sm14  1  0.000276  0.000555  0.999531  1
  Th  Th15  1  0.510912  0.021823  0.494757  1
  Pb  Pb16  1  0.166898  0.333799  0.730078  1
  Pb  Pb17  1  0.166803  0.833605  0.727513  1
  Pb  Pb18  1  0.666801  0.833606  0.727512  1
  Pb  Pb19  1  0.833027  0.666054  0.227098  1
  Pb  Pb20  1  0.833046  0.166698  0.231654  1
  Pb  Pb21  1  0.333653  0.166698  0.231654  1
  Pb  Pb22  1  0.333650  0.667299  0.267288  1
  Pb  Pb23  1  0.666539  0.333076  0.764965  1
