# generated using pymatgen
data_Zr5HgBi2B
_symmetry_space_group_name_H-M   'P 1'
_cell_length_a   8.67929679
_cell_length_b   8.67929713
_cell_length_c   5.85061700
_cell_angle_alpha   90.00000000
_cell_angle_beta   90.00000000
_cell_angle_gamma   119.69050124
_symmetry_Int_Tables_number   1
_chemical_formula_structural   Zr5HgBi2B
_chemical_formula_sum   'Zr10 Hg2 Bi4 B2'
_cell_volume   382.86653351
_cell_formula_units_Z   2
loop_
 _symmetry_equiv_pos_site_id
 _symmetry_equiv_pos_as_xyz
  1  'x, y, z'
loop_
 _atom_site_type_symbol
 _atom_site_label
 _atom_site_symmetry_multiplicity
 _atom_site_fract_x
 _atom_site_fract_y
 _atom_site_fract_z
 _atom_site_occupancy
  Zr  Zr0  1  0.667999  0.330964  0.003096  1
  Zr  Zr1  1  0.330964  0.667999  0.003096  1
  Zr  Zr2  1  0.330964  0.667999  0.496904  1
  Zr  Zr3  1  0.667999  0.330964  0.496904  1
  Zr  Zr4  1  0.774955  0.774955  0.750000  1
  Zr  Zr5  1  0.222518  0.997371  0.750000  1
  Zr  Zr6  1  0.997371  0.222518  0.750000  1
  Zr  Zr7  1  0.222684  0.222684  0.250000  1
  Zr  Zr8  1  0.777216  0.006494  0.250000  1
  Zr  Zr9  1  0.006494  0.777216  0.250000  1
  Hg  Hg10  1  0.397281  0.001639  0.250000  1
  Hg  Hg11  1  0.001639  0.397281  0.250000  1
  Bi  Bi12  1  0.397611  0.397611  0.750000  1
  Bi  Bi13  1  0.598396  0.999759  0.750000  1
  Bi  Bi14  1  0.999759  0.598396  0.750000  1
  Bi  Bi15  1  0.605110  0.605110  0.250000  1
  B  B16  1  0.000519  0.000519  0.001338  1
  B  B17  1  0.000519  0.000519  0.498662  1
