# generated using pymatgen
data_Tm2CuPd5
_symmetry_space_group_name_H-M   'P 1'
_cell_length_a   5.74859643
_cell_length_b   5.74859691
_cell_length_c   4.11792300
_cell_angle_alpha   90.00000000
_cell_angle_beta   90.00000000
_cell_angle_gamma   92.62005586
_symmetry_Int_Tables_number   1
_chemical_formula_structural   Tm2CuPd5
_chemical_formula_sum   'Tm2 Cu1 Pd5'
_cell_volume   135.94012451
_cell_formula_units_Z   1
loop_
 _symmetry_equiv_pos_site_id
 _symmetry_equiv_pos_as_xyz
  1  'x, y, z'
loop_
 _atom_site_type_symbol
 _atom_site_label
 _atom_site_symmetry_multiplicity
 _atom_site_fract_x
 _atom_site_fract_y
 _atom_site_fract_z
 _atom_site_occupancy
  Tm  Tm0  1  0.760370  0.239628  0.000000  1
  Tm  Tm1  1  0.239628  0.760370  0.000000  1
  Cu  Cu2  1  0.499999  0.499999  0.499999  1
  Pd  Pd3  1  0.266288  0.266288  0.000000  1
  Pd  Pd4  1  0.733713  0.733713  0.000000  1
  Pd  Pd5  1  0.000000  0.000000  0.499999  1
  Pd  Pd6  1  0.500000  0.000000  0.499999  1
  Pd  Pd7  1  0.000000  0.500000  0.499999  1
