# generated using pymatgen
data_TbErAl2(SiIr2)2
_symmetry_space_group_name_H-M   'P 1'
_cell_length_a   4.07510100
_cell_length_b   4.07510100
_cell_length_c   10.45388900
_cell_angle_alpha   90.00000000
_cell_angle_beta   90.00000000
_cell_angle_gamma   90.00000000
_symmetry_Int_Tables_number   1
_chemical_formula_structural   TbErAl2(SiIr2)2
_chemical_formula_sum   'Tb1 Er1 Al2 Si2 Ir4'
_cell_volume   173.60196575
_cell_formula_units_Z   1
loop_
 _symmetry_equiv_pos_site_id
 _symmetry_equiv_pos_as_xyz
  1  'x, y, z'
loop_
 _atom_site_type_symbol
 _atom_site_label
 _atom_site_symmetry_multiplicity
 _atom_site_fract_x
 _atom_site_fract_y
 _atom_site_fract_z
 _atom_site_occupancy
  Tb  Tb0  1  0.500000  0.000000  0.756814  1
  Er  Er1  1  0.000000  0.500000  0.242606  1
  Al  Al2  1  0.000000  0.000000  0.499008  1
  Al  Al3  1  0.500000  0.500000  0.499008  1
  Si  Si4  1  0.000000  0.500000  0.875483  1
  Si  Si5  1  0.500000  0.000000  0.125677  1
  Ir  Ir6  1  0.000000  0.000000  0.001057  1
  Ir  Ir7  1  0.500000  0.500000  0.001057  1
  Ir  Ir8  1  0.000000  0.500000  0.645258  1
  Ir  Ir9  1  0.500000  0.000000  0.354032  1
