# generated using pymatgen
data_LaHgIr2O7
_symmetry_space_group_name_H-M   'P 1'
_cell_length_a   7.36845136
_cell_length_b   7.36845132
_cell_length_c   7.28216000
_cell_angle_alpha   60.38665271
_cell_angle_beta   60.38665286
_cell_angle_gamma   61.81261998
_symmetry_Int_Tables_number   1
_chemical_formula_structural   LaHgIr2O7
_chemical_formula_sum   'La2 Hg2 Ir4 O14'
_cell_volume   284.89201740
_cell_formula_units_Z   2
loop_
 _symmetry_equiv_pos_site_id
 _symmetry_equiv_pos_as_xyz
  1  'x, y, z'
loop_
 _atom_site_type_symbol
 _atom_site_label
 _atom_site_symmetry_multiplicity
 _atom_site_fract_x
 _atom_site_fract_y
 _atom_site_fract_z
 _atom_site_occupancy
  La  La0  1  0.625000  0.125000  0.125000  1
  La  La1  1  0.125000  0.625000  0.125000  1
  Hg  Hg2  1  0.125000  0.125000  0.625000  1
  Hg  Hg3  1  0.125000  0.125000  0.125000  1
  Ir  Ir4  1  0.125000  0.625000  0.625000  1
  Ir  Ir5  1  0.625000  0.125000  0.625000  1
  Ir  Ir6  1  0.625000  0.625000  0.125000  1
  Ir  Ir7  1  0.625000  0.625000  0.625000  1
  O  O8  1  0.708301  0.708301  0.291699  1
  O  O9  1  0.304764  0.304764  0.695236  1
  O  O10  1  0.694204  0.303553  0.701863  1
  O  O11  1  0.303553  0.694204  0.300380  1
  O  O12  1  0.303553  0.694204  0.701863  1
  O  O13  1  0.694204  0.303553  0.300380  1
  O  O14  1  0.541699  0.541699  0.958301  1
  O  O15  1  0.945236  0.945236  0.554764  1
  O  O16  1  0.555796  0.946447  0.548137  1
  O  O17  1  0.946447  0.555796  0.949620  1
  O  O18  1  0.946447  0.555796  0.548137  1
  O  O19  1  0.555796  0.946447  0.949620  1
  O  O20  1  0.239955  0.239955  0.260045  1
  O  O21  1  0.010045  0.010045  0.989955  1
