# generated using pymatgen
data_Yb3(DyRu)2
_symmetry_space_group_name_H-M   'P 1'
_cell_length_a   8.46844425
_cell_length_b   8.46844458
_cell_length_c   7.41956145
_cell_angle_alpha   83.25296676
_cell_angle_beta   83.25296545
_cell_angle_gamma   43.86427665
_symmetry_Int_Tables_number   1
_chemical_formula_structural   Yb3(DyRu)2
_chemical_formula_sum   'Yb6 Dy4 Ru4'
_cell_volume   365.74423955
_cell_formula_units_Z   2
loop_
 _symmetry_equiv_pos_site_id
 _symmetry_equiv_pos_as_xyz
  1  'x, y, z'
loop_
 _atom_site_type_symbol
 _atom_site_label
 _atom_site_symmetry_multiplicity
 _atom_site_fract_x
 _atom_site_fract_y
 _atom_site_fract_z
 _atom_site_occupancy
  Yb  Yb0  1  0.202315  0.974512  0.583396  1
  Yb  Yb1  1  0.025488  0.797685  0.916604  1
  Yb  Yb2  1  0.202051  0.365741  0.317021  1
  Yb  Yb3  1  0.634259  0.797949  0.182979  1
  Yb  Yb4  1  0.804083  0.628673  0.678638  1
  Yb  Yb5  1  0.371327  0.195917  0.821362  1
  Dy  Dy6  1  0.969104  0.200465  0.081144  1
  Dy  Dy7  1  0.799535  0.030896  0.418856  1
  Dy  Dy8  1  0.565373  0.434627  0.750000  1
  Dy  Dy9  1  0.416276  0.583724  0.250000  1
  Ru  Ru10  1  0.177951  0.603420  0.572892  1
  Ru  Ru11  1  0.396580  0.822049  0.927108  1
  Ru  Ru12  1  0.816917  0.381261  0.418305  1
  Ru  Ru13  1  0.618739  0.183083  0.081695  1
