# generated using pymatgen
data_Zr2Ti3Re13Tc11
_symmetry_space_group_name_H-M   'P 1'
_cell_length_a   8.39856710
_cell_length_b   8.40165776
_cell_length_c   8.39803217
_cell_angle_alpha   109.50084713
_cell_angle_beta   109.45942632
_cell_angle_gamma   109.50043278
_symmetry_Int_Tables_number   1
_chemical_formula_structural   Zr2Ti3Re13Tc11
_chemical_formula_sum   'Zr2 Ti3 Re13 Tc11'
_cell_volume   455.90396216
_cell_formula_units_Z   1
loop_
 _symmetry_equiv_pos_site_id
 _symmetry_equiv_pos_as_xyz
  1  'x, y, z'
loop_
 _atom_site_type_symbol
 _atom_site_label
 _atom_site_symmetry_multiplicity
 _atom_site_fract_x
 _atom_site_fract_y
 _atom_site_fract_z
 _atom_site_occupancy
  Zr  Zr0  1  0.003096  0.999669  0.000029  1
  Zr  Zr1  1  0.627154  0.999640  0.999817  1
  Ti  Ti2  1  0.999854  0.626059  0.000182  1
  Ti  Ti3  1  0.999425  0.999532  0.625879  1
  Ti  Ti4  1  0.372619  0.374275  0.373078  1
  Re  Re5  1  0.598738  0.279774  0.598668  1
  Re  Re6  1  0.376453  0.194446  0.999780  1
  Re  Re7  1  0.181611  0.805457  0.805207  1
  Re  Re8  1  0.376316  0.000939  0.195133  1
  Re  Re9  1  0.193888  0.375623  0.000188  1
  Re  Re10  1  0.003058  0.379562  0.196348  1
  Re  Re11  1  0.807218  0.182316  0.804192  1
  Re  Re12  1  0.806700  0.803934  0.183707  1
  Re  Re13  1  0.002525  0.195673  0.379821  1
  Re  Re14  1  0.193861  0.000891  0.375822  1
  Re  Re15  1  0.622750  0.620136  0.816152  1
  Re  Re16  1  0.817583  0.624159  0.623951  1
  Re  Re17  1  0.622485  0.814712  0.619678  1
  Tc  Tc18  1  0.396298  0.676241  0.000525  1
  Tc  Tc19  1  0.721054  0.324715  0.323777  1
  Tc  Tc20  1  0.396590  0.000528  0.675601  1
  Tc  Tc21  1  0.683264  0.400487  0.000130  1
  Tc  Tc22  1  0.000196  0.402180  0.682865  1
  Tc  Tc23  1  0.317365  0.719652  0.317508  1
  Tc  Tc24  1  0.317463  0.318464  0.720082  1
  Tc  Tc25  1  0.000260  0.682284  0.401613  1
  Tc  Tc26  1  0.682168  0.000480  0.400551  1
  Tc  Tc27  1  0.598316  0.598465  0.280024  1
  Tc  Tc28  1  0.281693  0.599706  0.599691  1
