# generated using pymatgen
data_TbDyGa3Cu
_symmetry_space_group_name_H-M   'P 1'
_cell_length_a   4.38161907
_cell_length_b   4.38148796
_cell_length_c   7.24503200
_cell_angle_alpha   90.00276886
_cell_angle_beta   89.99969093
_cell_angle_gamma   119.99521061
_symmetry_Int_Tables_number   1
_chemical_formula_structural   TbDyGa3Cu
_chemical_formula_sum   'Tb1 Dy1 Ga3 Cu1'
_cell_volume   120.46146418
_cell_formula_units_Z   1
loop_
 _symmetry_equiv_pos_site_id
 _symmetry_equiv_pos_as_xyz
  1  'x, y, z'
loop_
 _atom_site_type_symbol
 _atom_site_label
 _atom_site_symmetry_multiplicity
 _atom_site_fract_x
 _atom_site_fract_y
 _atom_site_fract_z
 _atom_site_occupancy
  Tb  Tb0  1  0.000017  0.000091  0.260606  1
  Dy  Dy1  1  0.000066  0.000009  0.731467  1
  Ga  Ga2  1  0.333435  0.666620  0.481292  1
  Ga  Ga3  1  0.333319  0.666735  0.042540  1
  Ga  Ga4  1  0.666691  0.333399  0.951113  1
  Cu  Cu5  1  0.666472  0.333146  0.532981  1
