# generated using pymatgen
data_Tm12CuTc3
_symmetry_space_group_name_H-M   'P 1'
_cell_length_a   6.21249962
_cell_length_b   7.30615518
_cell_length_c   9.04131600
_cell_angle_alpha   90.00000000
_cell_angle_beta   90.00000000
_cell_angle_gamma   90.09482755
_symmetry_Int_Tables_number   1
_chemical_formula_structural   Tm12CuTc3
_chemical_formula_sum   'Tm12 Cu1 Tc3'
_cell_volume   410.38012640
_cell_formula_units_Z   1
loop_
 _symmetry_equiv_pos_site_id
 _symmetry_equiv_pos_as_xyz
  1  'x, y, z'
loop_
 _atom_site_type_symbol
 _atom_site_label
 _atom_site_symmetry_multiplicity
 _atom_site_fract_x
 _atom_site_fract_y
 _atom_site_fract_z
 _atom_site_occupancy
  Tm  Tm0  1  0.329511  0.676953  0.067440  1
  Tm  Tm1  1  0.164341  0.178464  0.437302  1
  Tm  Tm2  1  0.665216  0.316096  0.557996  1
  Tm  Tm3  1  0.841290  0.828108  0.942238  1
  Tm  Tm4  1  0.665216  0.316096  0.942004  1
  Tm  Tm5  1  0.841290  0.828108  0.557762  1
  Tm  Tm6  1  0.329511  0.676953  0.432560  1
  Tm  Tm7  1  0.164341  0.178464  0.062698  1
  Tm  Tm8  1  0.871813  0.540637  0.250000  1
  Tm  Tm9  1  0.622458  0.037341  0.250000  1
  Tm  Tm10  1  0.128447  0.457333  0.750000  1
  Tm  Tm11  1  0.372756  0.968635  0.750000  1
  Cu  Cu12  1  0.547254  0.611465  0.750000  1
  Tc  Tc13  1  0.036624  0.885395  0.250000  1
  Tc  Tc14  1  0.464067  0.386212  0.250000  1
  Tc  Tc15  1  0.955865  0.113742  0.750000  1
