# generated using pymatgen
data_Tm4Pa4Re(B8Mo)3
_symmetry_space_group_name_H-M   'P 1'
_cell_length_a   3.73397500
_cell_length_b   9.14384001
_cell_length_c   11.50500601
_cell_angle_alpha   89.99526590
_cell_angle_beta   90.00000000
_cell_angle_gamma   90.00000000
_symmetry_Int_Tables_number   1
_chemical_formula_structural   Tm4Pa4Re(B8Mo)3
_chemical_formula_sum   'Tm4 Pa4 Re1 B24 Mo3'
_cell_volume   392.81392312
_cell_formula_units_Z   1
loop_
 _symmetry_equiv_pos_site_id
 _symmetry_equiv_pos_as_xyz
  1  'x, y, z'
loop_
 _atom_site_type_symbol
 _atom_site_label
 _atom_site_symmetry_multiplicity
 _atom_site_fract_x
 _atom_site_fract_y
 _atom_site_fract_z
 _atom_site_occupancy
  Tm  Tm0  1  0.000000  0.945416  0.373882  1
  Tm  Tm1  1  0.000000  0.055223  0.626172  1
  Tm  Tm2  1  0.000000  0.445494  0.126311  1
  Tm  Tm3  1  0.000000  0.554361  0.873673  1
  Pa  Pa4  1  0.000000  0.321920  0.412983  1
  Pa  Pa5  1  0.000000  0.677149  0.585270  1
  Pa  Pa6  1  0.000000  0.821855  0.087809  1
  Pa  Pa7  1  0.000000  0.179188  0.913973  1
  Re  Re8  1  0.000000  0.861465  0.821482  1
  B  B9  1  0.500000  0.553522  0.433028  1
  B  B10  1  0.500000  0.446670  0.567062  1
  B  B11  1  0.500000  0.053218  0.066662  1
  B  B12  1  0.500000  0.945918  0.932290  1
  B  B13  1  0.500000  0.749416  0.420343  1
  B  B14  1  0.500000  0.250530  0.579820  1
  B  B15  1  0.500000  0.249682  0.079728  1
  B  B16  1  0.500000  0.750535  0.919533  1
  B  B17  1  0.500000  0.793416  0.264809  1
  B  B18  1  0.500000  0.206344  0.735238  1
  B  B19  1  0.500000  0.293176  0.235197  1
  B  B20  1  0.500000  0.707536  0.765453  1
  B  B21  1  0.500000  0.632361  0.184526  1
  B  B22  1  0.500000  0.367701  0.815651  1
  B  B23  1  0.500000  0.131973  0.315300  1
  B  B24  1  0.500000  0.868208  0.685125  1
  B  B25  1  0.500000  0.981691  0.212983  1
  B  B26  1  0.500000  0.017051  0.786972  1
  B  B27  1  0.500000  0.481885  0.286885  1
  B  B28  1  0.500000  0.518259  0.713240  1
  B  B29  1  0.500000  0.608396  0.029401  1
  B  B30  1  0.500000  0.391992  0.969999  1
  B  B31  1  0.500000  0.107918  0.470087  1
  B  B32  1  0.500000  0.892062  0.530528  1
  Mo  Mo33  1  0.000000  0.638967  0.321328  1
  Mo  Mo34  1  0.000000  0.361362  0.679280  1
  Mo  Mo35  1  0.000000  0.138140  0.177978  1
