# generated using pymatgen
data_ScTa8InS16
_symmetry_space_group_name_H-M   'P 1'
_cell_length_a   6.67250432
_cell_length_b   6.67129561
_cell_length_c   13.91092800
_cell_angle_alpha   90.00000000
_cell_angle_beta   89.96393524
_cell_angle_gamma   119.99407508
_symmetry_Int_Tables_number   1
_chemical_formula_structural   ScTa8InS16
_chemical_formula_sum   'Sc1 Ta8 In1 S16'
_cell_volume   536.30468934
_cell_formula_units_Z   1
loop_
 _symmetry_equiv_pos_site_id
 _symmetry_equiv_pos_as_xyz
  1  'x, y, z'
loop_
 _atom_site_type_symbol
 _atom_site_label
 _atom_site_symmetry_multiplicity
 _atom_site_fract_x
 _atom_site_fract_y
 _atom_site_fract_z
 _atom_site_occupancy
  Sc  Sc0  1  0.000000  0.000000  0.500000  1
  Ta  Ta1  1  0.992582  0.496291  0.267475  1
  Ta  Ta2  1  0.007418  0.503709  0.732525  1
  Ta  Ta3  1  0.496034  0.503693  0.732543  1
  Ta  Ta4  1  0.503966  0.007661  0.267457  1
  Ta  Ta5  1  0.999773  0.999886  0.730490  1
  Ta  Ta6  1  0.000227  0.000114  0.269510  1
  Ta  Ta7  1  0.503966  0.496307  0.267457  1
  Ta  Ta8  1  0.496034  0.992339  0.732543  1
  In  In9  1  0.000000  0.000000  0.000000  1
  S  S10  1  0.333395  0.666698  0.618739  1
  S  S11  1  0.667076  0.333537  0.153925  1
  S  S12  1  0.666605  0.333302  0.381261  1
  S  S13  1  0.332924  0.666463  0.846075  1
  S  S14  1  0.169027  0.338051  0.380989  1
  S  S15  1  0.833445  0.166023  0.842471  1
  S  S16  1  0.331968  0.165982  0.842455  1
  S  S17  1  0.662064  0.831032  0.380984  1
  S  S18  1  0.169027  0.830977  0.380989  1
  S  S19  1  0.833445  0.667422  0.842471  1
  S  S20  1  0.166555  0.332578  0.157529  1
  S  S21  1  0.830973  0.169023  0.619011  1
  S  S22  1  0.337936  0.168968  0.619016  1
  S  S23  1  0.668032  0.834018  0.157545  1
  S  S24  1  0.166555  0.833977  0.157529  1
  S  S25  1  0.830973  0.661949  0.619011  1
