# generated using pymatgen
data_Pr2Dy14Cd4IrPt3
_symmetry_space_group_name_H-M   'P 1'
_cell_length_a   9.73904362
_cell_length_b   9.71445630
_cell_length_c   9.69542000
_cell_angle_alpha   60.06480821
_cell_angle_beta   60.14806893
_cell_angle_gamma   59.97799085
_symmetry_Int_Tables_number   1
_chemical_formula_structural   Pr2Dy14Cd4IrPt3
_chemical_formula_sum   'Pr2 Dy14 Cd4 Ir1 Pt3'
_cell_volume   649.54656433
_cell_formula_units_Z   1
loop_
 _symmetry_equiv_pos_site_id
 _symmetry_equiv_pos_as_xyz
  1  'x, y, z'
loop_
 _atom_site_type_symbol
 _atom_site_label
 _atom_site_symmetry_multiplicity
 _atom_site_fract_x
 _atom_site_fract_y
 _atom_site_fract_z
 _atom_site_occupancy
  Pr  Pr0  1  0.569566  0.566947  0.931743  1
  Pr  Pr1  1  0.933906  0.933881  0.566106  1
  Dy  Dy2  1  0.353275  0.349031  0.346145  1
  Dy  Dy3  1  0.353275  0.349031  0.951549  1
  Dy  Dy4  1  0.354421  0.945843  0.349868  1
  Dy  Dy5  1  0.939442  0.354014  0.353272  1
  Dy  Dy6  1  0.808454  0.188936  0.188611  1
  Dy  Dy7  1  0.190597  0.810796  0.809597  1
  Dy  Dy8  1  0.190597  0.810796  0.189012  1
  Dy  Dy9  1  0.808454  0.188936  0.813999  1
  Dy  Dy10  1  0.191858  0.189299  0.809422  1
  Dy  Dy11  1  0.808380  0.814226  0.188697  1
  Dy  Dy12  1  0.941011  0.559454  0.560826  1
  Dy  Dy13  1  0.561592  0.940683  0.939566  1
  Dy  Dy14  1  0.561592  0.940683  0.558157  1
  Dy  Dy15  1  0.941011  0.559454  0.938709  1
  Cd  Cd16  1  0.581654  0.582277  0.578283  1
  Cd  Cd17  1  0.581654  0.582277  0.257784  1
  Cd  Cd18  1  0.576900  0.255995  0.583552  1
  Cd  Cd19  1  0.257374  0.577010  0.582808  1
  Ir  Ir20  1  0.572816  0.137956  0.144615  1
  Pt  Pt21  1  0.142275  0.145360  0.142309  1
  Pt  Pt22  1  0.142275  0.145360  0.570056  1
  Pt  Pt23  1  0.137621  0.571752  0.145314  1
