# generated using pymatgen
data_AcYZn5Ge
_symmetry_space_group_name_H-M   'P 1'
_cell_length_a   8.48154700
_cell_length_b   8.48154678
_cell_length_c   8.95464100
_cell_angle_alpha   90.00000000
_cell_angle_beta   90.00000000
_cell_angle_gamma   149.00744351
_symmetry_Int_Tables_number   1
_chemical_formula_structural   AcYZn5Ge
_chemical_formula_sum   'Ac2 Y2 Zn10 Ge2'
_cell_volume   331.69867451
_cell_formula_units_Z   2
loop_
 _symmetry_equiv_pos_site_id
 _symmetry_equiv_pos_as_xyz
  1  'x, y, z'
loop_
 _atom_site_type_symbol
 _atom_site_label
 _atom_site_symmetry_multiplicity
 _atom_site_fract_x
 _atom_site_fract_y
 _atom_site_fract_z
 _atom_site_occupancy
  Ac  Ac0  1  0.000000  0.000000  0.500000  1
  Ac  Ac1  1  0.000000  0.000000  0.000000  1
  Y  Y2  1  0.205708  0.794292  0.250000  1
  Y  Y3  1  0.794292  0.205708  0.750000  1
  Zn  Zn4  1  0.810776  0.189224  0.390642  1
  Zn  Zn5  1  0.189224  0.810776  0.609358  1
  Zn  Zn6  1  0.810776  0.189224  0.109358  1
  Zn  Zn7  1  0.189224  0.810776  0.890642  1
  Zn  Zn8  1  0.657068  0.342932  0.479524  1
  Zn  Zn9  1  0.342932  0.657068  0.520476  1
  Zn  Zn10  1  0.657068  0.342932  0.020476  1
  Zn  Zn11  1  0.342932  0.657068  0.979524  1
  Zn  Zn12  1  0.402095  0.597905  0.250000  1
  Zn  Zn13  1  0.597905  0.402095  0.750000  1
  Ge  Ge14  1  0.564135  0.435865  0.250000  1
  Ge  Ge15  1  0.435865  0.564135  0.750000  1
