# generated using pymatgen
data_KRbSrBr4
_symmetry_space_group_name_H-M   'P 1'
_cell_length_a   8.40558600
_cell_length_b   9.49881200
_cell_length_c   14.03622300
_cell_angle_alpha   90.00000000
_cell_angle_beta   90.00000000
_cell_angle_gamma   90.00000000
_symmetry_Int_Tables_number   1
_chemical_formula_structural   KRbSrBr4
_chemical_formula_sum   'K4 Rb4 Sr4 Br16'
_cell_volume   1120.69529222
_cell_formula_units_Z   4
loop_
 _symmetry_equiv_pos_site_id
 _symmetry_equiv_pos_as_xyz
  1  'x, y, z'
loop_
 _atom_site_type_symbol
 _atom_site_label
 _atom_site_symmetry_multiplicity
 _atom_site_fract_x
 _atom_site_fract_y
 _atom_site_fract_z
 _atom_site_occupancy
  K  K0  1  0.578718  0.500000  0.191322  1
  K  K1  1  0.078718  0.500000  0.308679  1
  K  K2  1  0.921282  0.000000  0.691321  1
  K  K3  1  0.421282  0.000000  0.808678  1
  Rb  Rb4  1  0.574894  0.000000  0.178925  1
  Rb  Rb5  1  0.074892  0.000000  0.321076  1
  Rb  Rb6  1  0.925108  0.500000  0.678924  1
  Rb  Rb7  1  0.425108  0.500000  0.821075  1
  Sr  Sr8  1  0.000000  0.250000  0.000000  1
  Sr  Sr9  1  0.000000  0.750000  0.000000  1
  Sr  Sr10  1  0.500000  0.250000  0.500000  1
  Sr  Sr11  1  0.500000  0.750000  0.500000  1
  Br  Br12  1  0.223143  0.000000  0.047898  1
  Br  Br13  1  0.228047  0.500000  0.051519  1
  Br  Br14  1  0.861169  0.256412  0.199713  1
  Br  Br15  1  0.861169  0.743588  0.199713  1
  Br  Br16  1  0.361169  0.256412  0.300286  1
  Br  Br17  1  0.361169  0.743588  0.300286  1
  Br  Br18  1  0.728047  0.500000  0.448481  1
  Br  Br19  1  0.723144  0.000000  0.452102  1
  Br  Br20  1  0.276856  0.500000  0.547898  1
  Br  Br21  1  0.271955  0.000000  0.551518  1
  Br  Br22  1  0.638832  0.243588  0.699714  1
  Br  Br23  1  0.638832  0.756413  0.699714  1
  Br  Br24  1  0.138831  0.243588  0.800286  1
  Br  Br25  1  0.138831  0.756413  0.800286  1
  Br  Br26  1  0.771955  0.000000  0.948481  1
  Br  Br27  1  0.776856  0.500000  0.952102  1
