# generated using pymatgen
data_Y8Hf12Si15Ir
_symmetry_space_group_name_H-M   'P 1'
_cell_length_a   7.29645154
_cell_length_b   7.29219005
_cell_length_c   13.42471561
_cell_angle_alpha   90.08890128
_cell_angle_beta   89.87015786
_cell_angle_gamma   89.94509812
_symmetry_Int_Tables_number   1
_chemical_formula_structural   Y8Hf12Si15Ir
_chemical_formula_sum   'Y8 Hf12 Si15 Ir1'
_cell_volume   714.28731342
_cell_formula_units_Z   1
loop_
 _symmetry_equiv_pos_site_id
 _symmetry_equiv_pos_as_xyz
  1  'x, y, z'
loop_
 _atom_site_type_symbol
 _atom_site_label
 _atom_site_symmetry_multiplicity
 _atom_site_fract_x
 _atom_site_fract_y
 _atom_site_fract_z
 _atom_site_occupancy
  Y  Y0  1  0.496281  0.155354  0.535197  1
  Y  Y1  1  0.500035  0.842985  0.034687  1
  Y  Y2  1  0.655763  0.004155  0.285722  1
  Y  Y3  1  0.343670  0.995730  0.784178  1
  Y  Y4  1  0.847765  0.505902  0.964441  1
  Y  Y5  1  0.154256  0.495383  0.464565  1
  Y  Y6  1  0.003743  0.654849  0.715048  1
  Y  Y7  1  0.994175  0.343670  0.214030  1
  Hf  Hf8  1  0.675852  0.324273  0.748649  1
  Hf  Hf9  1  0.325193  0.673532  0.250488  1
  Hf  Hf10  1  0.824642  0.825072  0.500387  1
  Hf  Hf11  1  0.167705  0.175678  0.002760  1
  Hf  Hf12  1  0.505347  0.347363  0.123469  1
  Hf  Hf13  1  0.503681  0.648461  0.624863  1
  Hf  Hf14  1  0.848031  0.004947  0.876351  1
  Hf  Hf15  1  0.149395  0.996663  0.375750  1
  Hf  Hf16  1  0.647684  0.502857  0.376282  1
  Hf  Hf17  1  0.350017  0.499762  0.874165  1
  Hf  Hf18  1  0.002179  0.854555  0.128772  1
  Hf  Hf19  1  0.996206  0.147496  0.623710  1
  Si  Si20  1  0.204869  0.860403  0.568421  1
  Si  Si21  1  0.638993  0.703018  0.816146  1
  Si  Si22  1  0.360737  0.295701  0.316876  1
  Si  Si23  1  0.860538  0.203662  0.433336  1
  Si  Si24  1  0.140434  0.796501  0.932438  1
  Si  Si25  1  0.699469  0.640566  0.185648  1
  Si  Si26  1  0.295691  0.360720  0.682812  1
  Si  Si27  1  0.546147  0.209075  0.933808  1
  Si  Si28  1  0.450204  0.794332  0.435987  1
  Si  Si29  1  0.704909  0.950578  0.685371  1
  Si  Si30  1  0.297637  0.049392  0.188221  1
  Si  Si31  1  0.795308  0.450947  0.564446  1
  Si  Si32  1  0.209498  0.551688  0.063738  1
  Si  Si33  1  0.950291  0.705178  0.316041  1
  Si  Si34  1  0.051573  0.294080  0.811458  1
  Ir  Ir35  1  0.802084  0.135473  0.061737  1
