# generated using pymatgen
data_Er8Ga12IrPt2Au
_symmetry_space_group_name_H-M   'P 1'
_cell_length_a   7.01494200
_cell_length_b   8.86171758
_cell_length_c   8.86171700
_cell_angle_alpha   119.99999411
_cell_angle_beta   90.00000000
_cell_angle_gamma   90.00000000
_symmetry_Int_Tables_number   1
_chemical_formula_structural   Er8Ga12IrPt2Au
_chemical_formula_sum   'Er8 Ga12 Ir1 Pt2 Au1'
_cell_volume   477.07924555
_cell_formula_units_Z   1
loop_
 _symmetry_equiv_pos_site_id
 _symmetry_equiv_pos_as_xyz
  1  'x, y, z'
loop_
 _atom_site_type_symbol
 _atom_site_label
 _atom_site_symmetry_multiplicity
 _atom_site_fract_x
 _atom_site_fract_y
 _atom_site_fract_z
 _atom_site_occupancy
  Er  Er0  1  0.753530  0.000000  0.000000  1
  Er  Er1  1  0.251848  0.000000  0.000000  1
  Er  Er2  1  0.747321  0.475926  0.524074  1
  Er  Er3  1  0.246735  0.515008  0.484992  1
  Er  Er4  1  0.747321  0.048149  0.524074  1
  Er  Er5  1  0.246735  0.969983  0.484992  1
  Er  Er6  1  0.747321  0.475926  0.951851  1
  Er  Er7  1  0.246735  0.515008  0.030017  1
  Ga  Ga8  1  0.952177  0.831952  0.168048  1
  Ga  Ga9  1  0.044416  0.165710  0.834290  1
  Ga  Ga10  1  0.952177  0.336097  0.168048  1
  Ga  Ga11  1  0.452996  0.168560  0.831440  1
  Ga  Ga12  1  0.044416  0.668579  0.834290  1
  Ga  Ga13  1  0.545823  0.836098  0.163902  1
  Ga  Ga14  1  0.952177  0.831952  0.663903  1
  Ga  Ga15  1  0.452996  0.662880  0.831440  1
  Ga  Ga16  1  0.044416  0.165710  0.331421  1
  Ga  Ga17  1  0.545823  0.327804  0.163902  1
  Ga  Ga18  1  0.452996  0.168560  0.337120  1
  Ga  Ga19  1  0.545823  0.836098  0.672196  1
  Ir  Ir20  1  0.475494  0.333333  0.666667  1
  Pt  Pt21  1  0.978960  0.666667  0.333333  1
  Pt  Pt22  1  0.034584  0.333333  0.666667  1
  Au  Au23  1  0.537177  0.666667  0.333333  1
