# generated using pymatgen
data_Sr3Pa(SbPt)4
_symmetry_space_group_name_H-M   'P 1'
_cell_length_a   4.59814300
_cell_length_b   8.56766381
_cell_length_c   7.89933914
_cell_angle_alpha   89.85927505
_cell_angle_beta   90.00000000
_cell_angle_gamma   90.00000000
_symmetry_Int_Tables_number   1
_chemical_formula_structural   Sr3Pa(SbPt)4
_chemical_formula_sum   'Sr3 Pa1 Sb4 Pt4'
_cell_volume   311.19623927
_cell_formula_units_Z   1
loop_
 _symmetry_equiv_pos_site_id
 _symmetry_equiv_pos_as_xyz
  1  'x, y, z'
loop_
 _atom_site_type_symbol
 _atom_site_label
 _atom_site_symmetry_multiplicity
 _atom_site_fract_x
 _atom_site_fract_y
 _atom_site_fract_z
 _atom_site_occupancy
  Sr  Sr0  1  0.250000  0.000693  0.731068  1
  Sr  Sr1  1  0.250000  0.495163  0.777502  1
  Sr  Sr2  1  0.750000  0.982507  0.269383  1
  Pa  Pa3  1  0.750000  0.491878  0.212460  1
  Sb  Sb4  1  0.250000  0.214807  0.094015  1
  Sb  Sb5  1  0.250000  0.689026  0.422707  1
  Sb  Sb6  1  0.750000  0.757357  0.914012  1
  Sb  Sb7  1  0.750000  0.259410  0.580358  1
  Pt  Pt8  1  0.250000  0.362643  0.393824  1
  Pt  Pt9  1  0.250000  0.730620  0.092413  1
  Pt  Pt10  1  0.750000  0.737820  0.574123  1
  Pt  Pt11  1  0.750000  0.278075  0.938135  1
