# generated using pymatgen
data_YEr3Ni2(B8Ir)2
_symmetry_space_group_name_H-M   'P 1'
_cell_length_a   6.90482295
_cell_length_b   6.90482092
_cell_length_c   6.90482511
_cell_angle_alpha   111.18678008
_cell_angle_beta   113.25648108
_cell_angle_gamma   104.10763098
_symmetry_Int_Tables_number   1
_chemical_formula_structural   YEr3Ni2(B8Ir)2
_chemical_formula_sum   'Y1 Er3 Ni2 B16 Ir2'
_cell_volume   251.68108115
_cell_formula_units_Z   1
loop_
 _symmetry_equiv_pos_site_id
 _symmetry_equiv_pos_as_xyz
  1  'x, y, z'
loop_
 _atom_site_type_symbol
 _atom_site_label
 _atom_site_symmetry_multiplicity
 _atom_site_fract_x
 _atom_site_fract_y
 _atom_site_fract_z
 _atom_site_occupancy
  Y  Y0  1  0.248866  0.748863  0.499997  1
  Er  Er1  1  0.789828  0.789833  0.000005  1
  Er  Er2  1  0.210183  0.210189  0.000006  1
  Er  Er3  1  0.751198  0.251196  0.499997  1
  Ni  Ni4  1  0.500486  0.745498  0.245012  1
  Ni  Ni5  1  0.500482  0.255473  0.754991  1
  B  B6  1  0.273048  0.108468  0.381207  1
  B  B7  1  0.727259  0.891840  0.618789  1
  B  B8  1  0.273051  0.891840  0.164580  1
  B  B9  1  0.727262  0.108468  0.835421  1
  B  B10  1  0.110451  0.731219  0.841851  1
  B  B11  1  0.889369  0.268598  0.158149  1
  B  B12  1  0.110449  0.268597  0.379229  1
  B  B13  1  0.889368  0.731219  0.620768  1
  B  B14  1  0.114745  0.109950  0.529162  1
  B  B15  1  0.580788  0.585584  0.470834  1
  B  B16  1  0.114751  0.585584  0.004797  1
  B  B17  1  0.580788  0.109950  0.995205  1
  B  B18  1  0.884786  0.890489  0.470790  1
  B  B19  1  0.419698  0.413996  0.529204  1
  B  B20  1  0.884792  0.413996  0.994299  1
  B  B21  1  0.419699  0.890490  0.005704  1
  Ir  Ir22  1  0.275668  0.499329  0.776343  1
  Ir  Ir23  1  0.722986  0.499329  0.223661  1
