# generated using pymatgen
data_Tb5P12Ir14Pd5
_symmetry_space_group_name_H-M   'P 1'
_cell_length_a   12.82715200
_cell_length_b   12.78525764
_cell_length_c   3.97841700
_cell_angle_alpha   90.00000000
_cell_angle_beta   90.00000000
_cell_angle_gamma   120.20794597
_symmetry_Int_Tables_number   1
_chemical_formula_structural   Tb5P12Ir14Pd5
_chemical_formula_sum   'Tb5 P12 Ir14 Pd5'
_cell_volume   563.85419825
_cell_formula_units_Z   1
loop_
 _symmetry_equiv_pos_site_id
 _symmetry_equiv_pos_as_xyz
  1  'x, y, z'
loop_
 _atom_site_type_symbol
 _atom_site_label
 _atom_site_symmetry_multiplicity
 _atom_site_fract_x
 _atom_site_fract_y
 _atom_site_fract_z
 _atom_site_occupancy
  Tb  Tb0  1  0.333502  0.666042  0.500000  1
  Tb  Tb1  1  0.667360  0.332573  0.500000  1
  Tb  Tb2  1  0.001420  0.813812  0.000000  1
  Tb  Tb3  1  0.184814  0.185733  0.000000  1
  Tb  Tb4  1  0.812118  0.999457  0.000000  1
  P  P5  1  0.998062  0.638855  0.500000  1
  P  P6  1  0.359745  0.361170  0.500000  1
  P  P7  1  0.639286  0.999654  0.500000  1
  P  P8  1  0.518809  0.688244  0.000000  1
  P  P9  1  0.305321  0.827544  0.000000  1
  P  P10  1  0.175223  0.480039  0.000000  1
  P  P11  1  0.485473  0.172030  0.000000  1
  P  P12  1  0.689896  0.517521  0.000000  1
  P  P13  1  0.829098  0.313409  0.000000  1
  P  P14  1  0.999599  0.178812  0.500000  1
  P  P15  1  0.821618  0.821964  0.500000  1
  P  P16  1  0.179431  0.000635  0.500000  1
  Ir  Ir17  1  0.361623  0.490601  0.000000  1
  Ir  Ir18  1  0.495422  0.358778  0.000000  1
  Ir  Ir19  1  0.866715  0.510183  0.000000  1
  Ir  Ir20  1  0.643649  0.133927  0.000000  1
  Ir  Ir21  1  0.999298  0.284021  0.000000  1
  Ir  Ir22  1  0.719927  0.718601  0.000000  1
  Ir  Ir23  1  0.284492  0.003210  0.000000  1
  Ir  Ir24  1  0.623862  0.801849  0.500000  1
  Ir  Ir25  1  0.196886  0.821774  0.500000  1
  Ir  Ir26  1  0.180758  0.375944  0.500000  1
  Ir  Ir27  1  0.371712  0.183295  0.500000  1
  Ir  Ir28  1  0.806132  0.626524  0.500000  1
  Ir  Ir29  1  0.819628  0.190075  0.500000  1
  Ir  Ir30  1  0.000949  0.000685  0.500000  1
  Pd  Pd31  1  0.504661  0.866476  0.000000  1
  Pd  Pd32  1  0.130882  0.635352  0.000000  1
  Pd  Pd33  1  0.987392  0.448554  0.500000  1
  Pd  Pd34  1  0.544659  0.541346  0.500000  1
  Pd  Pd35  1  0.460583  0.011313  0.500000  1
