# generated using pymatgen
data_Y3MgIn2Ga2Pd
_symmetry_space_group_name_H-M   'P 1'
_cell_length_a   7.25185913
_cell_length_b   7.25185877
_cell_length_c   4.46061800
_cell_angle_alpha   90.00000000
_cell_angle_beta   90.00000000
_cell_angle_gamma   120.20960807
_symmetry_Int_Tables_number   1
_chemical_formula_structural   Y3MgIn2Ga2Pd
_chemical_formula_sum   'Y3 Mg1 In2 Ga2 Pd1'
_cell_volume   202.72307533
_cell_formula_units_Z   1
loop_
 _symmetry_equiv_pos_site_id
 _symmetry_equiv_pos_as_xyz
  1  'x, y, z'
loop_
 _atom_site_type_symbol
 _atom_site_label
 _atom_site_symmetry_multiplicity
 _atom_site_fract_x
 _atom_site_fract_y
 _atom_site_fract_z
 _atom_site_occupancy
  Y  Y0  1  0.413006  0.413006  0.500000  1
  Y  Y1  1  0.585267  0.999749  0.500000  1
  Y  Y2  1  0.999749  0.585267  0.500000  1
  Mg  Mg3  1  0.762882  0.762882  0.000000  1
  In  In4  1  0.244142  0.996138  0.000000  1
  In  In5  1  0.996138  0.244142  0.000000  1
  Ga  Ga6  1  0.664904  0.337628  0.000000  1
  Ga  Ga7  1  0.337628  0.664904  0.000000  1
  Pd  Pd8  1  0.996285  0.996285  0.500000  1
