# generated using pymatgen
data_PrY2Er2(In2Pd)2
_symmetry_space_group_name_H-M   'P 1'
_cell_length_a   3.64121300
_cell_length_b   8.21639500
_cell_length_c   18.34573600
_cell_angle_alpha   90.00000000
_cell_angle_beta   90.00000000
_cell_angle_gamma   90.00000000
_symmetry_Int_Tables_number   1
_chemical_formula_structural   PrY2Er2(In2Pd)2
_chemical_formula_sum   'Pr2 Y4 Er4 In8 Pd4'
_cell_volume   548.86120383
_cell_formula_units_Z   2
loop_
 _symmetry_equiv_pos_site_id
 _symmetry_equiv_pos_as_xyz
  1  'x, y, z'
loop_
 _atom_site_type_symbol
 _atom_site_label
 _atom_site_symmetry_multiplicity
 _atom_site_fract_x
 _atom_site_fract_y
 _atom_site_fract_z
 _atom_site_occupancy
  Pr  Pr0  1  0.000000  0.500000  0.500000  1
  Pr  Pr1  1  0.000000  0.000000  0.000000  1
  Y  Y2  1  0.000000  0.737475  0.283430  1
  Y  Y3  1  0.000000  0.262525  0.716570  1
  Y  Y4  1  0.000000  0.762525  0.783430  1
  Y  Y5  1  0.000000  0.237475  0.216570  1
  Er  Er6  1  0.000000  0.621331  0.084711  1
  Er  Er7  1  0.000000  0.378669  0.915289  1
  Er  Er8  1  0.000000  0.878669  0.584711  1
  Er  Er9  1  0.000000  0.121331  0.415289  1
  In  In10  1  0.500000  0.696524  0.933217  1
  In  In11  1  0.500000  0.303476  0.066783  1
  In  In12  1  0.500000  0.803476  0.433217  1
  In  In13  1  0.500000  0.196524  0.566783  1
  In  In14  1  0.500000  0.585130  0.654309  1
  In  In15  1  0.500000  0.414870  0.345691  1
  In  In16  1  0.500000  0.914870  0.154309  1
  In  In17  1  0.500000  0.085130  0.845691  1
  Pd  Pd18  1  0.500000  0.525323  0.194174  1
  Pd  Pd19  1  0.500000  0.474677  0.805826  1
  Pd  Pd20  1  0.500000  0.974677  0.694174  1
  Pd  Pd21  1  0.500000  0.025323  0.305826  1
