# generated using pymatgen
data_Hf4Mn3Si4Mo
_symmetry_space_group_name_H-M   'P 1'
_cell_length_a   3.58634900
_cell_length_b   6.66839856
_cell_length_c   7.81636732
_cell_angle_alpha   89.50166485
_cell_angle_beta   90.00000000
_cell_angle_gamma   90.00000000
_symmetry_Int_Tables_number   1
_chemical_formula_structural   Hf4Mn3Si4Mo
_chemical_formula_sum   'Hf4 Mn3 Si4 Mo1'
_cell_volume   186.92295264
_cell_formula_units_Z   1
loop_
 _symmetry_equiv_pos_site_id
 _symmetry_equiv_pos_as_xyz
  1  'x, y, z'
loop_
 _atom_site_type_symbol
 _atom_site_label
 _atom_site_symmetry_multiplicity
 _atom_site_fract_x
 _atom_site_fract_y
 _atom_site_fract_z
 _atom_site_occupancy
  Hf  Hf0  1  0.250000  0.031850  0.330726  1
  Hf  Hf1  1  0.750000  0.963983  0.669388  1
  Hf  Hf2  1  0.250000  0.538369  0.176808  1
  Hf  Hf3  1  0.750000  0.462930  0.821035  1
  Mn  Mn4  1  0.750000  0.366425  0.434335  1
  Mn  Mn5  1  0.250000  0.637421  0.561532  1
  Mn  Mn6  1  0.750000  0.861763  0.063960  1
  Si  Si7  1  0.250000  0.271373  0.618663  1
  Si  Si8  1  0.750000  0.731680  0.373909  1
  Si  Si9  1  0.250000  0.761455  0.870577  1
  Si  Si10  1  0.750000  0.235999  0.141518  1
  Mo  Mo11  1  0.250000  0.136752  0.937549  1
