# generated using pymatgen
data_K2Ca3Nb2O9
_symmetry_space_group_name_H-M   'P 1'
_cell_length_a   8.82215850
_cell_length_b   8.82215839
_cell_length_c   8.82215899
_cell_angle_alpha   38.80278810
_cell_angle_beta   38.80278892
_cell_angle_gamma   38.80279173
_symmetry_Int_Tables_number   1
_chemical_formula_structural   K2Ca3Nb2O9
_chemical_formula_sum   'K2 Ca3 Nb2 O9'
_cell_volume   242.39000669
_cell_formula_units_Z   1
loop_
 _symmetry_equiv_pos_site_id
 _symmetry_equiv_pos_as_xyz
  1  'x, y, z'
loop_
 _atom_site_type_symbol
 _atom_site_label
 _atom_site_symmetry_multiplicity
 _atom_site_fract_x
 _atom_site_fract_y
 _atom_site_fract_z
 _atom_site_occupancy
  K  K0  1  0.207576  0.207576  0.207576  1
  K  K1  1  0.792424  0.792424  0.792424  1
  Ca  Ca2  1  0.369502  0.369502  0.369502  1
  Ca  Ca3  1  0.500000  0.500000  0.500000  1
  Ca  Ca4  1  0.630498  0.630498  0.630498  1
  Nb  Nb5  1  0.063438  0.063438  0.063438  1
  Nb  Nb6  1  0.936562  0.936562  0.936562  1
  O  O7  1  0.222706  0.307153  0.780416  1
  O  O8  1  0.692847  0.777294  0.219584  1
  O  O9  1  0.780416  0.222706  0.307153  1
  O  O10  1  0.219584  0.692847  0.777294  1
  O  O11  1  0.307153  0.780416  0.222706  1
  O  O12  1  0.263869  0.000000  0.736131  1
  O  O13  1  0.736131  0.263869  0.000000  1
  O  O14  1  0.000000  0.736131  0.263869  1
  O  O15  1  0.777294  0.219584  0.692847  1
