# generated using pymatgen
data_Sr2Ca3Cd2As5F
_symmetry_space_group_name_H-M   'P 1'
_cell_length_a   10.62287495
_cell_length_b   10.62287567
_cell_length_c   13.62557700
_cell_angle_alpha   90.00000000
_cell_angle_beta   90.00000000
_cell_angle_gamma   155.43047909
_symmetry_Int_Tables_number   1
_chemical_formula_structural   Sr2Ca3Cd2As5F
_chemical_formula_sum   'Sr4 Ca6 Cd4 As10 F2'
_cell_volume   639.32322256
_cell_formula_units_Z   2
loop_
 _symmetry_equiv_pos_site_id
 _symmetry_equiv_pos_as_xyz
  1  'x, y, z'
loop_
 _atom_site_type_symbol
 _atom_site_label
 _atom_site_symmetry_multiplicity
 _atom_site_fract_x
 _atom_site_fract_y
 _atom_site_fract_z
 _atom_site_occupancy
  Sr  Sr0  1  0.901013  0.098987  0.250000  1
  Sr  Sr1  1  0.098987  0.901013  0.750000  1
  Sr  Sr2  1  0.098720  0.901280  0.250000  1
  Sr  Sr3  1  0.901280  0.098720  0.750000  1
  Ca  Ca4  1  0.731535  0.268465  0.618487  1
  Ca  Ca5  1  0.268465  0.731535  0.118487  1
  Ca  Ca6  1  0.268465  0.731535  0.381513  1
  Ca  Ca7  1  0.731535  0.268465  0.881513  1
  Ca  Ca8  1  0.000000  0.000000  0.000000  1
  Ca  Ca9  1  0.000000  0.000000  0.500000  1
  Cd  Cd10  1  0.632659  0.367341  0.080973  1
  Cd  Cd11  1  0.367341  0.632659  0.580973  1
  Cd  Cd12  1  0.367341  0.632659  0.919027  1
  Cd  Cd13  1  0.632659  0.367341  0.419027  1
  As  As14  1  0.505571  0.494429  0.156684  1
  As  As15  1  0.494429  0.505571  0.656684  1
  As  As16  1  0.494429  0.505571  0.843316  1
  As  As17  1  0.505571  0.494429  0.343316  1
  As  As18  1  0.710467  0.289533  0.250000  1
  As  As19  1  0.289533  0.710467  0.750000  1
  As  As20  1  0.848343  0.151657  0.024569  1
  As  As21  1  0.151657  0.848343  0.524569  1
  As  As22  1  0.151657  0.848343  0.975431  1
  As  As23  1  0.848343  0.151657  0.475431  1
  F  F24  1  0.341566  0.658434  0.250000  1
  F  F25  1  0.658434  0.341566  0.750000  1
