# generated using pymatgen
data_YZr(BRu)8
_symmetry_space_group_name_H-M   'P 1'
_cell_length_a   7.47052926
_cell_length_b   7.47052856
_cell_length_c   9.16532328
_cell_angle_alpha   114.05059628
_cell_angle_beta   114.05059461
_cell_angle_gamma   89.99999375
_symmetry_Int_Tables_number   1
_chemical_formula_structural   YZr(BRu)8
_chemical_formula_sum   'Y2 Zr2 B16 Ru16'
_cell_volume   418.00287054
_cell_formula_units_Z   2
loop_
 _symmetry_equiv_pos_site_id
 _symmetry_equiv_pos_as_xyz
  1  'x, y, z'
loop_
 _atom_site_type_symbol
 _atom_site_label
 _atom_site_symmetry_multiplicity
 _atom_site_fract_x
 _atom_site_fract_y
 _atom_site_fract_z
 _atom_site_occupancy
  Y  Y0  1  0.250000  0.250000  0.499999  1
  Y  Y1  1  0.749999  0.749999  0.499999  1
  Zr  Zr2  1  0.500000  0.000000  0.000000  1
  Zr  Zr3  1  0.000000  0.500000  0.000000  1
  B  B4  1  0.255300  0.217937  0.166094  1
  B  B5  1  0.755301  0.448156  0.166094  1
  B  B6  1  0.410793  0.717937  0.166094  1
  B  B7  1  0.910793  0.948156  0.166094  1
  B  B8  1  0.834601  0.026184  0.338670  1
  B  B9  1  0.504069  0.312486  0.338670  1
  B  B10  1  0.004069  0.526183  0.338670  1
  B  B11  1  0.334600  0.812486  0.338670  1
  B  B12  1  0.687514  0.165400  0.661331  1
  B  B13  1  0.973816  0.495931  0.661331  1
  B  B14  1  0.473817  0.665400  0.661331  1
  B  B15  1  0.187514  0.995932  0.661331  1
  B  B16  1  0.782063  0.089207  0.833906  1
  B  B17  1  0.282063  0.244700  0.833906  1
  B  B18  1  0.551844  0.589207  0.833906  1
  B  B19  1  0.051844  0.744700  0.833906  1
  Ru  Ru20  1  0.948077  0.216223  0.120115  1
  Ru  Ru21  1  0.448077  0.403892  0.120115  1
  Ru  Ru22  1  0.672037  0.716223  0.120115  1
  Ru  Ru23  1  0.172038  0.903892  0.120115  1
  Ru  Ru24  1  0.569633  0.041550  0.372823  1
  Ru  Ru25  1  0.803190  0.331273  0.372823  1
  Ru  Ru26  1  0.303190  0.541549  0.372823  1
  Ru  Ru27  1  0.069633  0.831272  0.372823  1
  Ru  Ru28  1  0.958450  0.196810  0.627177  1
  Ru  Ru29  1  0.668727  0.430367  0.627177  1
  Ru  Ru30  1  0.168728  0.696810  0.627177  1
  Ru  Ru31  1  0.458450  0.930367  0.627177  1
  Ru  Ru32  1  0.096108  0.051923  0.879885  1
  Ru  Ru33  1  0.596108  0.327962  0.879885  1
  Ru  Ru34  1  0.283777  0.551922  0.879885  1
  Ru  Ru35  1  0.783777  0.827962  0.879885  1
