# generated using pymatgen
data_Tb3Al24RePd8
_symmetry_space_group_name_H-M   'P 1'
_cell_length_a   8.45605485
_cell_length_b   8.45735197
_cell_length_c   8.45396500
_cell_angle_alpha   89.60719471
_cell_angle_beta   89.59347429
_cell_angle_gamma   89.61598865
_symmetry_Int_Tables_number   1
_chemical_formula_structural   Tb3Al24RePd8
_chemical_formula_sum   'Tb3 Al24 Re1 Pd8'
_cell_volume   604.54953229
_cell_formula_units_Z   1
loop_
 _symmetry_equiv_pos_site_id
 _symmetry_equiv_pos_as_xyz
  1  'x, y, z'
loop_
 _atom_site_type_symbol
 _atom_site_label
 _atom_site_symmetry_multiplicity
 _atom_site_fract_x
 _atom_site_fract_y
 _atom_site_fract_z
 _atom_site_occupancy
  Tb  Tb0  1  0.000000  0.500000  0.000000  1
  Tb  Tb1  1  0.500000  0.000000  0.000000  1
  Tb  Tb2  1  0.000000  0.000000  0.500000  1
  Al  Al3  1  0.992119  0.639175  0.639219  1
  Al  Al4  1  0.639383  0.639349  0.992129  1
  Al  Al5  1  0.639137  0.992118  0.639168  1
  Al  Al6  1  0.007881  0.360825  0.360781  1
  Al  Al7  1  0.360617  0.360651  0.007871  1
  Al  Al8  1  0.360863  0.007882  0.360832  1
  Al  Al9  1  0.734568  0.499758  0.265708  1
  Al  Al10  1  0.265432  0.500242  0.734292  1
  Al  Al11  1  0.500287  0.265382  0.734244  1
  Al  Al12  1  0.499713  0.734618  0.265756  1
  Al  Al13  1  0.265574  0.734535  0.499952  1
  Al  Al14  1  0.734426  0.265465  0.500048  1
  Al  Al15  1  0.834668  0.142956  0.834571  1
  Al  Al16  1  0.142947  0.834755  0.834671  1
  Al  Al17  1  0.835018  0.835013  0.142837  1
  Al  Al18  1  0.165332  0.857044  0.165429  1
  Al  Al19  1  0.857053  0.165245  0.165329  1
  Al  Al20  1  0.164982  0.164987  0.857163  1
  Al  Al21  1  0.729107  0.491327  0.728903  1
  Al  Al22  1  0.491436  0.729155  0.728913  1
  Al  Al23  1  0.728991  0.729057  0.491777  1
  Al  Al24  1  0.270893  0.508673  0.271097  1
  Al  Al25  1  0.508564  0.270845  0.271087  1
  Al  Al26  1  0.271009  0.270943  0.508223  1
  Re  Re27  1  0.500000  0.500000  0.500000  1
  Pd  Pd28  1  0.827184  0.827251  0.826943  1
  Pd  Pd29  1  0.172816  0.172749  0.173057  1
  Pd  Pd30  1  0.663771  0.336243  0.000011  1
  Pd  Pd31  1  0.000212  0.336183  0.663838  1
  Pd  Pd32  1  0.336083  0.000191  0.663924  1
  Pd  Pd33  1  0.336229  0.663757  0.999989  1
  Pd  Pd34  1  0.999788  0.663817  0.336162  1
  Pd  Pd35  1  0.663917  0.999809  0.336076  1
