# generated using pymatgen
data_Sc2Si4Ni3(PRu3)3
_symmetry_space_group_name_H-M   'P 1'
_cell_length_a   9.39503700
_cell_length_b   9.39503613
_cell_length_c   3.78197800
_cell_angle_alpha   90.00000000
_cell_angle_beta   90.00000000
_cell_angle_gamma   119.99999953
_symmetry_Int_Tables_number   1
_chemical_formula_structural   Sc2Si4Ni3(PRu3)3
_chemical_formula_sum   'Sc2 Si4 Ni3 P3 Ru9'
_cell_volume   289.09899473
_cell_formula_units_Z   1
loop_
 _symmetry_equiv_pos_site_id
 _symmetry_equiv_pos_as_xyz
  1  'x, y, z'
loop_
 _atom_site_type_symbol
 _atom_site_label
 _atom_site_symmetry_multiplicity
 _atom_site_fract_x
 _atom_site_fract_y
 _atom_site_fract_z
 _atom_site_occupancy
  Sc  Sc0  1  0.666667  0.333333  0.500000  1
  Sc  Sc1  1  0.333333  0.666667  0.000000  1
  Si  Si2  1  0.597083  0.712898  0.500000  1
  Si  Si3  1  0.000000  0.000000  0.000000  1
  Si  Si4  1  0.287102  0.884185  0.500000  1
  Si  Si5  1  0.115815  0.402917  0.500000  1
  Ni  Ni6  1  0.721919  0.882616  0.000000  1
  Ni  Ni7  1  0.117384  0.839301  0.000000  1
  Ni  Ni8  1  0.160699  0.278081  0.000000  1
  P  P9  1  0.887863  0.586243  0.000000  1
  P  P10  1  0.413757  0.301620  0.000000  1
  P  P11  1  0.698380  0.112137  0.000000  1
  Ru  Ru12  1  0.567658  0.952865  0.500000  1
  Ru  Ru13  1  0.385208  0.432342  0.500000  1
  Ru  Ru14  1  0.910387  0.115483  0.500000  1
  Ru  Ru15  1  0.205096  0.089613  0.500000  1
  Ru  Ru16  1  0.884517  0.794904  0.500000  1
  Ru  Ru17  1  0.430299  0.068650  0.000000  1
  Ru  Ru18  1  0.931350  0.361650  0.000000  1
  Ru  Ru19  1  0.638350  0.569701  0.000000  1
  Ru  Ru20  1  0.047135  0.614792  0.500000  1
