# generated using pymatgen
data_Tb2DyEr2Si3
_symmetry_space_group_name_H-M   'P 1'
_cell_length_a   8.44215519
_cell_length_b   8.43904444
_cell_length_c   6.33173300
_cell_angle_alpha   90.00000000
_cell_angle_beta   90.00000000
_cell_angle_gamma   119.98781584
_symmetry_Int_Tables_number   1
_chemical_formula_structural   Tb2DyEr2Si3
_chemical_formula_sum   'Tb4 Dy2 Er4 Si6'
_cell_volume   390.70875047
_cell_formula_units_Z   2
loop_
 _symmetry_equiv_pos_site_id
 _symmetry_equiv_pos_as_xyz
  1  'x, y, z'
loop_
 _atom_site_type_symbol
 _atom_site_label
 _atom_site_symmetry_multiplicity
 _atom_site_fract_x
 _atom_site_fract_y
 _atom_site_fract_z
 _atom_site_occupancy
  Tb  Tb0  1  0.000133  0.756574  0.750000  1
  Tb  Tb1  1  0.000133  0.243559  0.250000  1
  Tb  Tb2  1  0.756354  0.756325  0.250000  1
  Tb  Tb3  1  0.756354  0.000029  0.750000  1
  Dy  Dy4  1  0.243683  0.243586  0.750000  1
  Dy  Dy5  1  0.243683  0.000097  0.250000  1
  Er  Er6  1  0.333363  0.666682  0.500000  1
  Er  Er7  1  0.666501  0.333250  0.000000  1
  Er  Er8  1  0.666501  0.333250  0.500000  1
  Er  Er9  1  0.333363  0.666682  0.000000  1
  Si  Si10  1  0.394915  0.000210  0.750000  1
  Si  Si11  1  0.394915  0.394705  0.250000  1
  Si  Si12  1  0.000243  0.605345  0.250000  1
  Si  Si13  1  0.000243  0.394898  0.750000  1
  Si  Si14  1  0.604807  0.604773  0.750000  1
  Si  Si15  1  0.604807  0.000034  0.250000  1
