# generated using pymatgen
data_Ba14ScSb11
_symmetry_space_group_name_H-M   'P 1'
_cell_length_a   17.92246367
_cell_length_b   17.92246407
_cell_length_c   17.92246500
_cell_angle_alpha   94.37919761
_cell_angle_beta   117.50162997
_cell_angle_gamma   117.50778438
_symmetry_Int_Tables_number   1
_chemical_formula_structural   Ba14ScSb11
_chemical_formula_sum   'Ba56 Sc4 Sb44'
_cell_volume   4211.01304974
_cell_formula_units_Z   4
loop_
 _symmetry_equiv_pos_site_id
 _symmetry_equiv_pos_as_xyz
  1  'x, y, z'
loop_
 _atom_site_type_symbol
 _atom_site_label
 _atom_site_symmetry_multiplicity
 _atom_site_fract_x
 _atom_site_fract_y
 _atom_site_fract_z
 _atom_site_occupancy
  Ba  Ba0  1  0.145083  0.749451  0.893066  1
  Ba  Ba1  1  0.030727  0.745577  0.627611  1
  Ba  Ba2  1  0.024881  0.782235  0.397767  1
  Ba  Ba3  1  0.091181  0.524699  0.752626  1
  Ba  Ba4  1  0.355949  0.976633  0.875386  1
  Ba  Ba5  1  0.117794  0.371985  0.902551  1
  Ba  Ba6  1  0.101122  0.124786  0.980297  1
  Ba  Ba7  1  0.144313  0.894313  0.250000  1
  Ba  Ba8  1  0.144490  0.624786  0.523665  1
  Ba  Ba9  1  0.410262  0.748342  0.974268  1
  Ba  Ba10  1  0.469434  0.871985  0.754191  1
  Ba  Ba11  1  0.357404  0.879400  0.479284  1
  Ba  Ba12  1  0.355651  0.605648  0.750001  1
  Ba  Ba13  1  0.224916  0.974084  0.062537  1
  Ba  Ba14  1  0.272073  0.338555  0.747373  1
  Ba  Ba15  1  0.226991  0.751842  0.161927  1
  Ba  Ba16  1  0.101247  0.476633  0.120683  1
  Ba  Ba17  1  0.274075  0.435994  0.525728  1
  Ba  Ba18  1  0.143048  0.020982  0.620796  1
  Ba  Ba19  1  0.601119  0.620823  0.976331  1
  Ba  Ba20  1  0.089909  0.065061  0.338069  1
  Ba  Ba21  1  0.117966  0.245577  0.214850  1
  Ba  Ba22  1  0.591183  0.838555  0.566483  1
  Ba  Ba23  1  0.617795  0.715241  0.745809  1
  Ba  Ba24  1  0.356385  0.252018  0.606932  1
  Ba  Ba25  1  0.400187  0.520982  0.377934  1
  Ba  Ba26  1  0.530729  0.903118  0.285151  1
  Ba  Ba27  1  0.617966  0.403118  0.872389  1
  Ba  Ba28  1  0.384712  0.602821  0.127610  1
  Ba  Ba29  1  0.475211  0.102821  0.718109  1
  Ba  Ba30  1  0.601249  0.480564  0.624616  1
  Ba  Ba31  1  0.645086  0.752018  0.395633  1
  Ba  Ba32  1  0.384468  0.282235  0.257354  1
  Ba  Ba33  1  0.411545  0.162376  0.437456  1
  Ba  Ba34  1  0.884712  0.757102  0.781889  1
  Ba  Ba35  1  0.910266  0.935994  0.661919  1
  Ba  Ba36  1  0.400116  0.379400  0.021996  1
  Ba  Ba37  1  0.855948  0.980564  0.379315  1
  Ba  Ba38  1  0.726994  0.565061  0.475152  1
  Ba  Ba39  1  0.900193  0.522257  0.879207  1
  Ba  Ba40  1  0.774073  0.248342  0.838080  1
  Ba  Ba41  1  0.724920  0.662376  0.250832  1
  Ba  Ba42  1  0.772072  0.024699  0.933518  1
  Ba  Ba43  1  0.644313  0.394313  0.249999  1
  Ba  Ba44  1  0.644492  0.120823  0.519704  1
  Ba  Ba45  1  0.524882  0.127115  0.242646  1
  Ba  Ba46  1  0.589914  0.251842  0.024851  1
  Ba  Ba47  1  0.857401  0.378118  0.477999  1
  Ba  Ba48  1  0.855648  0.105648  0.749997  1
  Ba  Ba49  1  0.900118  0.878118  0.020717  1
  Ba  Ba50  1  0.884469  0.627115  0.102233  1
  Ba  Ba51  1  0.643050  0.022257  0.122064  1
  Ba  Ba52  1  0.911546  0.474084  0.249167  1
  Ba  Ba53  1  0.969432  0.215241  0.597446  1
  Ba  Ba54  1  0.975215  0.257102  0.372391  1
  Ba  Ba55  1  0.856385  0.249451  0.104368  1
  Sc  Sc56  1  0.250187  0.125423  0.874832  1
  Sc  Sc57  1  0.250591  0.625423  0.375237  1
  Sc  Sc58  1  0.750138  0.875344  0.124760  1
  Sc  Sc59  1  0.750583  0.375344  0.625206  1
  Sb  Sb60  1  0.119233  0.931536  0.817643  1
  Sb  Sb61  1  0.158037  0.585895  0.979533  1
  Sb  Sb62  1  0.249990  0.743776  0.756113  1
  Sb  Sb63  1  0.250080  0.881620  0.618459  1
  Sb  Sb64  1  0.106519  0.427867  0.585444  1
  Sb  Sb65  1  0.112955  0.182163  0.800332  1
  Sb  Sb66  1  0.007336  0.753627  0.003621  1
  Sb  Sb67  1  0.118785  0.687461  0.300790  1
  Sb  Sb68  1  0.342423  0.521071  0.914555  1
  Sb  Sb69  1  0.113894  0.431536  0.312303  1
  Sb  Sb70  1  0.106362  0.178501  0.520467  1
  Sb  Sb71  1  0.392823  0.979419  0.320845  1
  Sb  Sb72  1  0.381831  0.682163  0.569208  1
  Sb  Sb73  1  0.612947  0.812617  0.930787  1
  Sb  Sb74  1  0.382266  0.200495  0.812946  1
  Sb  Sb75  1  0.487663  0.493875  0.743886  1
  Sb  Sb76  1  0.387550  0.700495  0.318229  1
  Sb  Sb77  1  0.392627  0.913763  0.072011  1
  Sb  Sb78  1  0.341755  0.320615  0.427990  1
  Sb  Sb79  1  0.250006  0.003713  0.496378  1
  Sb  Sb80  1  0.263160  0.381620  0.131540  1
  Sb  Sb81  1  0.842422  0.927867  0.821348  1
  Sb  Sb82  1  0.158575  0.071976  0.179154  1
  Sb  Sb83  1  0.749989  0.993875  0.506212  1
  Sb  Sb84  1  0.763160  0.631619  0.881539  1
  Sb  Sb85  1  0.658034  0.678501  0.572139  1
  Sb  Sb86  1  0.606362  0.085895  0.927858  1
  Sb  Sb87  1  0.613864  0.301575  0.682363  1
  Sb  Sb88  1  0.507335  0.503713  0.253707  1
  Sb  Sb89  1  0.619212  0.801575  0.187712  1
  Sb  Sb90  1  0.386671  0.187461  0.068676  1
  Sb  Sb91  1  0.618786  0.317992  0.431328  1
  Sb  Sb92  1  0.606517  0.021071  0.678648  1
  Sb  Sb93  1  0.892625  0.820615  0.478860  1
  Sb  Sb94  1  0.887546  0.569314  0.687056  1
  Sb  Sb95  1  0.658573  0.479419  0.086596  1
  Sb  Sb96  1  0.881831  0.312617  0.699670  1
  Sb  Sb97  1  0.987663  0.243776  0.993786  1
  Sb  Sb98  1  0.886665  0.817992  0.199207  1
  Sb  Sb99  1  0.892822  0.571977  0.413401  1
  Sb  Sb100  1  0.750080  0.131619  0.368458  1
  Sb  Sb101  1  0.750006  0.253627  0.246291  1
  Sb  Sb102  1  0.841751  0.413763  0.021136  1
  Sb  Sb103  1  0.882258  0.069314  0.181768  1
