# generated using pymatgen
data_Eu2NiRh3
_symmetry_space_group_name_H-M   'P 1'
_cell_length_a   5.43476427
_cell_length_b   5.43476457
_cell_length_c   5.30402283
_cell_angle_alpha   59.18119831
_cell_angle_beta   59.18119341
_cell_angle_gamma   60.00000642
_symmetry_Int_Tables_number   1
_chemical_formula_structural   Eu2NiRh3
_chemical_formula_sum   'Eu2 Ni1 Rh3'
_cell_volume   109.38671149
_cell_formula_units_Z   1
loop_
 _symmetry_equiv_pos_site_id
 _symmetry_equiv_pos_as_xyz
  1  'x, y, z'
loop_
 _atom_site_type_symbol
 _atom_site_label
 _atom_site_symmetry_multiplicity
 _atom_site_fract_x
 _atom_site_fract_y
 _atom_site_fract_z
 _atom_site_occupancy
  Eu  Eu0  1  0.250698  0.250698  0.247905  1
  Eu  Eu1  1  0.999302  0.999302  0.002095  1
  Ni  Ni2  1  0.625000  0.625000  0.125000  1
  Rh  Rh3  1  0.125000  0.625000  0.625000  1
  Rh  Rh4  1  0.625000  0.625000  0.625000  1
  Rh  Rh5  1  0.625000  0.125000  0.625000  1
