# generated using pymatgen
data_Ho6Co11P12Ir7
_symmetry_space_group_name_H-M   'P 1'
_cell_length_a   3.77869400
_cell_length_b   10.79701548
_cell_length_c   12.51639342
_cell_angle_alpha   89.89448266
_cell_angle_beta   90.00000000
_cell_angle_gamma   90.00000000
_symmetry_Int_Tables_number   1
_chemical_formula_structural   Ho6Co11P12Ir7
_chemical_formula_sum   'Ho6 Co11 P12 Ir7'
_cell_volume   510.65068308
_cell_formula_units_Z   1
loop_
 _symmetry_equiv_pos_site_id
 _symmetry_equiv_pos_as_xyz
  1  'x, y, z'
loop_
 _atom_site_type_symbol
 _atom_site_label
 _atom_site_symmetry_multiplicity
 _atom_site_fract_x
 _atom_site_fract_y
 _atom_site_fract_z
 _atom_site_occupancy
  Ho  Ho0  1  0.000000  0.501639  0.522474  1
  Ho  Ho1  1  0.500000  0.995206  0.481496  1
  Ho  Ho2  1  0.500000  0.814157  0.200512  1
  Ho  Ho3  1  0.500000  0.185186  0.197985  1
  Ho  Ho4  1  0.000000  0.687441  0.797759  1
  Ho  Ho5  1  0.000000  0.315134  0.801895  1
  Co  Co6  1  0.000000  0.500575  0.989756  1
  Co  Co7  1  0.500000  0.999640  0.009639  1
  Co  Co8  1  0.000000  0.797152  0.571105  1
  Co  Co9  1  0.500000  0.880328  0.712922  1
  Co  Co10  1  0.500000  0.120131  0.716458  1
  Co  Co11  1  0.000000  0.620234  0.285331  1
  Co  Co12  1  0.000000  0.379277  0.283989  1
  Co  Co13  1  0.500000  0.332794  0.993880  1
  Co  Co14  1  0.500000  0.668356  0.993724  1
  Co  Co15  1  0.000000  0.166803  0.005558  1
  Co  Co16  1  0.000000  0.832779  0.005572  1
  P  P17  1  0.500000  0.309785  0.624875  1
  P  P18  1  0.500000  0.698145  0.621877  1
  P  P19  1  0.000000  0.189530  0.376175  1
  P  P20  1  0.000000  0.811949  0.382962  1
  P  P21  1  0.500000  0.501078  0.892259  1
  P  P22  1  0.000000  0.999279  0.107451  1
  P  P23  1  0.500000  0.844365  0.895672  1
  P  P24  1  0.500000  0.155985  0.896498  1
  P  P25  1  0.000000  0.656261  0.103198  1
  P  P26  1  0.000000  0.343812  0.102511  1
  P  P27  1  0.500000  0.500599  0.344843  1
  P  P28  1  0.000000  0.990841  0.652744  1
  Ir  Ir29  1  0.500000  0.298820  0.426752  1
  Ir  Ir30  1  0.500000  0.701340  0.428832  1
  Ir  Ir31  1  0.000000  0.198399  0.574536  1
  Ir  Ir32  1  0.500000  0.500618  0.159612  1
  Ir  Ir33  1  0.000000  0.000601  0.839811  1
  Ir  Ir34  1  0.500000  0.502050  0.706790  1
  Ir  Ir35  1  0.000000  0.999708  0.292546  1
