# generated using pymatgen
data_PdPt3(SeO3)8
_symmetry_space_group_name_H-M   'P 1'
_cell_length_a   8.08645674
_cell_length_b   8.08645642
_cell_length_c   8.08645601
_cell_angle_alpha   89.95964659
_cell_angle_beta   90.04035218
_cell_angle_gamma   90.04034695
_symmetry_Int_Tables_number   1
_chemical_formula_structural   PdPt3(SeO3)8
_chemical_formula_sum   'Pd1 Pt3 Se8 O24'
_cell_volume   528.77927338
_cell_formula_units_Z   1
loop_
 _symmetry_equiv_pos_site_id
 _symmetry_equiv_pos_as_xyz
  1  'x, y, z'
loop_
 _atom_site_type_symbol
 _atom_site_label
 _atom_site_symmetry_multiplicity
 _atom_site_fract_x
 _atom_site_fract_y
 _atom_site_fract_z
 _atom_site_occupancy
  Pd  Pd0  1  0.500000  0.500000  0.000000  1
  Pt  Pt1  1  0.500000  0.000000  0.500000  1
  Pt  Pt2  1  0.000000  0.000000  0.000000  1
  Pt  Pt3  1  0.000000  0.500000  0.500000  1
  Se  Se4  1  0.832825  0.167175  0.667175  1
  Se  Se5  1  0.167175  0.832825  0.332825  1
  Se  Se6  1  0.667348  0.666440  0.668787  1
  Se  Se7  1  0.168787  0.667348  0.833560  1
  Se  Se8  1  0.333560  0.168787  0.832652  1
  Se  Se9  1  0.831213  0.332652  0.166440  1
  Se  Se10  1  0.666440  0.831213  0.167348  1
  Se  Se11  1  0.332652  0.333560  0.331213  1
  O  O12  1  0.247752  0.476455  0.471387  1
  O  O13  1  0.971387  0.247752  0.023545  1
  O  O14  1  0.024821  0.748152  0.473520  1
  O  O15  1  0.472349  0.251834  0.976991  1
  O  O16  1  0.251848  0.973520  0.475179  1
  O  O17  1  0.523009  0.527651  0.751834  1
  O  O18  1  0.973520  0.024821  0.751848  1
  O  O19  1  0.527651  0.748166  0.023009  1
  O  O20  1  0.523545  0.971387  0.252248  1
  O  O21  1  0.476455  0.028613  0.747752  1
  O  O22  1  0.752099  0.976430  0.029772  1
  O  O23  1  0.251834  0.523009  0.972349  1
  O  O24  1  0.023570  0.529772  0.747901  1
  O  O25  1  0.026480  0.975179  0.248152  1
  O  O26  1  0.247901  0.023570  0.970228  1
  O  O27  1  0.476991  0.472349  0.248166  1
  O  O28  1  0.752248  0.523545  0.528613  1
  O  O29  1  0.976430  0.470228  0.252099  1
  O  O30  1  0.028613  0.752248  0.976455  1
  O  O31  1  0.470228  0.247901  0.476430  1
  O  O32  1  0.529772  0.752099  0.523570  1
  O  O33  1  0.975179  0.251848  0.526480  1
  O  O34  1  0.748152  0.026480  0.524821  1
  O  O35  1  0.748166  0.476991  0.027651  1
