# generated using pymatgen
data_LaPrHg2(Ir2O7)2
_symmetry_space_group_name_H-M   'P 1'
_cell_length_a   7.57721765
_cell_length_b   7.36866330
_cell_length_c   7.36958570
_cell_angle_alpha   59.02808627
_cell_angle_beta   59.01471333
_cell_angle_gamma   59.01010197
_symmetry_Int_Tables_number   1
_chemical_formula_structural   LaPrHg2(Ir2O7)2
_chemical_formula_sum   'La1 Pr1 Hg2 Ir4 O14'
_cell_volume   284.43634390
_cell_formula_units_Z   1
loop_
 _symmetry_equiv_pos_site_id
 _symmetry_equiv_pos_as_xyz
  1  'x, y, z'
loop_
 _atom_site_type_symbol
 _atom_site_label
 _atom_site_symmetry_multiplicity
 _atom_site_fract_x
 _atom_site_fract_y
 _atom_site_fract_z
 _atom_site_occupancy
  La  La0  1  0.625000  0.125000  0.125000  1
  Pr  Pr1  1  0.125000  0.125000  0.125000  1
  Hg  Hg2  1  0.125000  0.125000  0.625000  1
  Hg  Hg3  1  0.125000  0.625000  0.125000  1
  Ir  Ir4  1  0.625000  0.625000  0.625000  1
  Ir  Ir5  1  0.125000  0.625000  0.625000  1
  Ir  Ir6  1  0.625000  0.125000  0.625000  1
  Ir  Ir7  1  0.625000  0.625000  0.125000  1
  O  O8  1  0.945238  0.555042  0.555428  1
  O  O9  1  0.302837  0.299894  0.704082  1
  O  O10  1  0.947114  0.545710  0.950282  1
  O  O11  1  0.711488  0.290664  0.290557  1
  O  O12  1  0.555144  0.548510  0.950187  1
  O  O13  1  0.555067  0.950006  0.548703  1
  O  O14  1  0.538512  0.959336  0.959443  1
  O  O15  1  0.240126  0.259707  0.259839  1
  O  O16  1  0.304762  0.694958  0.694572  1
  O  O17  1  0.694933  0.299994  0.701297  1
  O  O18  1  0.009874  0.990293  0.990161  1
  O  O19  1  0.947163  0.950106  0.545918  1
  O  O20  1  0.302886  0.704290  0.299718  1
  O  O21  1  0.694856  0.701490  0.299813  1
