# generated using pymatgen
data_Er3Lu5(ScSb)12
_symmetry_space_group_name_H-M   'P 1'
_cell_length_a   7.73195101
_cell_length_b   8.90571800
_cell_length_c   11.47962302
_cell_angle_alpha   90.00000000
_cell_angle_beta   90.00602560
_cell_angle_gamma   90.00000000
_symmetry_Int_Tables_number   1
_chemical_formula_structural   Er3Lu5(ScSb)12
_chemical_formula_sum   'Er3 Lu5 Sc12 Sb12'
_cell_volume   790.47048138
_cell_formula_units_Z   1
loop_
 _symmetry_equiv_pos_site_id
 _symmetry_equiv_pos_as_xyz
  1  'x, y, z'
loop_
 _atom_site_type_symbol
 _atom_site_label
 _atom_site_symmetry_multiplicity
 _atom_site_fract_x
 _atom_site_fract_y
 _atom_site_fract_z
 _atom_site_occupancy
  Er  Er0  1  0.184775  0.750000  0.720888  1
  Er  Er1  1  0.684842  0.750000  0.779023  1
  Er  Er2  1  0.815033  0.250000  0.279099  1
  Lu  Lu3  1  0.314982  0.250000  0.220640  1
  Lu  Lu4  1  0.852347  0.750000  0.283101  1
  Lu  Lu5  1  0.352670  0.750000  0.216860  1
  Lu  Lu6  1  0.147563  0.250000  0.716769  1
  Lu  Lu7  1  0.647458  0.250000  0.783262  1
  Sc  Sc8  1  0.194147  0.562031  0.439887  1
  Sc  Sc9  1  0.694320  0.937869  0.060019  1
  Sc  Sc10  1  0.805947  0.062179  0.559968  1
  Sc  Sc11  1  0.305864  0.437906  0.940103  1
  Sc  Sc12  1  0.805947  0.437821  0.559968  1
  Sc  Sc13  1  0.305864  0.062094  0.940103  1
  Sc  Sc14  1  0.194147  0.937969  0.439887  1
  Sc  Sc15  1  0.694320  0.562131  0.060019  1
  Sc  Sc16  1  0.025118  0.750000  0.990512  1
  Sc  Sc17  1  0.525100  0.750000  0.509397  1
  Sc  Sc18  1  0.974875  0.250000  0.009676  1
  Sc  Sc19  1  0.474686  0.250000  0.490195  1
  Sb  Sb20  1  0.935353  0.495312  0.831593  1
  Sb  Sb21  1  0.435422  0.004644  0.668574  1
  Sb  Sb22  1  0.065347  0.996006  0.168689  1
  Sb  Sb23  1  0.564093  0.504236  0.331243  1
  Sb  Sb24  1  0.065347  0.503994  0.168689  1
  Sb  Sb25  1  0.564093  0.995764  0.331243  1
  Sb  Sb26  1  0.935353  0.004688  0.831593  1
  Sb  Sb27  1  0.435422  0.495356  0.668574  1
  Sb  Sb28  1  0.909070  0.750000  0.537996  1
  Sb  Sb29  1  0.409093  0.750000  0.962012  1
  Sb  Sb30  1  0.091303  0.250000  0.461683  1
  Sb  Sb31  1  0.590097  0.250000  0.038731  1
