# generated using pymatgen
data_Dy3Re3(SnN6)2
_symmetry_space_group_name_H-M   'P 1'
_cell_length_a   11.05667474
_cell_length_b   11.05667481
_cell_length_c   11.05667500
_cell_angle_alpha   109.47121914
_cell_angle_beta   109.47121928
_cell_angle_gamma   109.47122444
_symmetry_Int_Tables_number   1
_chemical_formula_structural   Dy3Re3(SnN6)2
_chemical_formula_sum   'Dy12 Re12 Sn8 N48'
_cell_volume   1040.52308262
_cell_formula_units_Z   4
loop_
 _symmetry_equiv_pos_site_id
 _symmetry_equiv_pos_as_xyz
  1  'x, y, z'
loop_
 _atom_site_type_symbol
 _atom_site_label
 _atom_site_symmetry_multiplicity
 _atom_site_fract_x
 _atom_site_fract_y
 _atom_site_fract_z
 _atom_site_occupancy
  Dy  Dy0  1  0.250000  0.375000  0.125000  1
  Dy  Dy1  1  0.375000  0.750000  0.125000  1
  Dy  Dy2  1  0.375000  0.125000  0.250000  1
  Dy  Dy3  1  0.875000  0.625000  0.250000  1
  Dy  Dy4  1  0.750000  0.125000  0.375000  1
  Dy  Dy5  1  0.125000  0.250000  0.375000  1
  Dy  Dy6  1  0.875000  0.750000  0.625000  1
  Dy  Dy7  1  0.250000  0.875000  0.625000  1
  Dy  Dy8  1  0.125000  0.375000  0.750000  1
  Dy  Dy9  1  0.625000  0.875000  0.750000  1
  Dy  Dy10  1  0.625000  0.250000  0.875000  1
  Dy  Dy11  1  0.750000  0.625000  0.875000  1
  Re  Re12  1  0.875000  0.249999  0.125000  1
  Re  Re13  1  0.750000  0.875000  0.125000  1
  Re  Re14  1  0.625000  0.375000  0.250000  1
  Re  Re15  1  0.125000  0.875000  0.249999  1
  Re  Re16  1  0.250000  0.625000  0.375000  1
  Re  Re17  1  0.624999  0.750000  0.375000  1
  Re  Re18  1  0.375000  0.250000  0.625000  1
  Re  Re19  1  0.750000  0.375000  0.624999  1
  Re  Re20  1  0.875000  0.125000  0.750000  1
  Re  Re21  1  0.375000  0.624999  0.750000  1
  Re  Re22  1  0.249999  0.125000  0.875000  1
  Re  Re23  1  0.125000  0.750000  0.875000  1
  Sn  Sn24  1  0.000000  0.000000  0.000000  1
  Sn  Sn25  1  0.500000  0.000000  0.000000  1
  Sn  Sn26  1  0.000000  0.500000  0.000000  1
  Sn  Sn27  1  0.500000  0.500000  0.000000  1
  Sn  Sn28  1  0.000000  0.000000  0.500000  1
  Sn  Sn29  1  0.500000  0.000000  0.500000  1
  Sn  Sn30  1  0.000000  0.500000  0.500000  1
  Sn  Sn31  1  0.500000  0.500000  0.500000  1
  N  N32  1  0.310837  0.902969  0.026730  1
  N  N33  1  0.215894  0.123761  0.026731  1
  N  N34  1  0.876239  0.402969  0.092132  1
  N  N35  1  0.715893  0.689163  0.092132  1
  N  N36  1  0.623761  0.407868  0.097030  1
  N  N37  1  0.973269  0.689163  0.097030  1
  N  N38  1  0.597030  0.907868  0.123760  1
  N  N39  1  0.026731  0.215894  0.123761  1
  N  N40  1  0.215893  0.592131  0.189163  1
  N  N41  1  0.473270  0.597031  0.189163  1
  N  N42  1  0.123761  0.026731  0.215894  1
  N  N43  1  0.592131  0.189163  0.215893  1
  N  N44  1  0.473270  0.376240  0.284107  1
  N  N45  1  0.310837  0.907868  0.284107  1
  N  N46  1  0.902969  0.026730  0.310837  1
  N  N47  1  0.907868  0.284107  0.310837  1
  N  N48  1  0.284107  0.473270  0.376240  1
  N  N49  1  0.592131  0.902970  0.376240  1
  N  N50  1  0.810837  0.526730  0.402970  1
  N  N51  1  0.092132  0.876239  0.402969  1
  N  N52  1  0.097030  0.623761  0.407868  1
  N  N53  1  0.810836  0.784106  0.407868  1
  N  N54  1  0.597031  0.189163  0.473270  1
  N  N55  1  0.376240  0.284107  0.473270  1
  N  N56  1  0.623760  0.715893  0.526730  1
  N  N57  1  0.402970  0.810837  0.526730  1
  N  N58  1  0.189163  0.215893  0.592131  1
  N  N59  1  0.902970  0.376240  0.592131  1
  N  N60  1  0.907868  0.123760  0.597030  1
  N  N61  1  0.189163  0.473270  0.597031  1
  N  N62  1  0.407868  0.097030  0.623761  1
  N  N63  1  0.715893  0.526730  0.623760  1
  N  N64  1  0.092132  0.715893  0.689163  1
  N  N65  1  0.097030  0.973269  0.689163  1
  N  N66  1  0.689163  0.092132  0.715893  1
  N  N67  1  0.526730  0.623760  0.715893  1
  N  N68  1  0.407868  0.810836  0.784106  1
  N  N69  1  0.876240  0.973270  0.784107  1
  N  N70  1  0.526730  0.402970  0.810837  1
  N  N71  1  0.784106  0.407868  0.810836  1
  N  N72  1  0.402969  0.092132  0.876239  1
  N  N73  1  0.973270  0.784107  0.876240  1
  N  N74  1  0.026730  0.310837  0.902969  1
  N  N75  1  0.376240  0.592131  0.902970  1
  N  N76  1  0.284107  0.310837  0.907868  1
  N  N77  1  0.123760  0.597030  0.907868  1
  N  N78  1  0.689163  0.097030  0.973269  1
  N  N79  1  0.784107  0.876240  0.973270  1
