# generated using pymatgen
data_YLu9(Sn3Se)2
_symmetry_space_group_name_H-M   'P 1'
_cell_length_a   8.92771900
_cell_length_b   8.92771857
_cell_length_c   6.57118000
_cell_angle_alpha   90.00000000
_cell_angle_beta   90.00000000
_cell_angle_gamma   119.95547038
_symmetry_Int_Tables_number   1
_chemical_formula_structural   YLu9(Sn3Se)2
_chemical_formula_sum   'Y1 Lu9 Sn6 Se2'
_cell_volume   453.78454068
_cell_formula_units_Z   1
loop_
 _symmetry_equiv_pos_site_id
 _symmetry_equiv_pos_as_xyz
  1  'x, y, z'
loop_
 _atom_site_type_symbol
 _atom_site_label
 _atom_site_symmetry_multiplicity
 _atom_site_fract_x
 _atom_site_fract_y
 _atom_site_fract_z
 _atom_site_occupancy
  Y  Y0  1  0.745783  0.745783  0.750000  1
  Lu  Lu1  1  0.666451  0.332732  0.000193  1
  Lu  Lu2  1  0.332732  0.666451  0.000193  1
  Lu  Lu3  1  0.332732  0.666451  0.499807  1
  Lu  Lu4  1  0.666451  0.332732  0.499807  1
  Lu  Lu5  1  0.253178  0.999272  0.750000  1
  Lu  Lu6  1  0.999272  0.253178  0.750000  1
  Lu  Lu7  1  0.255171  0.255171  0.250000  1
  Lu  Lu8  1  0.746154  0.000183  0.250000  1
  Lu  Lu9  1  0.000183  0.746154  0.250000  1
  Sn  Sn10  1  0.393800  0.393800  0.750000  1
  Sn  Sn11  1  0.603088  0.001161  0.750000  1
  Sn  Sn12  1  0.001161  0.603088  0.750000  1
  Sn  Sn13  1  0.604211  0.604211  0.250000  1
  Sn  Sn14  1  0.395682  0.999747  0.250000  1
  Sn  Sn15  1  0.999747  0.395682  0.250000  1
  Se  Se16  1  0.002101  0.002101  0.001610  1
  Se  Se17  1  0.002101  0.002101  0.498390  1
