# generated using pymatgen
data_CsLi2H8Ir
_symmetry_space_group_name_H-M   'P 1'
_cell_length_a   5.16195200
_cell_length_b   5.16195200
_cell_length_c   12.54126700
_cell_angle_alpha   90.00000000
_cell_angle_beta   90.00000000
_cell_angle_gamma   90.00000000
_symmetry_Int_Tables_number   1
_chemical_formula_structural   CsLi2H8Ir
_chemical_formula_sum   'Cs2 Li4 H16 Ir2'
_cell_volume   334.17144573
_cell_formula_units_Z   2
loop_
 _symmetry_equiv_pos_site_id
 _symmetry_equiv_pos_as_xyz
  1  'x, y, z'
loop_
 _atom_site_type_symbol
 _atom_site_label
 _atom_site_symmetry_multiplicity
 _atom_site_fract_x
 _atom_site_fract_y
 _atom_site_fract_z
 _atom_site_occupancy
  Cs  Cs0  1  0.500000  0.000000  0.000000  1
  Cs  Cs1  1  0.000000  0.500000  0.500000  1
  Li  Li2  1  0.500000  0.000000  0.708024  1
  Li  Li3  1  0.000000  0.500000  0.208024  1
  Li  Li4  1  0.500000  0.000000  0.291976  1
  Li  Li5  1  0.000000  0.500000  0.791976  1
  H  H6  1  0.231637  0.231637  0.750000  1
  H  H7  1  0.768363  0.768363  0.750000  1
  H  H8  1  0.768363  0.231637  0.250000  1
  H  H9  1  0.231637  0.768363  0.250000  1
  H  H10  1  0.768363  0.768363  0.250000  1
  H  H11  1  0.231637  0.231637  0.250000  1
  H  H12  1  0.231637  0.768363  0.750000  1
  H  H13  1  0.768363  0.231637  0.750000  1
  H  H14  1  0.500000  0.072257  0.500000  1
  H  H15  1  0.500000  0.927743  0.500000  1
  H  H16  1  0.927743  0.500000  0.000000  1
  H  H17  1  0.072257  0.500000  0.000000  1
  H  H18  1  0.000000  0.000000  0.616301  1
  H  H19  1  0.000000  0.000000  0.116301  1
  H  H20  1  0.000000  0.000000  0.383699  1
  H  H21  1  0.000000  0.000000  0.883699  1
  Ir  Ir22  1  0.000000  0.000000  0.750000  1
  Ir  Ir23  1  0.000000  0.000000  0.250000  1
