# generated using pymatgen
data_Tb9Y7Cd4NiIr3
_symmetry_space_group_name_H-M   'P 1'
_cell_length_a   9.63442971
_cell_length_b   9.68129759
_cell_length_c   9.68299300
_cell_angle_alpha   59.99420341
_cell_angle_beta   59.83311436
_cell_angle_gamma   59.86815194
_symmetry_Int_Tables_number   1
_chemical_formula_structural   Tb9Y7Cd4NiIr3
_chemical_formula_sum   'Tb9 Y7 Cd4 Ni1 Ir3'
_cell_volume   637.16363737
_cell_formula_units_Z   1
loop_
 _symmetry_equiv_pos_site_id
 _symmetry_equiv_pos_as_xyz
  1  'x, y, z'
loop_
 _atom_site_type_symbol
 _atom_site_label
 _atom_site_symmetry_multiplicity
 _atom_site_fract_x
 _atom_site_fract_y
 _atom_site_fract_z
 _atom_site_occupancy
  Tb  Tb0  1  0.601951  0.597319  0.596738  1
  Tb  Tb1  1  0.601951  0.597319  0.203991  1
  Tb  Tb2  1  0.602730  0.202825  0.597223  1
  Tb  Tb3  1  0.201991  0.599862  0.599073  1
  Tb  Tb4  1  0.058632  0.439067  0.439872  1
  Tb  Tb5  1  0.438017  0.059921  0.060979  1
  Tb  Tb6  1  0.438017  0.059921  0.441082  1
  Tb  Tb7  1  0.058632  0.439067  0.062427  1
  Tb  Tb8  1  0.438869  0.440663  0.060233  1
  Y  Y9  1  0.058934  0.061782  0.439642  1
  Y  Y10  1  0.188424  0.811940  0.812291  1
  Y  Y11  1  0.810970  0.186961  0.185894  1
  Y  Y12  1  0.810970  0.186961  0.816176  1
  Y  Y13  1  0.188424  0.811940  0.187345  1
  Y  Y14  1  0.811210  0.816022  0.186384  1
  Y  Y15  1  0.188395  0.187923  0.811841  1
  Cd  Cd16  1  0.830101  0.831258  0.831169  1
  Cd  Cd17  1  0.830101  0.831258  0.507469  1
  Cd  Cd18  1  0.830194  0.506502  0.831651  1
  Cd  Cd19  1  0.506522  0.830969  0.831254  1
  Ni  Ni20  1  0.824636  0.392855  0.391255  1
  Ir  Ir21  1  0.393113  0.391984  0.391197  1
  Ir  Ir22  1  0.393113  0.391984  0.823706  1
  Ir  Ir23  1  0.394102  0.823694  0.391102  1
