# generated using pymatgen
data_K2TcN3
_symmetry_space_group_name_H-M   'P 1'
_cell_length_a   6.67527760
_cell_length_b   6.67527809
_cell_length_c   13.15677500
_cell_angle_alpha   90.00000000
_cell_angle_beta   90.00000000
_cell_angle_gamma   125.96431597
_symmetry_Int_Tables_number   1
_chemical_formula_structural   K2TcN3
_chemical_formula_sum   'K8 Tc4 N12'
_cell_volume   474.50650808
_cell_formula_units_Z   4
loop_
 _symmetry_equiv_pos_site_id
 _symmetry_equiv_pos_as_xyz
  1  'x, y, z'
loop_
 _atom_site_type_symbol
 _atom_site_label
 _atom_site_symmetry_multiplicity
 _atom_site_fract_x
 _atom_site_fract_y
 _atom_site_fract_z
 _atom_site_occupancy
  K  K0  1  0.864622  0.135378  0.423983  1
  K  K1  1  0.364622  0.635378  0.076017  1
  K  K2  1  0.635378  0.364622  0.923983  1
  K  K3  1  0.135378  0.864622  0.576017  1
  K  K4  1  0.443870  0.556130  0.636745  1
  K  K5  1  0.556130  0.443870  0.363255  1
  K  K6  1  0.056130  0.943870  0.136745  1
  K  K7  1  0.943870  0.056130  0.863255  1
  Tc  Tc8  1  0.756672  0.243328  0.670287  1
  Tc  Tc9  1  0.743328  0.256672  0.170287  1
  Tc  Tc10  1  0.243328  0.756672  0.329713  1
  Tc  Tc11  1  0.256672  0.743328  0.829713  1
  N  N12  1  0.970242  0.529758  0.750000  1
  N  N13  1  0.529758  0.970242  0.250000  1
  N  N14  1  0.029758  0.470242  0.250000  1
  N  N15  1  0.470242  0.029758  0.750000  1
  N  N16  1  0.400335  0.599665  0.862333  1
  N  N17  1  0.599665  0.400335  0.137667  1
  N  N18  1  0.099665  0.900335  0.362333  1
  N  N19  1  0.672894  0.327106  0.559639  1
  N  N20  1  0.172894  0.827106  0.940361  1
  N  N21  1  0.827106  0.172894  0.059639  1
  N  N22  1  0.327106  0.672894  0.440361  1
  N  N23  1  0.900335  0.099665  0.637667  1
