# generated using pymatgen
data_Er4HgPd
_symmetry_space_group_name_H-M   'P 1'
_cell_length_a   9.55532066
_cell_length_b   9.55521634
_cell_length_c   9.55551801
_cell_angle_alpha   60.08474344
_cell_angle_beta   60.08485362
_cell_angle_gamma   60.08428766
_symmetry_Int_Tables_number   1
_chemical_formula_structural   Er4HgPd
_chemical_formula_sum   'Er16 Hg4 Pd4'
_cell_volume   618.09763220
_cell_formula_units_Z   4
loop_
 _symmetry_equiv_pos_site_id
 _symmetry_equiv_pos_as_xyz
  1  'x, y, z'
loop_
 _atom_site_type_symbol
 _atom_site_label
 _atom_site_symmetry_multiplicity
 _atom_site_fract_x
 _atom_site_fract_y
 _atom_site_fract_z
 _atom_site_occupancy
  Er  Er0  1  0.353440  0.353408  0.353440  1
  Er  Er1  1  0.360363  0.360349  0.924690  1
  Er  Er2  1  0.360365  0.924671  0.360352  1
  Er  Er3  1  0.924657  0.360346  0.360383  1
  Er  Er4  1  0.811514  0.189571  0.189583  1
  Er  Er5  1  0.187947  0.812284  0.812269  1
  Er  Er6  1  0.189583  0.811525  0.189573  1
  Er  Er7  1  0.812274  0.187955  0.812262  1
  Er  Er8  1  0.189595  0.189587  0.811498  1
  Er  Er9  1  0.812252  0.812294  0.187960  1
  Er  Er10  1  0.934510  0.566214  0.566201  1
  Er  Er11  1  0.563797  0.935898  0.935900  1
  Er  Er12  1  0.566236  0.934517  0.566192  1
  Er  Er13  1  0.935892  0.563801  0.935887  1
  Er  Er14  1  0.566235  0.566229  0.934493  1
  Er  Er15  1  0.935894  0.935900  0.563791  1
  Hg  Hg16  1  0.587550  0.587535  0.587530  1
  Hg  Hg17  1  0.585462  0.585458  0.238544  1
  Hg  Hg18  1  0.585462  0.238541  0.585459  1
  Hg  Hg19  1  0.238545  0.585456  0.585457  1
  Pd  Pd20  1  0.147438  0.147417  0.147414  1
  Pd  Pd21  1  0.143881  0.143923  0.563245  1
  Pd  Pd22  1  0.143813  0.563270  0.143966  1
  Pd  Pd23  1  0.563294  0.143850  0.143908  1
