# generated using pymatgen
data_Hf3Zr(BiRh5)2
_symmetry_space_group_name_H-M   'P 1'
_cell_length_a   4.16340700
_cell_length_b   5.73597860
_cell_length_c   11.23501913
_cell_angle_alpha   89.91447190
_cell_angle_beta   90.00000000
_cell_angle_gamma   90.00000000
_symmetry_Int_Tables_number   1
_chemical_formula_structural   Hf3Zr(BiRh5)2
_chemical_formula_sum   'Hf3 Zr1 Bi2 Rh10'
_cell_volume   268.30559096
_cell_formula_units_Z   1
loop_
 _symmetry_equiv_pos_site_id
 _symmetry_equiv_pos_as_xyz
  1  'x, y, z'
loop_
 _atom_site_type_symbol
 _atom_site_label
 _atom_site_symmetry_multiplicity
 _atom_site_fract_x
 _atom_site_fract_y
 _atom_site_fract_z
 _atom_site_occupancy
  Hf  Hf0  1  0.500000  0.827801  0.354282  1
  Hf  Hf1  1  0.500000  0.672181  0.854750  1
  Hf  Hf2  1  0.500000  0.328277  0.145388  1
  Zr  Zr3  1  0.500000  0.174591  0.644597  1
  Bi  Bi4  1  0.000000  0.499335  0.499844  1
  Bi  Bi5  1  0.000000  0.999812  0.000302  1
  Rh  Rh6  1  0.500000  0.205913  0.884852  1
  Rh  Rh7  1  0.500000  0.794276  0.116230  1
  Rh  Rh8  1  0.500000  0.705026  0.616329  1
  Rh  Rh9  1  0.500000  0.294404  0.382794  1
  Rh  Rh10  1  0.000000  0.438480  0.751080  1
  Rh  Rh11  1  0.000000  0.562995  0.250255  1
  Rh  Rh12  1  0.000000  0.997565  0.498856  1
  Rh  Rh13  1  0.000000  0.500180  0.000225  1
  Rh  Rh14  1  0.000000  0.062858  0.249381  1
  Rh  Rh15  1  0.000000  0.936307  0.750835  1
