# generated using pymatgen
data_Dy3Er7In8Pt3Au
_symmetry_space_group_name_H-M   'P 1'
_cell_length_a   3.61576800
_cell_length_b   8.15105602
_cell_length_c   18.23408194
_cell_angle_alpha   89.95809778
_cell_angle_beta   90.00000000
_cell_angle_gamma   90.00000000
_symmetry_Int_Tables_number   1
_chemical_formula_structural   Dy3Er7In8Pt3Au
_chemical_formula_sum   'Dy3 Er7 In8 Pt3 Au1'
_cell_volume   537.40069141
_cell_formula_units_Z   1
loop_
 _symmetry_equiv_pos_site_id
 _symmetry_equiv_pos_as_xyz
  1  'x, y, z'
loop_
 _atom_site_type_symbol
 _atom_site_label
 _atom_site_symmetry_multiplicity
 _atom_site_fract_x
 _atom_site_fract_y
 _atom_site_fract_z
 _atom_site_occupancy
  Dy  Dy0  1  0.000000  0.731686  0.279249  1
  Dy  Dy1  1  0.000000  0.999497  0.999110  1
  Dy  Dy2  1  0.000000  0.499225  0.500492  1
  Er  Er3  1  0.000000  0.120362  0.419646  1
  Er  Er4  1  0.000000  0.883921  0.586199  1
  Er  Er5  1  0.000000  0.384193  0.914298  1
  Er  Er6  1  0.000000  0.616137  0.083756  1
  Er  Er7  1  0.000000  0.252557  0.217290  1
  Er  Er8  1  0.000000  0.755516  0.779740  1
  Er  Er9  1  0.000000  0.255933  0.720887  1
  In  In10  1  0.500000  0.421755  0.352377  1
  In  In11  1  0.500000  0.576084  0.648887  1
  In  In12  1  0.500000  0.076227  0.851323  1
  In  In13  1  0.500000  0.922652  0.147376  1
  In  In14  1  0.500000  0.292380  0.065721  1
  In  In15  1  0.500000  0.707128  0.932801  1
  In  In16  1  0.500000  0.207833  0.567941  1
  In  In17  1  0.500000  0.792251  0.434177  1
  Pt  Pt18  1  0.500000  0.974383  0.697035  1
  Pt  Pt19  1  0.500000  0.474579  0.803304  1
  Pt  Pt20  1  0.500000  0.526170  0.195941  1
  Au  Au21  1  0.500000  0.029533  0.302450  1
