# generated using pymatgen
data_Tb18Er2Co3Bi8Ru
_symmetry_space_group_name_H-M   'P 1'
_cell_length_a   8.04381796
_cell_length_b   8.92456555
_cell_length_c   12.47236578
_cell_angle_alpha   89.95218136
_cell_angle_beta   90.22380006
_cell_angle_gamma   89.90974369
_symmetry_Int_Tables_number   1
_chemical_formula_structural   Tb18Er2Co3Bi8Ru
_chemical_formula_sum   'Tb18 Er2 Co3 Bi8 Ru1'
_cell_volume   895.35270658
_cell_formula_units_Z   1
loop_
 _symmetry_equiv_pos_site_id
 _symmetry_equiv_pos_as_xyz
  1  'x, y, z'
loop_
 _atom_site_type_symbol
 _atom_site_label
 _atom_site_symmetry_multiplicity
 _atom_site_fract_x
 _atom_site_fract_y
 _atom_site_fract_z
 _atom_site_occupancy
  Tb  Tb0  1  0.847744  0.750231  0.800498  1
  Tb  Tb1  1  0.151509  0.249830  0.198289  1
  Tb  Tb2  1  0.349167  0.249303  0.698120  1
  Tb  Tb3  1  0.652147  0.750427  0.297292  1
  Tb  Tb4  1  0.378576  0.750851  0.692933  1
  Tb  Tb5  1  0.618822  0.249017  0.310379  1
  Tb  Tb6  1  0.880501  0.249798  0.810223  1
  Tb  Tb7  1  0.118896  0.750067  0.188514  1
  Tb  Tb8  1  0.951807  0.750606  0.503759  1
  Tb  Tb9  1  0.047425  0.249507  0.496777  1
  Tb  Tb10  1  0.453741  0.250002  0.997312  1
  Tb  Tb11  1  0.546511  0.750024  0.002555  1
  Tb  Tb12  1  0.176810  0.966490  0.936972  1
  Tb  Tb13  1  0.322560  0.532267  0.436620  1
  Tb  Tb14  1  0.822605  0.035231  0.062948  1
  Tb  Tb15  1  0.677753  0.460085  0.564234  1
  Tb  Tb16  1  0.822603  0.464902  0.062822  1
  Tb  Tb17  1  0.176764  0.533471  0.937193  1
  Er  Er18  1  0.675042  0.041167  0.563750  1
  Er  Er19  1  0.325253  0.966405  0.437016  1
  Co  Co20  1  0.437285  0.249078  0.491148  1
  Co  Co21  1  0.059632  0.249980  0.991768  1
  Co  Co22  1  0.939052  0.749971  0.007587  1
  Bi  Bi23  1  0.571780  0.492001  0.826399  1
  Bi  Bi24  1  0.427627  0.507526  0.173804  1
  Bi  Bi25  1  0.072191  0.507313  0.674613  1
  Bi  Bi26  1  0.427194  0.992343  0.173977  1
  Bi  Bi27  1  0.929073  0.492333  0.325708  1
  Bi  Bi28  1  0.572256  0.008052  0.826346  1
  Bi  Bi29  1  0.930363  0.007731  0.325830  1
  Bi  Bi30  1  0.071124  0.992550  0.674580  1
  Ru  Ru31  1  0.566188  0.751439  0.510037  1
