# generated using pymatgen
data_V4Si3MoH
_symmetry_space_group_name_H-M   'P 1'
_cell_length_a   4.84482500
_cell_length_b   7.16415577
_cell_length_c   7.16351305
_cell_angle_alpha   120.00744465
_cell_angle_beta   90.00073457
_cell_angle_gamma   89.99913902
_symmetry_Int_Tables_number   1
_chemical_formula_structural   V4Si3MoH
_chemical_formula_sum   'V8 Si6 Mo2 H2'
_cell_volume   215.31149600
_cell_formula_units_Z   2
loop_
 _symmetry_equiv_pos_site_id
 _symmetry_equiv_pos_as_xyz
  1  'x, y, z'
loop_
 _atom_site_type_symbol
 _atom_site_label
 _atom_site_symmetry_multiplicity
 _atom_site_fract_x
 _atom_site_fract_y
 _atom_site_fract_z
 _atom_site_occupancy
  V  V0  1  0.497563  0.333030  0.665901  1
  V  V1  1  0.497541  0.667010  0.332854  1
  V  V2  1  0.002460  0.667004  0.332855  1
  V  V3  1  0.002439  0.333032  0.665902  1
  V  V4  1  0.749984  0.999946  0.242284  1
  V  V5  1  0.250012  0.761373  0.002237  1
  V  V6  1  0.250013  0.238619  0.240829  1
  V  V7  1  0.250011  0.999942  0.758848  1
  Si  Si8  1  0.750010  0.602569  0.001997  1
  Si  Si9  1  0.750019  0.397497  0.399404  1
  Si  Si10  1  0.750018  0.999947  0.595341  1
  Si  Si11  1  0.249990  0.400700  0.999996  1
  Si  Si12  1  0.249995  0.599371  0.599294  1
  Si  Si13  1  0.249986  0.999932  0.399528  1
  Mo  Mo14  1  0.749981  0.242300  0.999588  1
  Mo  Mo15  1  0.749984  0.757699  0.757280  1
  H  H16  1  0.493313  0.000016  0.002930  1
  H  H17  1  0.006686  0.000014  0.002930  1
