# generated using pymatgen
data_Sm2Hf2Ni10As7
_symmetry_space_group_name_H-M   'P 1'
_cell_length_a   9.76455277
_cell_length_b   9.52576057
_cell_length_c   3.90961000
_cell_angle_alpha   90.00000000
_cell_angle_beta   90.00000000
_cell_angle_gamma   120.38720335
_symmetry_Int_Tables_number   1
_chemical_formula_structural   Sm2Hf2Ni10As7
_chemical_formula_sum   'Sm2 Hf2 Ni10 As7'
_cell_volume   313.69553329
_cell_formula_units_Z   1
loop_
 _symmetry_equiv_pos_site_id
 _symmetry_equiv_pos_as_xyz
  1  'x, y, z'
loop_
 _atom_site_type_symbol
 _atom_site_label
 _atom_site_symmetry_multiplicity
 _atom_site_fract_x
 _atom_site_fract_y
 _atom_site_fract_z
 _atom_site_occupancy
  Sm  Sm0  1  0.345278  0.668122  0.000000  1
  Sm  Sm1  1  0.664307  0.339038  0.499999  1
  Hf  Hf2  1  0.215555  0.101444  0.499999  1
  Hf  Hf3  1  0.886862  0.107554  0.499999  1
  Ni  Ni4  1  0.422297  0.064718  0.000000  1
  Ni  Ni5  1  0.149013  0.281234  0.000000  1
  Ni  Ni6  1  0.938591  0.370368  0.000000  1
  Ni  Ni7  1  0.642255  0.577242  0.000000  1
  Ni  Ni8  1  0.130382  0.839035  0.000000  1
  Ni  Ni9  1  0.713589  0.875626  0.000000  1
  Ni  Ni10  1  0.385039  0.439744  0.499999  1
  Ni  Ni11  1  0.048143  0.616150  0.499999  1
  Ni  Ni12  1  0.880575  0.769076  0.499999  1
  Ni  Ni13  1  0.565443  0.942376  0.499999  1
  As  As14  1  0.991168  0.983531  0.000000  1
  As  As15  1  0.685446  0.111207  0.000000  1
  As  As16  1  0.414986  0.313734  0.000000  1
  As  As17  1  0.890953  0.593099  0.000000  1
  As  As18  1  0.122979  0.416195  0.499999  1
  As  As19  1  0.607178  0.710907  0.499999  1
  As  As20  1  0.299957  0.879602  0.499999  1
