# generated using pymatgen
data_Tb8Re2B24OsRu
_symmetry_space_group_name_H-M   'P 1'
_cell_length_a   3.69060100
_cell_length_b   9.19768913
_cell_length_c   11.58923195
_cell_angle_alpha   89.82492689
_cell_angle_beta   90.00000000
_cell_angle_gamma   90.00000000
_symmetry_Int_Tables_number   1
_chemical_formula_structural   Tb8Re2B24OsRu
_chemical_formula_sum   'Tb8 Re2 B24 Os1 Ru1'
_cell_volume   393.39465001
_cell_formula_units_Z   1
loop_
 _symmetry_equiv_pos_site_id
 _symmetry_equiv_pos_as_xyz
  1  'x, y, z'
loop_
 _atom_site_type_symbol
 _atom_site_label
 _atom_site_symmetry_multiplicity
 _atom_site_fract_x
 _atom_site_fract_y
 _atom_site_fract_z
 _atom_site_occupancy
  Tb  Tb0  1  0.000000  0.325775  0.415449  1
  Tb  Tb1  1  0.000000  0.674789  0.584881  1
  Tb  Tb2  1  0.000000  0.821630  0.087838  1
  Tb  Tb3  1  0.000000  0.178197  0.911920  1
  Tb  Tb4  1  0.000000  0.943141  0.370556  1
  Tb  Tb5  1  0.000000  0.057307  0.628626  1
  Tb  Tb6  1  0.000000  0.442427  0.129605  1
  Tb  Tb7  1  0.000000  0.556526  0.870920  1
  Re  Re8  1  0.000000  0.638203  0.320611  1
  Re  Re9  1  0.000000  0.361858  0.679491  1
  B  B10  1  0.500000  0.553241  0.432911  1
  B  B11  1  0.500000  0.447010  0.567344  1
  B  B12  1  0.500000  0.053723  0.067303  1
  B  B13  1  0.500000  0.946407  0.932770  1
  B  B14  1  0.500000  0.748096  0.418938  1
  B  B15  1  0.500000  0.252250  0.581018  1
  B  B16  1  0.500000  0.247484  0.081115  1
  B  B17  1  0.500000  0.752321  0.918862  1
  B  B18  1  0.500000  0.791219  0.265960  1
  B  B19  1  0.500000  0.208744  0.733858  1
  B  B20  1  0.500000  0.290075  0.233460  1
  B  B21  1  0.500000  0.709688  0.766679  1
  B  B22  1  0.500000  0.631747  0.185820  1
  B  B23  1  0.500000  0.367936  0.814285  1
  B  B24  1  0.500000  0.131624  0.313206  1
  B  B25  1  0.500000  0.868574  0.686748  1
  B  B26  1  0.500000  0.984051  0.211812  1
  B  B27  1  0.500000  0.016179  0.787952  1
  B  B28  1  0.500000  0.483569  0.287664  1
  B  B29  1  0.500000  0.516367  0.712689  1
  B  B30  1  0.500000  0.605129  0.029326  1
  B  B31  1  0.500000  0.394104  0.970910  1
  B  B32  1  0.500000  0.105163  0.470425  1
  B  B33  1  0.500000  0.895353  0.529183  1
  Os  Os34  1  0.000000  0.862420  0.821750  1
  Ru  Ru35  1  0.000000  0.137672  0.178116  1
