# generated using pymatgen
data_Ta5NbAl16Ir7
_symmetry_space_group_name_H-M   'P 1'
_cell_length_a   8.58371635
_cell_length_b   8.58476776
_cell_length_c   8.58475498
_cell_angle_alpha   59.99014387
_cell_angle_beta   60.00408771
_cell_angle_gamma   60.00384721
_symmetry_Int_Tables_number   1
_chemical_formula_structural   Ta5NbAl16Ir7
_chemical_formula_sum   'Ta5 Nb1 Al16 Ir7'
_cell_volume   447.31194203
_cell_formula_units_Z   1
loop_
 _symmetry_equiv_pos_site_id
 _symmetry_equiv_pos_as_xyz
  1  'x, y, z'
loop_
 _atom_site_type_symbol
 _atom_site_label
 _atom_site_symmetry_multiplicity
 _atom_site_fract_x
 _atom_site_fract_y
 _atom_site_fract_z
 _atom_site_occupancy
  Ta  Ta0  1  0.679130  0.676895  0.320874  1
  Ta  Ta1  1  0.323095  0.676899  0.320873  1
  Ta  Ta2  1  0.675698  0.324302  0.324302  1
  Ta  Ta3  1  0.323100  0.320874  0.676896  1
  Ta  Ta4  1  0.679130  0.320875  0.676897  1
  Nb  Nb5  1  0.316466  0.683533  0.683535  1
  Al  Al6  1  0.880414  0.880387  0.358784  1
  Al  Al7  1  0.880415  0.358783  0.880387  1
  Al  Al8  1  0.359207  0.880271  0.880270  1
  Al  Al9  1  0.880252  0.880271  0.880271  1
  Al  Al10  1  0.119730  0.119748  0.640794  1
  Al  Al11  1  0.119730  0.640793  0.119748  1
  Al  Al12  1  0.641217  0.119585  0.119585  1
  Al  Al13  1  0.119614  0.119586  0.119585  1
  Al  Al14  1  0.663610  0.663977  0.008800  1
  Al  Al15  1  0.663612  0.008801  0.663978  1
  Al  Al16  1  0.012857  0.662830  0.662832  1
  Al  Al17  1  0.661480  0.662833  0.662831  1
  Al  Al18  1  0.337166  0.338522  0.987143  1
  Al  Al19  1  0.337168  0.987144  0.338522  1
  Al  Al20  1  0.991199  0.336389  0.336390  1
  Al  Al21  1  0.336023  0.336390  0.336389  1
  Ir  Ir22  1  0.000792  0.999209  0.999208  1
  Ir  Ir23  1  0.998729  0.001270  0.499157  1
  Ir  Ir24  1  0.500842  0.001271  0.499158  1
  Ir  Ir25  1  0.999875  0.500124  0.500125  1
  Ir  Ir26  1  0.500842  0.499159  0.001269  1
  Ir  Ir27  1  0.998731  0.499158  0.001269  1
  Ir  Ir28  1  0.499876  0.000124  0.000124  1
