# generated using pymatgen
data_DyLu7(Ta3Si4)4
_symmetry_space_group_name_H-M   'P 1'
_cell_length_a   6.99799792
_cell_length_b   6.99699661
_cell_length_c   12.89577101
_cell_angle_alpha   90.00462328
_cell_angle_beta   89.95613127
_cell_angle_gamma   89.97392253
_symmetry_Int_Tables_number   1
_chemical_formula_structural   DyLu7(Ta3Si4)4
_chemical_formula_sum   'Dy1 Lu7 Ta12 Si16'
_cell_volume   631.44075839
_cell_formula_units_Z   1
loop_
 _symmetry_equiv_pos_site_id
 _symmetry_equiv_pos_as_xyz
  1  'x, y, z'
loop_
 _atom_site_type_symbol
 _atom_site_label
 _atom_site_symmetry_multiplicity
 _atom_site_fract_x
 _atom_site_fract_y
 _atom_site_fract_z
 _atom_site_occupancy
  Dy  Dy0  1  0.341953  0.003503  0.468263  1
  Lu  Lu1  1  0.997776  0.657665  0.031404  1
  Lu  Lu2  1  0.002044  0.342567  0.531867  1
  Lu  Lu3  1  0.657565  0.997852  0.968473  1
  Lu  Lu4  1  0.157755  0.502157  0.781808  1
  Lu  Lu5  1  0.842019  0.498232  0.281031  1
  Lu  Lu6  1  0.502011  0.157806  0.218170  1
  Lu  Lu7  1  0.498235  0.841919  0.718868  1
  Ta  Ta8  1  0.347684  0.505561  0.375679  1
  Ta  Ta9  1  0.847500  0.994205  0.373711  1
  Ta  Ta10  1  0.005191  0.152037  0.125462  1
  Ta  Ta11  1  0.994754  0.847156  0.626628  1
  Ta  Ta12  1  0.506656  0.348248  0.624796  1
  Ta  Ta13  1  0.151887  0.005419  0.874339  1
  Ta  Ta14  1  0.672021  0.671453  0.500108  1
  Ta  Ta15  1  0.828485  0.171431  0.750390  1
  Ta  Ta16  1  0.170956  0.828143  0.249454  1
  Ta  Ta17  1  0.328318  0.328296  0.999919  1
  Ta  Ta18  1  0.494288  0.651976  0.123639  1
  Ta  Ta19  1  0.651995  0.494343  0.876159  1
  Si  Si20  1  0.044871  0.703132  0.435599  1
  Si  Si21  1  0.954281  0.296368  0.935624  1
  Si  Si22  1  0.705992  0.045823  0.564891  1
  Si  Si23  1  0.203378  0.454678  0.185284  1
  Si  Si24  1  0.796466  0.545826  0.685998  1
  Si  Si25  1  0.454318  0.203543  0.814606  1
  Si  Si26  1  0.546428  0.795193  0.313491  1
  Si  Si27  1  0.296194  0.954353  0.064348  1
  Si  Si28  1  0.795977  0.864059  0.180391  1
  Si  Si29  1  0.296110  0.634360  0.569635  1
  Si  Si30  1  0.703771  0.363950  0.069172  1
  Si  Si31  1  0.637205  0.297658  0.430980  1
  Si  Si32  1  0.363961  0.703870  0.930647  1
  Si  Si33  1  0.134136  0.205266  0.317995  1
  Si  Si34  1  0.203791  0.136056  0.681595  1
  Si  Si35  1  0.864027  0.795894  0.819575  1
