# generated using pymatgen
data_Dy3(Zn2Au)2
_symmetry_space_group_name_H-M   'P 1'
_cell_length_a   7.55553700
_cell_length_b   7.55553677
_cell_length_c   3.76757300
_cell_angle_alpha   90.00000000
_cell_angle_beta   90.00000000
_cell_angle_gamma   119.99999665
_symmetry_Int_Tables_number   1
_chemical_formula_structural   Dy3(Zn2Au)2
_chemical_formula_sum   'Dy3 Zn4 Au2'
_cell_volume   186.26145116
_cell_formula_units_Z   1
loop_
 _symmetry_equiv_pos_site_id
 _symmetry_equiv_pos_as_xyz
  1  'x, y, z'
loop_
 _atom_site_type_symbol
 _atom_site_label
 _atom_site_symmetry_multiplicity
 _atom_site_fract_x
 _atom_site_fract_y
 _atom_site_fract_z
 _atom_site_occupancy
  Dy  Dy0  1  0.000000  0.407383  0.500000  1
  Dy  Dy1  1  0.592617  0.592617  0.500000  1
  Dy  Dy2  1  0.407383  0.000000  0.500000  1
  Zn  Zn3  1  0.000000  0.749520  0.000000  1
  Zn  Zn4  1  0.250480  0.250480  0.000000  1
  Zn  Zn5  1  0.749520  0.000000  0.000000  1
  Zn  Zn6  1  0.000000  0.000000  0.500000  1
  Au  Au7  1  0.333333  0.666667  0.000000  1
  Au  Au8  1  0.666667  0.333333  0.000000  1
