# generated using pymatgen
data_Tb3GdIn2
_symmetry_space_group_name_H-M   'P 1'
_cell_length_a   5.41100745
_cell_length_b   5.41100798
_cell_length_c   6.80625426
_cell_angle_alpha   90.02772208
_cell_angle_beta   89.97227679
_cell_angle_gamma   119.96071633
_symmetry_Int_Tables_number   1
_chemical_formula_structural   Tb3GdIn2
_chemical_formula_sum   'Tb3 Gd1 In2'
_cell_volume   172.65009365
_cell_formula_units_Z   1
loop_
 _symmetry_equiv_pos_site_id
 _symmetry_equiv_pos_as_xyz
  1  'x, y, z'
loop_
 _atom_site_type_symbol
 _atom_site_label
 _atom_site_symmetry_multiplicity
 _atom_site_fract_x
 _atom_site_fract_y
 _atom_site_fract_z
 _atom_site_occupancy
  Tb  Tb0  1  0.000000  0.000000  0.000000  1
  Tb  Tb1  1  0.333660  0.666338  0.750835  1
  Tb  Tb2  1  0.666340  0.333661  0.249166  1
  Gd  Gd3  1  0.000000  0.000000  0.500000  1
  In  In4  1  0.333268  0.666730  0.249812  1
  In  In5  1  0.666731  0.333266  0.750189  1
