# generated using pymatgen
data_PrY5FeCl10
_symmetry_space_group_name_H-M   'P 1'
_cell_length_a   7.15635744
_cell_length_b   8.72424728
_cell_length_c   9.02059914
_cell_angle_alpha   109.06441595
_cell_angle_beta   96.56666760
_cell_angle_gamma   105.29707536
_symmetry_Int_Tables_number   1
_chemical_formula_structural   PrY5FeCl10
_chemical_formula_sum   'Pr1 Y5 Fe1 Cl10'
_cell_volume   500.86669176
_cell_formula_units_Z   1
loop_
 _symmetry_equiv_pos_site_id
 _symmetry_equiv_pos_as_xyz
  1  'x, y, z'
loop_
 _atom_site_type_symbol
 _atom_site_label
 _atom_site_symmetry_multiplicity
 _atom_site_fract_x
 _atom_site_fract_y
 _atom_site_fract_z
 _atom_site_occupancy
  Pr  Pr0  1  0.969431  0.289414  0.091678  1
  Y  Y1  1  0.134324  0.054852  0.749216  1
  Y  Y2  1  0.630405  0.855603  0.808818  1
  Y  Y3  1  0.862272  0.945462  0.250098  1
  Y  Y4  1  0.032258  0.718870  0.911315  1
  Y  Y5  1  0.368621  0.140071  0.190257  1
  Fe  Fe6  1  0.997598  0.007040  0.002004  1
  Cl  Cl7  1  0.210665  0.750070  0.658171  1
  Cl  Cl8  1  0.660499  0.548617  0.728600  1
  Cl  Cl9  1  0.237617  0.078278  0.451084  1
  Cl  Cl10  1  0.777312  0.243270  0.350721  1
  Cl  Cl11  1  0.543561  0.168435  0.917265  1
  Cl  Cl12  1  0.758760  0.914634  0.546856  1
  Cl  Cl13  1  0.909733  0.635537  0.162830  1
  Cl  Cl14  1  0.365231  0.454463  0.279108  1
  Cl  Cl15  1  0.097573  0.372416  0.826544  1
  Cl  Cl16  1  0.444139  0.822970  0.075435  1
