# generated using pymatgen
data_CeMgGeH
_symmetry_space_group_name_H-M   'P 1'
_cell_length_a   4.26471800
_cell_length_b   4.26471800
_cell_length_c   7.94546200
_cell_angle_alpha   90.00000000
_cell_angle_beta   90.00000000
_cell_angle_gamma   90.00000000
_symmetry_Int_Tables_number   1
_chemical_formula_structural   CeMgGeH
_chemical_formula_sum   'Ce2 Mg2 Ge2 H2'
_cell_volume   144.51062965
_cell_formula_units_Z   2
loop_
 _symmetry_equiv_pos_site_id
 _symmetry_equiv_pos_as_xyz
  1  'x, y, z'
loop_
 _atom_site_type_symbol
 _atom_site_label
 _atom_site_symmetry_multiplicity
 _atom_site_fract_x
 _atom_site_fract_y
 _atom_site_fract_z
 _atom_site_occupancy
  Ce  Ce0  1  0.500000  0.000000  0.363429  1
  Ce  Ce1  1  0.000000  0.500000  0.636571  1
  Mg  Mg2  1  0.500000  0.500000  0.000000  1
  Mg  Mg3  1  0.000000  0.000000  0.000000  1
  Ge  Ge4  1  0.500000  0.000000  0.777297  1
  Ge  Ge5  1  0.000000  0.500000  0.222703  1
  H  H6  1  0.000000  0.000000  0.500000  1
  H  H7  1  0.500000  0.500000  0.500000  1
