# generated using pymatgen
data_PaV3P3Rh2
_symmetry_space_group_name_H-M   'P 1'
_cell_length_a   3.94637600
_cell_length_b   6.78054421
_cell_length_c   9.93939453
_cell_angle_alpha   80.16289884
_cell_angle_beta   90.00000000
_cell_angle_gamma   90.00000000
_symmetry_Int_Tables_number   1
_chemical_formula_structural   PaV3P3Rh2
_chemical_formula_sum   'Pa2 V6 P6 Rh4'
_cell_volume   262.05371024
_cell_formula_units_Z   2
loop_
 _symmetry_equiv_pos_site_id
 _symmetry_equiv_pos_as_xyz
  1  'x, y, z'
loop_
 _atom_site_type_symbol
 _atom_site_label
 _atom_site_symmetry_multiplicity
 _atom_site_fract_x
 _atom_site_fract_y
 _atom_site_fract_z
 _atom_site_occupancy
  Pa  Pa0  1  0.250000  0.803713  0.788474  1
  Pa  Pa1  1  0.750000  0.196287  0.211526  1
  V  V2  1  0.250000  0.617605  0.513802  1
  V  V3  1  0.750000  0.382395  0.486198  1
  V  V4  1  0.250000  0.126893  0.501413  1
  V  V5  1  0.750000  0.873107  0.498587  1
  V  V6  1  0.250000  0.317357  0.730667  1
  V  V7  1  0.750000  0.682643  0.269333  1
  P  P8  1  0.250000  0.257204  0.970378  1
  P  P9  1  0.750000  0.742796  0.029622  1
  P  P10  1  0.250000  0.430352  0.333498  1
  P  P11  1  0.750000  0.569648  0.666502  1
  P  P12  1  0.250000  0.901243  0.338423  1
  P  P13  1  0.750000  0.098757  0.661577  1
  Rh  Rh14  1  0.250000  0.524629  0.096903  1
  Rh  Rh15  1  0.750000  0.475371  0.903097  1
  Rh  Rh16  1  0.250000  0.929360  0.099357  1
  Rh  Rh17  1  0.750000  0.070640  0.900643  1
