# generated using pymatgen
data_Pr3Nd5(CdIr)2
_symmetry_space_group_name_H-M   'P 1'
_cell_length_a   9.99112916
_cell_length_b   9.99112887
_cell_length_c   9.99112900
_cell_angle_alpha   60.00000289
_cell_angle_beta   60.00000384
_cell_angle_gamma   60.00000544
_symmetry_Int_Tables_number   1
_chemical_formula_structural   Pr3Nd5(CdIr)2
_chemical_formula_sum   'Pr6 Nd10 Cd4 Ir4'
_cell_volume   705.22669407
_cell_formula_units_Z   2
loop_
 _symmetry_equiv_pos_site_id
 _symmetry_equiv_pos_as_xyz
  1  'x, y, z'
loop_
 _atom_site_type_symbol
 _atom_site_label
 _atom_site_symmetry_multiplicity
 _atom_site_fract_x
 _atom_site_fract_y
 _atom_site_fract_z
 _atom_site_occupancy
  Pr  Pr0  1  0.939467  0.560533  0.560533  1
  Pr  Pr1  1  0.560533  0.939467  0.939467  1
  Pr  Pr2  1  0.560533  0.939467  0.560533  1
  Pr  Pr3  1  0.939467  0.560533  0.939467  1
  Pr  Pr4  1  0.560533  0.560533  0.939467  1
  Pr  Pr5  1  0.939467  0.939467  0.560533  1
  Nd  Nd6  1  0.348342  0.348342  0.348342  1
  Nd  Nd7  1  0.348342  0.348342  0.954973  1
  Nd  Nd8  1  0.348342  0.954973  0.348342  1
  Nd  Nd9  1  0.954973  0.348342  0.348342  1
  Nd  Nd10  1  0.809641  0.190359  0.190359  1
  Nd  Nd11  1  0.190359  0.809641  0.809641  1
  Nd  Nd12  1  0.190359  0.809641  0.190359  1
  Nd  Nd13  1  0.809641  0.190359  0.809641  1
  Nd  Nd14  1  0.190359  0.190359  0.809641  1
  Nd  Nd15  1  0.809641  0.809641  0.190359  1
  Cd  Cd16  1  0.579781  0.579781  0.579781  1
  Cd  Cd17  1  0.579781  0.579781  0.260655  1
  Cd  Cd18  1  0.579781  0.260655  0.579781  1
  Cd  Cd19  1  0.260655  0.579781  0.579781  1
  Ir  Ir20  1  0.141411  0.141411  0.141411  1
  Ir  Ir21  1  0.141411  0.141411  0.575768  1
  Ir  Ir22  1  0.141411  0.575768  0.141411  1
  Ir  Ir23  1  0.575768  0.141411  0.141411  1
