# generated using pymatgen
data_Tb3Er4TmIn3Os
_symmetry_space_group_name_H-M   'P 1'
_cell_length_a   10.32223239
_cell_length_b   10.32453303
_cell_length_c   7.11433904
_cell_angle_alpha   90.01735013
_cell_angle_beta   89.99209930
_cell_angle_gamma   119.89959370
_symmetry_Int_Tables_number   1
_chemical_formula_structural   Tb3Er4TmIn3Os
_chemical_formula_sum   'Tb6 Er8 Tm2 In6 Os2'
_cell_volume   657.27593723
_cell_formula_units_Z   2
loop_
 _symmetry_equiv_pos_site_id
 _symmetry_equiv_pos_as_xyz
  1  'x, y, z'
loop_
 _atom_site_type_symbol
 _atom_site_label
 _atom_site_symmetry_multiplicity
 _atom_site_fract_x
 _atom_site_fract_y
 _atom_site_fract_z
 _atom_site_occupancy
  Tb  Tb0  1  0.532520  0.065868  0.793005  1
  Tb  Tb1  1  0.934144  0.467483  0.793008  1
  Tb  Tb2  1  0.532951  0.467064  0.792672  1
  Tb  Tb3  1  0.467064  0.934458  0.293297  1
  Tb  Tb4  1  0.065517  0.532939  0.293288  1
  Tb  Tb5  1  0.467329  0.532676  0.293236  1
  Er  Er6  1  0.822862  0.177088  0.498210  1
  Er  Er7  1  0.177144  0.354303  0.997911  1
  Er  Er8  1  0.645702  0.822855  0.997937  1
  Er  Er9  1  0.177087  0.822927  0.998066  1
  Er  Er10  1  0.666666  0.333318  0.171975  1
  Er  Er11  1  0.333286  0.666692  0.671551  1
  Er  Er12  1  0.000228  0.999810  0.777829  1
  Er  Er13  1  0.000095  0.999866  0.278327  1
  Tm  Tm14  1  0.822686  0.645339  0.497851  1
  Tm  Tm15  1  0.354676  0.177354  0.497821  1
  In  In16  1  0.837001  0.674040  0.044721  1
  In  In17  1  0.326003  0.163041  0.044577  1
  In  In18  1  0.837295  0.162771  0.042733  1
  In  In19  1  0.163011  0.325348  0.542439  1
  In  In20  1  0.674628  0.836836  0.542689  1
  In  In21  1  0.162516  0.837558  0.542498  1
  Os  Os22  1  0.666449  0.333710  0.564884  1
  Os  Os23  1  0.333139  0.666657  0.065378  1
