# generated using pymatgen
data_La8DyHo11Pb16
_symmetry_space_group_name_H-M   'P 1'
_cell_length_a   8.30156302
_cell_length_b   8.39157850
_cell_length_c   15.84171000
_cell_angle_alpha   89.99702309
_cell_angle_beta   89.99605907
_cell_angle_gamma   89.98039726
_symmetry_Int_Tables_number   1
_chemical_formula_structural   La8DyHo11Pb16
_chemical_formula_sum   'La8 Dy1 Ho11 Pb16'
_cell_volume   1103.58442493
_cell_formula_units_Z   1
loop_
 _symmetry_equiv_pos_site_id
 _symmetry_equiv_pos_as_xyz
  1  'x, y, z'
loop_
 _atom_site_type_symbol
 _atom_site_label
 _atom_site_symmetry_multiplicity
 _atom_site_fract_x
 _atom_site_fract_y
 _atom_site_fract_z
 _atom_site_occupancy
  La  La0  1  0.479288  0.678079  0.596280  1
  La  La1  1  0.979345  0.821954  0.903743  1
  La  La2  1  0.520600  0.321985  0.096376  1
  La  La3  1  0.020546  0.177870  0.403576  1
  La  La4  1  0.520557  0.322134  0.403528  1
  La  La5  1  0.020709  0.177970  0.096460  1
  La  La6  1  0.479179  0.678115  0.903803  1
  La  La7  1  0.979260  0.821954  0.596284  1
  Dy  Dy8  1  0.638456  0.158474  0.622725  1
  Ho  Ho9  1  0.138404  0.341889  0.877108  1
  Ho  Ho10  1  0.361489  0.841698  0.123128  1
  Ho  Ho11  1  0.861497  0.658290  0.376664  1
  Ho  Ho12  1  0.361519  0.841615  0.376822  1
  Ho  Ho13  1  0.861533  0.658171  0.123117  1
  Ho  Ho14  1  0.638521  0.158197  0.877063  1
  Ho  Ho15  1  0.138570  0.341633  0.623022  1
  Ho  Ho16  1  0.804550  0.495126  0.750111  1
  Ho  Ho17  1  0.304389  0.005078  0.750082  1
  Ho  Ho18  1  0.195599  0.504757  0.249947  1
  Ho  Ho19  1  0.695584  0.994768  0.249914  1
  Pb  Pb20  1  0.700393  0.957576  0.455821  1
  Pb  Pb21  1  0.200432  0.542337  0.044019  1
  Pb  Pb22  1  0.299709  0.042382  0.956271  1
  Pb  Pb23  1  0.800038  0.458400  0.543672  1
  Pb  Pb24  1  0.298981  0.042082  0.543697  1
  Pb  Pb25  1  0.799540  0.457720  0.956300  1
  Pb  Pb26  1  0.700507  0.957834  0.043981  1
  Pb  Pb27  1  0.200199  0.542248  0.456037  1
  Pb  Pb28  1  0.442880  0.370588  0.750104  1
  Pb  Pb29  1  0.943305  0.129882  0.750206  1
  Pb  Pb30  1  0.556940  0.629452  0.249954  1
  Pb  Pb31  1  0.057177  0.870153  0.249976  1
  Pb  Pb32  1  0.668466  0.851539  0.750213  1
  Pb  Pb33  1  0.168559  0.648259  0.749951  1
  Pb  Pb34  1  0.331538  0.148486  0.250019  1
  Pb  Pb35  1  0.831743  0.351307  0.250022  1
