# generated using pymatgen
data_Lu12Th4MnCd4Ir3
_symmetry_space_group_name_H-M   'P 1'
_cell_length_a   9.59721548
_cell_length_b   9.59721536
_cell_length_c   9.59721624
_cell_angle_alpha   59.63680806
_cell_angle_beta   59.63680917
_cell_angle_gamma   59.63681143
_symmetry_Int_Tables_number   1
_chemical_formula_structural   Lu12Th4MnCd4Ir3
_chemical_formula_sum   'Lu12 Th4 Mn1 Cd4 Ir3'
_cell_volume   619.90001688
_cell_formula_units_Z   1
loop_
 _symmetry_equiv_pos_site_id
 _symmetry_equiv_pos_as_xyz
  1  'x, y, z'
loop_
 _atom_site_type_symbol
 _atom_site_label
 _atom_site_symmetry_multiplicity
 _atom_site_fract_x
 _atom_site_fract_y
 _atom_site_fract_z
 _atom_site_occupancy
  Lu  Lu0  1  0.818669  0.186595  0.186595  1
  Lu  Lu1  1  0.187340  0.811789  0.811789  1
  Lu  Lu2  1  0.186595  0.818669  0.186595  1
  Lu  Lu3  1  0.811789  0.187340  0.811789  1
  Lu  Lu4  1  0.186595  0.186595  0.818669  1
  Lu  Lu5  1  0.811789  0.811789  0.187340  1
  Lu  Lu6  1  0.935421  0.564888  0.564888  1
  Lu  Lu7  1  0.563107  0.934012  0.934012  1
  Lu  Lu8  1  0.564888  0.935421  0.564888  1
  Lu  Lu9  1  0.934012  0.563107  0.934012  1
  Lu  Lu10  1  0.564888  0.564888  0.935421  1
  Lu  Lu11  1  0.934012  0.934012  0.563107  1
  Th  Th12  1  0.351197  0.351197  0.351197  1
  Th  Th13  1  0.344486  0.344486  0.955055  1
  Th  Th14  1  0.344486  0.955055  0.344486  1
  Th  Th15  1  0.955055  0.344486  0.344486  1
  Mn  Mn16  1  0.146087  0.146087  0.146087  1
  Cd  Cd17  1  0.581186  0.581186  0.581186  1
  Cd  Cd18  1  0.582374  0.582374  0.248863  1
  Cd  Cd19  1  0.582374  0.248863  0.582374  1
  Cd  Cd20  1  0.248863  0.582374  0.582374  1
  Ir  Ir21  1  0.143538  0.143538  0.577708  1
  Ir  Ir22  1  0.143538  0.577708  0.143538  1
  Ir  Ir23  1  0.577708  0.143538  0.143538  1
