# generated using pymatgen
data_Y12Ga3Si5Ni4
_symmetry_space_group_name_H-M   'P 1'
_cell_length_a   4.08912400
_cell_length_b   11.38947907
_cell_length_c   11.50968606
_cell_angle_alpha   89.98781623
_cell_angle_beta   90.00000000
_cell_angle_gamma   90.00000000
_symmetry_Int_Tables_number   1
_chemical_formula_structural   Y12Ga3Si5Ni4
_chemical_formula_sum   'Y12 Ga3 Si5 Ni4'
_cell_volume   536.04050711
_cell_formula_units_Z   1
loop_
 _symmetry_equiv_pos_site_id
 _symmetry_equiv_pos_as_xyz
  1  'x, y, z'
loop_
 _atom_site_type_symbol
 _atom_site_label
 _atom_site_symmetry_multiplicity
 _atom_site_fract_x
 _atom_site_fract_y
 _atom_site_fract_z
 _atom_site_occupancy
  Y  Y0  1  0.250000  0.126244  0.560524  1
  Y  Y1  1  0.250000  0.367406  0.053928  1
  Y  Y2  1  0.750000  0.870368  0.448600  1
  Y  Y3  1  0.750000  0.632113  0.946536  1
  Y  Y4  1  0.250000  0.804554  0.715884  1
  Y  Y5  1  0.250000  0.702164  0.220107  1
  Y  Y6  1  0.750000  0.200970  0.280307  1
  Y  Y7  1  0.750000  0.297678  0.779527  1
  Y  Y8  1  0.250000  0.057810  0.880684  1
  Y  Y9  1  0.250000  0.441975  0.386717  1
  Y  Y10  1  0.750000  0.942640  0.113831  1
  Y  Y11  1  0.750000  0.557353  0.614713  1
  Ga  Ga12  1  0.250000  0.495608  0.805104  1
  Ga  Ga13  1  0.250000  0.003511  0.306161  1
  Ga  Ga14  1  0.750000  0.504493  0.195274  1
  Si  Si15  1  0.750000  0.995036  0.697559  1
  Si  Si16  1  0.250000  0.816230  0.974016  1
  Si  Si17  1  0.250000  0.687349  0.477450  1
  Si  Si18  1  0.750000  0.184261  0.022133  1
  Si  Si19  1  0.750000  0.312238  0.523388  1
  Ni  Ni20  1  0.250000  0.367192  0.625651  1
  Ni  Ni21  1  0.250000  0.130018  0.125216  1
  Ni  Ni22  1  0.750000  0.632016  0.375815  1
  Ni  Ni23  1  0.750000  0.870773  0.870874  1
