# generated using pymatgen
data_Tb8MgIn7
_symmetry_space_group_name_H-M   'P 1'
_cell_length_a   6.51190600
_cell_length_b   6.51269553
_cell_length_c   10.78726000
_cell_angle_alpha   90.00000000
_cell_angle_beta   90.00000000
_cell_angle_gamma   110.15368896
_symmetry_Int_Tables_number   1
_chemical_formula_structural   Tb8MgIn7
_chemical_formula_sum   'Tb8 Mg1 In7'
_cell_volume   429.47717378
_cell_formula_units_Z   1
loop_
 _symmetry_equiv_pos_site_id
 _symmetry_equiv_pos_as_xyz
  1  'x, y, z'
loop_
 _atom_site_type_symbol
 _atom_site_label
 _atom_site_symmetry_multiplicity
 _atom_site_fract_x
 _atom_site_fract_y
 _atom_site_fract_z
 _atom_site_occupancy
  Tb  Tb0  1  0.501536  0.501338  0.250000  1
  Tb  Tb1  1  0.498738  0.498806  0.750000  1
  Tb  Tb2  1  0.248854  0.747192  0.500364  1
  Tb  Tb3  1  0.248854  0.747192  0.999636  1
  Tb  Tb4  1  0.750801  0.253084  0.500458  1
  Tb  Tb5  1  0.750801  0.253084  0.999542  1
  Tb  Tb6  1  0.997910  0.997394  0.250000  1
  Tb  Tb7  1  0.002305  0.002538  0.750000  1
  Mg  Mg8  1  0.498375  0.000655  0.250000  1
  In  In9  1  0.252075  0.244620  0.005430  1
  In  In10  1  0.747823  0.754744  0.002834  1
  In  In11  1  0.252075  0.244620  0.494570  1
  In  In12  1  0.747823  0.754744  0.497166  1
  In  In13  1  0.999257  0.502509  0.750000  1
  In  In14  1  0.502152  0.999409  0.750000  1
  In  In15  1  0.000618  0.498072  0.250000  1
