# generated using pymatgen
data_Er4Al4IrPd3
_symmetry_space_group_name_H-M   'P 1'
_cell_length_a   4.39768100
_cell_length_b   6.79817911
_cell_length_c   7.79992741
_cell_angle_alpha   89.90982051
_cell_angle_beta   90.00000000
_cell_angle_gamma   90.00000000
_symmetry_Int_Tables_number   1
_chemical_formula_structural   Er4Al4IrPd3
_chemical_formula_sum   'Er4 Al4 Ir1 Pd3'
_cell_volume   233.18808122
_cell_formula_units_Z   1
loop_
 _symmetry_equiv_pos_site_id
 _symmetry_equiv_pos_as_xyz
  1  'x, y, z'
loop_
 _atom_site_type_symbol
 _atom_site_label
 _atom_site_symmetry_multiplicity
 _atom_site_fract_x
 _atom_site_fract_y
 _atom_site_fract_z
 _atom_site_occupancy
  Er  Er0  1  0.250000  0.036149  0.322854  1
  Er  Er1  1  0.250000  0.532655  0.179708  1
  Er  Er2  1  0.750000  0.976019  0.678882  1
  Er  Er3  1  0.750000  0.462849  0.817600  1
  Al  Al4  1  0.250000  0.144717  0.937076  1
  Al  Al5  1  0.250000  0.638108  0.561081  1
  Al  Al6  1  0.750000  0.856922  0.059244  1
  Al  Al7  1  0.750000  0.355559  0.442223  1
  Ir  Ir8  1  0.250000  0.267203  0.621585  1
  Pd  Pd9  1  0.250000  0.770431  0.879221  1
  Pd  Pd10  1  0.750000  0.729784  0.378693  1
  Pd  Pd11  1  0.750000  0.229605  0.121832  1
