# generated using pymatgen
data_Y2Tm7Lu7(In3Au)2
_symmetry_space_group_name_H-M   'P 1'
_cell_length_a   10.43906414
_cell_length_b   10.43906477
_cell_length_c   6.84035037
_cell_angle_alpha   90.03587334
_cell_angle_beta   89.96412627
_cell_angle_gamma   120.09329168
_symmetry_Int_Tables_number   1
_chemical_formula_structural   Y2Tm7Lu7(In3Au)2
_chemical_formula_sum   'Y2 Tm7 Lu7 In6 Au2'
_cell_volume   644.94545947
_cell_formula_units_Z   1
loop_
 _symmetry_equiv_pos_site_id
 _symmetry_equiv_pos_as_xyz
  1  'x, y, z'
loop_
 _atom_site_type_symbol
 _atom_site_label
 _atom_site_symmetry_multiplicity
 _atom_site_fract_x
 _atom_site_fract_y
 _atom_site_fract_z
 _atom_site_occupancy
  Y  Y0  1  0.000149  0.999851  0.496798  1
  Y  Y1  1  0.000853  0.999147  0.996279  1
  Tm  Tm2  1  0.476672  0.523328  0.478898  1
  Tm  Tm3  1  0.046925  0.523541  0.478228  1
  Tm  Tm4  1  0.476459  0.953075  0.478228  1
  Tm  Tm5  1  0.522953  0.477047  0.978874  1
  Tm  Tm6  1  0.953305  0.477622  0.977808  1
  Tm  Tm7  1  0.522378  0.046695  0.977808  1
  Tm  Tm8  1  0.826439  0.173561  0.262128  1
  Lu  Lu9  1  0.347963  0.173583  0.264303  1
  Lu  Lu10  1  0.826417  0.652037  0.264303  1
  Lu  Lu11  1  0.173689  0.826311  0.763139  1
  Lu  Lu12  1  0.652261  0.826732  0.764135  1
  Lu  Lu13  1  0.173268  0.347739  0.764135  1
  Lu  Lu14  1  0.333281  0.666719  0.118265  1
  Lu  Lu15  1  0.666603  0.333397  0.618127  1
  In  In16  1  0.164932  0.835068  0.240831  1
  In  In17  1  0.670511  0.833616  0.240093  1
  In  In18  1  0.166384  0.329489  0.240093  1
  In  In19  1  0.835093  0.164907  0.740449  1
  In  In20  1  0.329760  0.165590  0.740043  1
  In  In21  1  0.834410  0.670240  0.740043  1
  Au  Au22  1  0.333210  0.666790  0.711009  1
  Au  Au23  1  0.666084  0.333916  0.210536  1
