# generated using pymatgen
data_VAg2RuF12
_symmetry_space_group_name_H-M   'P 1'
_cell_length_a   5.56142346
_cell_length_b   5.83809161
_cell_length_c   8.04994400
_cell_angle_alpha   96.30642824
_cell_angle_beta   89.51962629
_cell_angle_gamma   90.51506144
_symmetry_Int_Tables_number   1
_chemical_formula_structural   VAg2RuF12
_chemical_formula_sum   'V1 Ag2 Ru1 F12'
_cell_volume   259.76707123
_cell_formula_units_Z   1
loop_
 _symmetry_equiv_pos_site_id
 _symmetry_equiv_pos_as_xyz
  1  'x, y, z'
loop_
 _atom_site_type_symbol
 _atom_site_label
 _atom_site_symmetry_multiplicity
 _atom_site_fract_x
 _atom_site_fract_y
 _atom_site_fract_z
 _atom_site_occupancy
  V  V0  1  0.500000  0.500000  0.000000  1
  Ag  Ag1  1  0.000000  0.000000  0.000000  1
  Ag  Ag2  1  0.500000  0.500000  0.500000  1
  Ru  Ru3  1  0.000000  0.000000  0.500000  1
  F  F4  1  0.866188  0.994208  0.719026  1
  F  F5  1  0.140936  0.295443  0.565886  1
  F  F6  1  0.237188  0.654346  0.938641  1
  F  F7  1  0.374141  0.497142  0.209903  1
  F  F8  1  0.349312  0.226643  0.934545  1
  F  F9  1  0.284120  0.854605  0.567786  1
  F  F10  1  0.715880  0.145395  0.432214  1
  F  F11  1  0.650688  0.773357  0.065455  1
  F  F12  1  0.625859  0.502858  0.790097  1
  F  F13  1  0.762812  0.345654  0.061359  1
  F  F14  1  0.859064  0.704557  0.434114  1
  F  F15  1  0.133812  0.005792  0.280974  1
