# generated using pymatgen
data_Er2MgCo8TcP6
_symmetry_space_group_name_H-M   'P 1'
_cell_length_a   3.68937600
_cell_length_b   10.38244800
_cell_length_c   11.84938600
_cell_angle_alpha   90.00000000
_cell_angle_beta   90.00000000
_cell_angle_gamma   90.00000000
_symmetry_Int_Tables_number   1
_chemical_formula_structural   Er2MgCo8TcP6
_chemical_formula_sum   'Er4 Mg2 Co16 Tc2 P12'
_cell_volume   453.88782138
_cell_formula_units_Z   2
loop_
 _symmetry_equiv_pos_site_id
 _symmetry_equiv_pos_as_xyz
  1  'x, y, z'
loop_
 _atom_site_type_symbol
 _atom_site_label
 _atom_site_symmetry_multiplicity
 _atom_site_fract_x
 _atom_site_fract_y
 _atom_site_fract_z
 _atom_site_occupancy
  Er  Er0  1  0.250000  0.583906  0.704738  1
  Er  Er1  1  0.250000  0.916094  0.204738  1
  Er  Er2  1  0.750000  0.419118  0.296176  1
  Er  Er3  1  0.750000  0.080882  0.796176  1
  Mg  Mg4  1  0.750000  0.295942  0.010825  1
  Mg  Mg5  1  0.750000  0.204058  0.510825  1
  Co  Co6  1  0.250000  0.410499  0.486250  1
  Co  Co7  1  0.250000  0.089501  0.986250  1
  Co  Co8  1  0.750000  0.595789  0.510710  1
  Co  Co9  1  0.750000  0.904211  0.010710  1
  Co  Co10  1  0.250000  0.219220  0.173785  1
  Co  Co11  1  0.250000  0.280780  0.673785  1
  Co  Co12  1  0.750000  0.776887  0.822854  1
  Co  Co13  1  0.750000  0.723113  0.322854  1
  Co  Co14  1  0.250000  0.883523  0.702494  1
  Co  Co15  1  0.250000  0.616477  0.202494  1
  Co  Co16  1  0.750000  0.113488  0.299529  1
  Co  Co17  1  0.750000  0.386512  0.799529  1
  Co  Co18  1  0.250000  0.465271  0.934036  1
  Co  Co19  1  0.250000  0.034729  0.434036  1
  Co  Co20  1  0.750000  0.537592  0.069996  1
  Co  Co21  1  0.750000  0.962408  0.569996  1
  Tc  Tc22  1  0.250000  0.709370  0.990058  1
  Tc  Tc23  1  0.250000  0.790630  0.490058  1
  P  P24  1  0.250000  0.423324  0.118627  1
  P  P25  1  0.250000  0.076676  0.618627  1
  P  P26  1  0.750000  0.579044  0.887183  1
  P  P27  1  0.750000  0.920956  0.387183  1
  P  P28  1  0.250000  0.270833  0.858065  1
  P  P29  1  0.250000  0.229167  0.358065  1
  P  P30  1  0.750000  0.732798  0.133575  1
  P  P31  1  0.750000  0.767202  0.633575  1
  P  P32  1  0.250000  0.597918  0.391400  1
  P  P33  1  0.250000  0.902082  0.891400  1
  P  P34  1  0.750000  0.408795  0.609701  1
  P  P35  1  0.750000  0.091205  0.109701  1
