# generated using pymatgen
data_Na2Li2Sc3P12Ir17
_symmetry_space_group_name_H-M   'P 1'
_cell_length_a   12.69369921
_cell_length_b   12.69369956
_cell_length_c   3.91315000
_cell_angle_alpha   90.00000000
_cell_angle_beta   90.00000000
_cell_angle_gamma   120.61312596
_symmetry_Int_Tables_number   1
_chemical_formula_structural   Na2Li2Sc3P12Ir17
_chemical_formula_sum   'Na2 Li2 Sc3 P12 Ir17'
_cell_volume   542.64657575
_cell_formula_units_Z   1
loop_
 _symmetry_equiv_pos_site_id
 _symmetry_equiv_pos_as_xyz
  1  'x, y, z'
loop_
 _atom_site_type_symbol
 _atom_site_label
 _atom_site_symmetry_multiplicity
 _atom_site_fract_x
 _atom_site_fract_y
 _atom_site_fract_z
 _atom_site_occupancy
  Na  Na0  1  0.813772  0.998988  0.500000  1
  Na  Na1  1  0.998988  0.813772  0.500000  1
  Li  Li2  1  0.443951  0.001536  0.000000  1
  Li  Li3  1  0.001536  0.443951  0.000000  1
  Sc  Sc4  1  0.327726  0.665002  0.000000  1
  Sc  Sc5  1  0.665002  0.327726  0.000000  1
  Sc  Sc6  1  0.185367  0.185367  0.500000  1
  P  P7  1  0.181260  0.003223  0.000000  1
  P  P8  1  0.003223  0.181260  0.000000  1
  P  P9  1  0.822399  0.822399  0.000000  1
  P  P10  1  0.172812  0.487812  0.500000  1
  P  P11  1  0.517517  0.694263  0.500000  1
  P  P12  1  0.308307  0.828697  0.500000  1
  P  P13  1  0.694263  0.517517  0.500000  1
  P  P14  1  0.828697  0.308307  0.500000  1
  P  P15  1  0.487812  0.172812  0.500000  1
  P  P16  1  0.631224  0.999773  0.000000  1
  P  P17  1  0.999773  0.631224  0.000000  1
  P  P18  1  0.359413  0.359413  0.000000  1
  Ir  Ir19  1  0.541182  0.541182  0.000000  1
  Ir  Ir20  1  0.362934  0.499574  0.500000  1
  Ir  Ir21  1  0.501400  0.866039  0.500000  1
  Ir  Ir22  1  0.129172  0.639666  0.500000  1
  Ir  Ir23  1  0.866039  0.501400  0.500000  1
  Ir  Ir24  1  0.639666  0.129172  0.500000  1
  Ir  Ir25  1  0.499574  0.362934  0.500000  1
  Ir  Ir26  1  0.186105  0.376162  0.000000  1
  Ir  Ir27  1  0.622010  0.804070  0.000000  1
  Ir  Ir28  1  0.197755  0.822186  0.000000  1
  Ir  Ir29  1  0.804070  0.622010  0.000000  1
  Ir  Ir30  1  0.822186  0.197755  0.000000  1
  Ir  Ir31  1  0.376162  0.186105  0.000000  1
  Ir  Ir32  1  0.282263  0.004835  0.500000  1
  Ir  Ir33  1  0.004835  0.282263  0.500000  1
  Ir  Ir34  1  0.713246  0.713246  0.500000  1
  Ir  Ir35  1  0.008362  0.008362  0.000000  1
