# generated using pymatgen
data_LiLaHgPd3
_symmetry_space_group_name_H-M   'P 1'
_cell_length_a   5.56739158
_cell_length_b   5.56739088
_cell_length_c   5.30725042
_cell_angle_alpha   58.36487097
_cell_angle_beta   58.36487710
_cell_angle_gamma   60.00000897
_symmetry_Int_Tables_number   1
_chemical_formula_structural   LiLaHgPd3
_chemical_formula_sum   'Li1 La1 Hg1 Pd3'
_cell_volume   113.36271468
_cell_formula_units_Z   1
loop_
 _symmetry_equiv_pos_site_id
 _symmetry_equiv_pos_as_xyz
  1  'x, y, z'
loop_
 _atom_site_type_symbol
 _atom_site_label
 _atom_site_symmetry_multiplicity
 _atom_site_fract_x
 _atom_site_fract_y
 _atom_site_fract_z
 _atom_site_occupancy
  Li  Li0  1  0.627567  0.627567  0.117298  1
  La  La1  1  0.248297  0.248297  0.255108  1
  Hg  Hg2  1  0.996886  0.996886  0.009341  1
  Pd  Pd3  1  0.626290  0.124668  0.622751  1
  Pd  Pd4  1  0.124668  0.626290  0.622751  1
  Pd  Pd5  1  0.626290  0.626290  0.622751  1
