# generated using pymatgen
data_Li4Dy2HoSn4
_symmetry_space_group_name_H-M   'P 1'
_cell_length_a   8.61598904
_cell_length_b   8.61598925
_cell_length_c   8.61598973
_cell_angle_alpha   149.08043277
_cell_angle_beta   131.25054034
_cell_angle_gamma   58.85255189
_symmetry_Int_Tables_number   1
_chemical_formula_structural   Li4Dy2HoSn4
_chemical_formula_sum   'Li4 Dy2 Ho1 Sn4'
_cell_volume   245.14519608
_cell_formula_units_Z   1
loop_
 _symmetry_equiv_pos_site_id
 _symmetry_equiv_pos_as_xyz
  1  'x, y, z'
loop_
 _atom_site_type_symbol
 _atom_site_label
 _atom_site_symmetry_multiplicity
 _atom_site_fract_x
 _atom_site_fract_y
 _atom_site_fract_z
 _atom_site_occupancy
  Li  Li0  1  0.982090  0.673641  0.308447  1
  Li  Li1  1  0.017910  0.326359  0.691553  1
  Li  Li2  1  0.365194  0.673641  0.691553  1
  Li  Li3  1  0.634806  0.326359  0.308447  1
  Dy  Dy4  1  0.372214  0.872214  0.500000  1
  Dy  Dy5  1  0.627786  0.127786  0.500000  1
  Ho  Ho6  1  0.000000  0.000000  0.000000  1
  Sn  Sn7  1  0.702317  0.500000  0.202317  1
  Sn  Sn8  1  0.297683  0.500000  0.797683  1
  Sn  Sn9  1  0.213799  0.213799  0.000000  1
  Sn  Sn10  1  0.786201  0.786201  0.000000  1
