# generated using pymatgen
data_Nd2YCd(Ir2O7)2
_symmetry_space_group_name_H-M   'P 1'
_cell_length_a   7.25252826
_cell_length_b   7.26288094
_cell_length_c   7.26288150
_cell_angle_alpha   61.35880846
_cell_angle_beta   61.15930484
_cell_angle_gamma   61.15931038
_symmetry_Int_Tables_number   1
_chemical_formula_structural   Nd2YCd(Ir2O7)2
_chemical_formula_sum   'Nd2 Y1 Cd1 Ir4 O14'
_cell_volume   277.97118552
_cell_formula_units_Z   1
loop_
 _symmetry_equiv_pos_site_id
 _symmetry_equiv_pos_as_xyz
  1  'x, y, z'
loop_
 _atom_site_type_symbol
 _atom_site_label
 _atom_site_symmetry_multiplicity
 _atom_site_fract_x
 _atom_site_fract_y
 _atom_site_fract_z
 _atom_site_occupancy
  Nd  Nd0  1  0.125000  0.625000  0.125000  1
  Nd  Nd1  1  0.125000  0.125000  0.625000  1
  Y  Y2  1  0.625000  0.125000  0.125000  1
  Cd  Cd3  1  0.125000  0.125000  0.125000  1
  Ir  Ir4  1  0.125000  0.625000  0.625000  1
  Ir  Ir5  1  0.625000  0.125000  0.625000  1
  Ir  Ir6  1  0.625000  0.625000  0.125000  1
  Ir  Ir7  1  0.625000  0.625000  0.625000  1
  O  O8  1  0.703567  0.714906  0.292562  1
  O  O9  1  0.299200  0.298602  0.700423  1
  O  O10  1  0.703567  0.292562  0.714906  1
  O  O11  1  0.299200  0.700423  0.298602  1
  O  O12  1  0.292889  0.709101  0.709101  1
  O  O13  1  0.693650  0.298041  0.298041  1
  O  O14  1  0.546433  0.535094  0.957438  1
  O  O15  1  0.950800  0.951398  0.549577  1
  O  O16  1  0.546433  0.957438  0.535094  1
  O  O17  1  0.950800  0.549577  0.951398  1
  O  O18  1  0.957111  0.540899  0.540899  1
  O  O19  1  0.556350  0.951959  0.951959  1
  O  O20  1  0.258020  0.243620  0.243620  1
  O  O21  1  0.991980  0.006380  0.006380  1
