# generated using pymatgen
data_DyHo7Ti11Si16Mo
_symmetry_space_group_name_H-M   'P 1'
_cell_length_a   7.02708516
_cell_length_b   7.02667085
_cell_length_c   12.91420103
_cell_angle_alpha   90.01956890
_cell_angle_beta   89.96890986
_cell_angle_gamma   89.93540874
_symmetry_Int_Tables_number   1
_chemical_formula_structural   DyHo7Ti11Si16Mo
_chemical_formula_sum   'Dy1 Ho7 Ti11 Si16 Mo1'
_cell_volume   637.66415416
_cell_formula_units_Z   1
loop_
 _symmetry_equiv_pos_site_id
 _symmetry_equiv_pos_as_xyz
  1  'x, y, z'
loop_
 _atom_site_type_symbol
 _atom_site_label
 _atom_site_symmetry_multiplicity
 _atom_site_fract_x
 _atom_site_fract_y
 _atom_site_fract_z
 _atom_site_occupancy
  Dy  Dy0  1  0.341589  0.001459  0.467200  1
  Ho  Ho1  1  0.997187  0.659628  0.032978  1
  Ho  Ho2  1  0.001035  0.341927  0.532826  1
  Ho  Ho3  1  0.659608  0.997149  0.967116  1
  Ho  Ho4  1  0.160220  0.502564  0.782558  1
  Ho  Ho5  1  0.840192  0.499310  0.284635  1
  Ho  Ho6  1  0.502565  0.160220  0.217390  1
  Ho  Ho7  1  0.499326  0.840141  0.715429  1
  Ti  Ti8  1  0.348249  0.507937  0.375298  1
  Ti  Ti9  1  0.846073  0.990960  0.376867  1
  Ti  Ti10  1  0.007628  0.152087  0.123949  1
  Ti  Ti11  1  0.990897  0.846128  0.623139  1
  Ti  Ti12  1  0.508025  0.348342  0.624726  1
  Ti  Ti13  1  0.152063  0.007687  0.876059  1
  Ti  Ti14  1  0.825998  0.172641  0.749513  1
  Ti  Ti15  1  0.172581  0.825968  0.250415  1
  Ti  Ti16  1  0.326994  0.327021  0.000000  1
  Ti  Ti17  1  0.492844  0.651476  0.126588  1
  Ti  Ti18  1  0.651522  0.492854  0.873389  1
  Si  Si19  1  0.046392  0.708700  0.435106  1
  Si  Si20  1  0.952980  0.291662  0.934910  1
  Si  Si21  1  0.709388  0.046719  0.564983  1
  Si  Si22  1  0.207851  0.453788  0.185078  1
  Si  Si23  1  0.791797  0.547078  0.684423  1
  Si  Si24  1  0.453725  0.207876  0.814927  1
  Si  Si25  1  0.547362  0.791567  0.315375  1
  Si  Si26  1  0.291657  0.952958  0.065096  1
  Si  Si27  1  0.797905  0.869753  0.184560  1
  Si  Si28  1  0.298806  0.629117  0.565777  1
  Si  Si29  1  0.702392  0.369786  0.065718  1
  Si  Si30  1  0.629782  0.299134  0.434323  1
  Si  Si31  1  0.369765  0.702385  0.934282  1
  Si  Si32  1  0.129795  0.202514  0.315423  1
  Si  Si33  1  0.202205  0.130087  0.684475  1
  Si  Si34  1  0.869794  0.797889  0.815444  1
  Mo  Mo35  1  0.673805  0.673484  0.500026  1
