# generated using pymatgen
data_La9Nd7Cd4IrPt3
_symmetry_space_group_name_H-M   'P 1'
_cell_length_a   10.13703892
_cell_length_b   10.11467025
_cell_length_c   10.10544200
_cell_angle_alpha   60.03018267
_cell_angle_beta   60.10306183
_cell_angle_gamma   60.30134480
_symmetry_Int_Tables_number   1
_chemical_formula_structural   La9Nd7Cd4IrPt3
_chemical_formula_sum   'La9 Nd7 Cd4 Ir1 Pt3'
_cell_volume   735.05650294
_cell_formula_units_Z   1
loop_
 _symmetry_equiv_pos_site_id
 _symmetry_equiv_pos_as_xyz
  1  'x, y, z'
loop_
 _atom_site_type_symbol
 _atom_site_label
 _atom_site_symmetry_multiplicity
 _atom_site_fract_x
 _atom_site_fract_y
 _atom_site_fract_z
 _atom_site_occupancy
  La  La0  1  0.351596  0.347224  0.346974  1
  La  La1  1  0.351596  0.347224  0.954205  1
  La  La2  1  0.353640  0.952621  0.346870  1
  La  La3  1  0.946744  0.352270  0.350493  1
  La  La4  1  0.804720  0.189984  0.191813  1
  La  La5  1  0.192470  0.807323  0.807658  1
  La  La6  1  0.192470  0.807323  0.192549  1
  La  La7  1  0.804720  0.189984  0.813483  1
  La  La8  1  0.193437  0.192109  0.807227  1
  Nd  Nd9  1  0.804985  0.811005  0.192005  1
  Nd  Nd10  1  0.936403  0.565108  0.565017  1
  Nd  Nd11  1  0.566833  0.935280  0.934507  1
  Nd  Nd12  1  0.566833  0.935280  0.563380  1
  Nd  Nd13  1  0.936403  0.565108  0.933473  1
  Nd  Nd14  1  0.566612  0.563414  0.934987  1
  Nd  Nd15  1  0.936152  0.933913  0.564968  1
  Cd  Cd16  1  0.580587  0.581212  0.580092  1
  Cd  Cd17  1  0.580587  0.581212  0.258109  1
  Cd  Cd18  1  0.580301  0.257940  0.580879  1
  Cd  Cd19  1  0.258804  0.580465  0.580365  1
  Ir  Ir20  1  0.572684  0.144009  0.141654  1
  Pt  Pt21  1  0.140352  0.143378  0.143525  1
  Pt  Pt22  1  0.140352  0.143378  0.572745  1
  Pt  Pt23  1  0.140723  0.573236  0.143020  1
