# generated using pymatgen
data_Cs4Zr6FeCl18
_symmetry_space_group_name_H-M   'P 1'
_cell_length_a   10.44811914
_cell_length_b   10.77317933
_cell_length_c   10.86708120
_cell_angle_alpha   118.31044850
_cell_angle_beta   100.44765482
_cell_angle_gamma   104.27491980
_symmetry_Int_Tables_number   1
_chemical_formula_structural   Cs4Zr6FeCl18
_chemical_formula_sum   'Cs4 Zr6 Fe1 Cl18'
_cell_volume   977.78598129
_cell_formula_units_Z   1
loop_
 _symmetry_equiv_pos_site_id
 _symmetry_equiv_pos_as_xyz
  1  'x, y, z'
loop_
 _atom_site_type_symbol
 _atom_site_label
 _atom_site_symmetry_multiplicity
 _atom_site_fract_x
 _atom_site_fract_y
 _atom_site_fract_z
 _atom_site_occupancy
  Cs  Cs0  1  0.664113  0.538643  0.231003  1
  Cs  Cs1  1  0.335887  0.461357  0.768997  1
  Cs  Cs2  1  0.697999  0.227964  0.565160  1
  Cs  Cs3  1  0.302001  0.772036  0.434840  1
  Zr  Zr4  1  0.155287  0.058678  0.234586  1
  Zr  Zr5  1  0.844713  0.941322  0.765414  1
  Zr  Zr6  1  0.856141  0.124634  0.131296  1
  Zr  Zr7  1  0.143859  0.875366  0.868704  1
  Zr  Zr8  1  0.149148  0.242917  0.046155  1
  Zr  Zr9  1  0.850852  0.757083  0.953845  1
  Fe  Fe10  1  0.000000  0.000000  0.000000  1
  Cl  Cl11  1  0.006966  0.390262  0.187242  1
  Cl  Cl12  1  0.993034  0.609738  0.812758  1
  Cl  Cl13  1  0.319760  0.322334  0.300050  1
  Cl  Cl14  1  0.680240  0.677666  0.699950  1
  Cl  Cl15  1  0.314310  0.505391  0.099072  1
  Cl  Cl16  1  0.685690  0.494609  0.900928  1
  Cl  Cl17  1  0.004429  0.805029  0.200984  1
  Cl  Cl18  1  0.995571  0.194971  0.799016  1
  Cl  Cl19  1  0.708852  0.260475  0.273867  1
  Cl  Cl20  1  0.291148  0.739525  0.726133  1
  Cl  Cl21  1  0.307757  0.125870  0.909150  1
  Cl  Cl22  1  0.692243  0.874130  0.090850  1
  Cl  Cl23  1  0.013986  0.194667  0.389160  1
  Cl  Cl24  1  0.986014  0.805333  0.610840  1
  Cl  Cl25  1  0.311566  0.927514  0.108803  1
  Cl  Cl26  1  0.688434  0.072486  0.891197  1
  Cl  Cl27  1  0.326481  0.120282  0.485905  1
  Cl  Cl28  1  0.673519  0.879718  0.514095  1
