# generated using pymatgen
data_Tb2Tm8(SnSb)3
_symmetry_space_group_name_H-M   'P 1'
_cell_length_a   8.89487600
_cell_length_b   8.87504708
_cell_length_c   6.36392100
_cell_angle_alpha   90.00000000
_cell_angle_beta   90.00000000
_cell_angle_gamma   120.07394285
_symmetry_Int_Tables_number   1
_chemical_formula_structural   Tb2Tm8(SnSb)3
_chemical_formula_sum   'Tb2 Tm8 Sn3 Sb3'
_cell_volume   434.75231272
_cell_formula_units_Z   1
loop_
 _symmetry_equiv_pos_site_id
 _symmetry_equiv_pos_as_xyz
  1  'x, y, z'
loop_
 _atom_site_type_symbol
 _atom_site_label
 _atom_site_symmetry_multiplicity
 _atom_site_fract_x
 _atom_site_fract_y
 _atom_site_fract_z
 _atom_site_occupancy
  Tb  Tb0  1  0.999745  0.757959  0.000000  1
  Tb  Tb1  1  0.241786  0.242041  0.000000  1
  Tm  Tm2  1  0.757680  0.000000  0.000000  1
  Tm  Tm3  1  0.241664  0.000000  0.500000  1
  Tm  Tm4  1  0.999829  0.240956  0.500000  1
  Tm  Tm5  1  0.758872  0.759044  0.500000  1
  Tm  Tm6  1  0.333161  0.666337  0.249214  1
  Tm  Tm7  1  0.666824  0.333663  0.249214  1
  Tm  Tm8  1  0.666824  0.333663  0.750786  1
  Tm  Tm9  1  0.333161  0.666337  0.750786  1
  Sn  Sn10  1  0.607783  0.000000  0.500000  1
  Sn  Sn11  1  0.000446  0.608495  0.500000  1
  Sn  Sn12  1  0.391951  0.391505  0.500000  1
  Sb  Sb13  1  0.394136  0.000000  0.000000  1
  Sb  Sb14  1  0.998290  0.390443  0.000000  1
  Sb  Sb15  1  0.607848  0.609557  0.000000  1
