# generated using pymatgen
data_DyAl10TcIr
_symmetry_space_group_name_H-M   'P 1'
_cell_length_a   6.86574190
_cell_length_b   6.86574155
_cell_length_c   9.18068676
_cell_angle_alpha   90.40332461
_cell_angle_beta   90.40331377
_cell_angle_gamma   96.63526885
_symmetry_Int_Tables_number   1
_chemical_formula_structural   DyAl10TcIr
_chemical_formula_sum   'Dy2 Al20 Tc2 Ir2'
_cell_volume   429.84016653
_cell_formula_units_Z   2
loop_
 _symmetry_equiv_pos_site_id
 _symmetry_equiv_pos_as_xyz
  1  'x, y, z'
loop_
 _atom_site_type_symbol
 _atom_site_label
 _atom_site_symmetry_multiplicity
 _atom_site_fract_x
 _atom_site_fract_y
 _atom_site_fract_z
 _atom_site_occupancy
  Dy  Dy0  1  0.872261  0.127739  0.750000  1
  Dy  Dy1  1  0.127739  0.872261  0.250000  1
  Al  Al2  1  0.620732  0.375432  0.549625  1
  Al  Al3  1  0.379268  0.624568  0.450375  1
  Al  Al4  1  0.375432  0.620732  0.049625  1
  Al  Al5  1  0.624568  0.379268  0.950375  1
  Al  Al6  1  0.226082  0.223591  0.496526  1
  Al  Al7  1  0.773918  0.776409  0.503474  1
  Al  Al8  1  0.776409  0.773918  0.003474  1
  Al  Al9  1  0.223591  0.226082  0.996526  1
  Al  Al10  1  0.846328  0.158738  0.100387  1
  Al  Al11  1  0.153672  0.841262  0.899613  1
  Al  Al12  1  0.158738  0.846328  0.600387  1
  Al  Al13  1  0.841262  0.153672  0.399613  1
  Al  Al14  1  0.858203  0.587377  0.751591  1
  Al  Al15  1  0.141797  0.412623  0.248409  1
  Al  Al16  1  0.412623  0.141797  0.748409  1
  Al  Al17  1  0.587377  0.858203  0.251591  1
  Al  Al18  1  0.221988  0.479700  0.753866  1
  Al  Al19  1  0.778012  0.520300  0.246134  1
  Al  Al20  1  0.520300  0.778012  0.746134  1
  Al  Al21  1  0.479700  0.221988  0.253866  1
  Tc  Tc22  1  0.000000  0.500000  0.000000  1
  Tc  Tc23  1  0.500000  0.000000  0.500000  1
  Ir  Ir24  1  0.000000  0.500000  0.500000  1
  Ir  Ir25  1  0.500000  0.000000  0.000000  1
