# generated using pymatgen
data_Ce5Mo3(P3Ru4)4
_symmetry_space_group_name_H-M   'P 1'
_cell_length_a   12.70737300
_cell_length_b   12.70737339
_cell_length_c   3.97183600
_cell_angle_alpha   90.00000000
_cell_angle_beta   90.00000000
_cell_angle_gamma   120.00000158
_symmetry_Int_Tables_number   1
_chemical_formula_structural   Ce5Mo3(P3Ru4)4
_chemical_formula_sum   'Ce5 Mo3 P12 Ru16'
_cell_volume   555.43533164
_cell_formula_units_Z   1
loop_
 _symmetry_equiv_pos_site_id
 _symmetry_equiv_pos_as_xyz
  1  'x, y, z'
loop_
 _atom_site_type_symbol
 _atom_site_label
 _atom_site_symmetry_multiplicity
 _atom_site_fract_x
 _atom_site_fract_y
 _atom_site_fract_z
 _atom_site_occupancy
  Ce  Ce0  1  0.186107  0.186107  0.500000  1
  Ce  Ce1  1  0.813893  0.000000  0.500000  1
  Ce  Ce2  1  0.000000  0.813893  0.500000  1
  Ce  Ce3  1  0.333333  0.666667  0.000000  1
  Ce  Ce4  1  0.666667  0.333333  0.000000  1
  Mo  Mo5  1  0.560609  0.560609  0.000000  1
  Mo  Mo6  1  0.439391  0.000000  0.000000  1
  Mo  Mo7  1  0.000000  0.439391  0.000000  1
  P  P8  1  0.815891  0.815891  0.000000  1
  P  P9  1  0.184109  0.000000  0.000000  1
  P  P10  1  0.000000  0.184109  0.000000  1
  P  P11  1  0.166254  0.476038  0.500000  1
  P  P12  1  0.523962  0.690216  0.500000  1
  P  P13  1  0.309784  0.833746  0.500000  1
  P  P14  1  0.690216  0.523962  0.500000  1
  P  P15  1  0.833746  0.309784  0.500000  1
  P  P16  1  0.476038  0.166254  0.500000  1
  P  P17  1  0.372645  0.372645  0.000000  1
  P  P18  1  0.627355  0.000000  0.000000  1
  P  P19  1  0.000000  0.627355  0.000000  1
  Ru  Ru20  1  0.720023  0.720023  0.500000  1
  Ru  Ru21  1  0.279977  0.000000  0.500000  1
  Ru  Ru22  1  0.000000  0.279977  0.500000  1
  Ru  Ru23  1  0.183197  0.374985  0.000000  1
  Ru  Ru24  1  0.625015  0.808212  0.000000  1
  Ru  Ru25  1  0.191788  0.816803  0.000000  1
  Ru  Ru26  1  0.808212  0.625015  0.000000  1
  Ru  Ru27  1  0.816803  0.191788  0.000000  1
  Ru  Ru28  1  0.374985  0.183197  0.000000  1
  Ru  Ru29  1  0.362127  0.489741  0.500000  1
  Ru  Ru30  1  0.510259  0.872386  0.500000  1
  Ru  Ru31  1  0.127614  0.637873  0.500000  1
  Ru  Ru32  1  0.872386  0.510259  0.500000  1
  Ru  Ru33  1  0.637873  0.127614  0.500000  1
  Ru  Ru34  1  0.489741  0.362127  0.500000  1
  Ru  Ru35  1  0.000000  0.000000  0.000000  1
