# generated using pymatgen
data_La8MoW3C8
_symmetry_space_group_name_H-M   'P 1'
_cell_length_a   5.83928412
_cell_length_b   5.83928416
_cell_length_c   10.73300000
_cell_angle_alpha   90.00000000
_cell_angle_beta   90.00000000
_cell_angle_gamma   89.91233846
_symmetry_Int_Tables_number   1
_chemical_formula_structural   La8MoW3C8
_chemical_formula_sum   'La8 Mo1 W3 C8'
_cell_volume   365.96524037
_cell_formula_units_Z   1
loop_
 _symmetry_equiv_pos_site_id
 _symmetry_equiv_pos_as_xyz
  1  'x, y, z'
loop_
 _atom_site_type_symbol
 _atom_site_label
 _atom_site_symmetry_multiplicity
 _atom_site_fract_x
 _atom_site_fract_y
 _atom_site_fract_z
 _atom_site_occupancy
  La  La0  1  0.307196  0.692804  0.155843  1
  La  La1  1  0.692568  0.307432  0.843567  1
  La  La2  1  0.807200  0.806009  0.344185  1
  La  La3  1  0.193991  0.192800  0.655815  1
  La  La4  1  0.692568  0.307432  0.156433  1
  La  La5  1  0.307196  0.692804  0.844157  1
  La  La6  1  0.193991  0.192800  0.344185  1
  La  La7  1  0.807200  0.806009  0.655815  1
  Mo  Mo8  1  0.676752  0.323248  0.500000  1
  W  W9  1  0.324600  0.675400  0.500000  1
  W  W10  1  0.823217  0.823865  0.000000  1
  W  W11  1  0.176135  0.176783  0.000000  1
  C  C12  1  0.999849  0.000151  0.861604  1
  C  C13  1  0.498446  0.501554  0.639222  1
  C  C14  1  0.498446  0.501554  0.360778  1
  C  C15  1  0.500100  0.000255  0.000000  1
  C  C16  1  0.498591  0.997637  0.500000  1
  C  C17  1  0.999745  0.499900  0.000000  1
  C  C18  1  0.002363  0.501409  0.500000  1
  C  C19  1  0.999849  0.000151  0.138396  1
