# generated using pymatgen
data_ZrUNb6O12
_symmetry_space_group_name_H-M   'P 1'
_cell_length_a   6.82550852
_cell_length_b   6.82550962
_cell_length_c   6.82550900
_cell_angle_alpha   73.99054602
_cell_angle_beta   73.99053463
_cell_angle_gamma   73.99053379
_symmetry_Int_Tables_number   1
_chemical_formula_structural   ZrUNb6O12
_chemical_formula_sum   'Zr1 U1 Nb6 O12'
_cell_volume   286.84996050
_cell_formula_units_Z   1
loop_
 _symmetry_equiv_pos_site_id
 _symmetry_equiv_pos_as_xyz
  1  'x, y, z'
loop_
 _atom_site_type_symbol
 _atom_site_label
 _atom_site_symmetry_multiplicity
 _atom_site_fract_x
 _atom_site_fract_y
 _atom_site_fract_z
 _atom_site_occupancy
  Zr  Zr0  1  0.276894  0.276894  0.276894  1
  U  U1  1  0.726157  0.726157  0.726157  1
  Nb  Nb2  1  0.949707  0.106728  0.711703  1
  Nb  Nb3  1  0.711703  0.949707  0.106728  1
  Nb  Nb4  1  0.106728  0.711703  0.949707  1
  Nb  Nb5  1  0.057516  0.891100  0.286160  1
  Nb  Nb6  1  0.286160  0.057516  0.891100  1
  Nb  Nb7  1  0.891100  0.286160  0.057516  1
  O  O8  1  0.170508  0.588475  0.253316  1
  O  O9  1  0.253316  0.170508  0.588475  1
  O  O10  1  0.588475  0.253316  0.170508  1
  O  O11  1  0.830228  0.401606  0.749981  1
  O  O12  1  0.749981  0.830228  0.401606  1
  O  O13  1  0.401606  0.749981  0.830228  1
  O  O14  1  0.639159  0.044328  0.799063  1
  O  O15  1  0.799063  0.639159  0.044328  1
  O  O16  1  0.965438  0.194422  0.357512  1
  O  O17  1  0.194422  0.357512  0.965438  1
  O  O18  1  0.357512  0.965438  0.194422  1
  O  O19  1  0.044328  0.799063  0.639159  1
