# generated using pymatgen
data_Eu2Ge4Pd7
_symmetry_space_group_name_H-M   'P 1'
_cell_length_a   4.17116700
_cell_length_b   10.18072100
_cell_length_c   11.45504700
_cell_angle_alpha   90.00000000
_cell_angle_beta   90.00000000
_cell_angle_gamma   90.00000000
_symmetry_Int_Tables_number   1
_chemical_formula_structural   Eu2Ge4Pd7
_chemical_formula_sum   'Eu4 Ge8 Pd14'
_cell_volume   486.44415486
_cell_formula_units_Z   2
loop_
 _symmetry_equiv_pos_site_id
 _symmetry_equiv_pos_as_xyz
  1  'x, y, z'
loop_
 _atom_site_type_symbol
 _atom_site_label
 _atom_site_symmetry_multiplicity
 _atom_site_fract_x
 _atom_site_fract_y
 _atom_site_fract_z
 _atom_site_occupancy
  Eu  Eu0  1  0.000000  0.440680  0.518366  1
  Eu  Eu1  1  0.500000  0.559320  0.018366  1
  Eu  Eu2  1  0.000000  0.052014  0.743925  1
  Eu  Eu3  1  0.500000  0.947986  0.243925  1
  Ge  Ge4  1  0.000000  0.691207  0.194644  1
  Ge  Ge5  1  0.500000  0.308793  0.694644  1
  Ge  Ge6  1  0.000000  0.020816  0.465685  1
  Ge  Ge7  1  0.500000  0.979184  0.965685  1
  Ge  Ge8  1  0.000000  0.320591  0.017191  1
  Ge  Ge9  1  0.500000  0.679409  0.517191  1
  Ge  Ge10  1  0.000000  0.651184  0.833956  1
  Ge  Ge11  1  0.500000  0.348816  0.333956  1
  Pd  Pd12  1  0.000000  0.774809  0.399533  1
  Pd  Pd13  1  0.500000  0.225191  0.899533  1
  Pd  Pd14  1  0.000000  0.749468  0.641435  1
  Pd  Pd15  1  0.500000  0.250532  0.141435  1
  Pd  Pd16  1  0.000000  0.814513  0.001680  1
  Pd  Pd17  1  0.500000  0.185487  0.501680  1
  Pd  Pd18  1  0.000000  0.440428  0.214201  1
  Pd  Pd19  1  0.500000  0.559572  0.714201  1
  Pd  Pd20  1  0.000000  0.398223  0.807761  1
  Pd  Pd21  1  0.500000  0.601777  0.307761  1
  Pd  Pd22  1  0.000000  0.187863  0.311346  1
  Pd  Pd23  1  0.500000  0.812137  0.811346  1
  Pd  Pd24  1  0.000000  0.083314  0.055076  1
  Pd  Pd25  1  0.500000  0.916686  0.555076  1
