# generated using pymatgen
data_Y5Ga2Pb
_symmetry_space_group_name_H-M   'P 1'
_cell_length_a   7.89726700
_cell_length_b   7.89726700
_cell_length_c   13.95677200
_cell_angle_alpha   90.00000000
_cell_angle_beta   90.00000000
_cell_angle_gamma   90.00000000
_symmetry_Int_Tables_number   1
_chemical_formula_structural   Y5Ga2Pb
_chemical_formula_sum   'Y20 Ga8 Pb4'
_cell_volume   870.43957181
_cell_formula_units_Z   4
loop_
 _symmetry_equiv_pos_site_id
 _symmetry_equiv_pos_as_xyz
  1  'x, y, z'
loop_
 _atom_site_type_symbol
 _atom_site_label
 _atom_site_symmetry_multiplicity
 _atom_site_fract_x
 _atom_site_fract_y
 _atom_site_fract_z
 _atom_site_occupancy
  Y  Y0  1  0.838667  0.836872  0.891717  1
  Y  Y1  1  0.163128  0.161333  0.608283  1
  Y  Y2  1  0.838667  0.163128  0.391717  1
  Y  Y3  1  0.161333  0.836872  0.391717  1
  Y  Y4  1  0.336872  0.338667  0.391717  1
  Y  Y5  1  0.836872  0.161333  0.108283  1
  Y  Y6  1  0.336872  0.661333  0.891717  1
  Y  Y7  1  0.163128  0.838667  0.108283  1
  Y  Y8  1  0.500000  0.000000  0.752071  1
  Y  Y9  1  0.000000  0.500000  0.247929  1
  Y  Y10  1  0.338667  0.663128  0.608283  1
  Y  Y11  1  0.661333  0.663128  0.108283  1
  Y  Y12  1  0.661333  0.336872  0.608283  1
  Y  Y13  1  0.000000  0.500000  0.747929  1
  Y  Y14  1  0.836872  0.838667  0.608283  1
  Y  Y15  1  0.663128  0.338667  0.891717  1
  Y  Y16  1  0.161333  0.163128  0.891717  1
  Y  Y17  1  0.500000  0.000000  0.252071  1
  Y  Y18  1  0.663128  0.661333  0.391717  1
  Y  Y19  1  0.338667  0.336872  0.108283  1
  Ga  Ga20  1  0.632122  0.367878  0.250000  1
  Ga  Ga21  1  0.367878  0.632122  0.250000  1
  Ga  Ga22  1  0.132122  0.132122  0.250000  1
  Ga  Ga23  1  0.367878  0.367878  0.750000  1
  Ga  Ga24  1  0.132122  0.867878  0.750000  1
  Ga  Ga25  1  0.867878  0.867878  0.250000  1
  Ga  Ga26  1  0.632122  0.632122  0.750000  1
  Ga  Ga27  1  0.867878  0.132122  0.750000  1
  Pb  Pb28  1  0.000000  0.500000  0.999764  1
  Pb  Pb29  1  0.500000  0.000000  0.000236  1
  Pb  Pb30  1  0.500000  0.000000  0.500236  1
  Pb  Pb31  1  0.000000  0.500000  0.499764  1
