# generated using pymatgen
data_Ti8Mo3Ir4Os
_symmetry_space_group_name_H-M   'P 1'
_cell_length_a   6.22226600
_cell_length_b   4.41528000
_cell_length_c   8.84068300
_cell_angle_alpha   90.00000000
_cell_angle_beta   89.99962789
_cell_angle_gamma   90.00000000
_symmetry_Int_Tables_number   1
_chemical_formula_structural   Ti8Mo3Ir4Os
_chemical_formula_sum   'Ti8 Mo3 Ir4 Os1'
_cell_volume   242.88049625
_cell_formula_units_Z   1
loop_
 _symmetry_equiv_pos_site_id
 _symmetry_equiv_pos_as_xyz
  1  'x, y, z'
loop_
 _atom_site_type_symbol
 _atom_site_label
 _atom_site_symmetry_multiplicity
 _atom_site_fract_x
 _atom_site_fract_y
 _atom_site_fract_z
 _atom_site_occupancy
  Ti  Ti0  1  0.001223  0.749999  0.125004  1
  Ti  Ti1  1  0.498748  0.749999  0.124999  1
  Ti  Ti2  1  0.000252  0.249999  0.375556  1
  Ti  Ti3  1  0.499748  0.249999  0.375554  1
  Ti  Ti4  1  0.499688  0.749999  0.625005  1
  Ti  Ti5  1  0.000314  0.749999  0.625004  1
  Ti  Ti6  1  0.499756  0.249999  0.874433  1
  Ti  Ti7  1  0.000266  0.249999  0.874438  1
  Mo  Mo8  1  0.250002  0.749999  0.373491  1
  Mo  Mo9  1  0.749993  0.249999  0.625018  1
  Mo  Mo10  1  0.250024  0.749999  0.876525  1
  Ir  Ir11  1  0.250005  0.249999  0.124993  1
  Ir  Ir12  1  0.749981  0.749999  0.373523  1
  Ir  Ir13  1  0.250026  0.249999  0.624999  1
  Ir  Ir14  1  0.749983  0.749999  0.876461  1
  Os  Os15  1  0.749990  0.249999  0.124996  1
