# generated using pymatgen
data_SrYb2CoO5
_symmetry_space_group_name_H-M   'P 1'
_cell_length_a   11.85875800
_cell_length_b   5.58551600
_cell_length_c   6.98088700
_cell_angle_alpha   90.00000000
_cell_angle_beta   90.00000000
_cell_angle_gamma   90.00000000
_symmetry_Int_Tables_number   1
_chemical_formula_structural   SrYb2CoO5
_chemical_formula_sum   'Sr4 Yb8 Co4 O20'
_cell_volume   462.39498466
_cell_formula_units_Z   4
loop_
 _symmetry_equiv_pos_site_id
 _symmetry_equiv_pos_as_xyz
  1  'x, y, z'
loop_
 _atom_site_type_symbol
 _atom_site_label
 _atom_site_symmetry_multiplicity
 _atom_site_fract_x
 _atom_site_fract_y
 _atom_site_fract_z
 _atom_site_occupancy
  Sr  Sr0  1  0.102432  0.750000  0.080757  1
  Sr  Sr1  1  0.602431  0.750000  0.419243  1
  Sr  Sr2  1  0.397568  0.250000  0.580757  1
  Sr  Sr3  1  0.897569  0.250000  0.919242  1
  Yb  Yb4  1  0.576240  0.250000  0.107187  1
  Yb  Yb5  1  0.299546  0.250000  0.116713  1
  Yb  Yb6  1  0.799546  0.250000  0.383287  1
  Yb  Yb7  1  0.076240  0.250000  0.392813  1
  Yb  Yb8  1  0.923759  0.750000  0.607186  1
  Yb  Yb9  1  0.200455  0.750000  0.616713  1
  Yb  Yb10  1  0.700455  0.750000  0.883288  1
  Yb  Yb11  1  0.423760  0.750000  0.892813  1
  Co  Co12  1  0.847814  0.750000  0.192613  1
  Co  Co13  1  0.347814  0.750000  0.307386  1
  Co  Co14  1  0.652186  0.250000  0.692613  1
  Co  Co15  1  0.152187  0.250000  0.807386  1
  O  O16  1  0.096491  0.250000  0.053644  1
  O  O17  1  0.732275  0.518472  0.160396  1
  O  O18  1  0.732275  0.981529  0.160396  1
  O  O19  1  0.438211  0.523928  0.185501  1
  O  O20  1  0.438211  0.976071  0.185501  1
  O  O21  1  0.938211  0.523928  0.314499  1
  O  O22  1  0.938211  0.976071  0.314499  1
  O  O23  1  0.232275  0.518472  0.339604  1
  O  O24  1  0.232275  0.981529  0.339604  1
  O  O25  1  0.596491  0.250000  0.446356  1
  O  O26  1  0.403508  0.750000  0.553644  1
  O  O27  1  0.767725  0.018471  0.660396  1
  O  O28  1  0.767725  0.481528  0.660396  1
  O  O29  1  0.061789  0.023929  0.685500  1
  O  O30  1  0.061789  0.476072  0.685500  1
  O  O31  1  0.561788  0.023929  0.814499  1
  O  O32  1  0.561788  0.476072  0.814499  1
  O  O33  1  0.267725  0.018471  0.839604  1
  O  O34  1  0.267725  0.481528  0.839604  1
  O  O35  1  0.903508  0.750000  0.946357  1
