# generated using pymatgen
data_PrHo6Th(ReB6)4
_symmetry_space_group_name_H-M   'P 1'
_cell_length_a   3.71447700
_cell_length_b   9.20651992
_cell_length_c   11.62201038
_cell_angle_alpha   90.01087812
_cell_angle_beta   90.00000000
_cell_angle_gamma   90.00000000
_symmetry_Int_Tables_number   1
_chemical_formula_structural   PrHo6Th(ReB6)4
_chemical_formula_sum   'Pr1 Ho6 Th1 Re4 B24'
_cell_volume   397.44260595
_cell_formula_units_Z   1
loop_
 _symmetry_equiv_pos_site_id
 _symmetry_equiv_pos_as_xyz
  1  'x, y, z'
loop_
 _atom_site_type_symbol
 _atom_site_label
 _atom_site_symmetry_multiplicity
 _atom_site_fract_x
 _atom_site_fract_y
 _atom_site_fract_z
 _atom_site_occupancy
  Pr  Pr0  1  0.000000  0.678536  0.587030  1
  Ho  Ho1  1  0.000000  0.823683  0.084941  1
  Ho  Ho2  1  0.000000  0.175852  0.914620  1
  Ho  Ho3  1  0.000000  0.942260  0.368124  1
  Ho  Ho4  1  0.000000  0.056501  0.632226  1
  Ho  Ho5  1  0.000000  0.442989  0.127729  1
  Ho  Ho6  1  0.000000  0.557423  0.871177  1
  Th  Th7  1  0.000000  0.322146  0.413703  1
  Re  Re8  1  0.000000  0.639048  0.318140  1
  Re  Re9  1  0.000000  0.359946  0.681383  1
  Re  Re10  1  0.000000  0.138347  0.178253  1
  Re  Re11  1  0.000000  0.862791  0.822764  1
  B  B12  1  0.500000  0.555103  0.429272  1
  B  B13  1  0.500000  0.444006  0.570382  1
  B  B14  1  0.500000  0.053277  0.066455  1
  B  B15  1  0.500000  0.947212  0.933781  1
  B  B16  1  0.500000  0.750343  0.414437  1
  B  B17  1  0.500000  0.249773  0.585374  1
  B  B18  1  0.500000  0.248556  0.080299  1
  B  B19  1  0.500000  0.751277  0.919508  1
  B  B20  1  0.500000  0.792201  0.263335  1
  B  B21  1  0.500000  0.207639  0.736827  1
  B  B22  1  0.500000  0.290278  0.231755  1
  B  B23  1  0.500000  0.709775  0.768440  1
  B  B24  1  0.500000  0.631586  0.183375  1
  B  B25  1  0.500000  0.368684  0.816316  1
  B  B26  1  0.500000  0.129122  0.311781  1
  B  B27  1  0.500000  0.871306  0.688640  1
  B  B28  1  0.500000  0.982264  0.210345  1
  B  B29  1  0.500000  0.017946  0.789751  1
  B  B30  1  0.500000  0.484912  0.284953  1
  B  B31  1  0.500000  0.515166  0.715290  1
  B  B32  1  0.500000  0.601207  0.027718  1
  B  B33  1  0.500000  0.399027  0.971736  1
  B  B34  1  0.500000  0.096462  0.473040  1
  B  B35  1  0.500000  0.903358  0.527098  1
