# generated using pymatgen
data_Ta4BeCo4AsP2
_symmetry_space_group_name_H-M   'P 1'
_cell_length_a   3.58814700
_cell_length_b   6.13931718
_cell_length_c   7.01367112
_cell_angle_alpha   89.86719124
_cell_angle_beta   90.00000000
_cell_angle_gamma   90.00000000
_symmetry_Int_Tables_number   1
_chemical_formula_structural   Ta4BeCo4AsP2
_chemical_formula_sum   'Ta4 Be1 Co4 As1 P2'
_cell_volume   154.50215051
_cell_formula_units_Z   1
loop_
 _symmetry_equiv_pos_site_id
 _symmetry_equiv_pos_as_xyz
  1  'x, y, z'
loop_
 _atom_site_type_symbol
 _atom_site_label
 _atom_site_symmetry_multiplicity
 _atom_site_fract_x
 _atom_site_fract_y
 _atom_site_fract_z
 _atom_site_occupancy
  Ta  Ta0  1  0.250000  0.029827  0.830028  1
  Ta  Ta1  1  0.250000  0.518851  0.682183  1
  Ta  Ta2  1  0.750000  0.990373  0.168869  1
  Ta  Ta3  1  0.750000  0.459495  0.313198  1
  Be  Be4  1  0.250000  0.274484  0.117386  1
  Co  Co5  1  0.250000  0.151386  0.441154  1
  Co  Co6  1  0.250000  0.638488  0.053300  1
  Co  Co7  1  0.750000  0.857802  0.575726  1
  Co  Co8  1  0.750000  0.358204  0.937835  1
  As  As9  1  0.250000  0.770717  0.374087  1
  P  P10  1  0.750000  0.725154  0.883479  1
  P  P11  1  0.750000  0.225218  0.622755  1
