# generated using pymatgen
data_Ho8Er8Ga6FeCo
_symmetry_space_group_name_H-M   'P 1'
_cell_length_a   9.92074500
_cell_length_b   9.92121459
_cell_length_c   6.90141800
_cell_angle_alpha   90.00254140
_cell_angle_beta   89.99910697
_cell_angle_gamma   120.00115928
_symmetry_Int_Tables_number   1
_chemical_formula_structural   Ho8Er8Ga6FeCo
_chemical_formula_sum   'Ho8 Er8 Ga6 Fe1 Co1'
_cell_volume   588.26501384
_cell_formula_units_Z   1
loop_
 _symmetry_equiv_pos_site_id
 _symmetry_equiv_pos_as_xyz
  1  'x, y, z'
loop_
 _atom_site_type_symbol
 _atom_site_label
 _atom_site_symmetry_multiplicity
 _atom_site_fract_x
 _atom_site_fract_y
 _atom_site_fract_z
 _atom_site_occupancy
  Ho  Ho0  1  0.462726  0.537258  0.207972  1
  Ho  Ho1  1  0.074511  0.537265  0.207983  1
  Ho  Ho2  1  0.462725  0.925477  0.207972  1
  Ho  Ho3  1  0.536073  0.463907  0.707188  1
  Ho  Ho4  1  0.927836  0.463915  0.707185  1
  Ho  Ho5  1  0.536085  0.072166  0.707198  1
  Ho  Ho6  1  0.999991  0.999986  0.231743  1
  Ho  Ho7  1  0.000009  0.999995  0.732649  1
  Er  Er8  1  0.173092  0.826897  0.510314  1
  Er  Er9  1  0.653819  0.826900  0.510303  1
  Er  Er10  1  0.173093  0.346196  0.510340  1
  Er  Er11  1  0.826822  0.173167  0.011565  1
  Er  Er12  1  0.346323  0.173183  0.011534  1
  Er  Er13  1  0.826832  0.653685  0.011577  1
  Er  Er14  1  0.333334  0.666658  0.830015  1
  Er  Er15  1  0.666689  0.333340  0.329249  1
  Ga  Ga16  1  0.163282  0.836697  0.958353  1
  Ga  Ga17  1  0.673449  0.836732  0.958380  1
  Ga  Ga18  1  0.163275  0.326568  0.958394  1
  Ga  Ga19  1  0.836155  0.163861  0.458204  1
  Ga  Ga20  1  0.327711  0.163848  0.458197  1
  Ga  Ga21  1  0.836151  0.672277  0.458186  1
  Fe  Fe22  1  0.333357  0.666679  0.445797  1
  Co  Co23  1  0.666659  0.333341  0.943744  1
