# generated using pymatgen
data_Pr6Dy4Ho6Cd3InIr4
_symmetry_space_group_name_H-M   'P 1'
_cell_length_a   9.76297716
_cell_length_b   9.76297788
_cell_length_c   9.76297700
_cell_angle_alpha   59.99999958
_cell_angle_beta   59.99999717
_cell_angle_gamma   59.99999857
_symmetry_Int_Tables_number   1
_chemical_formula_structural   Pr6Dy4Ho6Cd3InIr4
_chemical_formula_sum   'Pr6 Dy4 Ho6 Cd3 In1 Ir4'
_cell_volume   658.00899672
_cell_formula_units_Z   1
loop_
 _symmetry_equiv_pos_site_id
 _symmetry_equiv_pos_as_xyz
  1  'x, y, z'
loop_
 _atom_site_type_symbol
 _atom_site_label
 _atom_site_symmetry_multiplicity
 _atom_site_fract_x
 _atom_site_fract_y
 _atom_site_fract_z
 _atom_site_occupancy
  Pr  Pr0  1  0.942336  0.558134  0.558134  1
  Pr  Pr1  1  0.558459  0.941723  0.941723  1
  Pr  Pr2  1  0.558134  0.942336  0.558134  1
  Pr  Pr3  1  0.941723  0.558459  0.941723  1
  Pr  Pr4  1  0.558134  0.558134  0.942336  1
  Pr  Pr5  1  0.941723  0.941723  0.558459  1
  Dy  Dy6  1  0.347173  0.347173  0.347173  1
  Dy  Dy7  1  0.347652  0.347652  0.957783  1
  Dy  Dy8  1  0.347652  0.957783  0.347652  1
  Dy  Dy9  1  0.957783  0.347652  0.347652  1
  Ho  Ho10  1  0.813118  0.186759  0.186759  1
  Ho  Ho11  1  0.187786  0.812440  0.812440  1
  Ho  Ho12  1  0.186759  0.813118  0.186759  1
  Ho  Ho13  1  0.812440  0.187786  0.812440  1
  Ho  Ho14  1  0.186759  0.186759  0.813118  1
  Ho  Ho15  1  0.812440  0.812440  0.187786  1
  Cd  Cd16  1  0.578988  0.578988  0.262282  1
  Cd  Cd17  1  0.578988  0.262282  0.578988  1
  Cd  Cd18  1  0.262282  0.578988  0.578988  1
  In  In19  1  0.579476  0.579476  0.579476  1
  Ir  Ir20  1  0.141086  0.141086  0.141086  1
  Ir  Ir21  1  0.141076  0.141076  0.576955  1
  Ir  Ir22  1  0.141076  0.576955  0.141076  1
  Ir  Ir23  1  0.576955  0.141076  0.141076  1
