# generated using pymatgen
data_Sm5Tm3(Si3Rh)4
_symmetry_space_group_name_H-M   'P 1'
_cell_length_a   8.19083200
_cell_length_b   8.19083235
_cell_length_c   8.02663800
_cell_angle_alpha   90.00000000
_cell_angle_beta   90.00000000
_cell_angle_gamma   119.99999857
_symmetry_Int_Tables_number   1
_chemical_formula_structural   Sm5Tm3(Si3Rh)4
_chemical_formula_sum   'Sm5 Tm3 Si12 Rh4'
_cell_volume   466.35900845
_cell_formula_units_Z   1
loop_
 _symmetry_equiv_pos_site_id
 _symmetry_equiv_pos_as_xyz
  1  'x, y, z'
loop_
 _atom_site_type_symbol
 _atom_site_label
 _atom_site_symmetry_multiplicity
 _atom_site_fract_x
 _atom_site_fract_y
 _atom_site_fract_z
 _atom_site_occupancy
  Sm  Sm0  1  0.000000  0.000000  0.250000  1
  Sm  Sm1  1  0.000000  0.000000  0.750000  1
  Sm  Sm2  1  0.495369  0.504631  0.250000  1
  Sm  Sm3  1  0.495369  0.990739  0.250000  1
  Sm  Sm4  1  0.009261  0.504631  0.250000  1
  Tm  Tm5  1  0.507062  0.492938  0.750000  1
  Tm  Tm6  1  0.985877  0.492938  0.750000  1
  Tm  Tm7  1  0.507062  0.014123  0.750000  1
  Si  Si8  1  0.833436  0.166564  0.504801  1
  Si  Si9  1  0.833436  0.666872  0.504801  1
  Si  Si10  1  0.333128  0.166564  0.504801  1
  Si  Si11  1  0.833436  0.166564  0.995199  1
  Si  Si12  1  0.833436  0.666872  0.995199  1
  Si  Si13  1  0.333128  0.166564  0.995199  1
  Si  Si14  1  0.168008  0.831992  0.996843  1
  Si  Si15  1  0.663985  0.831992  0.996843  1
  Si  Si16  1  0.168008  0.336015  0.996843  1
  Si  Si17  1  0.168008  0.831992  0.503157  1
  Si  Si18  1  0.663985  0.831992  0.503157  1
  Si  Si19  1  0.168008  0.336015  0.503157  1
  Rh  Rh20  1  0.666667  0.333333  0.492770  1
  Rh  Rh21  1  0.666667  0.333333  0.007230  1
  Rh  Rh22  1  0.333333  0.666667  0.958443  1
  Rh  Rh23  1  0.333333  0.666667  0.541557  1
