# generated using pymatgen
data_Ca4SnSb5Pd18
_symmetry_space_group_name_H-M   'P 1'
_cell_length_a   8.06005919
_cell_length_b   8.06005917
_cell_length_c   9.41423221
_cell_angle_alpha   90.16777422
_cell_angle_beta   90.16777464
_cell_angle_gamma   120.03631239
_symmetry_Int_Tables_number   1
_chemical_formula_structural   Ca4SnSb5Pd18
_chemical_formula_sum   'Ca4 Sn1 Sb5 Pd18'
_cell_volume   529.45068515
_cell_formula_units_Z   1
loop_
 _symmetry_equiv_pos_site_id
 _symmetry_equiv_pos_as_xyz
  1  'x, y, z'
loop_
 _atom_site_type_symbol
 _atom_site_label
 _atom_site_symmetry_multiplicity
 _atom_site_fract_x
 _atom_site_fract_y
 _atom_site_fract_z
 _atom_site_occupancy
  Ca  Ca0  1  0.327821  0.016068  0.749779  1
  Ca  Ca1  1  0.672179  0.983932  0.250221  1
  Ca  Ca2  1  0.016068  0.327821  0.749779  1
  Ca  Ca3  1  0.983932  0.672179  0.250221  1
  Sn  Sn4  1  0.000000  0.000000  0.500000  1
  Sb  Sb5  1  0.676427  0.323573  0.000000  1
  Sb  Sb6  1  0.322674  0.677326  0.500000  1
  Sb  Sb7  1  0.323573  0.676427  0.000000  1
  Sb  Sb8  1  0.000000  0.000000  0.000000  1
  Sb  Sb9  1  0.677326  0.322674  0.500000  1
  Pd  Pd10  1  0.332039  0.332039  0.965005  1
  Pd  Pd11  1  0.449160  0.648092  0.749831  1
  Pd  Pd12  1  0.550840  0.351908  0.250169  1
  Pd  Pd13  1  0.648092  0.449160  0.749831  1
  Pd  Pd14  1  0.999452  0.339099  0.081417  1
  Pd  Pd15  1  0.000167  0.661966  0.581527  1
  Pd  Pd16  1  0.338034  0.999833  0.418473  1
  Pd  Pd17  1  0.660901  0.000548  0.918583  1
  Pd  Pd18  1  0.000548  0.660901  0.918583  1
  Pd  Pd19  1  0.999833  0.338034  0.418473  1
  Pd  Pd20  1  0.661966  0.000167  0.581527  1
  Pd  Pd21  1  0.859212  0.859212  0.750378  1
  Pd  Pd22  1  0.332810  0.332810  0.533829  1
  Pd  Pd23  1  0.667961  0.667961  0.034995  1
  Pd  Pd24  1  0.339099  0.999452  0.081417  1
  Pd  Pd25  1  0.667190  0.667190  0.466171  1
  Pd  Pd26  1  0.140788  0.140788  0.249622  1
  Pd  Pd27  1  0.351908  0.550840  0.250169  1
