# generated using pymatgen
data_TbY11ZnCo4Sn
_symmetry_space_group_name_H-M   'P 1'
_cell_length_a   8.36308052
_cell_length_b   8.34364947
_cell_length_c   8.34364952
_cell_angle_alpha   111.89129846
_cell_angle_beta   109.25556079
_cell_angle_gamma   107.21233638
_symmetry_Int_Tables_number   1
_chemical_formula_structural   TbY11ZnCo4Sn
_chemical_formula_sum   'Tb1 Y11 Zn1 Co4 Sn1'
_cell_volume   447.91983403
_cell_formula_units_Z   1
loop_
 _symmetry_equiv_pos_site_id
 _symmetry_equiv_pos_as_xyz
  1  'x, y, z'
loop_
 _atom_site_type_symbol
 _atom_site_label
 _atom_site_symmetry_multiplicity
 _atom_site_fract_x
 _atom_site_fract_y
 _atom_site_fract_z
 _atom_site_occupancy
  Tb  Tb0  1  0.427206  0.227021  0.200185  1
  Y  Y1  1  0.573200  0.772763  0.800437  1
  Y  Y2  1  0.029803  0.228379  0.801422  1
  Y  Y3  1  0.969832  0.770480  0.199355  1
  Y  Y4  1  0.182050  0.284756  0.465361  1
  Y  Y5  1  0.818239  0.714751  0.534442  1
  Y  Y6  1  0.182050  0.716689  0.897293  1
  Y  Y7  1  0.818239  0.283797  0.103488  1
  Y  Y8  1  0.324113  0.636720  0.311333  1
  Y  Y9  1  0.676265  0.363872  0.689031  1
  Y  Y10  1  0.324113  0.012780  0.687393  1
  Y  Y11  1  0.676265  0.987234  0.312393  1
  Zn  Zn12  1  0.000412  0.999519  0.000893  1
  Co  Co13  1  0.342025  0.000029  0.341997  1
  Co  Co14  1  0.654632  0.000551  0.654081  1
  Co  Co15  1  0.112910  0.614107  0.498803  1
  Co  Co16  1  0.888824  0.386494  0.502330  1
  Sn  Sn17  1  0.499824  0.500058  0.999766  1
