# generated using pymatgen
data_Tb4Ga18Ir4PdPt
_symmetry_space_group_name_H-M   'P 1'
_cell_length_a   7.64090629
_cell_length_b   7.64090738
_cell_length_c   9.51130700
_cell_angle_alpha   90.00004183
_cell_angle_beta   90.00004660
_cell_angle_gamma   119.87204778
_symmetry_Int_Tables_number   1
_chemical_formula_structural   Tb4Ga18Ir4PdPt
_chemical_formula_sum   'Tb4 Ga18 Ir4 Pd1 Pt1'
_cell_volume   481.52534048
_cell_formula_units_Z   1
loop_
 _symmetry_equiv_pos_site_id
 _symmetry_equiv_pos_as_xyz
  1  'x, y, z'
loop_
 _atom_site_type_symbol
 _atom_site_label
 _atom_site_symmetry_multiplicity
 _atom_site_fract_x
 _atom_site_fract_y
 _atom_site_fract_z
 _atom_site_occupancy
  Tb  Tb0  1  0.996594  0.669835  0.249962  1
  Tb  Tb1  1  0.003406  0.330165  0.750038  1
  Tb  Tb2  1  0.669835  0.996594  0.249962  1
  Tb  Tb3  1  0.330165  0.003406  0.750038  1
  Ga  Ga4  1  0.131504  0.131504  0.249781  1
  Ga  Ga5  1  0.868496  0.868496  0.750219  1
  Ga  Ga6  1  0.998711  0.337582  0.080960  1
  Ga  Ga7  1  0.001289  0.662418  0.919040  1
  Ga  Ga8  1  0.001335  0.662306  0.580957  1
  Ga  Ga9  1  0.337694  0.998665  0.419043  1
  Ga  Ga10  1  0.998665  0.337694  0.419043  1
  Ga  Ga11  1  0.662306  0.001335  0.580957  1
  Ga  Ga12  1  0.662418  0.001289  0.919040  1
  Ga  Ga13  1  0.337582  0.998711  0.080960  1
  Ga  Ga14  1  0.335719  0.335719  0.567090  1
  Ga  Ga15  1  0.664281  0.664281  0.432910  1
  Ga  Ga16  1  0.664364  0.664364  0.067112  1
  Ga  Ga17  1  0.335636  0.335636  0.932888  1
  Ga  Ga18  1  0.337433  0.546542  0.249987  1
  Ga  Ga19  1  0.662567  0.453458  0.750013  1
  Ga  Ga20  1  0.546542  0.337433  0.249987  1
  Ga  Ga21  1  0.453458  0.662567  0.750013  1
  Ir  Ir22  1  0.671177  0.328823  0.000000  1
  Ir  Ir23  1  0.328823  0.671177  0.000000  1
  Ir  Ir24  1  0.328820  0.671180  0.500000  1
  Ir  Ir25  1  0.671180  0.328820  0.500000  1
  Pd  Pd26  1  0.000000  0.000000  0.000000  1
  Pt  Pt27  1  0.000000  0.000000  0.500000  1
