# generated using pymatgen
data_Li30Si7Au
_symmetry_space_group_name_H-M   'P 1'
_cell_length_a   9.18698756
_cell_length_b   9.14823909
_cell_length_c   9.14823926
_cell_angle_alpha   109.38525566
_cell_angle_beta   109.55704186
_cell_angle_gamma   109.55704836
_symmetry_Int_Tables_number   1
_chemical_formula_structural   Li30Si7Au
_chemical_formula_sum   'Li30 Si7 Au1'
_cell_volume   591.24187429
_cell_formula_units_Z   1
loop_
 _symmetry_equiv_pos_site_id
 _symmetry_equiv_pos_as_xyz
  1  'x, y, z'
loop_
 _atom_site_type_symbol
 _atom_site_label
 _atom_site_symmetry_multiplicity
 _atom_site_fract_x
 _atom_site_fract_y
 _atom_site_fract_z
 _atom_site_occupancy
  Li  Li0  1  0.370914  0.661348  0.963595  1
  Li  Li1  1  0.033460  0.914627  0.695481  1
  Li  Li2  1  0.689936  0.031051  0.911838  1
  Li  Li3  1  0.757690  0.889590  0.128676  1
  Li  Li4  1  0.461006  0.148574  0.874449  1
  Li  Li5  1  0.115657  0.084553  0.273970  1
  Li  Li6  1  0.407319  0.536405  0.197752  1
  Li  Li7  1  0.586557  0.625551  0.774125  1
  Li  Li8  1  0.778098  0.588162  0.619214  1
  Li  Li9  1  0.531104  0.189417  0.415447  1
  Li  Li10  1  0.730348  0.337827  0.800738  1
  Li  Li11  1  0.158885  0.880786  0.468949  1
  Li  Li12  1  0.841687  0.226030  0.310583  1
  Li  Li13  1  0.086046  0.274042  0.117274  1
  Li  Li14  1  0.190208  0.413239  0.528253  1
  Li  Li15  1  0.368100  0.239086  0.610410  1
  Li  Li16  1  0.968772  0.382726  0.656767  1
  Li  Li17  1  0.123077  0.750813  0.872455  1
  Li  Li18  1  0.618833  0.780854  0.585373  1
  Li  Li19  1  0.661955  0.971747  0.384986  1
  Li  Li20  1  0.337979  0.804519  0.719146  1
  Li  Li21  1  0.276969  0.115014  0.086761  1
  Li  Li22  1  0.812432  0.725875  0.351426  1
  Li  Li23  1  0.209566  0.302248  0.838652  1
  Li  Li24  1  0.929610  0.699262  0.037088  1
  Li  Li25  1  0.892522  0.462912  0.162173  1
  Li  Li26  1  0.872264  0.121643  0.749187  1
  Li  Li27  1  0.312004  0.843233  0.225958  1
  Li  Li28  1  0.250622  0.627545  0.378357  1
  Li  Li29  1  0.629014  0.371324  0.260914  1
  Si  Si30  1  0.001291  0.083165  0.498747  1
  Si  Si31  1  0.913127  0.913556  0.916284  1
  Si  Si32  1  0.418125  0.415581  0.416835  1
  Si  Si33  1  0.084758  0.500000  0.000000  1
  Si  Si34  1  0.502544  0.001253  0.084419  1
  Si  Si35  1  0.499571  0.002728  0.586444  1
  Si  Si36  1  0.996843  0.583716  0.497272  1
  Au  Au37  1  0.581106  0.500000  0.000000  1
