# generated using pymatgen
data_CsU2I11
_symmetry_space_group_name_H-M   'P 1'
_cell_length_a   8.61020428
_cell_length_b   8.71245829
_cell_length_c   21.01944079
_cell_angle_alpha   79.45415315
_cell_angle_beta   79.45163461
_cell_angle_gamma   88.08306743
_symmetry_Int_Tables_number   1
_chemical_formula_structural   CsU2I11
_chemical_formula_sum   'Cs2 U4 I22'
_cell_volume   1523.96471594
_cell_formula_units_Z   2
loop_
 _symmetry_equiv_pos_site_id
 _symmetry_equiv_pos_as_xyz
  1  'x, y, z'
loop_
 _atom_site_type_symbol
 _atom_site_label
 _atom_site_symmetry_multiplicity
 _atom_site_fract_x
 _atom_site_fract_y
 _atom_site_fract_z
 _atom_site_occupancy
  Cs  Cs0  1  0.747389  0.749996  0.505509  1
  Cs  Cs1  1  0.252611  0.250004  0.494491  1
  U  U2  1  0.316610  0.815507  0.353523  1
  U  U3  1  0.683390  0.184493  0.646477  1
  U  U4  1  0.838225  0.334829  0.084614  1
  U  U5  1  0.161775  0.665171  0.915386  1
  I  I6  1  0.246409  0.774419  0.500433  1
  I  I7  1  0.753591  0.225581  0.499567  1
  I  I8  1  0.578580  0.023605  0.351620  1
  I  I9  1  0.421420  0.976395  0.648380  1
  I  I10  1  0.535603  0.548977  0.362088  1
  I  I11  1  0.464397  0.451023  0.637912  1
  I  I12  1  0.380461  0.852147  0.212627  1
  I  I13  1  0.619539  0.147853  0.787373  1
  I  I14  1  0.053565  0.601375  0.361184  1
  I  I15  1  0.946435  0.398625  0.638816  1
  I  I16  1  0.102018  0.083412  0.345684  1
  I  I17  1  0.897982  0.916588  0.654316  1
  I  I18  1  0.891068  0.026425  0.152608  1
  I  I19  1  0.108932  0.973575  0.847392  1
  I  I20  1  0.524394  0.373218  0.154268  1
  I  I21  1  0.475606  0.626782  0.845732  1
  I  I22  1  0.715677  0.209026  0.986045  1
  I  I23  1  0.284323  0.790974  0.013955  1
  I  I24  1  0.967928  0.470315  0.178483  1
  I  I25  1  0.032072  0.529685  0.821517  1
  I  I26  1  0.172836  0.334350  0.999637  1
  I  I27  1  0.827164  0.665650  0.000363  1
