# generated using pymatgen
data_Tb2Cr3Co9As7
_symmetry_space_group_name_H-M   'P 1'
_cell_length_a   3.75734300
_cell_length_b   9.41889403
_cell_length_c   9.41966820
_cell_angle_alpha   119.98704407
_cell_angle_beta   90.00000000
_cell_angle_gamma   90.00000000
_symmetry_Int_Tables_number   1
_chemical_formula_structural   Tb2Cr3Co9As7
_chemical_formula_sum   'Tb2 Cr3 Co9 As7'
_cell_volume   288.73782057
_cell_formula_units_Z   1
loop_
 _symmetry_equiv_pos_site_id
 _symmetry_equiv_pos_as_xyz
  1  'x, y, z'
loop_
 _atom_site_type_symbol
 _atom_site_label
 _atom_site_symmetry_multiplicity
 _atom_site_fract_x
 _atom_site_fract_y
 _atom_site_fract_z
 _atom_site_occupancy
  Tb  Tb0  1  0.000000  0.666487  0.333084  1
  Tb  Tb1  1  0.500000  0.333316  0.666628  1
  Cr  Cr2  1  0.500000  0.117012  0.894226  1
  Cr  Cr3  1  0.500000  0.105659  0.222704  1
  Cr  Cr4  1  0.500000  0.776998  0.882672  1
  Co  Co5  1  0.000000  0.371292  0.940333  1
  Co  Co6  1  0.000000  0.059337  0.430500  1
  Co  Co7  1  0.000000  0.569385  0.628967  1
  Co  Co8  1  0.000000  0.877876  0.720036  1
  Co  Co9  1  0.000000  0.279978  0.158134  1
  Co  Co10  1  0.000000  0.842110  0.122007  1
  Co  Co11  1  0.500000  0.948812  0.566422  1
  Co  Co12  1  0.500000  0.433915  0.382569  1
  Co  Co13  1  0.500000  0.617648  0.051566  1
  As  As14  1  0.000000  0.114016  0.701551  1
  As  As15  1  0.000000  0.298392  0.412442  1
  As  As16  1  0.000000  0.587681  0.886167  1
  As  As17  1  0.500000  0.708080  0.591001  1
  As  As18  1  0.500000  0.408787  0.116919  1
  As  As19  1  0.500000  0.883090  0.292013  1
  As  As20  1  0.000000  0.000132  0.000056  1
