# generated using pymatgen
data_ErTm(B3W)2
_symmetry_space_group_name_H-M   'P 1'
_cell_length_a   5.42003704
_cell_length_b   3.15273400
_cell_length_c   6.78801126
_cell_angle_alpha   90.00000000
_cell_angle_beta   101.77502922
_cell_angle_gamma   90.00000000
_symmetry_Int_Tables_number   1
_chemical_formula_structural   ErTm(B3W)2
_chemical_formula_sum   'Er1 Tm1 B6 W2'
_cell_volume   113.55218565
_cell_formula_units_Z   1
loop_
 _symmetry_equiv_pos_site_id
 _symmetry_equiv_pos_as_xyz
  1  'x, y, z'
loop_
 _atom_site_type_symbol
 _atom_site_label
 _atom_site_symmetry_multiplicity
 _atom_site_fract_x
 _atom_site_fract_y
 _atom_site_fract_z
 _atom_site_occupancy
  Er  Er0  1  0.176273  0.250000  0.208293  1
  Tm  Tm1  1  0.822829  0.749999  0.790923  1
  B  B2  1  0.585228  0.250000  0.023556  1
  B  B3  1  0.083123  0.749999  0.492452  1
  B  B4  1  0.412714  0.749999  0.494716  1
  B  B5  1  0.587639  0.250000  0.505802  1
  B  B6  1  0.916735  0.250000  0.508109  1
  B  B7  1  0.415604  0.749999  0.976074  1
  W  W8  1  0.689011  0.749999  0.278980  1
  W  W9  1  0.310844  0.250000  0.721095  1
