# generated using pymatgen
data_NdGd2Mg3Sn2Pt
_symmetry_space_group_name_H-M   'P 1'
_cell_length_a   7.57176014
_cell_length_b   7.53614020
_cell_length_c   4.54280200
_cell_angle_alpha   90.00000000
_cell_angle_beta   90.00000000
_cell_angle_gamma   119.84451944
_symmetry_Int_Tables_number   1
_chemical_formula_structural   NdGd2Mg3Sn2Pt
_chemical_formula_sum   'Nd1 Gd2 Mg3 Sn2 Pt1'
_cell_volume   224.84257361
_cell_formula_units_Z   1
loop_
 _symmetry_equiv_pos_site_id
 _symmetry_equiv_pos_as_xyz
  1  'x, y, z'
loop_
 _atom_site_type_symbol
 _atom_site_label
 _atom_site_symmetry_multiplicity
 _atom_site_fract_x
 _atom_site_fract_y
 _atom_site_fract_z
 _atom_site_occupancy
  Nd  Nd0  1  0.000000  0.599121  0.000000  1
  Gd  Gd1  1  0.398506  0.398254  0.000000  1
  Gd  Gd2  1  0.601494  0.999748  0.000000  1
  Mg  Mg3  1  0.000000  0.229532  0.500000  1
  Mg  Mg4  1  0.769587  0.770927  0.500000  1
  Mg  Mg5  1  0.230413  0.001339  0.500000  1
  Sn  Sn6  1  0.663022  0.330271  0.500000  1
  Sn  Sn7  1  0.336978  0.667248  0.500000  1
  Pt  Pt8  1  0.000000  0.003560  0.000000  1
