# generated using pymatgen
data_Th2SbRh5
_symmetry_space_group_name_H-M   'P 1'
_cell_length_a   4.31183900
_cell_length_b   5.98948800
_cell_length_c   11.65283300
_cell_angle_alpha   90.00000000
_cell_angle_beta   90.00000000
_cell_angle_gamma   90.00000000
_symmetry_Int_Tables_number   1
_chemical_formula_structural   Th2SbRh5
_chemical_formula_sum   'Th4 Sb2 Rh10'
_cell_volume   300.94266183
_cell_formula_units_Z   2
loop_
 _symmetry_equiv_pos_site_id
 _symmetry_equiv_pos_as_xyz
  1  'x, y, z'
loop_
 _atom_site_type_symbol
 _atom_site_label
 _atom_site_symmetry_multiplicity
 _atom_site_fract_x
 _atom_site_fract_y
 _atom_site_fract_z
 _atom_site_occupancy
  Th  Th0  1  0.500000  0.173422  0.644064  1
  Th  Th1  1  0.500000  0.826578  0.355936  1
  Th  Th2  1  0.500000  0.673422  0.855936  1
  Th  Th3  1  0.500000  0.326578  0.144064  1
  Sb  Sb4  1  0.000000  0.500000  0.500000  1
  Sb  Sb5  1  0.000000  0.000000  0.000000  1
  Rh  Rh6  1  0.500000  0.189847  0.891443  1
  Rh  Rh7  1  0.500000  0.810153  0.108557  1
  Rh  Rh8  1  0.500000  0.689847  0.608557  1
  Rh  Rh9  1  0.500000  0.310153  0.391443  1
  Rh  Rh10  1  0.000000  0.434183  0.745326  1
  Rh  Rh11  1  0.000000  0.565817  0.254674  1
  Rh  Rh12  1  0.000000  0.000000  0.500000  1
  Rh  Rh13  1  0.000000  0.500000  0.000000  1
  Rh  Rh14  1  0.000000  0.065817  0.245326  1
  Rh  Rh15  1  0.000000  0.934183  0.754674  1
