# generated using pymatgen
data_Gd2Y4TcIr
_symmetry_space_group_name_H-M   'P 1'
_cell_length_a   6.34176100
_cell_length_b   7.38520747
_cell_length_c   9.24051800
_cell_angle_alpha   90.00000000
_cell_angle_beta   90.00000000
_cell_angle_gamma   90.04684390
_symmetry_Int_Tables_number   1
_chemical_formula_structural   Gd2Y4TcIr
_chemical_formula_sum   'Gd4 Y8 Tc2 Ir2'
_cell_volume   432.78155526
_cell_formula_units_Z   2
loop_
 _symmetry_equiv_pos_site_id
 _symmetry_equiv_pos_as_xyz
  1  'x, y, z'
loop_
 _atom_site_type_symbol
 _atom_site_label
 _atom_site_symmetry_multiplicity
 _atom_site_fract_x
 _atom_site_fract_y
 _atom_site_fract_z
 _atom_site_occupancy
  Gd  Gd0  1  0.631005  0.044325  0.250000  1
  Gd  Gd1  1  0.368995  0.955675  0.750000  1
  Gd  Gd2  1  0.131862  0.459815  0.750000  1
  Gd  Gd3  1  0.868138  0.540185  0.250000  1
  Y  Y4  1  0.169562  0.178092  0.064232  1
  Y  Y5  1  0.830438  0.821908  0.935768  1
  Y  Y6  1  0.666556  0.324761  0.935696  1
  Y  Y7  1  0.830438  0.821908  0.564232  1
  Y  Y8  1  0.333444  0.675239  0.064304  1
  Y  Y9  1  0.169562  0.178092  0.435768  1
  Y  Y10  1  0.333444  0.675239  0.435696  1
  Y  Y11  1  0.666556  0.324761  0.564304  1
  Tc  Tc12  1  0.466806  0.381579  0.250000  1
  Tc  Tc13  1  0.533194  0.618421  0.750000  1
  Ir  Ir14  1  0.960513  0.114668  0.750000  1
  Ir  Ir15  1  0.039487  0.885332  0.250000  1
