# generated using pymatgen
data_Hf3Re2Ge3Rh
_symmetry_space_group_name_H-M   'P 1'
_cell_length_a   6.96377667
_cell_length_b   6.90673341
_cell_length_c   3.58639700
_cell_angle_alpha   90.00000000
_cell_angle_beta   90.00000000
_cell_angle_gamma   119.72939181
_symmetry_Int_Tables_number   1
_chemical_formula_structural   Hf3Re2Ge3Rh
_chemical_formula_sum   'Hf3 Re2 Ge3 Rh1'
_cell_volume   149.79051760
_cell_formula_units_Z   1
loop_
 _symmetry_equiv_pos_site_id
 _symmetry_equiv_pos_as_xyz
  1  'x, y, z'
loop_
 _atom_site_type_symbol
 _atom_site_label
 _atom_site_symmetry_multiplicity
 _atom_site_fract_x
 _atom_site_fract_y
 _atom_site_fract_z
 _atom_site_occupancy
  Hf  Hf0  1  0.418494  0.406544  0.500000  1
  Hf  Hf1  1  0.581506  0.988050  0.500000  1
  Hf  Hf2  1  0.000000  0.602989  0.500000  1
  Re  Re3  1  0.748871  0.747252  0.000000  1
  Re  Re4  1  0.251129  0.998382  0.000000  1
  Ge  Ge5  1  0.671581  0.328972  0.000000  1
  Ge  Ge6  1  0.328419  0.657392  0.000000  1
  Ge  Ge7  1  0.000000  0.016288  0.500000  1
  Rh  Rh8  1  0.000000  0.254132  0.000000  1
