# generated using pymatgen
data_PrNd6Ru4C9
_symmetry_space_group_name_H-M   'P 1'
_cell_length_a   6.62966600
_cell_length_b   6.62966718
_cell_length_c   12.07962000
_cell_angle_alpha   71.11572648
_cell_angle_beta   71.11572299
_cell_angle_gamma   48.33221748
_symmetry_Int_Tables_number   1
_chemical_formula_structural   PrNd6Ru4C9
_chemical_formula_sum   'Pr1 Nd6 Ru4 C9'
_cell_volume   370.81596974
_cell_formula_units_Z   1
loop_
 _symmetry_equiv_pos_site_id
 _symmetry_equiv_pos_as_xyz
  1  'x, y, z'
loop_
 _atom_site_type_symbol
 _atom_site_label
 _atom_site_symmetry_multiplicity
 _atom_site_fract_x
 _atom_site_fract_y
 _atom_site_fract_z
 _atom_site_occupancy
  Pr  Pr0  1  0.620565  0.620565  0.160531  1
  Nd  Nd1  1  0.381476  0.381476  0.837697  1
  Nd  Nd2  1  0.142878  0.142878  0.684183  1
  Nd  Nd3  1  0.857279  0.857279  0.316207  1
  Nd  Nd4  1  0.140455  0.140455  0.378708  1
  Nd  Nd5  1  0.859622  0.859622  0.621740  1
  Nd  Nd6  1  0.999935  0.999935  0.999837  1
  Ru  Ru7  1  0.357325  0.357325  0.141307  1
  Ru  Ru8  1  0.565512  0.565512  0.570360  1
  Ru  Ru9  1  0.434146  0.434146  0.429788  1
  Ru  Ru10  1  0.642465  0.642465  0.858468  1
  C  C11  1  0.381948  0.381948  0.291997  1
  C  C12  1  0.921751  0.921751  0.821372  1
  C  C13  1  0.392339  0.392339  0.612801  1
  C  C14  1  0.194911  0.194911  0.145502  1
  C  C15  1  0.804690  0.804690  0.855211  1
  C  C16  1  0.499575  0.499575  0.999592  1
  C  C17  1  0.077966  0.077966  0.178938  1
  C  C18  1  0.617763  0.617763  0.707933  1
  C  C19  1  0.607402  0.607402  0.387831  1
