# generated using pymatgen
data_Ba2AlAsS5
_symmetry_space_group_name_H-M   'P 1'
_cell_length_a   8.83780400
_cell_length_b   9.09878900
_cell_length_c   12.38030900
_cell_angle_alpha   90.00000000
_cell_angle_beta   90.00000000
_cell_angle_gamma   90.00000000
_symmetry_Int_Tables_number   1
_chemical_formula_structural   Ba2AlAsS5
_chemical_formula_sum   'Ba8 Al4 As4 S20'
_cell_volume   995.54167280
_cell_formula_units_Z   4
loop_
 _symmetry_equiv_pos_site_id
 _symmetry_equiv_pos_as_xyz
  1  'x, y, z'
loop_
 _atom_site_type_symbol
 _atom_site_label
 _atom_site_symmetry_multiplicity
 _atom_site_fract_x
 _atom_site_fract_y
 _atom_site_fract_z
 _atom_site_occupancy
  Ba  Ba0  1  0.994465  0.133557  0.673719  1
  Ba  Ba1  1  0.505535  0.366443  0.173719  1
  Ba  Ba2  1  0.494465  0.866443  0.326281  1
  Ba  Ba3  1  0.005535  0.633557  0.826281  1
  Ba  Ba4  1  0.005535  0.866443  0.326281  1
  Ba  Ba5  1  0.494465  0.633557  0.826281  1
  Ba  Ba6  1  0.505535  0.133557  0.673719  1
  Ba  Ba7  1  0.994465  0.366443  0.173719  1
  Al  Al8  1  0.250000  0.828795  0.596269  1
  Al  Al9  1  0.250000  0.671205  0.096269  1
  Al  Al10  1  0.750000  0.171205  0.403731  1
  Al  Al11  1  0.750000  0.328795  0.903731  1
  As  As12  1  0.250000  0.497862  0.537668  1
  As  As13  1  0.250000  0.002138  0.037668  1
  As  As14  1  0.750000  0.502138  0.462332  1
  As  As15  1  0.750000  0.997862  0.962332  1
  S  S16  1  0.055657  0.671206  0.557726  1
  S  S17  1  0.444343  0.828794  0.057726  1
  S  S18  1  0.555657  0.328794  0.442274  1
  S  S19  1  0.944343  0.171206  0.942274  1
  S  S20  1  0.944343  0.328794  0.442274  1
  S  S21  1  0.555657  0.171206  0.942274  1
  S  S22  1  0.444343  0.671206  0.557726  1
  S  S23  1  0.055657  0.828794  0.057726  1
  S  S24  1  0.750000  0.974524  0.508367  1
  S  S25  1  0.750000  0.525476  0.008367  1
  S  S26  1  0.250000  0.025476  0.491633  1
  S  S27  1  0.250000  0.474524  0.991633  1
  S  S28  1  0.250000  0.892859  0.769300  1
  S  S29  1  0.250000  0.607141  0.269300  1
  S  S30  1  0.750000  0.107141  0.230700  1
  S  S31  1  0.750000  0.392859  0.730700  1
  S  S32  1  0.250000  0.400161  0.706452  1
  S  S33  1  0.250000  0.099839  0.206452  1
  S  S34  1  0.750000  0.599839  0.293548  1
  S  S35  1  0.750000  0.900161  0.793548  1
