# generated using pymatgen
data_YbY6PtI12
_symmetry_space_group_name_H-M   'P 1'
_cell_length_a   9.79347378
_cell_length_b   9.79347508
_cell_length_c   9.79347411
_cell_angle_alpha   106.99829609
_cell_angle_beta   106.99830235
_cell_angle_gamma   106.99830693
_symmetry_Int_Tables_number   1
_chemical_formula_structural   YbY6PtI12
_chemical_formula_sum   'Yb1 Y6 Pt1 I12'
_cell_volume   782.30515430
_cell_formula_units_Z   1
loop_
 _symmetry_equiv_pos_site_id
 _symmetry_equiv_pos_as_xyz
  1  'x, y, z'
loop_
 _atom_site_type_symbol
 _atom_site_label
 _atom_site_symmetry_multiplicity
 _atom_site_fract_x
 _atom_site_fract_y
 _atom_site_fract_z
 _atom_site_occupancy
  Yb  Yb0  1  0.000000  0.000000  0.000000  1
  Y  Y1  1  0.400693  0.472258  0.196532  1
  Y  Y2  1  0.196532  0.400693  0.472258  1
  Y  Y3  1  0.472258  0.196532  0.400693  1
  Y  Y4  1  0.599307  0.527742  0.803468  1
  Y  Y5  1  0.803468  0.599307  0.527742  1
  Y  Y6  1  0.527742  0.803468  0.599307  1
  Pt  Pt7  1  0.500000  0.500000  0.500000  1
  I  I8  1  0.039616  0.347353  0.117241  1
  I  I9  1  0.117241  0.039616  0.347353  1
  I  I10  1  0.347353  0.117241  0.039616  1
  I  I11  1  0.960384  0.652647  0.882759  1
  I  I12  1  0.882759  0.960384  0.652647  1
  I  I13  1  0.652647  0.882759  0.960384  1
  I  I14  1  0.723731  0.573729  0.178232  1
  I  I15  1  0.178232  0.723731  0.573729  1
  I  I16  1  0.573729  0.178232  0.723731  1
  I  I17  1  0.276269  0.426271  0.821768  1
  I  I18  1  0.821768  0.276269  0.426271  1
  I  I19  1  0.426271  0.821768  0.276269  1
