# generated using pymatgen
data_Rb(CoO2)8
_symmetry_space_group_name_H-M   'P 1'
_cell_length_a   5.72269688
_cell_length_b   6.93919751
_cell_length_c   6.93370123
_cell_angle_alpha   87.42528033
_cell_angle_beta   101.97679227
_cell_angle_gamma   101.88835600
_symmetry_Int_Tables_number   1
_chemical_formula_structural   Rb(CoO2)8
_chemical_formula_sum   'Rb1 Co8 O16'
_cell_volume   263.57192762
_cell_formula_units_Z   1
loop_
 _symmetry_equiv_pos_site_id
 _symmetry_equiv_pos_as_xyz
  1  'x, y, z'
loop_
 _atom_site_type_symbol
 _atom_site_label
 _atom_site_symmetry_multiplicity
 _atom_site_fract_x
 _atom_site_fract_y
 _atom_site_fract_z
 _atom_site_occupancy
  Rb  Rb0  1  0.000000  0.000000  0.000000  1
  Co  Co1  1  0.575390  0.815901  0.485038  1
  Co  Co2  1  0.076832  0.817165  0.488545  1
  Co  Co3  1  0.923168  0.182835  0.511455  1
  Co  Co4  1  0.424610  0.184099  0.514962  1
  Co  Co5  1  0.167669  0.487583  0.184234  1
  Co  Co6  1  0.668374  0.485659  0.184282  1
  Co  Co7  1  0.331626  0.514341  0.815718  1
  Co  Co8  1  0.832331  0.512417  0.815766  1
  O  O9  1  0.671159  0.046256  0.638971  1
  O  O10  1  0.172433  0.049357  0.640371  1
  O  O11  1  0.827567  0.950643  0.359629  1
  O  O12  1  0.328841  0.953744  0.361029  1
  O  O13  1  0.647061  0.638555  0.950787  1
  O  O14  1  0.148102  0.640013  0.952397  1
  O  O15  1  0.851898  0.359987  0.047603  1
  O  O16  1  0.352939  0.361445  0.049213  1
  O  O17  1  0.978627  0.621923  0.295425  1
  O  O18  1  0.480676  0.624269  0.297078  1
  O  O19  1  0.519324  0.375731  0.702922  1
  O  O20  1  0.021373  0.378077  0.704575  1
  O  O21  1  0.669585  0.297526  0.377717  1
  O  O22  1  0.167608  0.296886  0.375365  1
  O  O23  1  0.832392  0.703114  0.624635  1
  O  O24  1  0.330415  0.702474  0.622283  1
