# generated using pymatgen
data_Ho5Er3SnHg3Au8
_symmetry_space_group_name_H-M   'P 1'
_cell_length_a   7.98771821
_cell_length_b   7.98867223
_cell_length_c   7.29888702
_cell_angle_alpha   89.99279627
_cell_angle_beta   90.00177015
_cell_angle_gamma   90.02626596
_symmetry_Int_Tables_number   1
_chemical_formula_structural   Ho5Er3SnHg3Au8
_chemical_formula_sum   'Ho5 Er3 Sn1 Hg3 Au8'
_cell_volume   465.75114330
_cell_formula_units_Z   1
loop_
 _symmetry_equiv_pos_site_id
 _symmetry_equiv_pos_as_xyz
  1  'x, y, z'
loop_
 _atom_site_type_symbol
 _atom_site_label
 _atom_site_symmetry_multiplicity
 _atom_site_fract_x
 _atom_site_fract_y
 _atom_site_fract_z
 _atom_site_occupancy
  Ho  Ho0  1  0.184824  0.184829  0.999873  1
  Ho  Ho1  1  0.315135  0.684882  0.500095  1
  Ho  Ho2  1  0.684854  0.315073  0.500133  1
  Ho  Ho3  1  0.815169  0.815176  0.999882  1
  Ho  Ho4  1  0.342052  0.659036  0.999995  1
  Er  Er5  1  0.658049  0.340926  0.999935  1
  Er  Er6  1  0.840987  0.842062  0.500040  1
  Er  Er7  1  0.158990  0.157959  0.500048  1
  Sn  Sn8  1  0.500046  0.000061  0.749965  1
  Hg  Hg9  1  0.999992  0.499984  0.749973  1
  Hg  Hg10  1  0.500004  0.999993  0.250033  1
  Hg  Hg11  1  0.999991  0.499981  0.250022  1
  Au  Au12  1  0.126516  0.872069  0.776598  1
  Au  Au13  1  0.873102  0.128112  0.223768  1
  Au  Au14  1  0.371922  0.372976  0.276356  1
  Au  Au15  1  0.628284  0.626676  0.723006  1
  Au  Au16  1  0.628269  0.626846  0.276359  1
  Au  Au17  1  0.873248  0.128133  0.776886  1
  Au  Au18  1  0.371899  0.373119  0.722996  1
  Au  Au19  1  0.126667  0.872108  0.224037  1
