# generated using pymatgen
data_Ba4HfPdO8
_symmetry_space_group_name_H-M   'P 1'
_cell_length_a   7.39398269
_cell_length_b   7.39398413
_cell_length_c   5.82757600
_cell_angle_alpha   90.00000000
_cell_angle_beta   90.00000000
_cell_angle_gamma   133.49138517
_symmetry_Int_Tables_number   1
_chemical_formula_structural   Ba4HfPdO8
_chemical_formula_sum   'Ba4 Hf1 Pd1 O8'
_cell_volume   231.13677727
_cell_formula_units_Z   1
loop_
 _symmetry_equiv_pos_site_id
 _symmetry_equiv_pos_as_xyz
  1  'x, y, z'
loop_
 _atom_site_type_symbol
 _atom_site_label
 _atom_site_symmetry_multiplicity
 _atom_site_fract_x
 _atom_site_fract_y
 _atom_site_fract_z
 _atom_site_occupancy
  Ba  Ba0  1  0.354477  0.645523  0.000000  1
  Ba  Ba1  1  0.853464  0.146536  0.500000  1
  Ba  Ba2  1  0.146536  0.853464  0.500000  1
  Ba  Ba3  1  0.645523  0.354477  0.000000  1
  Hf  Hf4  1  0.000000  0.000000  0.000000  1
  Pd  Pd5  1  0.500000  0.500000  0.500000  1
  O  O6  1  0.251174  0.251174  0.746916  1
  O  O7  1  0.748826  0.748826  0.253084  1
  O  O8  1  0.748826  0.748826  0.746916  1
  O  O9  1  0.251174  0.251174  0.253084  1
  O  O10  1  0.155177  0.844823  0.000000  1
  O  O11  1  0.655482  0.344518  0.500000  1
  O  O12  1  0.344518  0.655482  0.500000  1
  O  O13  1  0.844823  0.155177  0.000000  1
