# generated using pymatgen
data_TbPr(BeCo12)2
_symmetry_space_group_name_H-M   'P 1'
_cell_length_a   7.86634919
_cell_length_b   7.86634910
_cell_length_c   7.86634800
_cell_angle_alpha   59.99999620
_cell_angle_beta   59.99999659
_cell_angle_gamma   59.99999976
_symmetry_Int_Tables_number   1
_chemical_formula_structural   TbPr(BeCo12)2
_chemical_formula_sum   'Tb1 Pr1 Be2 Co24'
_cell_volume   344.19500999
_cell_formula_units_Z   1
loop_
 _symmetry_equiv_pos_site_id
 _symmetry_equiv_pos_as_xyz
  1  'x, y, z'
loop_
 _atom_site_type_symbol
 _atom_site_label
 _atom_site_symmetry_multiplicity
 _atom_site_fract_x
 _atom_site_fract_y
 _atom_site_fract_z
 _atom_site_occupancy
  Tb  Tb0  1  0.250000  0.250000  0.250000  1
  Pr  Pr1  1  0.750000  0.750000  0.750000  1
  Be  Be2  1  0.500000  0.500000  0.500000  1
  Be  Be3  1  0.000000  0.000000  0.000000  1
  Co  Co4  1  0.794455  0.558807  0.207138  1
  Co  Co5  1  0.207138  0.439600  0.794455  1
  Co  Co6  1  0.558807  0.794455  0.439600  1
  Co  Co7  1  0.439600  0.207138  0.558807  1
  Co  Co8  1  0.292862  0.941193  0.705545  1
  Co  Co9  1  0.705545  0.060400  0.292862  1
  Co  Co10  1  0.941193  0.292862  0.060400  1
  Co  Co11  1  0.060400  0.705545  0.941193  1
  Co  Co12  1  0.207138  0.794455  0.558807  1
  Co  Co13  1  0.794455  0.207138  0.439600  1
  Co  Co14  1  0.439600  0.558807  0.794455  1
  Co  Co15  1  0.558807  0.439600  0.207138  1
  Co  Co16  1  0.705545  0.292862  0.941193  1
  Co  Co17  1  0.292862  0.705545  0.060400  1
  Co  Co18  1  0.060400  0.941193  0.292862  1
  Co  Co19  1  0.941193  0.060400  0.705545  1
  Co  Co20  1  0.558807  0.207138  0.794455  1
  Co  Co21  1  0.439600  0.794455  0.207138  1
  Co  Co22  1  0.794455  0.439600  0.558807  1
  Co  Co23  1  0.207138  0.558807  0.439600  1
  Co  Co24  1  0.941193  0.705545  0.292862  1
  Co  Co25  1  0.060400  0.292862  0.705545  1
  Co  Co26  1  0.292862  0.060400  0.941193  1
  Co  Co27  1  0.705545  0.941193  0.060400  1
