# generated using pymatgen
data_Ho4Mn3CrF28
_symmetry_space_group_name_H-M   'P 1'
_cell_length_a   5.42486604
_cell_length_b   8.67182375
_cell_length_c   11.66977110
_cell_angle_alpha   62.62729795
_cell_angle_beta   89.99186442
_cell_angle_gamma   90.00599259
_symmetry_Int_Tables_number   1
_chemical_formula_structural   Ho4Mn3CrF28
_chemical_formula_sum   'Ho4 Mn3 Cr1 F28'
_cell_volume   487.51911064
_cell_formula_units_Z   1
loop_
 _symmetry_equiv_pos_site_id
 _symmetry_equiv_pos_as_xyz
  1  'x, y, z'
loop_
 _atom_site_type_symbol
 _atom_site_label
 _atom_site_symmetry_multiplicity
 _atom_site_fract_x
 _atom_site_fract_y
 _atom_site_fract_z
 _atom_site_occupancy
  Ho  Ho0  1  0.761448  0.811594  0.764319  1
  Ho  Ho1  1  0.261515  0.190568  0.734549  1
  Ho  Ho2  1  0.238657  0.190287  0.234834  1
  Ho  Ho3  1  0.738968  0.809207  0.265731  1
  Mn  Mn4  1  0.258428  0.726825  0.543464  1
  Mn  Mn5  1  0.241542  0.726733  0.043450  1
  Mn  Mn6  1  0.741527  0.273310  0.456477  1
  Cr  Cr7  1  0.757793  0.273385  0.956672  1
  F  F8  1  0.430578  0.704488  0.921414  1
  F  F9  1  0.930099  0.295392  0.578396  1
  F  F10  1  0.567313  0.294940  0.079686  1
  F  F11  1  0.069744  0.704693  0.421435  1
  F  F12  1  0.452625  0.278795  0.539393  1
  F  F13  1  0.952484  0.721279  0.960416  1
  F  F14  1  0.547504  0.721307  0.460507  1
  F  F15  1  0.051084  0.278024  0.041048  1
  F  F16  1  0.775187  0.512820  0.861905  1
  F  F17  1  0.274853  0.487948  0.637621  1
  F  F18  1  0.224910  0.487908  0.137999  1
  F  F19  1  0.725058  0.512471  0.362094  1
  F  F20  1  0.755735  0.035715  0.046596  1
  F  F21  1  0.255502  0.963984  0.453575  1
  F  F22  1  0.244293  0.964015  0.953676  1
  F  F23  1  0.744477  0.035876  0.546477  1
  F  F24  1  0.977739  0.726023  0.633048  1
  F  F25  1  0.473933  0.273206  0.865963  1
  F  F26  1  0.022199  0.273888  0.367084  1
  F  F27  1  0.522189  0.726228  0.132944  1
  F  F28  1  0.055560  0.744190  0.170843  1
  F  F29  1  0.555876  0.256012  0.329290  1
  F  F30  1  0.945800  0.255462  0.828393  1
  F  F31  1  0.444444  0.743880  0.670959  1
  F  F32  1  0.410372  0.969349  0.229058  1
  F  F33  1  0.909212  0.030403  0.270471  1
  F  F34  1  0.590636  0.030749  0.770694  1
  F  F35  1  0.090717  0.969047  0.729521  1
