# generated using pymatgen
data_K2PdS15
_symmetry_space_group_name_H-M   'P 1'
_cell_length_a   9.26245280
_cell_length_b   9.26245362
_cell_length_c   13.00298064
_cell_angle_alpha   88.52811444
_cell_angle_beta   88.52811581
_cell_angle_gamma   66.88837826
_symmetry_Int_Tables_number   1
_chemical_formula_structural   K2PdS15
_chemical_formula_sum   'K4 Pd2 S30'
_cell_volume   1025.54582365
_cell_formula_units_Z   2
loop_
 _symmetry_equiv_pos_site_id
 _symmetry_equiv_pos_as_xyz
  1  'x, y, z'
loop_
 _atom_site_type_symbol
 _atom_site_label
 _atom_site_symmetry_multiplicity
 _atom_site_fract_x
 _atom_site_fract_y
 _atom_site_fract_z
 _atom_site_occupancy
  K  K0  1  0.768020  0.656968  0.139401  1
  K  K1  1  0.656968  0.768020  0.639401  1
  K  K2  1  0.950153  0.264519  0.404322  1
  K  K3  1  0.264519  0.950153  0.904322  1
  Pd  Pd4  1  0.202480  0.776531  0.249742  1
  Pd  Pd5  1  0.776531  0.202480  0.749742  1
  S  S6  1  0.558917  0.413423  0.276257  1
  S  S7  1  0.413423  0.558917  0.776257  1
  S  S8  1  0.587881  0.368259  0.117805  1
  S  S9  1  0.368259  0.587881  0.617805  1
  S  S10  1  0.348419  0.132097  0.374858  1
  S  S11  1  0.132097  0.348419  0.874858  1
  S  S12  1  0.351772  0.932665  0.456768  1
  S  S13  1  0.932665  0.351772  0.956768  1
  S  S14  1  0.158488  0.894805  0.420957  1
  S  S15  1  0.894805  0.158488  0.920957  1
  S  S16  1  0.481001  0.648698  0.291916  1
  S  S17  1  0.648698  0.481001  0.791916  1
  S  S18  1  0.354678  0.440305  0.076288  1
  S  S19  1  0.440305  0.354678  0.576288  1
  S  S20  1  0.256499  0.677351  0.074286  1
  S  S21  1  0.677351  0.256499  0.574286  1
  S  S22  1  0.213603  0.018751  0.176499  1
  S  S23  1  0.018751  0.213603  0.676499  1
  S  S24  1  0.406474  0.045410  0.226764  1
  S  S25  1  0.045410  0.406474  0.726764  1
  S  S26  1  0.148002  0.550540  0.310207  1
  S  S27  1  0.550540  0.148002  0.810207  1
  S  S28  1  0.796096  0.963909  0.333367  1
  S  S29  1  0.963909  0.796096  0.833367  1
  S  S30  1  0.012278  0.620663  0.437925  1
  S  S31  1  0.620663  0.012278  0.937925  1
  S  S32  1  0.925098  0.907548  0.201971  1
  S  S33  1  0.907548  0.925098  0.701971  1
  S  S34  1  0.781276  0.754227  0.389665  1
  S  S35  1  0.754227  0.781276  0.889665  1
