# generated using pymatgen
data_Ac2AgHg3
_symmetry_space_group_name_H-M   'P 1'
_cell_length_a   6.40207006
_cell_length_b   6.38848755
_cell_length_c   6.38848675
_cell_angle_alpha   132.76847594
_cell_angle_beta   105.32716891
_cell_angle_gamma   93.20743190
_symmetry_Int_Tables_number   1
_chemical_formula_structural   Ac2AgHg3
_chemical_formula_sum   'Ac2 Ag1 Hg3'
_cell_volume   174.46047857
_cell_formula_units_Z   1
loop_
 _symmetry_equiv_pos_site_id
 _symmetry_equiv_pos_as_xyz
  1  'x, y, z'
loop_
 _atom_site_type_symbol
 _atom_site_label
 _atom_site_symmetry_multiplicity
 _atom_site_fract_x
 _atom_site_fract_y
 _atom_site_fract_z
 _atom_site_occupancy
  Ac  Ac0  1  0.240446  0.489988  0.750457  1
  Ac  Ac1  1  0.761019  0.510855  0.250164  1
  Ag  Ag2  1  0.810550  0.831101  0.979449  1
  Hg  Hg3  1  0.356705  0.835178  0.521528  1
  Hg  Hg4  1  0.658367  0.174732  0.483634  1
  Hg  Hg5  1  0.172914  0.158145  0.014768  1
