# generated using pymatgen
data_YbY4(Cd2Rh)2
_symmetry_space_group_name_H-M   'P 1'
_cell_length_a   3.72725300
_cell_length_b   8.01941100
_cell_length_c   18.20376700
_cell_angle_alpha   90.00000000
_cell_angle_beta   90.00000000
_cell_angle_gamma   90.00000000
_symmetry_Int_Tables_number   1
_chemical_formula_structural   YbY4(Cd2Rh)2
_chemical_formula_sum   'Yb2 Y8 Cd8 Rh4'
_cell_volume   544.11739852
_cell_formula_units_Z   2
loop_
 _symmetry_equiv_pos_site_id
 _symmetry_equiv_pos_as_xyz
  1  'x, y, z'
loop_
 _atom_site_type_symbol
 _atom_site_label
 _atom_site_symmetry_multiplicity
 _atom_site_fract_x
 _atom_site_fract_y
 _atom_site_fract_z
 _atom_site_occupancy
  Yb  Yb0  1  0.500000  0.000000  0.000000  1
  Yb  Yb1  1  0.500000  0.500000  0.500000  1
  Y  Y2  1  0.500000  0.241897  0.781795  1
  Y  Y3  1  0.500000  0.758103  0.218205  1
  Y  Y4  1  0.500000  0.258103  0.281795  1
  Y  Y5  1  0.500000  0.741897  0.718205  1
  Y  Y6  1  0.500000  0.112969  0.587314  1
  Y  Y7  1  0.500000  0.887031  0.412686  1
  Y  Y8  1  0.500000  0.387031  0.087314  1
  Y  Y9  1  0.500000  0.612969  0.912686  1
  Cd  Cd10  1  0.000000  0.080582  0.149818  1
  Cd  Cd11  1  0.000000  0.919418  0.850182  1
  Cd  Cd12  1  0.000000  0.419418  0.649818  1
  Cd  Cd13  1  0.000000  0.580582  0.350182  1
  Cd  Cd14  1  0.000000  0.209659  0.433337  1
  Cd  Cd15  1  0.000000  0.790341  0.566663  1
  Cd  Cd16  1  0.000000  0.290341  0.933337  1
  Cd  Cd17  1  0.000000  0.709659  0.066663  1
  Rh  Rh18  1  0.000000  0.028981  0.695906  1
  Rh  Rh19  1  0.000000  0.971019  0.304094  1
  Rh  Rh20  1  0.000000  0.471019  0.195906  1
  Rh  Rh21  1  0.000000  0.528981  0.804094  1
