# generated using pymatgen
data_Y5ErTm14(Cd3Ru)2
_symmetry_space_group_name_H-M   'P 1'
_cell_length_a   9.51160404
_cell_length_b   9.51160349
_cell_length_c   9.72758200
_cell_angle_alpha   90.00000000
_cell_angle_beta   90.00000000
_cell_angle_gamma   119.98940680
_symmetry_Int_Tables_number   1
_chemical_formula_structural   Y5ErTm14(Cd3Ru)2
_chemical_formula_sum   'Y5 Er1 Tm14 Cd6 Ru2'
_cell_volume   762.23586742
_cell_formula_units_Z   1
loop_
 _symmetry_equiv_pos_site_id
 _symmetry_equiv_pos_as_xyz
  1  'x, y, z'
loop_
 _atom_site_type_symbol
 _atom_site_label
 _atom_site_symmetry_multiplicity
 _atom_site_fract_x
 _atom_site_fract_y
 _atom_site_fract_z
 _atom_site_occupancy
  Y  Y0  1  0.540445  0.081188  0.250000  1
  Y  Y1  1  0.918812  0.459555  0.250000  1
  Y  Y2  1  0.459552  0.540448  0.750000  1
  Y  Y3  1  0.459548  0.919139  0.750000  1
  Y  Y4  1  0.080861  0.540452  0.750000  1
  Er  Er5  1  0.540399  0.459601  0.250000  1
  Tm  Tm6  1  0.000021  0.999979  0.500029  1
  Tm  Tm7  1  0.000021  0.999979  0.999971  1
  Tm  Tm8  1  0.209906  0.790094  0.440062  1
  Tm  Tm9  1  0.210186  0.419842  0.439965  1
  Tm  Tm10  1  0.580158  0.789814  0.439965  1
  Tm  Tm11  1  0.790079  0.209921  0.559952  1
  Tm  Tm12  1  0.789893  0.580101  0.559774  1
  Tm  Tm13  1  0.419899  0.210107  0.559774  1
  Tm  Tm14  1  0.790079  0.209921  0.940048  1
  Tm  Tm15  1  0.789893  0.580101  0.940226  1
  Tm  Tm16  1  0.419899  0.210107  0.940226  1
  Tm  Tm17  1  0.209906  0.790094  0.059938  1
  Tm  Tm18  1  0.210186  0.419842  0.060035  1
  Tm  Tm19  1  0.580158  0.789814  0.060035  1
  Cd  Cd20  1  0.885877  0.114123  0.250000  1
  Cd  Cd21  1  0.885492  0.771410  0.250000  1
  Cd  Cd22  1  0.228590  0.114508  0.250000  1
  Cd  Cd23  1  0.114137  0.885863  0.750000  1
  Cd  Cd24  1  0.114163  0.228274  0.750000  1
  Cd  Cd25  1  0.771726  0.885837  0.750000  1
  Ru  Ru26  1  0.333423  0.666577  0.250000  1
  Ru  Ru27  1  0.666691  0.333309  0.750000  1
