# generated using pymatgen
data_Y2Lu2OsI4
_symmetry_space_group_name_H-M   'P 1'
_cell_length_a   11.33487349
_cell_length_b   11.33487410
_cell_length_c   6.13235831
_cell_angle_alpha   90.04324595
_cell_angle_beta   90.04325478
_cell_angle_gamma   88.33411940
_symmetry_Int_Tables_number   1
_chemical_formula_structural   Y2Lu2OsI4
_chemical_formula_sum   'Y4 Lu4 Os2 I8'
_cell_volume   787.54806040
_cell_formula_units_Z   2
loop_
 _symmetry_equiv_pos_site_id
 _symmetry_equiv_pos_as_xyz
  1  'x, y, z'
loop_
 _atom_site_type_symbol
 _atom_site_label
 _atom_site_symmetry_multiplicity
 _atom_site_fract_x
 _atom_site_fract_y
 _atom_site_fract_z
 _atom_site_occupancy
  Y  Y0  1  0.922890  0.800427  0.999286  1
  Y  Y1  1  0.913981  0.202056  0.500369  1
  Y  Y2  1  0.202056  0.913981  0.000369  1
  Y  Y3  1  0.800427  0.922890  0.499286  1
  Lu  Lu4  1  0.809038  0.081046  0.998834  1
  Lu  Lu5  1  0.081046  0.809038  0.498834  1
  Lu  Lu6  1  0.078329  0.188889  0.000298  1
  Lu  Lu7  1  0.188889  0.078329  0.500298  1
  Os  Os8  1  0.999814  0.000029  0.249752  1
  Os  Os9  1  0.000029  0.999814  0.749752  1
  I  I10  1  0.641699  0.154197  0.509351  1
  I  I11  1  0.860400  0.647830  0.504784  1
  I  I12  1  0.350853  0.145451  0.994364  1
  I  I13  1  0.145451  0.350853  0.494364  1
  I  I14  1  0.647830  0.860400  0.004784  1
  I  I15  1  0.353781  0.849289  0.492962  1
  I  I16  1  0.154197  0.641699  0.009351  1
  I  I17  1  0.849289  0.353781  0.992962  1
