# generated using pymatgen
data_Dy6Cd15Ag8Ge
_symmetry_space_group_name_H-M   'P 1'
_cell_length_a   9.86969419
_cell_length_b   9.86969437
_cell_length_c   9.87793400
_cell_angle_alpha   60.02758815
_cell_angle_beta   60.02758755
_cell_angle_gamma   60.00000274
_symmetry_Int_Tables_number   1
_chemical_formula_structural   Dy6Cd15Ag8Ge
_chemical_formula_sum   'Dy6 Cd15 Ag8 Ge1'
_cell_volume   680.67453347
_cell_formula_units_Z   1
loop_
 _symmetry_equiv_pos_site_id
 _symmetry_equiv_pos_as_xyz
  1  'x, y, z'
loop_
 _atom_site_type_symbol
 _atom_site_label
 _atom_site_symmetry_multiplicity
 _atom_site_fract_x
 _atom_site_fract_y
 _atom_site_fract_z
 _atom_site_occupancy
  Dy  Dy0  1  0.798310  0.798310  0.206468  1
  Dy  Dy1  1  0.196910  0.798310  0.206468  1
  Dy  Dy2  1  0.798310  0.196910  0.206468  1
  Dy  Dy3  1  0.204178  0.204178  0.796310  1
  Dy  Dy4  1  0.795335  0.204178  0.796310  1
  Dy  Dy5  1  0.204178  0.795335  0.796310  1
  Cd  Cd6  1  0.834719  0.496066  0.834498  1
  Cd  Cd7  1  0.496066  0.834719  0.834498  1
  Cd  Cd8  1  0.834719  0.834719  0.834498  1
  Cd  Cd9  1  0.165768  0.165768  0.502696  1
  Cd  Cd10  1  0.165824  0.503419  0.164934  1
  Cd  Cd11  1  0.503419  0.165824  0.164934  1
  Cd  Cd12  1  0.165824  0.165824  0.164934  1
  Cd  Cd13  1  0.618933  0.618933  0.143202  1
  Cd  Cd14  1  0.623279  0.135932  0.617511  1
  Cd  Cd15  1  0.135932  0.623279  0.617511  1
  Cd  Cd16  1  0.623279  0.623279  0.617511  1
  Cd  Cd17  1  0.379173  0.379173  0.862480  1
  Cd  Cd18  1  0.381930  0.858093  0.378046  1
  Cd  Cd19  1  0.858093  0.381930  0.378046  1
  Cd  Cd20  1  0.381930  0.381930  0.378046  1
  Ag  Ag21  1  0.832766  0.832766  0.501704  1
  Ag  Ag22  1  0.000027  0.000027  0.498602  1
  Ag  Ag23  1  0.501345  0.000027  0.498602  1
  Ag  Ag24  1  0.000027  0.501345  0.498602  1
  Ag  Ag25  1  0.500436  0.500436  0.999574  1
  Ag  Ag26  1  0.999552  0.500436  0.999574  1
  Ag  Ag27  1  0.500436  0.999552  0.999574  1
  Ag  Ag28  1  0.498149  0.498149  0.505554  1
  Ge  Ge29  1  0.001158  0.001158  0.996528  1
