# generated using pymatgen
data_Y4ErSc5(In2Pt)4
_symmetry_space_group_name_H-M   'P 1'
_cell_length_a   3.58927200
_cell_length_b   7.94866800
_cell_length_c   17.78924933
_cell_angle_alpha   89.78927071
_cell_angle_beta   90.00000000
_cell_angle_gamma   90.00000000
_symmetry_Int_Tables_number   1
_chemical_formula_structural   Y4ErSc5(In2Pt)4
_chemical_formula_sum   'Y4 Er1 Sc5 In8 Pt4'
_cell_volume   507.52263172
_cell_formula_units_Z   1
loop_
 _symmetry_equiv_pos_site_id
 _symmetry_equiv_pos_as_xyz
  1  'x, y, z'
loop_
 _atom_site_type_symbol
 _atom_site_label
 _atom_site_symmetry_multiplicity
 _atom_site_fract_x
 _atom_site_fract_y
 _atom_site_fract_z
 _atom_site_occupancy
  Y  Y0  1  0.000000  0.758937  0.784238  1
  Y  Y1  1  0.000000  0.260694  0.715045  1
  Y  Y2  1  0.000000  0.998257  0.000073  1
  Y  Y3  1  0.000000  0.500615  0.498585  1
  Er  Er4  1  0.000000  0.742675  0.281800  1
  Sc  Sc5  1  0.000000  0.118152  0.411290  1
  Sc  Sc6  1  0.000000  0.882464  0.584647  1
  Sc  Sc7  1  0.000000  0.380439  0.915722  1
  Sc  Sc8  1  0.000000  0.615408  0.089163  1
  Sc  Sc9  1  0.000000  0.245172  0.220023  1
  In  In10  1  0.500000  0.411102  0.349005  1
  In  In11  1  0.500000  0.588977  0.648879  1
  In  In12  1  0.500000  0.087492  0.850165  1
  In  In13  1  0.500000  0.921360  0.149846  1
  In  In14  1  0.500000  0.301127  0.065373  1
  In  In15  1  0.500000  0.690343  0.941722  1
  In  In16  1  0.500000  0.192029  0.558060  1
  In  In17  1  0.500000  0.808525  0.437617  1
  Pt  Pt18  1  0.500000  0.036355  0.304123  1
  Pt  Pt19  1  0.500000  0.969077  0.690582  1
  Pt  Pt20  1  0.500000  0.467977  0.809497  1
  Pt  Pt21  1  0.500000  0.522822  0.194546  1
