# generated using pymatgen
data_Na4MnFeP2(CO7)2
_symmetry_space_group_name_H-M   'P 1'
_cell_length_a   6.56634200
_cell_length_b   5.25577396
_cell_length_c   9.03817200
_cell_angle_alpha   88.67941802
_cell_angle_beta   90.00000000
_cell_angle_gamma   90.00000000
_symmetry_Int_Tables_number   1
_chemical_formula_structural   Na4MnFeP2(CO7)2
_chemical_formula_sum   'Na4 Mn1 Fe1 P2 C2 O14'
_cell_volume   311.83539849
_cell_formula_units_Z   1
loop_
 _symmetry_equiv_pos_site_id
 _symmetry_equiv_pos_as_xyz
  1  'x, y, z'
loop_
 _atom_site_type_symbol
 _atom_site_label
 _atom_site_symmetry_multiplicity
 _atom_site_fract_x
 _atom_site_fract_y
 _atom_site_fract_z
 _atom_site_occupancy
  Na  Na0  1  0.507901  0.768936  0.770086  1
  Na  Na1  1  0.992099  0.768936  0.770086  1
  Na  Na2  1  0.495844  0.235122  0.228665  1
  Na  Na3  1  0.004156  0.235122  0.228665  1
  Mn  Mn4  1  0.250000  0.223766  0.641536  1
  Fe  Fe5  1  0.750000  0.784057  0.357512  1
  P  P6  1  0.750000  0.283629  0.572910  1
  P  P7  1  0.250000  0.709367  0.428214  1
  C  C8  1  0.250000  0.285524  0.918364  1
  C  C9  1  0.750000  0.726933  0.081508  1
  O  O10  1  0.750000  0.691113  0.944728  1
  O  O11  1  0.250000  0.068665  0.844586  1
  O  O12  1  0.250000  0.485412  0.831614  1
  O  O13  1  0.939673  0.204041  0.663627  1
  O  O14  1  0.560327  0.204041  0.663627  1
  O  O15  1  0.250000  0.829474  0.582067  1
  O  O16  1  0.750000  0.579985  0.546529  1
  O  O17  1  0.250000  0.408157  0.449234  1
  O  O18  1  0.750000  0.152855  0.419920  1
  O  O19  1  0.440823  0.789538  0.338290  1
  O  O20  1  0.059177  0.789538  0.338290  1
  O  O21  1  0.750000  0.538039  0.181394  1
  O  O22  1  0.750000  0.951897  0.141560  1
  O  O23  1  0.250000  0.285853  0.056987  1
