# generated using pymatgen
data_Ho3Lu5Ga3Ir
_symmetry_space_group_name_H-M   'P 1'
_cell_length_a   9.88253300
_cell_length_b   9.88995875
_cell_length_c   6.96486014
_cell_angle_alpha   90.01953585
_cell_angle_beta   90.00126540
_cell_angle_gamma   119.97493249
_symmetry_Int_Tables_number   1
_chemical_formula_structural   Ho3Lu5Ga3Ir
_chemical_formula_sum   'Ho6 Lu10 Ga6 Ir2'
_cell_volume   589.67863804
_cell_formula_units_Z   2
loop_
 _symmetry_equiv_pos_site_id
 _symmetry_equiv_pos_as_xyz
  1  'x, y, z'
loop_
 _atom_site_type_symbol
 _atom_site_label
 _atom_site_symmetry_multiplicity
 _atom_site_fract_x
 _atom_site_fract_y
 _atom_site_fract_z
 _atom_site_occupancy
  Ho  Ho0  1  0.466268  0.932540  0.205851  1
  Ho  Ho1  1  0.533155  0.466805  0.705986  1
  Ho  Ho2  1  0.933649  0.466806  0.705979  1
  Ho  Ho3  1  0.533425  0.066853  0.705916  1
  Ho  Ho4  1  0.000003  0.000011  0.232925  1
  Ho  Ho5  1  0.999920  0.999850  0.732911  1
  Lu  Lu6  1  0.171265  0.827980  0.509416  1
  Lu  Lu7  1  0.656701  0.827973  0.509412  1
  Lu  Lu8  1  0.171710  0.343427  0.508832  1
  Lu  Lu9  1  0.829023  0.172237  0.010870  1
  Lu  Lu10  1  0.343215  0.172230  0.010863  1
  Lu  Lu11  1  0.828181  0.656373  0.011656  1
  Lu  Lu12  1  0.332916  0.665835  0.837002  1
  Lu  Lu13  1  0.667022  0.334047  0.336352  1
  Lu  Lu14  1  0.465487  0.534194  0.205948  1
  Lu  Lu15  1  0.068702  0.534202  0.205940  1
  Ga  Ga16  1  0.163504  0.835784  0.957859  1
  Ga  Ga17  1  0.672313  0.835836  0.957858  1
  Ga  Ga18  1  0.164056  0.328080  0.958552  1
  Ga  Ga19  1  0.836289  0.163680  0.457340  1
  Ga  Ga20  1  0.327413  0.163692  0.457295  1
  Ga  Ga21  1  0.836321  0.672646  0.456975  1
  Ir  Ir22  1  0.332798  0.665632  0.445258  1
  Ir  Ir23  1  0.666664  0.333287  0.947047  1
