# generated using pymatgen
data_HoPa2(GaPt)3
_symmetry_space_group_name_H-M   'P 1'
_cell_length_a   7.16397463
_cell_length_b   7.17717490
_cell_length_c   4.02999800
_cell_angle_alpha   90.00000000
_cell_angle_beta   90.00000000
_cell_angle_gamma   120.06098688
_symmetry_Int_Tables_number   1
_chemical_formula_structural   HoPa2(GaPt)3
_chemical_formula_sum   'Ho1 Pa2 Ga3 Pt3'
_cell_volume   179.33944020
_cell_formula_units_Z   1
loop_
 _symmetry_equiv_pos_site_id
 _symmetry_equiv_pos_as_xyz
  1  'x, y, z'
loop_
 _atom_site_type_symbol
 _atom_site_label
 _atom_site_symmetry_multiplicity
 _atom_site_fract_x
 _atom_site_fract_y
 _atom_site_fract_z
 _atom_site_occupancy
  Ho  Ho0  1  0.000000  0.590029  0.500000  1
  Pa  Pa1  1  0.416942  0.415744  0.500000  1
  Pa  Pa2  1  0.583058  0.998802  0.500000  1
  Ga  Ga3  1  0.760779  0.751071  0.000000  1
  Ga  Ga4  1  0.239221  0.990292  0.000000  1
  Ga  Ga5  1  0.000000  0.253364  0.000000  1
  Pt  Pt6  1  0.654241  0.323484  0.000000  1
  Pt  Pt7  1  0.345759  0.669244  0.000000  1
  Pt  Pt8  1  0.000000  0.007968  0.500000  1
