# generated using pymatgen
data_Ta2Nb4Re6Si5P
_symmetry_space_group_name_H-M   'P 1'
_cell_length_a   7.52529023
_cell_length_b   7.60032169
_cell_length_c   7.52529010
_cell_angle_alpha   127.47829901
_cell_angle_beta   124.13236890
_cell_angle_gamma   79.98532550
_symmetry_Int_Tables_number   1
_chemical_formula_structural   Ta2Nb4Re6Si5P
_chemical_formula_sum   'Ta2 Nb4 Re6 Si5 P1'
_cell_volume   273.37955512
_cell_formula_units_Z   1
loop_
 _symmetry_equiv_pos_site_id
 _symmetry_equiv_pos_as_xyz
  1  'x, y, z'
loop_
 _atom_site_type_symbol
 _atom_site_label
 _atom_site_symmetry_multiplicity
 _atom_site_fract_x
 _atom_site_fract_y
 _atom_site_fract_z
 _atom_site_occupancy
  Ta  Ta0  1  0.545755  0.089676  0.043921  1
  Ta  Ta1  1  0.441712  0.477547  0.535835  1
  Nb  Nb2  1  0.966248  0.508350  0.042103  1
  Nb  Nb3  1  0.041309  0.078513  0.537204  1
  Nb  Nb4  1  0.757237  0.907801  0.650564  1
  Nb  Nb5  1  0.249642  0.914327  0.164684  1
  Re  Re6  1  0.529426  0.246234  0.777929  1
  Re  Re7  1  0.968304  0.246234  0.216808  1
  Re  Re8  1  0.157219  0.745934  0.653625  1
  Re  Re9  1  0.838035  0.493125  0.586005  1
  Re  Re10  1  0.592309  0.745934  0.088715  1
  Re  Re11  1  0.407121  0.493125  0.155090  1
  Si  Si12  1  0.227278  0.465173  0.737895  1
  Si  Si13  1  0.340020  0.829033  0.502142  1
  Si  Si14  1  0.669459  0.164050  0.498893  1
  Si  Si15  1  0.826891  0.829033  0.989013  1
  Si  Si16  1  0.165156  0.164050  0.994592  1
  P  P17  1  0.776878  0.544061  0.267183  1
