# generated using pymatgen
data_ScTe5
_symmetry_space_group_name_H-M   'P 1'
_cell_length_a   8.53818102
_cell_length_b   8.53818087
_cell_length_c   13.79990500
_cell_angle_alpha   90.00000000
_cell_angle_beta   90.00000000
_cell_angle_gamma   153.76663870
_symmetry_Int_Tables_number   1
_chemical_formula_structural   ScTe5
_chemical_formula_sum   'Sc2 Te10'
_cell_volume   444.68942464
_cell_formula_units_Z   2
loop_
 _symmetry_equiv_pos_site_id
 _symmetry_equiv_pos_as_xyz
  1  'x, y, z'
loop_
 _atom_site_type_symbol
 _atom_site_label
 _atom_site_symmetry_multiplicity
 _atom_site_fract_x
 _atom_site_fract_y
 _atom_site_fract_z
 _atom_site_occupancy
  Sc  Sc0  1  0.307355  0.692645  0.250000  1
  Sc  Sc1  1  0.692645  0.307355  0.750000  1
  Te  Te2  1  0.787160  0.212840  0.932192  1
  Te  Te3  1  0.212840  0.787160  0.067808  1
  Te  Te4  1  0.328756  0.671244  0.750000  1
  Te  Te5  1  0.671244  0.328756  0.250000  1
  Te  Te6  1  0.078920  0.921080  0.848870  1
  Te  Te7  1  0.921080  0.078920  0.151130  1
  Te  Te8  1  0.921080  0.078920  0.348870  1
  Te  Te9  1  0.078920  0.921080  0.651130  1
  Te  Te10  1  0.787160  0.212840  0.567808  1
  Te  Te11  1  0.212840  0.787160  0.432192  1
