# generated using pymatgen
data_Ba12Si3AsI8
_symmetry_space_group_name_H-M   'P 1'
_cell_length_a   16.43570930
_cell_length_b   15.67827659
_cell_length_c   8.70443022
_cell_angle_alpha   79.13612871
_cell_angle_beta   69.52404642
_cell_angle_gamma   31.36535965
_symmetry_Int_Tables_number   1
_chemical_formula_structural   Ba12Si3AsI8
_chemical_formula_sum   'Ba12 Si3 As1 I8'
_cell_volume   1065.39316216
_cell_formula_units_Z   1
loop_
 _symmetry_equiv_pos_site_id
 _symmetry_equiv_pos_as_xyz
  1  'x, y, z'
loop_
 _atom_site_type_symbol
 _atom_site_label
 _atom_site_symmetry_multiplicity
 _atom_site_fract_x
 _atom_site_fract_y
 _atom_site_fract_z
 _atom_site_occupancy
  Ba  Ba0  1  0.375829  0.943459  0.584420  1
  Ba  Ba1  1  0.588185  0.094309  0.373557  1
  Ba  Ba2  1  0.307445  0.874977  0.158954  1
  Ba  Ba3  1  0.943459  0.375829  0.096293  1
  Ba  Ba4  1  0.459477  0.041275  0.040585  1
  Ba  Ba5  1  0.874977  0.307445  0.658623  1
  Ba  Ba6  1  0.094309  0.588185  0.943949  1
  Ba  Ba7  1  0.661036  0.155974  0.876106  1
  Ba  Ba8  1  0.788947  0.209017  0.211458  1
  Ba  Ba9  1  0.209017  0.788947  0.790577  1
  Ba  Ba10  1  0.155974  0.661036  0.306883  1
  Ba  Ba11  1  0.041275  0.459477  0.458663  1
  Si  Si12  1  0.917739  0.917739  0.082261  1
  Si  Si13  1  0.164575  0.164575  0.335425  1
  Si  Si14  1  0.333767  0.333767  0.166233  1
  As  As15  1  0.084212  0.084212  0.915788  1
  I  I16  1  0.671522  0.671522  0.828478  1
  I  I17  1  0.745876  0.745876  0.254124  1
  I  I18  1  0.252923  0.252923  0.747077  1
  I  I19  1  0.577956  0.577956  0.422044  1
  I  I20  1  0.996793  0.996793  0.503207  1
  I  I21  1  0.827497  0.827497  0.672503  1
  I  I22  1  0.422844  0.422844  0.577156  1
  I  I23  1  0.504366  0.504366  0.995634  1
