# generated using pymatgen
data_SrHoMg(Si3Pd10)2
_symmetry_space_group_name_H-M   'P 1'
_cell_length_a   8.70940800
_cell_length_b   8.70940876
_cell_length_c   8.70940800
_cell_angle_alpha   59.99999527
_cell_angle_beta   59.99999240
_cell_angle_gamma   59.99999342
_symmetry_Int_Tables_number   1
_chemical_formula_structural   SrHoMg(Si3Pd10)2
_chemical_formula_sum   'Sr1 Ho1 Mg1 Si6 Pd20'
_cell_volume   467.14411873
_cell_formula_units_Z   1
loop_
 _symmetry_equiv_pos_site_id
 _symmetry_equiv_pos_as_xyz
  1  'x, y, z'
loop_
 _atom_site_type_symbol
 _atom_site_label
 _atom_site_symmetry_multiplicity
 _atom_site_fract_x
 _atom_site_fract_y
 _atom_site_fract_z
 _atom_site_occupancy
  Sr  Sr0  1  0.250000  0.250000  0.250000  1
  Ho  Ho1  1  0.750000  0.750000  0.750000  1
  Mg  Mg2  1  0.000000  0.000000  0.000000  1
  Si  Si3  1  0.732923  0.267077  0.267077  1
  Si  Si4  1  0.267077  0.732923  0.732923  1
  Si  Si5  1  0.267077  0.732923  0.267077  1
  Si  Si6  1  0.732923  0.267077  0.732923  1
  Si  Si7  1  0.267077  0.267077  0.732923  1
  Si  Si8  1  0.732923  0.732923  0.267077  1
  Pd  Pd9  1  0.387177  0.387177  0.387177  1
  Pd  Pd10  1  0.617303  0.617303  0.617303  1
  Pd  Pd11  1  0.387177  0.387177  0.838469  1
  Pd  Pd12  1  0.387177  0.838469  0.387177  1
  Pd  Pd13  1  0.617303  0.617303  0.148090  1
  Pd  Pd14  1  0.617303  0.148090  0.617303  1
  Pd  Pd15  1  0.838469  0.387177  0.387177  1
  Pd  Pd16  1  0.148090  0.617303  0.617303  1
  Pd  Pd17  1  0.345345  0.997637  0.997637  1
  Pd  Pd18  1  0.659381  0.997637  0.997637  1
  Pd  Pd19  1  0.997637  0.345345  0.659381  1
  Pd  Pd20  1  0.997637  0.659381  0.345345  1
  Pd  Pd21  1  0.997637  0.345345  0.997637  1
  Pd  Pd22  1  0.659381  0.997637  0.345345  1
  Pd  Pd23  1  0.997637  0.659381  0.997637  1
  Pd  Pd24  1  0.345345  0.997637  0.659381  1
  Pd  Pd25  1  0.997637  0.997637  0.345345  1
  Pd  Pd26  1  0.997637  0.997637  0.659381  1
  Pd  Pd27  1  0.659381  0.345345  0.997637  1
  Pd  Pd28  1  0.345345  0.659381  0.997637  1
