# generated using pymatgen
data_Zr10CuSn3Sb4
_symmetry_space_group_name_H-M   'P 1'
_cell_length_a   5.90778700
_cell_length_b   8.75314320
_cell_length_c   8.75313200
_cell_angle_alpha   119.99997215
_cell_angle_beta   89.99925296
_cell_angle_gamma   90.00082537
_symmetry_Int_Tables_number   1
_chemical_formula_structural   Zr10CuSn3Sb4
_chemical_formula_sum   'Zr10 Cu1 Sn3 Sb4'
_cell_volume   391.99731657
_cell_formula_units_Z   1
loop_
 _symmetry_equiv_pos_site_id
 _symmetry_equiv_pos_as_xyz
  1  'x, y, z'
loop_
 _atom_site_type_symbol
 _atom_site_label
 _atom_site_symmetry_multiplicity
 _atom_site_fract_x
 _atom_site_fract_y
 _atom_site_fract_z
 _atom_site_occupancy
  Zr  Zr0  1  0.498455  0.333332  0.666668  1
  Zr  Zr1  1  0.498449  0.666666  0.333332  1
  Zr  Zr2  1  0.001741  0.666665  0.333334  1
  Zr  Zr3  1  0.001739  0.333335  0.666666  1
  Zr  Zr4  1  0.737897  0.269822  0.999998  1
  Zr  Zr5  1  0.737903  0.730175  0.730177  1
  Zr  Zr6  1  0.737897  0.000001  0.269823  1
  Zr  Zr7  1  0.263653  0.724754  0.000004  1
  Zr  Zr8  1  0.263655  0.275248  0.275248  1
  Zr  Zr9  1  0.263656  0.000002  0.724752  1
  Cu  Cu10  1  0.491148  0.000000  0.000000  1
  Sn  Sn11  1  0.247862  0.384790  0.000001  1
  Sn  Sn12  1  0.247865  0.615209  0.615210  1
  Sn  Sn13  1  0.247861  0.000000  0.384790  1
  Sb  Sb14  1  0.751294  0.609999  0.000003  1
  Sb  Sb15  1  0.751294  0.390003  0.390000  1
  Sb  Sb16  1  0.751295  0.999997  0.609995  1
  Sb  Sb17  1  0.006338  0.000001  0.000002  1
