# generated using pymatgen
data_Rb3PdO3
_symmetry_space_group_name_H-M   'P 1'
_cell_length_a   6.79444051
_cell_length_b   7.04633745
_cell_length_c   12.73241867
_cell_angle_alpha   90.00263835
_cell_angle_beta   89.99805260
_cell_angle_gamma   91.16442272
_symmetry_Int_Tables_number   1
_chemical_formula_structural   Rb3PdO3
_chemical_formula_sum   'Rb12 Pd4 O12'
_cell_volume   609.45038380
_cell_formula_units_Z   4
loop_
 _symmetry_equiv_pos_site_id
 _symmetry_equiv_pos_as_xyz
  1  'x, y, z'
loop_
 _atom_site_type_symbol
 _atom_site_label
 _atom_site_symmetry_multiplicity
 _atom_site_fract_x
 _atom_site_fract_y
 _atom_site_fract_z
 _atom_site_occupancy
  Rb  Rb0  1  0.044702  0.115994  0.291366  1
  Rb  Rb1  1  0.956189  0.883541  0.708505  1
  Rb  Rb2  1  0.044541  0.616317  0.208631  1
  Rb  Rb3  1  0.955866  0.383885  0.791519  1
  Rb  Rb4  1  0.480714  0.515672  0.715021  1
  Rb  Rb5  1  0.481048  0.015335  0.785005  1
  Rb  Rb6  1  0.518763  0.484820  0.284949  1
  Rb  Rb7  1  0.518893  0.984453  0.215079  1
  Rb  Rb8  1  0.332400  0.668606  0.989357  1
  Rb  Rb9  1  0.332268  0.168585  0.510635  1
  Rb  Rb10  1  0.667337  0.831175  0.489339  1
  Rb  Rb11  1  0.667442  0.331181  0.010652  1
  Pd  Pd12  1  0.834446  0.836076  0.993224  1
  Pd  Pd13  1  0.165366  0.663829  0.493206  1
  Pd  Pd14  1  0.164877  0.163625  0.006691  1
  Pd  Pd15  1  0.834960  0.336335  0.506676  1
  O  O16  1  0.304306  0.794448  0.374589  1
  O  O17  1  0.695993  0.705506  0.874535  1
  O  O18  1  0.696418  0.205676  0.625611  1
  O  O19  1  0.303948  0.294231  0.125508  1
  O  O20  1  0.980061  0.031654  0.902549  1
  O  O21  1  0.019533  0.468626  0.402522  1
  O  O22  1  0.980651  0.531705  0.597518  1
  O  O23  1  0.019165  0.968402  0.097481  1
  O  O24  1  0.308237  0.812102  0.605080  1
  O  O25  1  0.691967  0.188378  0.394720  1
  O  O26  1  0.691868  0.688055  0.105218  1
  O  O27  1  0.308042  0.311788  0.894812  1
