# generated using pymatgen
data_YEr15(AlNi)4
_symmetry_space_group_name_H-M   'P 1'
_cell_length_a   9.39104119
_cell_length_b   9.36119618
_cell_length_c   9.36119500
_cell_angle_alpha   59.98233814
_cell_angle_beta   59.89447641
_cell_angle_gamma   59.89447180
_symmetry_Int_Tables_number   1
_chemical_formula_structural   YEr15(AlNi)4
_chemical_formula_sum   'Y1 Er15 Al4 Ni4'
_cell_volume   580.91021593
_cell_formula_units_Z   1
loop_
 _symmetry_equiv_pos_site_id
 _symmetry_equiv_pos_as_xyz
  1  'x, y, z'
loop_
 _atom_site_type_symbol
 _atom_site_label
 _atom_site_symmetry_multiplicity
 _atom_site_fract_x
 _atom_site_fract_y
 _atom_site_fract_z
 _atom_site_occupancy
  Y  Y0  1  0.184961  0.815039  0.815039  1
  Er  Er1  1  0.814120  0.185880  0.185880  1
  Er  Er2  1  0.812643  0.186572  0.814493  1
  Er  Er3  1  0.186292  0.814493  0.186572  1
  Er  Er4  1  0.812643  0.814493  0.186572  1
  Er  Er5  1  0.186292  0.186572  0.814493  1
  Er  Er6  1  0.601170  0.600803  0.600803  1
  Er  Er7  1  0.600533  0.600809  0.198124  1
  Er  Er8  1  0.600533  0.198124  0.600809  1
  Er  Er9  1  0.197223  0.600803  0.600803  1
  Er  Er10  1  0.059765  0.440235  0.440235  1
  Er  Er11  1  0.440421  0.059579  0.059579  1
  Er  Er12  1  0.441413  0.059150  0.439976  1
  Er  Er13  1  0.059461  0.439976  0.059150  1
  Er  Er14  1  0.441413  0.439976  0.059150  1
  Er  Er15  1  0.059461  0.059150  0.439976  1
  Al  Al16  1  0.827598  0.827193  0.827193  1
  Al  Al17  1  0.827634  0.827006  0.517725  1
  Al  Al18  1  0.827634  0.517725  0.827006  1
  Al  Al19  1  0.518013  0.827193  0.827193  1
  Ni  Ni20  1  0.392876  0.392693  0.392693  1
  Ni  Ni21  1  0.393080  0.393329  0.820510  1
  Ni  Ni22  1  0.393080  0.820510  0.393329  1
  Ni  Ni23  1  0.821737  0.392693  0.392693  1
