# generated using pymatgen
data_Er13Tm7(SnPb)8
_symmetry_space_group_name_H-M   'P 1'
_cell_length_a   8.07146205
_cell_length_b   8.13280905
_cell_length_c   15.43593301
_cell_angle_alpha   90.00355331
_cell_angle_beta   90.00010146
_cell_angle_gamma   90.01230470
_symmetry_Int_Tables_number   1
_chemical_formula_structural   Er13Tm7(SnPb)8
_chemical_formula_sum   'Er13 Tm7 Sn8 Pb8'
_cell_volume   1013.27110640
_cell_formula_units_Z   1
loop_
 _symmetry_equiv_pos_site_id
 _symmetry_equiv_pos_as_xyz
  1  'x, y, z'
loop_
 _atom_site_type_symbol
 _atom_site_label
 _atom_site_symmetry_multiplicity
 _atom_site_fract_x
 _atom_site_fract_y
 _atom_site_fract_z
 _atom_site_occupancy
  Er  Er0  1  0.121704  0.339738  0.123167  1
  Er  Er1  1  0.621615  0.160321  0.123226  1
  Er  Er2  1  0.121581  0.339719  0.376748  1
  Er  Er3  1  0.378331  0.839708  0.623245  1
  Er  Er4  1  0.878405  0.660275  0.876830  1
  Er  Er5  1  0.535325  0.323490  0.897347  1
  Er  Er6  1  0.035386  0.176528  0.602729  1
  Er  Er7  1  0.464647  0.676583  0.397359  1
  Er  Er8  1  0.964665  0.823505  0.102627  1
  Er  Er9  1  0.464684  0.676521  0.102566  1
  Er  Er10  1  0.964621  0.823555  0.397428  1
  Er  Er11  1  0.535404  0.323526  0.602669  1
  Er  Er12  1  0.035354  0.176407  0.897307  1
  Tm  Tm13  1  0.378230  0.839831  0.876731  1
  Tm  Tm14  1  0.878208  0.660192  0.623232  1
  Tm  Tm15  1  0.621772  0.160149  0.376800  1
  Tm  Tm16  1  0.209189  0.504088  0.750013  1
  Tm  Tm17  1  0.709195  0.995927  0.749987  1
  Tm  Tm18  1  0.790739  0.495971  0.250068  1
  Tm  Tm19  1  0.290890  0.003971  0.250047  1
  Sn  Sn20  1  0.574134  0.623333  0.750028  1
  Sn  Sn21  1  0.074112  0.876664  0.749976  1
  Sn  Sn22  1  0.425988  0.376679  0.250087  1
  Sn  Sn23  1  0.925743  0.123193  0.250059  1
  Sn  Sn24  1  0.343903  0.149608  0.750047  1
  Sn  Sn25  1  0.843919  0.350399  0.749968  1
  Sn  Sn26  1  0.656127  0.850427  0.250043  1
  Sn  Sn27  1  0.156124  0.649710  0.250004  1
  Pb  Pb28  1  0.281947  0.033128  0.041432  1
  Pb  Pb29  1  0.781752  0.466468  0.458494  1
  Pb  Pb30  1  0.718291  0.966462  0.541499  1
  Pb  Pb31  1  0.218425  0.533767  0.958274  1
  Pb  Pb32  1  0.717763  0.966538  0.958293  1
  Pb  Pb33  1  0.217793  0.533487  0.541711  1
  Pb  Pb34  1  0.282223  0.033501  0.458259  1
  Pb  Pb35  1  0.781810  0.466631  0.041697  1
