# generated using pymatgen
data_BaU2(FeH6)2
_symmetry_space_group_name_H-M   'P 1'
_cell_length_a   4.85719500
_cell_length_b   4.85719452
_cell_length_c   8.19838200
_cell_angle_alpha   90.00000000
_cell_angle_beta   90.00000000
_cell_angle_gamma   119.99999643
_symmetry_Int_Tables_number   1
_chemical_formula_structural   BaU2(FeH6)2
_chemical_formula_sum   'Ba1 U2 Fe2 H12'
_cell_volume   167.50579388
_cell_formula_units_Z   1
loop_
 _symmetry_equiv_pos_site_id
 _symmetry_equiv_pos_as_xyz
  1  'x, y, z'
loop_
 _atom_site_type_symbol
 _atom_site_label
 _atom_site_symmetry_multiplicity
 _atom_site_fract_x
 _atom_site_fract_y
 _atom_site_fract_z
 _atom_site_occupancy
  Ba  Ba0  1  0.000000  0.000000  0.000000  1
  U  U1  1  0.666667  0.333333  0.370975  1
  U  U2  1  0.333333  0.666667  0.629025  1
  Fe  Fe3  1  0.666667  0.333333  0.727559  1
  Fe  Fe4  1  0.333333  0.666667  0.272441  1
  H  H5  1  0.172570  0.827430  0.382594  1
  H  H6  1  0.654862  0.827430  0.382594  1
  H  H7  1  0.172570  0.345138  0.382594  1
  H  H8  1  0.827430  0.172570  0.617406  1
  H  H9  1  0.345138  0.172570  0.617406  1
  H  H10  1  0.827430  0.654862  0.617406  1
  H  H11  1  0.513368  0.026737  0.843711  1
  H  H12  1  0.513368  0.486632  0.843711  1
  H  H13  1  0.973263  0.486632  0.843711  1
  H  H14  1  0.486632  0.973263  0.156289  1
  H  H15  1  0.486632  0.513368  0.156289  1
  H  H16  1  0.026737  0.513368  0.156289  1
