# generated using pymatgen
data_Tm5InPb2
_symmetry_space_group_name_H-M   'P 1'
_cell_length_a   6.58728900
_cell_length_b   8.89950139
_cell_length_c   8.91003468
_cell_angle_alpha   119.96089892
_cell_angle_beta   90.00017063
_cell_angle_gamma   89.99965463
_symmetry_Int_Tables_number   1
_chemical_formula_structural   Tm5InPb2
_chemical_formula_sum   'Tm10 In2 Pb4'
_cell_volume   452.53627661
_cell_formula_units_Z   2
loop_
 _symmetry_equiv_pos_site_id
 _symmetry_equiv_pos_as_xyz
  1  'x, y, z'
loop_
 _atom_site_type_symbol
 _atom_site_label
 _atom_site_symmetry_multiplicity
 _atom_site_fract_x
 _atom_site_fract_y
 _atom_site_fract_z
 _atom_site_occupancy
  Tm  Tm0  1  0.495934  0.333041  0.663231  1
  Tm  Tm1  1  0.495934  0.669810  0.336769  1
  Tm  Tm2  1  0.004063  0.669809  0.336769  1
  Tm  Tm3  1  0.004063  0.333039  0.663231  1
  Tm  Tm4  1  0.750001  0.235337  0.000000  1
  Tm  Tm5  1  0.750002  0.764439  0.764290  1
  Tm  Tm6  1  0.750002  0.000149  0.235710  1
  Tm  Tm7  1  0.249999  0.766037  0.000000  1
  Tm  Tm8  1  0.250001  0.234611  0.239132  1
  Tm  Tm9  1  0.250001  0.995479  0.760868  1
  In  In10  1  0.249999  0.602017  0.602383  1
  In  In11  1  0.249999  0.999633  0.397617  1
  Pb  Pb12  1  0.750004  0.602481  0.000000  1
  Pb  Pb13  1  0.749999  0.398536  0.396972  1
  Pb  Pb14  1  0.749999  0.001565  0.603028  1
  Pb  Pb15  1  0.249998  0.394016  0.000000  1
