# generated using pymatgen
data_Li5Si(Ru2W)6
_symmetry_space_group_name_H-M   'P 1'
_cell_length_a   4.27492822
_cell_length_b   6.08530532
_cell_length_c   12.84041301
_cell_angle_alpha   89.99963755
_cell_angle_beta   89.99621820
_cell_angle_gamma   89.96310900
_symmetry_Int_Tables_number   1
_chemical_formula_structural   Li5Si(Ru2W)6
_chemical_formula_sum   'Li5 Si1 Ru12 W6'
_cell_volume   334.03355991
_cell_formula_units_Z   1
loop_
 _symmetry_equiv_pos_site_id
 _symmetry_equiv_pos_as_xyz
  1  'x, y, z'
loop_
 _atom_site_type_symbol
 _atom_site_label
 _atom_site_symmetry_multiplicity
 _atom_site_fract_x
 _atom_site_fract_y
 _atom_site_fract_z
 _atom_site_occupancy
  Li  Li0  1  0.499658  0.500000  0.166771  1
  Li  Li1  1  0.999657  0.000001  0.332935  1
  Li  Li2  1  0.500000  0.500000  0.500000  1
  Li  Li3  1  0.000342  0.999999  0.667064  1
  Li  Li4  1  0.500341  0.500000  0.833229  1
  Si  Si5  1  0.000000  0.000000  0.000000  1
  Ru  Ru6  1  0.500099  0.247792  0.999998  1
  Ru  Ru7  1  0.499901  0.752207  0.000002  1
  Ru  Ru8  1  0.999585  0.248675  0.164913  1
  Ru  Ru9  1  0.999966  0.751331  0.164916  1
  Ru  Ru10  1  0.500019  0.251099  0.332477  1
  Ru  Ru11  1  0.499523  0.748905  0.332479  1
  Ru  Ru12  1  0.999763  0.248200  0.500000  1
  Ru  Ru13  1  0.000237  0.751799  0.500000  1
  Ru  Ru14  1  0.500476  0.251095  0.667521  1
  Ru  Ru15  1  0.499980  0.748901  0.667523  1
  Ru  Ru16  1  0.000036  0.248670  0.835083  1
  Ru  Ru17  1  0.000417  0.751326  0.835086  1
  W  W18  1  0.000000  0.500000  0.000000  1
  W  W19  1  0.499757  0.999998  0.171598  1
  W  W20  1  0.999764  0.499998  0.336045  1
  W  W21  1  0.500000  0.000000  0.500000  1
  W  W22  1  0.000237  0.500002  0.663956  1
  W  W23  1  0.500245  0.000002  0.828402  1
