# generated using pymatgen
data_Li2ZnPb3O8
_symmetry_space_group_name_H-M   'P 1'
_cell_length_a   10.97520700
_cell_length_b   10.97520695
_cell_length_c   10.32504000
_cell_angle_alpha   90.00000000
_cell_angle_beta   90.00000000
_cell_angle_gamma   120.11077083
_symmetry_Int_Tables_number   1
_chemical_formula_structural   Li2ZnPb3O8
_chemical_formula_sum   'Li12 Zn6 Pb18 O48'
_cell_volume   1075.87538130
_cell_formula_units_Z   6
loop_
 _symmetry_equiv_pos_site_id
 _symmetry_equiv_pos_as_xyz
  1  'x, y, z'
loop_
 _atom_site_type_symbol
 _atom_site_label
 _atom_site_symmetry_multiplicity
 _atom_site_fract_x
 _atom_site_fract_y
 _atom_site_fract_z
 _atom_site_occupancy
  Li  Li0  1  0.334457  0.832756  0.009196  1
  Li  Li1  1  0.692445  0.333281  0.781982  1
  Li  Li2  1  0.307556  0.666720  0.281981  1
  Li  Li3  1  0.333281  0.692445  0.781982  1
  Li  Li4  1  0.666720  0.307556  0.281981  1
  Li  Li5  1  0.979938  0.979938  0.783795  1
  Li  Li6  1  0.020061  0.020061  0.283796  1
  Li  Li7  1  0.165379  0.165379  0.508949  1
  Li  Li8  1  0.834621  0.834621  0.008950  1
  Li  Li9  1  0.167245  0.665544  0.509196  1
  Li  Li10  1  0.832756  0.334457  0.009196  1
  Li  Li11  1  0.665544  0.167245  0.509196  1
  Zn  Zn12  1  0.666890  0.666890  0.690612  1
  Zn  Zn13  1  0.333111  0.333111  0.190612  1
  Zn  Zn14  1  0.334283  0.000080  0.696737  1
  Zn  Zn15  1  0.665718  0.999921  0.196736  1
  Zn  Zn16  1  0.000080  0.334283  0.696737  1
  Zn  Zn17  1  0.999921  0.665718  0.196736  1
  Pb  Pb18  1  0.019650  0.843461  0.504796  1
  Pb  Pb19  1  0.980349  0.156539  0.004797  1
  Pb  Pb20  1  0.843461  0.019650  0.504796  1
  Pb  Pb21  1  0.156539  0.980349  0.004797  1
  Pb  Pb22  1  0.840821  0.492386  0.504365  1
  Pb  Pb23  1  0.159180  0.507615  0.004366  1
  Pb  Pb24  1  0.492386  0.840821  0.504365  1
  Pb  Pb25  1  0.507615  0.159180  0.004366  1
  Pb  Pb26  1  0.490153  0.315281  0.503497  1
  Pb  Pb27  1  0.509847  0.684719  0.003497  1
  Pb  Pb28  1  0.315281  0.490153  0.503497  1
  Pb  Pb29  1  0.684719  0.509847  0.003497  1
  Pb  Pb30  1  0.005666  0.667217  0.785018  1
  Pb  Pb31  1  0.994335  0.332784  0.285017  1
  Pb  Pb32  1  0.667217  0.005666  0.785018  1
  Pb  Pb33  1  0.332784  0.994335  0.285017  1
  Pb  Pb34  1  0.328015  0.328015  0.785384  1
  Pb  Pb35  1  0.671985  0.671985  0.285386  1
  O  O36  1  0.844817  0.667931  0.630751  1
  O  O37  1  0.155181  0.332068  0.130750  1
  O  O38  1  0.667931  0.844817  0.630751  1
  O  O39  1  0.332068  0.155181  0.130750  1
  O  O40  1  0.330192  0.174422  0.641595  1
  O  O41  1  0.669807  0.825577  0.141595  1
  O  O42  1  0.174422  0.330192  0.641595  1
  O  O43  1  0.825577  0.669807  0.141595  1
  O  O44  1  0.160859  0.823434  0.640146  1
  O  O45  1  0.839141  0.176566  0.140146  1
  O  O46  1  0.823434  0.160859  0.640146  1
  O  O47  1  0.176566  0.839141  0.140146  1
  O  O48  1  0.001646  0.509754  0.640254  1
  O  O49  1  0.998355  0.490246  0.140254  1
  O  O50  1  0.509754  0.001646  0.640254  1
  O  O51  1  0.490246  0.998355  0.140254  1
  O  O52  1  0.665716  0.328493  0.606342  1
  O  O53  1  0.334283  0.671506  0.106342  1
  O  O54  1  0.328493  0.665716  0.606342  1
  O  O55  1  0.671506  0.334283  0.106342  1
  O  O56  1  0.848765  0.848765  0.384660  1
  O  O57  1  0.151235  0.151235  0.884661  1
  O  O58  1  0.167600  0.010441  0.382236  1
  O  O59  1  0.832400  0.989559  0.882235  1
  O  O60  1  0.010441  0.167600  0.382236  1
  O  O61  1  0.989559  0.832400  0.882235  1
  O  O62  1  0.331188  0.331188  0.387086  1
  O  O63  1  0.668811  0.668811  0.887084  1
  O  O64  1  0.665485  0.489460  0.383953  1
  O  O65  1  0.334515  0.510540  0.883953  1
  O  O66  1  0.489460  0.665485  0.383953  1
  O  O67  1  0.510540  0.334515  0.883953  1
  O  O68  1  0.819725  0.322818  0.385444  1
  O  O69  1  0.180275  0.677183  0.885443  1
  O  O70  1  0.322818  0.819725  0.385444  1
  O  O71  1  0.677183  0.180275  0.885443  1
  O  O72  1  0.508172  0.166699  0.382030  1
  O  O73  1  0.491829  0.833302  0.882029  1
  O  O74  1  0.166699  0.508172  0.382030  1
  O  O75  1  0.833302  0.491829  0.882029  1
  O  O76  1  0.002860  0.666829  0.392494  1
  O  O77  1  0.997141  0.333172  0.892494  1
  O  O78  1  0.666829  0.002860  0.392494  1
  O  O79  1  0.333172  0.997141  0.892494  1
  O  O80  1  0.005552  0.005552  0.607540  1
  O  O81  1  0.994448  0.994448  0.107542  1
  O  O82  1  0.487100  0.487100  0.632306  1
  O  O83  1  0.512901  0.512901  0.132305  1
