# generated using pymatgen
data_SiGeMo12(Rh3N2)2
_symmetry_space_group_name_H-M   'P 1'
_cell_length_a   6.83177603
_cell_length_b   6.81838053
_cell_length_c   6.82475928
_cell_angle_alpha   89.28650074
_cell_angle_beta   89.99005650
_cell_angle_gamma   89.99953298
_symmetry_Int_Tables_number   1
_chemical_formula_structural   SiGeMo12(Rh3N2)2
_chemical_formula_sum   'Si1 Ge1 Mo12 Rh6 N4'
_cell_volume   317.88388456
_cell_formula_units_Z   1
loop_
 _symmetry_equiv_pos_site_id
 _symmetry_equiv_pos_as_xyz
  1  'x, y, z'
loop_
 _atom_site_type_symbol
 _atom_site_label
 _atom_site_symmetry_multiplicity
 _atom_site_fract_x
 _atom_site_fract_y
 _atom_site_fract_z
 _atom_site_occupancy
  Si  Si0  1  0.182711  0.825023  0.067478  1
  Ge  Ge1  1  0.684532  0.175975  0.934931  1
  Mo  Mo2  1  0.620665  0.045218  0.544473  1
  Mo  Mo3  1  0.121494  0.954793  0.453102  1
  Mo  Mo4  1  0.869235  0.539428  0.943970  1
  Mo  Mo5  1  0.366693  0.463681  0.055599  1
  Mo  Mo6  1  0.201749  0.624457  0.699383  1
  Mo  Mo7  1  0.298864  0.123336  0.785950  1
  Mo  Mo8  1  0.800819  0.875209  0.213775  1
  Mo  Mo9  1  0.702671  0.377535  0.303315  1
  Mo  Mo10  1  0.048673  0.208670  0.131561  1
  Mo  Mo11  1  0.962305  0.304760  0.621554  1
  Mo  Mo12  1  0.545836  0.790031  0.869998  1
  Mo  Mo13  1  0.461799  0.694873  0.377235  1
  Rh  Rh14  1  0.812983  0.687012  0.566767  1
  Rh  Rh15  1  0.311732  0.313470  0.432509  1
  Rh  Rh16  1  0.064535  0.577067  0.295992  1
  Rh  Rh17  1  0.429595  0.057539  0.172068  1
  Rh  Rh18  1  0.561615  0.428066  0.699879  1
  Rh  Rh19  1  0.940711  0.934264  0.830974  1
  N  N20  1  0.375871  0.872513  0.618122  1
  N  N21  1  0.875865  0.127800  0.381278  1
  N  N22  1  0.129233  0.374740  0.874979  1
  N  N23  1  0.629817  0.624542  0.125109  1
