# generated using pymatgen
data_K3InHg2(BSe)18
_symmetry_space_group_name_H-M   'P 1'
_cell_length_a   9.83863932
_cell_length_b   10.57658388
_cell_length_c   11.30834952
_cell_angle_alpha   100.23303109
_cell_angle_beta   90.86376453
_cell_angle_gamma   116.50810187
_symmetry_Int_Tables_number   1
_chemical_formula_structural   K3InHg2(BSe)18
_chemical_formula_sum   'K3 In1 Hg2 B18 Se18'
_cell_volume   1030.31197273
_cell_formula_units_Z   1
loop_
 _symmetry_equiv_pos_site_id
 _symmetry_equiv_pos_as_xyz
  1  'x, y, z'
loop_
 _atom_site_type_symbol
 _atom_site_label
 _atom_site_symmetry_multiplicity
 _atom_site_fract_x
 _atom_site_fract_y
 _atom_site_fract_z
 _atom_site_occupancy
  K  K0  1  0.790847  0.173124  0.008939  1
  K  K1  1  0.209845  0.827972  0.993316  1
  K  K2  1  0.178202  0.347435  0.496583  1
  In  In3  1  0.813769  0.643665  0.522144  1
  Hg  Hg4  1  0.321995  0.316063  0.074954  1
  Hg  Hg5  1  0.678106  0.688106  0.927666  1
  B  B6  1  0.516792  0.165547  0.552185  1
  B  B7  1  0.483228  0.833742  0.446954  1
  B  B8  1  0.665179  0.121889  0.587364  1
  B  B9  1  0.334885  0.877858  0.412376  1
  B  B10  1  0.486497  0.042356  0.648147  1
  B  B11  1  0.513977  0.957772  0.351717  1
  B  B12  1  0.336953  0.008081  0.538239  1
  B  B13  1  0.663376  0.991715  0.461316  1
  B  B14  1  0.422935  0.065208  0.406459  1
  B  B15  1  0.577346  0.934408  0.592841  1
  B  B16  1  0.624058  0.135001  0.437078  1
  B  B17  1  0.376594  0.865199  0.562584  1
  B  B18  1  0.759602  0.422881  0.711722  1
  B  B19  1  0.241554  0.578894  0.285878  1
  B  B20  1  0.248151  0.084063  0.779551  1
  B  B21  1  0.751477  0.915198  0.220599  1
  B  B22  1  0.572294  0.288320  0.260719  1
  B  B23  1  0.428575  0.711455  0.738091  1
  Se  Se24  1  0.559198  0.368516  0.627532  1
  Se  Se25  1  0.440500  0.631039  0.371287  1
  Se  Se26  1  0.845186  0.284503  0.697264  1
  Se  Se27  1  0.154222  0.716177  0.303527  1
  Se  Se28  1  0.448920  0.095799  0.820031  1
  Se  Se29  1  0.552290  0.905987  0.179714  1
  Se  Se30  1  0.159278  0.028415  0.609539  1
  Se  Se31  1  0.840133  0.969602  0.390109  1
  Se  Se32  1  0.362087  0.158971  0.289853  1
  Se  Se33  1  0.638762  0.839338  0.707998  1
  Se  Se34  1  0.749327  0.295137  0.351282  1
  Se  Se35  1  0.251687  0.706870  0.650073  1
  Se  Se36  1  0.880426  0.622254  0.797034  1
  Se  Se37  1  0.120290  0.385613  0.189200  1
  Se  Se38  1  0.122384  0.111414  0.901888  1
  Se  Se39  1  0.878081  0.886611  0.098568  1
  Se  Se40  1  0.610349  0.408611  0.141624  1
  Se  Se41  1  0.390641  0.589193  0.856057  1
