# generated using pymatgen
data_CdHg5(SCl)4
_symmetry_space_group_name_H-M   'P 1'
_cell_length_a   8.00338447
_cell_length_b   7.99001122
_cell_length_c   8.00338470
_cell_angle_alpha   109.62898652
_cell_angle_beta   108.16596571
_cell_angle_gamma   110.69866982
_symmetry_Int_Tables_number   1
_chemical_formula_structural   CdHg5(SCl)4
_chemical_formula_sum   'Cd1 Hg5 S4 Cl4'
_cell_volume   393.44446962
_cell_formula_units_Z   1
loop_
 _symmetry_equiv_pos_site_id
 _symmetry_equiv_pos_as_xyz
  1  'x, y, z'
loop_
 _atom_site_type_symbol
 _atom_site_label
 _atom_site_symmetry_multiplicity
 _atom_site_fract_x
 _atom_site_fract_y
 _atom_site_fract_z
 _atom_site_occupancy
  Cd  Cd0  1  0.916808  0.250000  0.166808  1
  Hg  Hg1  1  0.753766  0.297954  0.546481  1
  Hg  Hg2  1  0.205570  0.964116  0.262312  1
  Hg  Hg3  1  0.248527  0.202046  0.955812  1
  Hg  Hg4  1  0.298196  0.535884  0.741454  1
  Hg  Hg5  1  0.551687  0.750000  0.301687  1
  S  S6  1  0.013539  0.532446  0.514087  1
  S  S7  1  0.981641  0.967554  0.981093  1
  S  S8  1  0.523276  0.500853  0.997698  1
  S  S9  1  0.496845  0.999147  0.522423  1
  Cl  Cl10  1  0.997243  0.018654  0.498496  1
  Cl  Cl11  1  0.479843  0.481346  0.478590  1
  Cl  Cl12  1  0.527899  0.018995  0.024155  1
  Cl  Cl13  1  0.005161  0.481005  0.008904  1
