# generated using pymatgen
data_Y8Nb(PdPt5)4
_symmetry_space_group_name_H-M   'P 1'
_cell_length_a   8.42501400
_cell_length_b   8.43559502
_cell_length_c   8.44635500
_cell_angle_alpha   90.00362701
_cell_angle_beta   90.00000000
_cell_angle_gamma   90.00000000
_symmetry_Int_Tables_number   1
_chemical_formula_structural   Y8Nb(PdPt5)4
_chemical_formula_sum   'Y8 Nb1 Pd4 Pt20'
_cell_volume   600.28250030
_cell_formula_units_Z   1
loop_
 _symmetry_equiv_pos_site_id
 _symmetry_equiv_pos_as_xyz
  1  'x, y, z'
loop_
 _atom_site_type_symbol
 _atom_site_label
 _atom_site_symmetry_multiplicity
 _atom_site_fract_x
 _atom_site_fract_y
 _atom_site_fract_z
 _atom_site_occupancy
  Y  Y0  1  0.250964  0.251243  0.251595  1
  Y  Y1  1  0.748837  0.748811  0.748355  1
  Y  Y2  1  0.749259  0.748831  0.251608  1
  Y  Y3  1  0.748625  0.251281  0.748345  1
  Y  Y4  1  0.251375  0.251281  0.748345  1
  Y  Y5  1  0.250741  0.748831  0.251608  1
  Y  Y6  1  0.251163  0.748811  0.748355  1
  Y  Y7  1  0.749036  0.251243  0.251595  1
  Nb  Nb8  1  0.000000  0.000448  0.000380  1
  Pd  Pd9  1  0.000000  0.499905  0.734241  1
  Pd  Pd10  1  0.500000  0.743509  0.500016  1
  Pd  Pd11  1  0.500000  0.499948  0.256025  1
  Pd  Pd12  1  0.500000  0.499952  0.743702  1
  Pt  Pt13  1  0.265935  0.500037  0.999945  1
  Pt  Pt14  1  0.734065  0.500037  0.999945  1
  Pt  Pt15  1  0.000000  0.266035  0.500438  1
  Pt  Pt16  1  0.500000  0.266507  0.999884  1
  Pt  Pt17  1  0.000000  0.733293  0.500455  1
  Pt  Pt18  1  0.500000  0.733299  0.999915  1
  Pt  Pt19  1  0.500000  0.000019  0.266142  1
  Pt  Pt20  1  0.266216  0.000266  0.499863  1
  Pt  Pt21  1  0.500000  0.000000  0.733900  1
  Pt  Pt22  1  0.733784  0.000266  0.499863  1
  Pt  Pt23  1  0.000000  0.499916  0.265844  1
  Pt  Pt24  1  0.255493  0.499599  0.499790  1
  Pt  Pt25  1  0.744507  0.499599  0.499790  1
  Pt  Pt26  1  0.500000  0.256619  0.500020  1
  Pt  Pt27  1  0.307499  0.999926  0.999952  1
  Pt  Pt28  1  0.692501  0.999926  0.999952  1
  Pt  Pt29  1  0.000000  0.307331  0.999949  1
  Pt  Pt30  1  0.000000  0.693397  0.999937  1
  Pt  Pt31  1  0.000000  0.999902  0.306619  1
  Pt  Pt32  1  0.000000  0.999935  0.693628  1
