# generated using pymatgen
data_V8Zn11Co(TeO10)4
_symmetry_space_group_name_H-M   'P 1'
_cell_length_a   30.82625681
_cell_length_b   5.34769474
_cell_length_c   5.63262791
_cell_angle_alpha   81.51737525
_cell_angle_beta   90.04940535
_cell_angle_gamma   90.05667318
_symmetry_Int_Tables_number   1
_chemical_formula_structural   V8Zn11Co(TeO10)4
_chemical_formula_sum   'V8 Zn11 Co1 Te4 O40'
_cell_volume   918.37712362
_cell_formula_units_Z   1
loop_
 _symmetry_equiv_pos_site_id
 _symmetry_equiv_pos_as_xyz
  1  'x, y, z'
loop_
 _atom_site_type_symbol
 _atom_site_label
 _atom_site_symmetry_multiplicity
 _atom_site_fract_x
 _atom_site_fract_y
 _atom_site_fract_z
 _atom_site_occupancy
  V  V0  1  0.444507  0.752313  0.219403  1
  V  V1  1  0.205314  0.930840  0.725946  1
  V  V2  1  0.055475  0.751654  0.718916  1
  V  V3  1  0.795206  0.069528  0.274804  1
  V  V4  1  0.294596  0.930743  0.225615  1
  V  V5  1  0.705367  0.069562  0.774303  1
  V  V6  1  0.555509  0.247887  0.780515  1
  V  V7  1  0.943941  0.246506  0.279343  1
  Zn  Zn8  1  0.057565  0.303570  0.358596  1
  Zn  Zn9  1  0.129389  0.778564  0.267424  1
  Zn  Zn10  1  0.726875  0.577150  0.279618  1
  Zn  Zn11  1  0.629487  0.221182  0.232260  1
  Zn  Zn12  1  0.941981  0.693309  0.641481  1
  Zn  Zn13  1  0.442019  0.304224  0.859645  1
  Zn  Zn14  1  0.557963  0.695925  0.140293  1
  Zn  Zn15  1  0.273124  0.423438  0.719578  1
  Zn  Zn16  1  0.226815  0.422520  0.219457  1
  Zn  Zn17  1  0.773189  0.578717  0.779272  1
  Zn  Zn18  1  0.370491  0.778919  0.767854  1
  Co  Co19  1  0.870618  0.224000  0.735872  1
  Te  Te20  1  0.130756  0.328253  0.931382  1
  Te  Te21  1  0.869215  0.673746  0.067722  1
  Te  Te22  1  0.369140  0.328526  0.431400  1
  Te  Te23  1  0.630899  0.671510  0.568449  1
  O  O24  1  0.901461  0.883923  0.828364  1
  O  O25  1  0.001749  0.683214  0.737141  1
  O  O26  1  0.599541  0.883579  0.325737  1
  O  O27  1  0.565286  0.929575  0.829819  1
  O  O28  1  0.760890  0.311061  0.148391  1
  O  O29  1  0.268907  0.202850  0.066760  1
  O  O30  1  0.498284  0.685118  0.237363  1
  O  O31  1  0.664252  0.513369  0.341432  1
  O  O32  1  0.831662  0.176465  0.460561  1
  O  O33  1  0.825913  0.974269  0.026615  1
  O  O34  1  0.997736  0.315710  0.261750  1
  O  O35  1  0.164190  0.486764  0.158216  1
  O  O36  1  0.919941  0.386078  0.514153  1
  O  O37  1  0.231080  0.202782  0.566742  1
  O  O38  1  0.668390  0.181559  0.953769  1
  O  O39  1  0.084867  0.607200  0.985444  1
  O  O40  1  0.415184  0.607214  0.485907  1
  O  O41  1  0.239668  0.689911  0.854191  1
  O  O42  1  0.331609  0.818346  0.046788  1
  O  O43  1  0.914185  0.387349  0.011587  1
  O  O44  1  0.324829  0.032458  0.470931  1
  O  O45  1  0.420500  0.612941  0.984553  1
  O  O46  1  0.731184  0.797480  0.932618  1
  O  O47  1  0.079385  0.612237  0.483920  1
  O  O48  1  0.175089  0.032709  0.970852  1
  O  O49  1  0.260309  0.689312  0.354273  1
  O  O50  1  0.769289  0.796147  0.430450  1
  O  O51  1  0.065180  0.070242  0.669237  1
  O  O52  1  0.675228  0.967714  0.528824  1
  O  O53  1  0.835640  0.517548  0.840185  1
  O  O54  1  0.584877  0.392846  0.514133  1
  O  O55  1  0.739630  0.311222  0.646842  1
  O  O56  1  0.579527  0.387253  0.015518  1
  O  O57  1  0.168319  0.818094  0.546559  1
  O  O58  1  0.434737  0.070631  0.170192  1
  O  O59  1  0.335813  0.486678  0.658449  1
  O  O60  1  0.934605  0.927998  0.331417  1
  O  O61  1  0.501750  0.314974  0.762731  1
  O  O62  1  0.099380  0.116206  0.174265  1
  O  O63  1  0.400493  0.116388  0.674177  1
