# generated using pymatgen
data_Zr20Cd2InSb9
_symmetry_space_group_name_H-M   'P 1'
_cell_length_a   5.53136000
_cell_length_b   8.38186689
_cell_length_c   15.87078600
_cell_angle_alpha   90.00000000
_cell_angle_beta   90.00000000
_cell_angle_gamma   109.26634188
_symmetry_Int_Tables_number   1
_chemical_formula_structural   Zr20Cd2InSb9
_chemical_formula_sum   'Zr20 Cd2 In1 Sb9'
_cell_volume   694.60961437
_cell_formula_units_Z   1
loop_
 _symmetry_equiv_pos_site_id
 _symmetry_equiv_pos_as_xyz
  1  'x, y, z'
loop_
 _atom_site_type_symbol
 _atom_site_label
 _atom_site_symmetry_multiplicity
 _atom_site_fract_x
 _atom_site_fract_y
 _atom_site_fract_z
 _atom_site_occupancy
  Zr  Zr0  1  0.427724  0.851776  0.349351  1
  Zr  Zr1  1  0.926258  0.855458  0.850026  1
  Zr  Zr2  1  0.070800  0.144542  0.149974  1
  Zr  Zr3  1  0.575948  0.148224  0.650649  1
  Zr  Zr4  1  0.650897  0.300698  0.073990  1
  Zr  Zr5  1  0.150176  0.301542  0.573282  1
  Zr  Zr6  1  0.848634  0.698458  0.426718  1
  Zr  Zr7  1  0.350200  0.699302  0.926010  1
  Zr  Zr8  1  0.849103  0.699302  0.073990  1
  Zr  Zr9  1  0.349824  0.698458  0.573282  1
  Zr  Zr10  1  0.651366  0.301542  0.426718  1
  Zr  Zr11  1  0.149800  0.300698  0.926010  1
  Zr  Zr12  1  0.072276  0.148224  0.349351  1
  Zr  Zr13  1  0.573742  0.144542  0.850026  1
  Zr  Zr14  1  0.429200  0.855458  0.149974  1
  Zr  Zr15  1  0.924052  0.851776  0.650649  1
  Zr  Zr16  1  0.499932  0.501688  0.249560  1
  Zr  Zr17  1  0.998244  0.498312  0.750440  1
  Zr  Zr18  1  0.000068  0.498312  0.249560  1
  Zr  Zr19  1  0.501756  0.501688  0.750440  1
  Cd  Cd20  1  0.750000  0.000000  0.500000  1
  Cd  Cd21  1  0.750000  0.000000  0.000000  1
  In  In22  1  0.250000  0.000000  0.500000  1
  Sb  Sb23  1  0.915656  0.828431  0.251382  1
  Sb  Sb24  1  0.412775  0.828431  0.748618  1
  Sb  Sb25  1  0.584344  0.171569  0.251382  1
  Sb  Sb26  1  0.087225  0.171569  0.748618  1
  Sb  Sb27  1  0.250000  0.500000  0.085485  1
  Sb  Sb28  1  0.750000  0.500000  0.585953  1
  Sb  Sb29  1  0.250000  0.500000  0.414047  1
  Sb  Sb30  1  0.750000  0.500000  0.914515  1
  Sb  Sb31  1  0.250000  0.000000  0.000000  1
