# generated using pymatgen
data_Tm10CuHg3
_symmetry_space_group_name_H-M   'P 1'
_cell_length_a   9.53582400
_cell_length_b   9.53585110
_cell_length_c   9.45669500
_cell_angle_alpha   90.00000000
_cell_angle_beta   90.00000000
_cell_angle_gamma   120.00005168
_symmetry_Int_Tables_number   1
_chemical_formula_structural   Tm10CuHg3
_chemical_formula_sum   'Tm20 Cu2 Hg6'
_cell_volume   744.71049751
_cell_formula_units_Z   2
loop_
 _symmetry_equiv_pos_site_id
 _symmetry_equiv_pos_as_xyz
  1  'x, y, z'
loop_
 _atom_site_type_symbol
 _atom_site_label
 _atom_site_symmetry_multiplicity
 _atom_site_fract_x
 _atom_site_fract_y
 _atom_site_fract_z
 _atom_site_occupancy
  Tm  Tm0  1  0.000000  0.000000  0.500000  1
  Tm  Tm1  1  0.000000  0.000000  0.000000  1
  Tm  Tm2  1  0.208884  0.791116  0.441449  1
  Tm  Tm3  1  0.208884  0.417768  0.441449  1
  Tm  Tm4  1  0.582232  0.791116  0.441449  1
  Tm  Tm5  1  0.791116  0.208884  0.558551  1
  Tm  Tm6  1  0.791116  0.582232  0.558551  1
  Tm  Tm7  1  0.417768  0.208884  0.558551  1
  Tm  Tm8  1  0.791116  0.208884  0.941449  1
  Tm  Tm9  1  0.791116  0.582232  0.941449  1
  Tm  Tm10  1  0.417768  0.208884  0.941449  1
  Tm  Tm11  1  0.208884  0.791116  0.058551  1
  Tm  Tm12  1  0.208884  0.417768  0.058551  1
  Tm  Tm13  1  0.582232  0.791116  0.058551  1
  Tm  Tm14  1  0.543096  0.456904  0.250000  1
  Tm  Tm15  1  0.543096  0.086191  0.250000  1
  Tm  Tm16  1  0.913809  0.456904  0.250000  1
  Tm  Tm17  1  0.456904  0.543096  0.750000  1
  Tm  Tm18  1  0.456904  0.913809  0.750000  1
  Tm  Tm19  1  0.086191  0.543096  0.750000  1
  Cu  Cu20  1  0.333334  0.666668  0.250000  1
  Cu  Cu21  1  0.666666  0.333332  0.750000  1
  Hg  Hg22  1  0.879815  0.120185  0.250000  1
  Hg  Hg23  1  0.879815  0.759631  0.250000  1
  Hg  Hg24  1  0.240369  0.120185  0.250000  1
  Hg  Hg25  1  0.120185  0.879815  0.750000  1
  Hg  Hg26  1  0.120185  0.240369  0.750000  1
  Hg  Hg27  1  0.759631  0.879815  0.750000  1
