# generated using pymatgen
data_Dy6Al24Ru3Rh5
_symmetry_space_group_name_H-M   'P 1'
_cell_length_a   8.82004199
_cell_length_b   8.77984182
_cell_length_c   9.54688121
_cell_angle_alpha   90.00000143
_cell_angle_beta   90.15908834
_cell_angle_gamma   119.84934381
_symmetry_Int_Tables_number   1
_chemical_formula_structural   Dy6Al24Ru3Rh5
_chemical_formula_sum   'Dy6 Al24 Ru3 Rh5'
_cell_volume   641.21633415
_cell_formula_units_Z   1
loop_
 _symmetry_equiv_pos_site_id
 _symmetry_equiv_pos_as_xyz
  1  'x, y, z'
loop_
 _atom_site_type_symbol
 _atom_site_label
 _atom_site_symmetry_multiplicity
 _atom_site_fract_x
 _atom_site_fract_y
 _atom_site_fract_z
 _atom_site_occupancy
  Dy  Dy0  1  0.190089  0.805309  0.249384  1
  Dy  Dy1  1  0.190089  0.384780  0.249384  1
  Dy  Dy2  1  0.615744  0.807872  0.249493  1
  Dy  Dy3  1  0.809911  0.194691  0.750616  1
  Dy  Dy4  1  0.809911  0.615220  0.750616  1
  Dy  Dy5  1  0.384256  0.192128  0.750507  1
  Al  Al6  1  0.560941  0.437200  0.250221  1
  Al  Al7  1  0.560941  0.123741  0.250221  1
  Al  Al8  1  0.874676  0.437338  0.249300  1
  Al  Al9  1  0.439059  0.562800  0.749779  1
  Al  Al10  1  0.439059  0.876259  0.749779  1
  Al  Al11  1  0.125324  0.562662  0.750700  1
  Al  Al12  1  0.325417  0.162708  0.422474  1
  Al  Al13  1  0.835246  0.162221  0.422320  1
  Al  Al14  1  0.835246  0.673025  0.422320  1
  Al  Al15  1  0.674583  0.837292  0.577526  1
  Al  Al16  1  0.164754  0.837779  0.577680  1
  Al  Al17  1  0.164754  0.326975  0.577680  1
  Al  Al18  1  0.673881  0.836941  0.923295  1
  Al  Al19  1  0.162528  0.835265  0.922846  1
  Al  Al20  1  0.162528  0.327263  0.922846  1
  Al  Al21  1  0.326119  0.163059  0.076705  1
  Al  Al22  1  0.837472  0.164735  0.077154  1
  Al  Al23  1  0.837472  0.672737  0.077154  1
  Al  Al24  1  0.667018  0.333509  0.528265  1
  Al  Al25  1  0.332982  0.666491  0.471735  1
  Al  Al26  1  0.331152  0.665576  0.027670  1
  Al  Al27  1  0.668848  0.334424  0.972330  1
  Al  Al28  1  0.998360  0.999180  0.249933  1
  Al  Al29  1  0.001640  0.000820  0.750067  1
  Ru  Ru30  1  0.000000  0.000000  0.500000  1
  Ru  Ru31  1  0.000000  0.000000  0.000000  1
  Ru  Ru32  1  0.000000  0.500000  0.000000  1
  Rh  Rh33  1  0.500000  0.500000  0.500000  1
  Rh  Rh34  1  0.500000  0.000000  0.500000  1
  Rh  Rh35  1  0.000000  0.500000  0.500000  1
  Rh  Rh36  1  0.500000  0.500000  0.000000  1
  Rh  Rh37  1  0.500000  0.000000  0.000000  1
