# generated using pymatgen
data_Be7Si(NiIr)4
_symmetry_space_group_name_H-M   'P 1'
_cell_length_a   5.48055100
_cell_length_b   3.88258100
_cell_length_c   7.76418300
_cell_angle_alpha   90.00092976
_cell_angle_beta   90.00158845
_cell_angle_gamma   89.99893987
_symmetry_Int_Tables_number   1
_chemical_formula_structural   Be7Si(NiIr)4
_chemical_formula_sum   'Be7 Si1 Ni4 Ir4'
_cell_volume   165.21159017
_cell_formula_units_Z   1
loop_
 _symmetry_equiv_pos_site_id
 _symmetry_equiv_pos_as_xyz
  1  'x, y, z'
loop_
 _atom_site_type_symbol
 _atom_site_label
 _atom_site_symmetry_multiplicity
 _atom_site_fract_x
 _atom_site_fract_y
 _atom_site_fract_z
 _atom_site_occupancy
  Be  Be0  1  0.994152  0.749993  0.125054  1
  Be  Be1  1  0.999975  0.249952  0.378802  1
  Be  Be2  1  0.500188  0.249981  0.382304  1
  Be  Be3  1  0.499363  0.749968  0.625069  1
  Be  Be4  1  0.005536  0.750018  0.625016  1
  Be  Be5  1  0.000007  0.250023  0.871248  1
  Be  Be6  1  0.500112  0.250034  0.867728  1
  Si  Si7  1  0.500834  0.749993  0.125007  1
  Ni  Ni8  1  0.755204  0.249992  0.125016  1
  Ni  Ni9  1  0.247055  0.749979  0.376775  1
  Ni  Ni10  1  0.750923  0.249988  0.625079  1
  Ni  Ni11  1  0.247066  0.750076  0.872990  1
  Ir  Ir12  1  0.245845  0.250007  0.124881  1
  Ir  Ir13  1  0.751830  0.749973  0.377178  1
  Ir  Ir14  1  0.250067  0.250022  0.624927  1
  Ir  Ir15  1  0.751842  0.750003  0.872931  1
