# generated using pymatgen
data_Dy2Ho8InPb5
_symmetry_space_group_name_H-M   'P 1'
_cell_length_a   9.00823300
_cell_length_b   9.01165893
_cell_length_c   6.64986200
_cell_angle_alpha   90.00000000
_cell_angle_beta   90.00000000
_cell_angle_gamma   119.98742868
_symmetry_Int_Tables_number   1
_chemical_formula_structural   Dy2Ho8InPb5
_chemical_formula_sum   'Dy2 Ho8 In1 Pb5'
_cell_volume   467.56567648
_cell_formula_units_Z   1
loop_
 _symmetry_equiv_pos_site_id
 _symmetry_equiv_pos_as_xyz
  1  'x, y, z'
loop_
 _atom_site_type_symbol
 _atom_site_label
 _atom_site_symmetry_multiplicity
 _atom_site_fract_x
 _atom_site_fract_y
 _atom_site_fract_z
 _atom_site_occupancy
  Dy  Dy0  1  0.237332  0.237129  0.750000  1
  Dy  Dy1  1  0.000203  0.762871  0.750000  1
  Ho  Ho2  1  0.336072  0.669777  0.001785  1
  Ho  Ho3  1  0.666295  0.330223  0.498215  1
  Ho  Ho4  1  0.666295  0.330223  0.001785  1
  Ho  Ho5  1  0.336072  0.669777  0.498215  1
  Ho  Ho6  1  0.238845  0.000000  0.250000  1
  Ho  Ho7  1  0.995522  0.234003  0.250000  1
  Ho  Ho8  1  0.761519  0.765997  0.250000  1
  Ho  Ho9  1  0.762397  0.000000  0.750000  1
  In  In10  1  0.603658  0.000000  0.250000  1
  Pb  Pb11  1  0.605052  0.604297  0.750000  1
  Pb  Pb12  1  0.000755  0.395703  0.750000  1
  Pb  Pb13  1  0.999874  0.605521  0.250000  1
  Pb  Pb14  1  0.394354  0.394479  0.250000  1
  Pb  Pb15  1  0.395754  0.000000  0.750000  1
