# generated using pymatgen
data_DyY3(B4W)4
_symmetry_space_group_name_H-M   'P 1'
_cell_length_a   6.04552700
_cell_length_b   11.68861100
_cell_length_c   3.62910100
_cell_angle_alpha   90.00000000
_cell_angle_beta   90.00000000
_cell_angle_gamma   90.00100719
_symmetry_Int_Tables_number   1
_chemical_formula_structural   DyY3(B4W)4
_chemical_formula_sum   'Dy1 Y3 B16 W4'
_cell_volume   256.44611583
_cell_formula_units_Z   1
loop_
 _symmetry_equiv_pos_site_id
 _symmetry_equiv_pos_as_xyz
  1  'x, y, z'
loop_
 _atom_site_type_symbol
 _atom_site_label
 _atom_site_symmetry_multiplicity
 _atom_site_fract_x
 _atom_site_fract_y
 _atom_site_fract_z
 _atom_site_occupancy
  Dy  Dy0  1  0.873274  0.850239  0.000000  1
  Y  Y1  1  0.626719  0.350245  0.000000  1
  Y  Y2  1  0.373287  0.649761  0.000000  1
  Y  Y3  1  0.126708  0.149755  0.000000  1
  B  B4  1  0.786293  0.186552  0.500000  1
  B  B5  1  0.213618  0.813481  0.500000  1
  B  B6  1  0.286305  0.313450  0.500000  1
  B  B7  1  0.713769  0.686588  0.500000  1
  B  B8  1  0.866520  0.032163  0.500000  1
  B  B9  1  0.133401  0.967743  0.500000  1
  B  B10  1  0.366542  0.467789  0.500000  1
  B  B11  1  0.633459  0.532211  0.500000  1
  B  B12  1  0.885831  0.452849  0.500000  1
  B  B13  1  0.114159  0.547155  0.500000  1
  B  B14  1  0.385832  0.047151  0.500000  1
  B  B15  1  0.614258  0.952811  0.500000  1
  B  B16  1  0.975550  0.306907  0.500000  1
  B  B17  1  0.024379  0.693125  0.500000  1
  B  B18  1  0.475556  0.193095  0.500000  1
  B  B19  1  0.524539  0.806934  0.500000  1
  W  W20  1  0.630649  0.084410  0.000000  1
  W  W21  1  0.369347  0.915540  0.000000  1
  W  W22  1  0.130617  0.415566  0.000000  1
  W  W23  1  0.869390  0.584480  0.000000  1
