# generated using pymatgen
data_Pr3U(Si5Os3)2
_symmetry_space_group_name_H-M   'P 1'
_cell_length_a   8.22469073
_cell_length_b   8.19047833
_cell_length_c   5.87880496
_cell_angle_alpha   70.41693096
_cell_angle_beta   70.39134756
_cell_angle_gamma   93.57523227
_symmetry_Int_Tables_number   1
_chemical_formula_structural   Pr3U(Si5Os3)2
_chemical_formula_sum   'Pr3 U1 Si10 Os6'
_cell_volume   344.58774372
_cell_formula_units_Z   1
loop_
 _symmetry_equiv_pos_site_id
 _symmetry_equiv_pos_as_xyz
  1  'x, y, z'
loop_
 _atom_site_type_symbol
 _atom_site_label
 _atom_site_symmetry_multiplicity
 _atom_site_fract_x
 _atom_site_fract_y
 _atom_site_fract_z
 _atom_site_occupancy
  Pr  Pr0  1  0.869854  0.601295  0.754133  1
  Pr  Pr1  1  0.397108  0.134687  0.741977  1
  Pr  Pr2  1  0.134442  0.397376  0.242726  1
  U  U3  1  0.594913  0.869014  0.263426  1
  Si  Si4  1  0.063191  0.261872  0.837065  1
  Si  Si5  1  0.738478  0.938999  0.665812  1
  Si  Si6  1  0.930555  0.740616  0.164378  1
  Si  Si7  1  0.261144  0.057636  0.337193  1
  Si  Si8  1  0.207820  0.793531  0.748201  1
  Si  Si9  1  0.792908  0.207173  0.251856  1
  Si  Si10  1  0.515132  0.487659  0.751482  1
  Si  Si11  1  0.489678  0.513257  0.247916  1
  Si  Si12  1  0.772900  0.225210  0.748978  1
  Si  Si13  1  0.230223  0.776296  0.249607  1
  Os  Os14  1  0.263516  0.545741  0.626974  1
  Os  Os15  1  0.459106  0.746209  0.861606  1
  Os  Os16  1  0.741277  0.458661  0.366516  1
  Os  Os17  1  0.546285  0.248442  0.132367  1
  Os  Os18  1  0.999084  0.996312  0.753665  1
  Os  Os19  1  0.992387  0.000015  0.254123  1
