# generated using pymatgen
data_Nd16Ho4Ir5Pt7
_symmetry_space_group_name_H-M   'P 1'
_cell_length_a   11.35841865
_cell_length_b   11.35841865
_cell_length_c   6.47797466
_cell_angle_alpha   90.03686993
_cell_angle_beta   90.03686993
_cell_angle_gamma   90.01167671
_symmetry_Int_Tables_number   1
_chemical_formula_structural   Nd16Ho4Ir5Pt7
_chemical_formula_sum   'Nd16 Ho4 Ir5 Pt7'
_cell_volume   835.74694989
_cell_formula_units_Z   1
loop_
 _symmetry_equiv_pos_site_id
 _symmetry_equiv_pos_as_xyz
  1  'x, y, z'
loop_
 _atom_site_type_symbol
 _atom_site_label
 _atom_site_symmetry_multiplicity
 _atom_site_fract_x
 _atom_site_fract_y
 _atom_site_fract_z
 _atom_site_occupancy
  Nd  Nd0  1  0.292578  0.087402  0.376823  1
  Nd  Nd1  1  0.293055  0.909032  0.877322  1
  Nd  Nd2  1  0.707438  0.087496  0.877100  1
  Nd  Nd3  1  0.707252  0.912071  0.376863  1
  Nd  Nd4  1  0.584816  0.791002  0.876309  1
  Nd  Nd5  1  0.587726  0.208129  0.377521  1
  Nd  Nd6  1  0.410699  0.789988  0.382052  1
  Nd  Nd7  1  0.412126  0.207083  0.877294  1
  Nd  Nd8  1  0.208998  0.415184  0.623691  1
  Nd  Nd9  1  0.210012  0.589301  0.117948  1
  Nd  Nd10  1  0.791871  0.412274  0.122479  1
  Nd  Nd11  1  0.792917  0.587874  0.622706  1
  Nd  Nd12  1  0.912598  0.707422  0.123177  1
  Nd  Nd13  1  0.912504  0.292562  0.622900  1
  Nd  Nd14  1  0.090968  0.706945  0.622678  1
  Nd  Nd15  1  0.087929  0.292748  0.123137  1
  Ho  Ho16  1  0.999899  0.999787  0.500341  1
  Ho  Ho17  1  0.000213  0.000101  0.999659  1
  Ho  Ho18  1  0.498278  0.501325  0.999362  1
  Ho  Ho19  1  0.498675  0.501722  0.500638  1
  Ir  Ir20  1  0.352716  0.647284  0.750000  1
  Ir  Ir21  1  0.500262  0.000272  0.119064  1
  Ir  Ir22  1  0.500140  0.000884  0.617923  1
  Ir  Ir23  1  0.999116  0.499860  0.882077  1
  Ir  Ir24  1  0.999728  0.499738  0.380936  1
  Pt  Pt25  1  0.852403  0.147597  0.250000  1
  Pt  Pt26  1  0.852223  0.852395  0.750119  1
  Pt  Pt27  1  0.147605  0.147777  0.749881  1
  Pt  Pt28  1  0.147134  0.852866  0.250000  1
  Pt  Pt29  1  0.647587  0.352413  0.750000  1
  Pt  Pt30  1  0.648676  0.648140  0.250062  1
  Pt  Pt31  1  0.351860  0.351324  0.249938  1
