# generated using pymatgen
data_DyLu7(CdNi)2
_symmetry_space_group_name_H-M   'P 1'
_cell_length_a   9.37138980
_cell_length_b   9.37139014
_cell_length_c   9.37380800
_cell_angle_alpha   59.99147199
_cell_angle_beta   59.99147079
_cell_angle_gamma   59.98727507
_symmetry_Int_Tables_number   1
_chemical_formula_structural   DyLu7(CdNi)2
_chemical_formula_sum   'Dy2 Lu14 Cd4 Ni4'
_cell_volume   581.98435263
_cell_formula_units_Z   2
loop_
 _symmetry_equiv_pos_site_id
 _symmetry_equiv_pos_as_xyz
  1  'x, y, z'
loop_
 _atom_site_type_symbol
 _atom_site_label
 _atom_site_symmetry_multiplicity
 _atom_site_fract_x
 _atom_site_fract_y
 _atom_site_fract_z
 _atom_site_occupancy
  Dy  Dy0  1  0.348033  0.348033  0.349039  1
  Dy  Dy1  1  0.348033  0.348033  0.954893  1
  Lu  Lu2  1  0.347636  0.955516  0.348423  1
  Lu  Lu3  1  0.955516  0.347636  0.348423  1
  Lu  Lu4  1  0.812436  0.188214  0.187736  1
  Lu  Lu5  1  0.188214  0.812436  0.811614  1
  Lu  Lu6  1  0.188214  0.812436  0.187736  1
  Lu  Lu7  1  0.812436  0.188214  0.811614  1
  Lu  Lu8  1  0.187549  0.187549  0.812451  1
  Lu  Lu9  1  0.811588  0.811588  0.188412  1
  Lu  Lu10  1  0.935822  0.564163  0.564090  1
  Lu  Lu11  1  0.564163  0.935822  0.935926  1
  Lu  Lu12  1  0.564163  0.935822  0.564090  1
  Lu  Lu13  1  0.935822  0.564163  0.935926  1
  Lu  Lu14  1  0.564471  0.564471  0.935529  1
  Lu  Lu15  1  0.936269  0.936269  0.563731  1
  Cd  Cd16  1  0.582021  0.582021  0.580906  1
  Cd  Cd17  1  0.582021  0.582021  0.255052  1
  Cd  Cd18  1  0.582430  0.254826  0.581372  1
  Cd  Cd19  1  0.254826  0.582430  0.581372  1
  Ni  Ni20  1  0.141039  0.141039  0.143064  1
  Ni  Ni21  1  0.141039  0.141039  0.574858  1
  Ni  Ni22  1  0.139923  0.576338  0.141870  1
  Ni  Ni23  1  0.576338  0.139923  0.141870  1
