# generated using pymatgen
data_SbF17
_symmetry_space_group_name_H-M   'P 1'
_cell_length_a   8.83036295
_cell_length_b   8.27715494
_cell_length_c   10.15424791
_cell_angle_alpha   85.78743120
_cell_angle_beta   89.18780369
_cell_angle_gamma   68.98220298
_symmetry_Int_Tables_number   1
_chemical_formula_structural   SbF17
_chemical_formula_sum   'Sb2 F34'
_cell_volume   690.86840334
_cell_formula_units_Z   2
loop_
 _symmetry_equiv_pos_site_id
 _symmetry_equiv_pos_as_xyz
  1  'x, y, z'
loop_
 _atom_site_type_symbol
 _atom_site_label
 _atom_site_symmetry_multiplicity
 _atom_site_fract_x
 _atom_site_fract_y
 _atom_site_fract_z
 _atom_site_occupancy
  Sb  Sb0  1  0.857615  0.251310  0.767587  1
  Sb  Sb1  1  0.142385  0.748690  0.232413  1
  F  F2  1  0.592487  0.204102  0.500780  1
  F  F3  1  0.407513  0.795898  0.499220  1
  F  F4  1  0.829508  0.679604  0.701756  1
  F  F5  1  0.170492  0.320396  0.298244  1
  F  F6  1  0.073190  0.794829  0.848916  1
  F  F7  1  0.926810  0.205171  0.151084  1
  F  F8  1  0.551526  0.144588  0.382214  1
  F  F9  1  0.448474  0.855412  0.617786  1
  F  F10  1  0.638778  0.310825  0.705511  1
  F  F11  1  0.361222  0.689175  0.294489  1
  F  F12  1  0.931918  0.069165  0.645601  1
  F  F13  1  0.068082  0.930835  0.354399  1
  F  F14  1  0.899950  0.385563  0.614896  1
  F  F15  1  0.100050  0.614437  0.385104  1
  F  F16  1  0.853549  0.812939  0.617923  1
  F  F17  1  0.146451  0.187061  0.382077  1
  F  F18  1  0.790921  0.455870  0.863223  1
  F  F19  1  0.209079  0.544130  0.136777  1
  F  F20  1  0.212344  0.686684  0.784520  1
  F  F21  1  0.787656  0.313316  0.215480  1
  F  F22  1  0.926974  0.807712  0.166752  1
  F  F23  1  0.073026  0.192288  0.833248  1
  F  F24  1  0.817466  0.099059  0.902517  1
  F  F25  1  0.182534  0.900941  0.097483  1
  F  F26  1  0.471768  0.588960  0.977532  1
  F  F27  1  0.528232  0.411040  0.022468  1
  F  F28  1  0.465951  0.074085  0.865860  1
  F  F29  1  0.534049  0.925915  0.134140  1
  F  F30  1  0.287058  0.221010  0.618337  1
  F  F31  1  0.712942  0.778990  0.381663  1
  F  F32  1  0.255840  0.382762  0.672354  1
  F  F33  1  0.744160  0.617238  0.327646  1
  F  F34  1  0.561977  0.899401  0.845078  1
  F  F35  1  0.438023  0.100599  0.154922  1
