# generated using pymatgen
data_Sr6Fe(RhO6)2
_symmetry_space_group_name_H-M   'P 1'
_cell_length_a   8.82652213
_cell_length_b   8.82652239
_cell_length_c   6.94498786
_cell_angle_alpha   67.60053246
_cell_angle_beta   67.60053170
_cell_angle_gamma   36.83476229
_symmetry_Int_Tables_number   1
_chemical_formula_structural   Sr6Fe(RhO6)2
_chemical_formula_sum   'Sr6 Fe1 Rh2 O12'
_cell_volume   297.06231319
_cell_formula_units_Z   1
loop_
 _symmetry_equiv_pos_site_id
 _symmetry_equiv_pos_as_xyz
  1  'x, y, z'
loop_
 _atom_site_type_symbol
 _atom_site_label
 _atom_site_symmetry_multiplicity
 _atom_site_fract_x
 _atom_site_fract_y
 _atom_site_fract_z
 _atom_site_occupancy
  Sr  Sr0  1  0.884523  0.884523  0.708949  1
  Sr  Sr1  1  0.212035  0.212035  0.709443  1
  Sr  Sr2  1  0.547950  0.547950  0.712231  1
  Sr  Sr3  1  0.452050  0.452050  0.287769  1
  Sr  Sr4  1  0.787965  0.787965  0.290557  1
  Sr  Sr5  1  0.115477  0.115477  0.291051  1
  Fe  Fe6  1  0.000000  0.000000  0.000000  1
  Rh  Rh7  1  0.667235  0.667235  0.000284  1
  Rh  Rh8  1  0.332765  0.332765  0.999716  1
  O  O9  1  0.946782  0.946782  0.320236  1
  O  O10  1  0.280305  0.280305  0.325275  1
  O  O11  1  0.611162  0.611162  0.324515  1
  O  O12  1  0.388838  0.388838  0.675485  1
  O  O13  1  0.719695  0.719695  0.674725  1
  O  O14  1  0.053218  0.053218  0.679764  1
  O  O15  1  0.500000  0.000000  0.000000  1
  O  O16  1  0.831447  0.337162  0.999662  1
  O  O17  1  0.168553  0.662838  0.000338  1
  O  O18  1  0.000000  0.500000  0.000000  1
  O  O19  1  0.337162  0.831447  0.999662  1
  O  O20  1  0.662838  0.168553  0.000338  1
