# generated using pymatgen
data_K2Ta3Cl7O5
_symmetry_space_group_name_H-M   'P 1'
_cell_length_a   9.61937561
_cell_length_b   9.61937564
_cell_length_c   11.18201802
_cell_angle_alpha   72.33287175
_cell_angle_beta   72.33287218
_cell_angle_gamma   55.07863202
_symmetry_Int_Tables_number   1
_chemical_formula_structural   K2Ta3Cl7O5
_chemical_formula_sum   'K4 Ta6 Cl14 O10'
_cell_volume   797.14879688
_cell_formula_units_Z   2
loop_
 _symmetry_equiv_pos_site_id
 _symmetry_equiv_pos_as_xyz
  1  'x, y, z'
loop_
 _atom_site_type_symbol
 _atom_site_label
 _atom_site_symmetry_multiplicity
 _atom_site_fract_x
 _atom_site_fract_y
 _atom_site_fract_z
 _atom_site_occupancy
  K  K0  1  0.756253  0.840086  0.853375  1
  K  K1  1  0.159914  0.243747  0.646625  1
  K  K2  1  0.243747  0.159914  0.146625  1
  K  K3  1  0.840086  0.756253  0.353375  1
  Ta  Ta4  1  0.214709  0.788123  0.530137  1
  Ta  Ta5  1  0.211877  0.785291  0.969863  1
  Ta  Ta6  1  0.785291  0.211877  0.469863  1
  Ta  Ta7  1  0.788123  0.214709  0.030137  1
  Ta  Ta8  1  0.455768  0.544232  0.250000  1
  Ta  Ta9  1  0.544232  0.455768  0.750000  1
  Cl  Cl10  1  0.056128  0.642584  0.619620  1
  Cl  Cl11  1  0.357416  0.943872  0.880380  1
  Cl  Cl12  1  0.943872  0.357416  0.380380  1
  Cl  Cl13  1  0.642584  0.056128  0.119620  1
  Cl  Cl14  1  0.360128  0.943329  0.462330  1
  Cl  Cl15  1  0.056671  0.639872  0.037670  1
  Cl  Cl16  1  0.639872  0.056671  0.537670  1
  Cl  Cl17  1  0.943329  0.360128  0.962330  1
  Cl  Cl18  1  0.283846  0.416592  0.327913  1
  Cl  Cl19  1  0.583408  0.716154  0.172087  1
  Cl  Cl20  1  0.716154  0.583408  0.672087  1
  Cl  Cl21  1  0.416592  0.283846  0.827913  1
  Cl  Cl22  1  0.087625  0.912375  0.750000  1
  Cl  Cl23  1  0.912375  0.087625  0.250000  1
  O  O24  1  0.290036  0.710553  0.378233  1
  O  O25  1  0.289447  0.709964  0.121767  1
  O  O26  1  0.709964  0.289447  0.621767  1
  O  O27  1  0.710553  0.290036  0.878233  1
  O  O28  1  0.396826  0.603338  0.626536  1
  O  O29  1  0.396662  0.603174  0.873464  1
  O  O30  1  0.603174  0.396662  0.373464  1
  O  O31  1  0.603338  0.396826  0.126536  1
  O  O32  1  0.000000  0.000000  0.500000  1
  O  O33  1  0.000000  0.000000  0.000000  1
