# generated using pymatgen
data_Dy5(ErTe4)3
_symmetry_space_group_name_H-M   'P 1'
_cell_length_a   14.42670579
_cell_length_b   13.75966000
_cell_length_c   7.55396109
_cell_angle_alpha   79.39411639
_cell_angle_beta   69.63084628
_cell_angle_gamma   30.96569370
_symmetry_Int_Tables_number   1
_chemical_formula_structural   Dy5(ErTe4)3
_chemical_formula_sum   'Dy5 Er3 Te12'
_cell_volume   702.65131583
_cell_formula_units_Z   1
loop_
 _symmetry_equiv_pos_site_id
 _symmetry_equiv_pos_as_xyz
  1  'x, y, z'
loop_
 _atom_site_type_symbol
 _atom_site_label
 _atom_site_symmetry_multiplicity
 _atom_site_fract_x
 _atom_site_fract_y
 _atom_site_fract_z
 _atom_site_occupancy
  Dy  Dy0  1  0.000488  0.000488  0.499512  1
  Dy  Dy1  1  0.499381  0.499381  0.000619  1
  Dy  Dy2  1  0.249451  0.249451  0.750549  1
  Dy  Dy3  1  0.750585  0.750585  0.249415  1
  Dy  Dy4  1  0.667207  0.667207  0.832793  1
  Er  Er5  1  0.832794  0.832794  0.667206  1
  Er  Er6  1  0.582710  0.582710  0.417290  1
  Er  Er7  1  0.417222  0.417222  0.582778  1
  Te  Te8  1  0.668225  0.165357  0.829946  1
  Te  Te9  1  0.335451  0.830382  0.166461  1
  Te  Te10  1  0.830382  0.335451  0.667706  1
  Te  Te11  1  0.165357  0.668225  0.336472  1
  Te  Te12  1  0.581735  0.084658  0.420105  1
  Te  Te13  1  0.914503  0.419170  0.085687  1
  Te  Te14  1  0.419170  0.914503  0.580640  1
  Te  Te15  1  0.084658  0.581735  0.913503  1
  Te  Te16  1  0.750233  0.249772  0.249730  1
  Te  Te17  1  0.249772  0.750233  0.750265  1
  Te  Te18  1  0.499193  0.001481  0.000766  1
  Te  Te19  1  0.001481  0.499193  0.498560  1
