# generated using pymatgen
data_Tb2Pr4Sm4B2Br15
_symmetry_space_group_name_H-M   'P 1'
_cell_length_a   9.38889688
_cell_length_b   10.10131352
_cell_length_c   10.97473758
_cell_angle_alpha   91.49966841
_cell_angle_beta   114.18806901
_cell_angle_gamma   110.80462553
_symmetry_Int_Tables_number   1
_chemical_formula_structural   Tb2Pr4Sm4B2Br15
_chemical_formula_sum   'Tb2 Pr4 Sm4 B2 Br15'
_cell_volume   869.37886089
_cell_formula_units_Z   1
loop_
 _symmetry_equiv_pos_site_id
 _symmetry_equiv_pos_as_xyz
  1  'x, y, z'
loop_
 _atom_site_type_symbol
 _atom_site_label
 _atom_site_symmetry_multiplicity
 _atom_site_fract_x
 _atom_site_fract_y
 _atom_site_fract_z
 _atom_site_occupancy
  Tb  Tb0  1  0.717185  0.072998  0.046404  1
  Tb  Tb1  1  0.282815  0.927002  0.953596  1
  Pr  Pr2  1  0.802161  0.411082  0.278212  1
  Pr  Pr3  1  0.197839  0.588918  0.721788  1
  Pr  Pr4  1  0.674063  0.746655  0.817836  1
  Pr  Pr5  1  0.325937  0.253345  0.182164  1
  Sm  Sm6  1  0.524732  0.706123  0.094055  1
  Sm  Sm7  1  0.475268  0.293877  0.905945  1
  Sm  Sm8  1  0.584981  0.037853  0.322026  1
  Sm  Sm9  1  0.415019  0.962147  0.677974  1
  B  B10  1  0.467586  0.823494  0.878936  1
  B  B11  1  0.532414  0.176506  0.121064  1
  Br  Br12  1  0.000000  0.000000  0.000000  1
  Br  Br13  1  0.632867  0.886510  0.579504  1
  Br  Br14  1  0.367133  0.113490  0.420496  1
  Br  Br15  1  0.879263  0.292295  0.528911  1
  Br  Br16  1  0.120737  0.707705  0.471089  1
  Br  Br17  1  0.288234  0.764720  0.173612  1
  Br  Br18  1  0.711766  0.235280  0.826388  1
  Br  Br19  1  0.044819  0.333578  0.218966  1
  Br  Br20  1  0.167120  0.053981  0.710297  1
  Br  Br21  1  0.832880  0.946019  0.289703  1
  Br  Br22  1  0.236988  0.411256  0.945733  1
  Br  Br23  1  0.763012  0.588744  0.054267  1
  Br  Br24  1  0.407803  0.455490  0.659526  1
  Br  Br25  1  0.592197  0.544510  0.340474  1
  Br  Br26  1  0.955181  0.666422  0.781034  1
