# generated using pymatgen
data_NdNp2Sb4Pt3
_symmetry_space_group_name_H-M   'P 1'
_cell_length_a   8.52549660
_cell_length_b   8.52549654
_cell_length_c   8.52549686
_cell_angle_alpha   109.43050655
_cell_angle_beta   109.43050287
_cell_angle_gamma   109.55268763
_symmetry_Int_Tables_number   1
_chemical_formula_structural   NdNp2Sb4Pt3
_chemical_formula_sum   'Nd2 Np4 Sb8 Pt6'
_cell_volume   477.01989647
_cell_formula_units_Z   2
loop_
 _symmetry_equiv_pos_site_id
 _symmetry_equiv_pos_as_xyz
  1  'x, y, z'
loop_
 _atom_site_type_symbol
 _atom_site_label
 _atom_site_symmetry_multiplicity
 _atom_site_fract_x
 _atom_site_fract_y
 _atom_site_fract_z
 _atom_site_occupancy
  Nd  Nd0  1  0.125000  0.875000  0.250000  1
  Nd  Nd1  1  0.375000  0.625000  0.750000  1
  Np  Np2  1  0.875094  0.250000  0.125094  1
  Np  Np3  1  0.624906  0.750000  0.374906  1
  Np  Np4  1  0.250000  0.124906  0.874906  1
  Np  Np5  1  0.750000  0.375094  0.625094  1
  Sb  Sb6  1  0.671822  0.497451  0.998845  1
  Sb  Sb7  1  0.501393  0.002549  0.674371  1
  Sb  Sb8  1  0.998607  0.672977  0.501155  1
  Sb  Sb9  1  0.828178  0.827023  0.825629  1
  Sb  Sb10  1  0.502549  0.001393  0.174371  1
  Sb  Sb11  1  0.172977  0.498607  0.001155  1
  Sb  Sb12  1  0.997451  0.171822  0.498845  1
  Sb  Sb13  1  0.327023  0.328178  0.325629  1
  Pt  Pt14  1  0.376080  0.250000  0.626080  1
  Pt  Pt15  1  0.123920  0.750000  0.873920  1
  Pt  Pt16  1  0.250000  0.623920  0.373920  1
  Pt  Pt17  1  0.750000  0.876080  0.126080  1
  Pt  Pt18  1  0.625000  0.375000  0.250000  1
  Pt  Pt19  1  0.875000  0.125000  0.750000  1
