# generated using pymatgen
data_Sm3Zn3Ag2Ru
_symmetry_space_group_name_H-M   'P 1'
_cell_length_a   7.51947200
_cell_length_b   7.51947219
_cell_length_c   3.97748100
_cell_angle_alpha   90.00000000
_cell_angle_beta   90.00000000
_cell_angle_gamma   119.99999914
_symmetry_Int_Tables_number   1
_chemical_formula_structural   Sm3Zn3Ag2Ru
_chemical_formula_sum   'Sm3 Zn3 Ag2 Ru1'
_cell_volume   194.76613831
_cell_formula_units_Z   1
loop_
 _symmetry_equiv_pos_site_id
 _symmetry_equiv_pos_as_xyz
  1  'x, y, z'
loop_
 _atom_site_type_symbol
 _atom_site_label
 _atom_site_symmetry_multiplicity
 _atom_site_fract_x
 _atom_site_fract_y
 _atom_site_fract_z
 _atom_site_occupancy
  Sm  Sm0  1  0.573995  0.974980  0.000000  1
  Sm  Sm1  1  0.025020  0.599015  0.000000  1
  Sm  Sm2  1  0.400985  0.426005  0.000000  1
  Zn  Zn3  1  0.253902  0.990290  0.500000  1
  Zn  Zn4  1  0.009710  0.263612  0.500000  1
  Zn  Zn5  1  0.736388  0.746098  0.500000  1
  Ag  Ag6  1  0.666667  0.333333  0.500000  1
  Ag  Ag7  1  0.000000  0.000000  0.000000  1
  Ru  Ru8  1  0.333333  0.666667  0.500000  1
