# generated using pymatgen
data_Hf8ScRe3MoP
_symmetry_space_group_name_H-M   'P 1'
_cell_length_a   8.61617320
_cell_length_b   8.59887238
_cell_length_c   8.59774300
_cell_angle_alpha   90.00000000
_cell_angle_beta   90.00000000
_cell_angle_gamma   119.93359749
_symmetry_Int_Tables_number   1
_chemical_formula_structural   Hf8ScRe3MoP
_chemical_formula_sum   'Hf16 Sc2 Re6 Mo2 P2'
_cell_volume   552.02814376
_cell_formula_units_Z   2
loop_
 _symmetry_equiv_pos_site_id
 _symmetry_equiv_pos_as_xyz
  1  'x, y, z'
loop_
 _atom_site_type_symbol
 _atom_site_label
 _atom_site_symmetry_multiplicity
 _atom_site_fract_x
 _atom_site_fract_y
 _atom_site_fract_z
 _atom_site_occupancy
  Hf  Hf0  1  0.196687  0.804034  0.453031  1
  Hf  Hf1  1  0.196687  0.392652  0.453031  1
  Hf  Hf2  1  0.607343  0.803672  0.453472  1
  Hf  Hf3  1  0.804253  0.195069  0.550672  1
  Hf  Hf4  1  0.804253  0.609185  0.550672  1
  Hf  Hf5  1  0.390324  0.195162  0.550011  1
  Hf  Hf6  1  0.804253  0.195069  0.949328  1
  Hf  Hf7  1  0.804253  0.609185  0.949328  1
  Hf  Hf8  1  0.390324  0.195162  0.949989  1
  Hf  Hf9  1  0.196687  0.804034  0.046969  1
  Hf  Hf10  1  0.196687  0.392652  0.046969  1
  Hf  Hf11  1  0.607343  0.803672  0.046528  1
  Hf  Hf12  1  0.539157  0.459090  0.250000  1
  Hf  Hf13  1  0.539157  0.080068  0.250000  1
  Hf  Hf14  1  0.921601  0.460800  0.250000  1
  Hf  Hf15  1  0.079131  0.539566  0.750000  1
  Sc  Sc16  1  0.458653  0.540680  0.750000  1
  Sc  Sc17  1  0.458653  0.917974  0.750000  1
  Re  Re18  1  0.221194  0.110596  0.250000  1
  Re  Re19  1  0.109758  0.889964  0.750000  1
  Re  Re20  1  0.109758  0.219795  0.750000  1
  Re  Re21  1  0.780135  0.890068  0.750000  1
  Re  Re22  1  0.000702  0.000351  0.500939  1
  Re  Re23  1  0.000702  0.000351  0.999061  1
  Mo  Mo24  1  0.891103  0.109188  0.250000  1
  Mo  Mo25  1  0.891103  0.781914  0.250000  1
  P  P26  1  0.332885  0.666443  0.250000  1
  P  P27  1  0.667216  0.333607  0.750000  1
