# generated using pymatgen
data_Ta9NbB12
_symmetry_space_group_name_H-M   'P 1'
_cell_length_a   3.31232700
_cell_length_b   3.15263200
_cell_length_c   22.76913500
_cell_angle_alpha   90.00000000
_cell_angle_beta   90.00000000
_cell_angle_gamma   90.00000000
_symmetry_Int_Tables_number   1
_chemical_formula_structural   Ta9NbB12
_chemical_formula_sum   'Ta9 Nb1 B12'
_cell_volume   237.76778731
_cell_formula_units_Z   1
loop_
 _symmetry_equiv_pos_site_id
 _symmetry_equiv_pos_as_xyz
  1  'x, y, z'
loop_
 _atom_site_type_symbol
 _atom_site_label
 _atom_site_symmetry_multiplicity
 _atom_site_fract_x
 _atom_site_fract_y
 _atom_site_fract_z
 _atom_site_occupancy
  Ta  Ta0  1  0.000000  0.000000  0.000000  1
  Ta  Ta1  1  0.000000  0.500000  0.114528  1
  Ta  Ta2  1  0.500001  0.000000  0.194140  1
  Ta  Ta3  1  0.500001  0.500000  0.305708  1
  Ta  Ta4  1  0.000000  0.000000  0.385285  1
  Ta  Ta5  1  0.000000  0.000000  0.614716  1
  Ta  Ta6  1  0.500001  0.500000  0.694293  1
  Ta  Ta7  1  0.500001  0.000000  0.805862  1
  Ta  Ta8  1  0.000000  0.500000  0.885473  1
  Nb  Nb9  1  0.000000  0.500000  0.500001  1
  B  B10  1  0.500001  0.500000  0.039424  1
  B  B11  1  0.500001  0.000000  0.082417  1
  B  B12  1  0.000000  0.500000  0.226885  1
  B  B13  1  0.000000  0.000000  0.273113  1
  B  B14  1  0.500001  0.500000  0.417331  1
  B  B15  1  0.500001  0.000000  0.460283  1
  B  B16  1  0.500001  0.000000  0.539718  1
  B  B17  1  0.500001  0.500000  0.582670  1
  B  B18  1  0.000000  0.000000  0.726887  1
  B  B19  1  0.000000  0.500000  0.773116  1
  B  B20  1  0.500001  0.000000  0.917584  1
  B  B21  1  0.500001  0.500000  0.960577  1
