# generated using pymatgen
data_Ho3ErRe5Ru3
_symmetry_space_group_name_H-M   'P 1'
_cell_length_a   5.33629802
_cell_length_b   5.33629768
_cell_length_c   9.11434901
_cell_angle_alpha   90.00564464
_cell_angle_beta   89.99435348
_cell_angle_gamma   121.72357636
_symmetry_Int_Tables_number   1
_chemical_formula_structural   Ho3ErRe5Ru3
_chemical_formula_sum   'Ho3 Er1 Re5 Ru3'
_cell_volume   220.76412842
_cell_formula_units_Z   1
loop_
 _symmetry_equiv_pos_site_id
 _symmetry_equiv_pos_as_xyz
  1  'x, y, z'
loop_
 _atom_site_type_symbol
 _atom_site_label
 _atom_site_symmetry_multiplicity
 _atom_site_fract_x
 _atom_site_fract_y
 _atom_site_fract_z
 _atom_site_occupancy
  Ho  Ho0  1  0.336059  0.663941  0.436115  1
  Ho  Ho1  1  0.664733  0.335267  0.563268  1
  Ho  Ho2  1  0.664730  0.335270  0.936744  1
  Er  Er3  1  0.336075  0.663925  0.063887  1
  Re  Re4  1  0.168285  0.341195  0.750038  1
  Re  Re5  1  0.171417  0.828583  0.750035  1
  Re  Re6  1  0.335398  0.171971  0.249956  1
  Re  Re7  1  0.828029  0.664602  0.249956  1
  Re  Re8  1  0.658805  0.831715  0.750038  1
  Ru  Ru9  1  0.006801  0.993199  0.001555  1
  Ru  Ru10  1  0.822859  0.177141  0.249950  1
  Ru  Ru11  1  0.006811  0.993189  0.498456  1
