# generated using pymatgen
data_HfScRe4
_symmetry_space_group_name_H-M   'P 1'
_cell_length_a   5.29798700
_cell_length_b   5.29798596
_cell_length_c   8.60505800
_cell_angle_alpha   90.00000000
_cell_angle_beta   90.00000000
_cell_angle_gamma   119.99998774
_symmetry_Int_Tables_number   1
_chemical_formula_structural   HfScRe4
_chemical_formula_sum   'Hf2 Sc2 Re8'
_cell_volume   209.17326669
_cell_formula_units_Z   2
loop_
 _symmetry_equiv_pos_site_id
 _symmetry_equiv_pos_as_xyz
  1  'x, y, z'
loop_
 _atom_site_type_symbol
 _atom_site_label
 _atom_site_symmetry_multiplicity
 _atom_site_fract_x
 _atom_site_fract_y
 _atom_site_fract_z
 _atom_site_occupancy
  Hf  Hf0  1  0.666667  0.333333  0.937092  1
  Hf  Hf1  1  0.333333  0.666667  0.437092  1
  Sc  Sc2  1  0.333333  0.666667  0.063012  1
  Sc  Sc3  1  0.666667  0.333333  0.563012  1
  Re  Re4  1  0.000000  0.000000  0.000222  1
  Re  Re5  1  0.000000  0.000000  0.500222  1
  Re  Re6  1  0.828189  0.656378  0.249891  1
  Re  Re7  1  0.171811  0.828189  0.749891  1
  Re  Re8  1  0.656378  0.828189  0.749891  1
  Re  Re9  1  0.343622  0.171811  0.249891  1
  Re  Re10  1  0.828189  0.171811  0.249891  1
  Re  Re11  1  0.171811  0.343622  0.749891  1
