# generated using pymatgen
data_Tb2Lu2B12RuW
_symmetry_space_group_name_H-M   'P 1'
_cell_length_a   3.60501800
_cell_length_b   9.16677927
_cell_length_c   11.57830701
_cell_angle_alpha   89.79784953
_cell_angle_beta   90.00000000
_cell_angle_gamma   90.00000000
_symmetry_Int_Tables_number   1
_chemical_formula_structural   Tb2Lu2B12RuW
_chemical_formula_sum   'Tb4 Lu4 B24 Ru2 W2'
_cell_volume   382.61903269
_cell_formula_units_Z   2
loop_
 _symmetry_equiv_pos_site_id
 _symmetry_equiv_pos_as_xyz
  1  'x, y, z'
loop_
 _atom_site_type_symbol
 _atom_site_label
 _atom_site_symmetry_multiplicity
 _atom_site_fract_x
 _atom_site_fract_y
 _atom_site_fract_z
 _atom_site_occupancy
  Tb  Tb0  1  0.000000  0.321403  0.414031  1
  Tb  Tb1  1  0.000000  0.678597  0.585969  1
  Tb  Tb2  1  0.000000  0.821889  0.086122  1
  Tb  Tb3  1  0.000000  0.178111  0.913878  1
  Lu  Lu4  1  0.000000  0.945438  0.371361  1
  Lu  Lu5  1  0.000000  0.054562  0.628639  1
  Lu  Lu6  1  0.000000  0.442120  0.127888  1
  Lu  Lu7  1  0.000000  0.557880  0.872112  1
  B  B8  1  0.500000  0.551738  0.434240  1
  B  B9  1  0.500000  0.448262  0.565760  1
  B  B10  1  0.500000  0.054646  0.067748  1
  B  B11  1  0.500000  0.945354  0.932252  1
  B  B12  1  0.500000  0.753603  0.420806  1
  B  B13  1  0.500000  0.246397  0.579194  1
  B  B14  1  0.500000  0.249822  0.082296  1
  B  B15  1  0.500000  0.750178  0.917704  1
  B  B16  1  0.500000  0.796776  0.263661  1
  B  B17  1  0.500000  0.203224  0.736339  1
  B  B18  1  0.500000  0.290697  0.233688  1
  B  B19  1  0.500000  0.709303  0.766312  1
  B  B20  1  0.500000  0.631143  0.180947  1
  B  B21  1  0.500000  0.368857  0.819053  1
  B  B22  1  0.500000  0.130102  0.314207  1
  B  B23  1  0.500000  0.869898  0.685793  1
  B  B24  1  0.500000  0.984315  0.212622  1
  B  B25  1  0.500000  0.015685  0.787378  1
  B  B26  1  0.500000  0.477732  0.285300  1
  B  B27  1  0.500000  0.522268  0.714700  1
  B  B28  1  0.500000  0.600681  0.026883  1
  B  B29  1  0.500000  0.399319  0.973117  1
  B  B30  1  0.500000  0.100273  0.471516  1
  B  B31  1  0.500000  0.899727  0.528484  1
  Ru  Ru32  1  0.000000  0.138973  0.179559  1
  Ru  Ru33  1  0.000000  0.861027  0.820441  1
  W  W34  1  0.000000  0.639640  0.318824  1
  W  W35  1  0.000000  0.360360  0.681176  1
