# generated using pymatgen
data_Tm2P7Ru12
_symmetry_space_group_name_H-M   'P 1'
_cell_length_a   9.39496300
_cell_length_b   9.39496257
_cell_length_c   3.95060900
_cell_angle_alpha   90.00000000
_cell_angle_beta   90.00000000
_cell_angle_gamma   119.99999094
_symmetry_Int_Tables_number   1
_chemical_formula_structural   Tm2P7Ru12
_chemical_formula_sum   'Tm2 P7 Ru12'
_cell_volume   301.98463640
_cell_formula_units_Z   1
loop_
 _symmetry_equiv_pos_site_id
 _symmetry_equiv_pos_as_xyz
  1  'x, y, z'
loop_
 _atom_site_type_symbol
 _atom_site_label
 _atom_site_symmetry_multiplicity
 _atom_site_fract_x
 _atom_site_fract_y
 _atom_site_fract_z
 _atom_site_occupancy
  Tm  Tm0  1  0.666667  0.333333  0.500000  1
  Tm  Tm1  1  0.333333  0.666667  0.000000  1
  P  P2  1  0.599222  0.718150  0.500000  1
  P  P3  1  0.000000  0.000000  0.000000  1
  P  P4  1  0.281850  0.881072  0.500000  1
  P  P5  1  0.118928  0.400778  0.500000  1
  P  P6  1  0.883786  0.574465  0.000000  1
  P  P7  1  0.425535  0.309321  0.000000  1
  P  P8  1  0.690679  0.116214  0.000000  1
  Ru  Ru9  1  0.555523  0.948188  0.500000  1
  Ru  Ru10  1  0.392666  0.444477  0.500000  1
  Ru  Ru11  1  0.914570  0.122857  0.500000  1
  Ru  Ru12  1  0.208286  0.085430  0.500000  1
  Ru  Ru13  1  0.877143  0.791714  0.500000  1
  Ru  Ru14  1  0.727552  0.891805  0.000000  1
  Ru  Ru15  1  0.108195  0.835746  0.000000  1
  Ru  Ru16  1  0.164254  0.272448  0.000000  1
  Ru  Ru17  1  0.425410  0.066371  0.000000  1
  Ru  Ru18  1  0.933629  0.359041  0.000000  1
  Ru  Ru19  1  0.640959  0.574590  0.000000  1
  Ru  Ru20  1  0.051812  0.607334  0.500000  1
