# generated using pymatgen
data_Ca2NdPa(AsPd)4
_symmetry_space_group_name_H-M   'P 1'
_cell_length_a   4.37885200
_cell_length_b   7.67654642
_cell_length_c   7.52769937
_cell_angle_alpha   89.95008864
_cell_angle_beta   90.00000000
_cell_angle_gamma   90.00000000
_symmetry_Int_Tables_number   1
_chemical_formula_structural   Ca2NdPa(AsPd)4
_chemical_formula_sum   'Ca2 Nd1 Pa1 As4 Pd4'
_cell_volume   253.03945830
_cell_formula_units_Z   1
loop_
 _symmetry_equiv_pos_site_id
 _symmetry_equiv_pos_as_xyz
  1  'x, y, z'
loop_
 _atom_site_type_symbol
 _atom_site_label
 _atom_site_symmetry_multiplicity
 _atom_site_fract_x
 _atom_site_fract_y
 _atom_site_fract_z
 _atom_site_occupancy
  Ca  Ca0  1  0.250000  0.998991  0.240639  1
  Ca  Ca1  1  0.750000  0.498512  0.748745  1
  Nd  Nd2  1  0.250000  0.498266  0.253146  1
  Pa  Pa3  1  0.750000  0.999110  0.759187  1
  As  As4  1  0.250000  0.245138  0.915406  1
  As  As5  1  0.250000  0.798292  0.584293  1
  As  As6  1  0.750000  0.757937  0.080950  1
  As  As7  1  0.750000  0.266717  0.419135  1
  Pd  Pd8  1  0.250000  0.738852  0.912217  1
  Pd  Pd9  1  0.250000  0.215831  0.584187  1
  Pd  Pd10  1  0.750000  0.232363  0.078743  1
  Pd  Pd11  1  0.750000  0.749989  0.423353  1
