# generated using pymatgen
data_Tb5HoTh2(MgRu)2
_symmetry_space_group_name_H-M   'P 1'
_cell_length_a   9.77863943
_cell_length_b   9.78141055
_cell_length_c   9.78141039
_cell_angle_alpha   59.98126086
_cell_angle_beta   60.00936530
_cell_angle_gamma   60.00936839
_symmetry_Int_Tables_number   1
_chemical_formula_structural   Tb5HoTh2(MgRu)2
_chemical_formula_sum   'Tb10 Ho2 Th4 Mg4 Ru4'
_cell_volume   661.55554775
_cell_formula_units_Z   2
loop_
 _symmetry_equiv_pos_site_id
 _symmetry_equiv_pos_as_xyz
  1  'x, y, z'
loop_
 _atom_site_type_symbol
 _atom_site_label
 _atom_site_symmetry_multiplicity
 _atom_site_fract_x
 _atom_site_fract_y
 _atom_site_fract_z
 _atom_site_occupancy
  Tb  Tb0  1  0.436562  0.063438  0.436562  1
  Tb  Tb1  1  0.063438  0.436562  0.063438  1
  Tb  Tb2  1  0.436562  0.436562  0.063438  1
  Tb  Tb3  1  0.063438  0.063438  0.436562  1
  Tb  Tb4  1  0.185845  0.814155  0.814155  1
  Tb  Tb5  1  0.814155  0.185845  0.185845  1
  Tb  Tb6  1  0.814110  0.185890  0.814110  1
  Tb  Tb7  1  0.185890  0.814110  0.185890  1
  Tb  Tb8  1  0.814110  0.814110  0.185890  1
  Tb  Tb9  1  0.185890  0.185890  0.814110  1
  Ho  Ho10  1  0.063220  0.436780  0.436780  1
  Ho  Ho11  1  0.436780  0.063220  0.063220  1
  Th  Th12  1  0.596265  0.595628  0.595628  1
  Th  Th13  1  0.595628  0.596265  0.212481  1
  Th  Th14  1  0.595628  0.212481  0.596265  1
  Th  Th15  1  0.212481  0.595628  0.595628  1
  Mg  Mg16  1  0.829515  0.829812  0.829812  1
  Mg  Mg17  1  0.829812  0.829515  0.510862  1
  Mg  Mg18  1  0.829812  0.510862  0.829515  1
  Mg  Mg19  1  0.510862  0.829812  0.829812  1
  Ru  Ru20  1  0.393272  0.393798  0.393798  1
  Ru  Ru21  1  0.393798  0.393272  0.819132  1
  Ru  Ru22  1  0.393798  0.819132  0.393272  1
  Ru  Ru23  1  0.819132  0.393798  0.393798  1
