# generated using pymatgen
data_ErScNb4(B2Ru5)2
_symmetry_space_group_name_H-M   'P 1'
_cell_length_a   9.50505267
_cell_length_b   9.50505394
_cell_length_c   3.07920900
_cell_angle_alpha   90.00000000
_cell_angle_beta   90.00000000
_cell_angle_gamma   89.74691119
_symmetry_Int_Tables_number   1
_chemical_formula_structural   ErScNb4(B2Ru5)2
_chemical_formula_sum   'Er1 Sc1 Nb4 B4 Ru10'
_cell_volume   278.19162029
_cell_formula_units_Z   1
loop_
 _symmetry_equiv_pos_site_id
 _symmetry_equiv_pos_as_xyz
  1  'x, y, z'
loop_
 _atom_site_type_symbol
 _atom_site_label
 _atom_site_symmetry_multiplicity
 _atom_site_fract_x
 _atom_site_fract_y
 _atom_site_fract_z
 _atom_site_occupancy
  Er  Er0  1  0.174365  0.174365  0.000000  1
  Sc  Sc1  1  0.824033  0.824033  0.000000  1
  Nb  Nb2  1  0.501555  0.999314  0.000000  1
  Nb  Nb3  1  0.999314  0.501555  0.000000  1
  Nb  Nb4  1  0.676074  0.324232  0.000000  1
  Nb  Nb5  1  0.324232  0.676074  0.000000  1
  B  B6  1  0.379232  0.379232  0.000000  1
  B  B7  1  0.623720  0.623720  0.000000  1
  B  B8  1  0.878657  0.119070  0.000000  1
  B  B9  1  0.119070  0.878657  0.000000  1
  Ru  Ru10  1  0.501234  0.501234  0.500000  1
  Ru  Ru11  1  0.995192  0.995192  0.500000  1
  Ru  Ru12  1  0.439115  0.222483  0.500000  1
  Ru  Ru13  1  0.565537  0.779685  0.500000  1
  Ru  Ru14  1  0.919657  0.284182  0.500000  1
  Ru  Ru15  1  0.077167  0.715495  0.500000  1
  Ru  Ru16  1  0.715495  0.077167  0.500000  1
  Ru  Ru17  1  0.284182  0.919657  0.500000  1
  Ru  Ru18  1  0.779685  0.565537  0.500000  1
  Ru  Ru19  1  0.222483  0.439115  0.500000  1
