# generated using pymatgen
data_V7S12
_symmetry_space_group_name_H-M   'P 1'
_cell_length_a   5.52121326
_cell_length_b   5.52121364
_cell_length_c   12.26684341
_cell_angle_alpha   85.70368886
_cell_angle_beta   85.70368915
_cell_angle_gamma   119.98236991
_symmetry_Int_Tables_number   1
_chemical_formula_structural   V7S12
_chemical_formula_sum   'V7 S12'
_cell_volume   320.24479462
_cell_formula_units_Z   1
loop_
 _symmetry_equiv_pos_site_id
 _symmetry_equiv_pos_as_xyz
  1  'x, y, z'
loop_
 _atom_site_type_symbol
 _atom_site_label
 _atom_site_symmetry_multiplicity
 _atom_site_fract_x
 _atom_site_fract_y
 _atom_site_fract_z
 _atom_site_occupancy
  V  V0  1  0.082783  0.082783  0.751302  1
  V  V1  1  0.416079  0.749297  0.751899  1
  V  V2  1  0.749297  0.416079  0.751899  1
  V  V3  1  0.250703  0.583921  0.248101  1
  V  V4  1  0.583921  0.250703  0.248101  1
  V  V5  1  0.917217  0.917217  0.248698  1
  V  V6  1  0.000000  0.000000  0.000000  1
  S  S7  1  0.290873  0.290873  0.126390  1
  S  S8  1  0.625002  0.957884  0.126441  1
  S  S9  1  0.957884  0.625002  0.126441  1
  S  S10  1  0.042116  0.374998  0.873559  1
  S  S11  1  0.374998  0.042116  0.873559  1
  S  S12  1  0.709127  0.709127  0.873610  1
  S  S13  1  0.210871  0.210871  0.369477  1
  S  S14  1  0.542894  0.876927  0.369321  1
  S  S15  1  0.876927  0.542894  0.369321  1
  S  S16  1  0.123073  0.457106  0.630679  1
  S  S17  1  0.457106  0.123073  0.630679  1
  S  S18  1  0.789129  0.789129  0.630523  1
