# generated using pymatgen
data_Y5VMoO12
_symmetry_space_group_name_H-M   'P 1'
_cell_length_a   6.81811747
_cell_length_b   6.81811850
_cell_length_c   7.38318260
_cell_angle_alpha   74.22344780
_cell_angle_beta   74.22344468
_cell_angle_gamma   51.37500746
_symmetry_Int_Tables_number   1
_chemical_formula_structural   Y5VMoO12
_chemical_formula_sum   'Y5 V1 Mo1 O12'
_cell_volume   255.64522788
_cell_formula_units_Z   1
loop_
 _symmetry_equiv_pos_site_id
 _symmetry_equiv_pos_as_xyz
  1  'x, y, z'
loop_
 _atom_site_type_symbol
 _atom_site_label
 _atom_site_symmetry_multiplicity
 _atom_site_fract_x
 _atom_site_fract_y
 _atom_site_fract_z
 _atom_site_occupancy
  Y  Y0  1  0.313209  0.296195  0.361303  1
  Y  Y1  1  0.703805  0.686791  0.638697  1
  Y  Y2  1  0.313357  0.307993  0.825701  1
  Y  Y3  1  0.692007  0.686643  0.174299  1
  Y  Y4  1  0.002517  0.997483  0.500000  1
  V  V5  1  0.749100  0.250900  0.000000  1
  Mo  Mo6  1  0.229525  0.770475  0.000000  1
  O  O7  1  0.897812  0.422701  0.919701  1
  O  O8  1  0.427785  0.898651  0.918726  1
  O  O9  1  0.101349  0.572215  0.081274  1
  O  O10  1  0.577299  0.102188  0.080299  1
  O  O11  1  0.101948  0.591296  0.575340  1
  O  O12  1  0.598952  0.090676  0.576830  1
  O  O13  1  0.909324  0.401048  0.423170  1
  O  O14  1  0.408704  0.898052  0.424660  1
  O  O15  1  0.991200  0.010423  0.811292  1
  O  O16  1  0.989577  0.008800  0.188708  1
  O  O17  1  0.495993  0.503459  0.812190  1
  O  O18  1  0.496541  0.504007  0.187810  1
