# generated using pymatgen
data_Y2Zn14Pt3
_symmetry_space_group_name_H-M   'P 1'
_cell_length_a   6.83355410
_cell_length_b   6.83355390
_cell_length_c   6.83355278
_cell_angle_alpha   82.89420543
_cell_angle_beta   82.89420164
_cell_angle_gamma   82.89421267
_symmetry_Int_Tables_number   1
_chemical_formula_structural   Y2Zn14Pt3
_chemical_formula_sum   'Y2 Zn14 Pt3'
_cell_volume   312.31671542
_cell_formula_units_Z   1
loop_
 _symmetry_equiv_pos_site_id
 _symmetry_equiv_pos_as_xyz
  1  'x, y, z'
loop_
 _atom_site_type_symbol
 _atom_site_label
 _atom_site_symmetry_multiplicity
 _atom_site_fract_x
 _atom_site_fract_y
 _atom_site_fract_z
 _atom_site_occupancy
  Y  Y0  1  0.669298  0.669298  0.669298  1
  Y  Y1  1  0.330702  0.330702  0.330702  1
  Zn  Zn2  1  0.354969  0.354969  0.840042  1
  Zn  Zn3  1  0.840042  0.354969  0.354969  1
  Zn  Zn4  1  0.100873  0.100873  0.100873  1
  Zn  Zn5  1  0.899127  0.899127  0.899127  1
  Zn  Zn6  1  0.299248  0.700752  0.000000  1
  Zn  Zn7  1  0.700752  0.000000  0.299248  1
  Zn  Zn8  1  0.000000  0.299248  0.700752  1
  Zn  Zn9  1  0.700752  0.299248  0.000000  1
  Zn  Zn10  1  0.299248  0.000000  0.700752  1
  Zn  Zn11  1  0.000000  0.700752  0.299248  1
  Zn  Zn12  1  0.159958  0.645031  0.645031  1
  Zn  Zn13  1  0.645031  0.645031  0.159958  1
  Zn  Zn14  1  0.645031  0.159958  0.645031  1
  Zn  Zn15  1  0.354969  0.840042  0.354969  1
  Pt  Pt16  1  0.000000  0.000000  0.500000  1
  Pt  Pt17  1  0.000000  0.500000  0.000000  1
  Pt  Pt18  1  0.500000  0.000000  0.000000  1
