# generated using pymatgen
data_Tb2Y5Co6Sn23
_symmetry_space_group_name_H-M   'P 1'
_cell_length_a   9.71236301
_cell_length_b   9.72255777
_cell_length_c   9.97285403
_cell_angle_alpha   90.00000253
_cell_angle_beta   90.00490377
_cell_angle_gamma   120.03473363
_symmetry_Int_Tables_number   1
_chemical_formula_structural   Tb2Y5Co6Sn23
_chemical_formula_sum   'Tb2 Y5 Co6 Sn23'
_cell_volume   815.27367992
_cell_formula_units_Z   1
loop_
 _symmetry_equiv_pos_site_id
 _symmetry_equiv_pos_as_xyz
  1  'x, y, z'
loop_
 _atom_site_type_symbol
 _atom_site_label
 _atom_site_symmetry_multiplicity
 _atom_site_fract_x
 _atom_site_fract_y
 _atom_site_fract_z
 _atom_site_occupancy
  Tb  Tb0  1  0.000671  0.000336  0.000449  1
  Tb  Tb1  1  0.955199  0.477600  0.693768  1
  Y  Y2  1  0.477679  0.522281  0.306393  1
  Y  Y3  1  0.522272  0.477967  0.693545  1
  Y  Y4  1  0.477679  0.955398  0.306393  1
  Y  Y5  1  0.522272  0.044304  0.693545  1
  Y  Y6  1  0.044233  0.522116  0.306293  1
  Co  Co7  1  0.832871  0.167244  0.196323  1
  Co  Co8  1  0.167150  0.832690  0.803598  1
  Co  Co9  1  0.832871  0.665626  0.196323  1
  Co  Co10  1  0.167150  0.334460  0.803598  1
  Co  Co11  1  0.334314  0.167156  0.196447  1
  Co  Co12  1  0.665261  0.832630  0.803500  1
  Sn  Sn13  1  0.345818  0.999952  0.000059  1
  Sn  Sn14  1  0.654290  0.999959  0.000024  1
  Sn  Sn15  1  0.999809  0.345689  0.999860  1
  Sn  Sn16  1  0.999809  0.654120  0.999860  1
  Sn  Sn17  1  0.654290  0.654331  0.000024  1
  Sn  Sn18  1  0.345818  0.345866  0.000059  1
  Sn  Sn19  1  0.333116  0.666559  0.818472  1
  Sn  Sn20  1  0.666547  0.333274  0.181715  1
  Sn  Sn21  1  0.000132  0.000066  0.499928  1
  Sn  Sn22  1  0.781315  0.218518  0.450200  1
  Sn  Sn23  1  0.218810  0.781014  0.549650  1
  Sn  Sn24  1  0.781315  0.562797  0.450200  1
  Sn  Sn25  1  0.218810  0.437797  0.549650  1
  Sn  Sn26  1  0.437820  0.218909  0.450153  1
  Sn  Sn27  1  0.562733  0.781367  0.549511  1
  Sn  Sn28  1  0.333095  0.666549  0.116130  1
  Sn  Sn29  1  0.665758  0.332879  0.884110  1
  Sn  Sn30  1  0.117986  0.882332  0.274850  1
  Sn  Sn31  1  0.882353  0.117498  0.725261  1
  Sn  Sn32  1  0.117986  0.235654  0.274850  1
  Sn  Sn33  1  0.882353  0.764854  0.725261  1
  Sn  Sn34  1  0.764513  0.882257  0.274711  1
  Sn  Sn35  1  0.235907  0.117953  0.725290  1
