# generated using pymatgen
data_Tb7Dy9In4NiRh3
_symmetry_space_group_name_H-M   'P 1'
_cell_length_a   9.67137941
_cell_length_b   9.65521573
_cell_length_c   9.66350602
_cell_angle_alpha   59.96501066
_cell_angle_beta   60.02729992
_cell_angle_gamma   59.98778171
_symmetry_Int_Tables_number   1
_chemical_formula_structural   Tb7Dy9In4NiRh3
_chemical_formula_sum   'Tb7 Dy9 In4 Ni1 Rh3'
_cell_volume   637.97625524
_cell_formula_units_Z   1
loop_
 _symmetry_equiv_pos_site_id
 _symmetry_equiv_pos_as_xyz
  1  'x, y, z'
loop_
 _atom_site_type_symbol
 _atom_site_label
 _atom_site_symmetry_multiplicity
 _atom_site_fract_x
 _atom_site_fract_y
 _atom_site_fract_z
 _atom_site_occupancy
  Tb  Tb0  1  0.047471  0.648116  0.652300  1
  Tb  Tb1  1  0.438204  0.061443  0.062181  1
  Tb  Tb2  1  0.438128  0.061060  0.438637  1
  Tb  Tb3  1  0.062507  0.438132  0.062992  1
  Tb  Tb4  1  0.652677  0.649104  0.044995  1
  Tb  Tb5  1  0.189690  0.811260  0.189123  1
  Tb  Tb6  1  0.062156  0.438042  0.436829  1
  Dy  Dy7  1  0.809617  0.811259  0.189585  1
  Dy  Dy8  1  0.810792  0.190823  0.810640  1
  Dy  Dy9  1  0.188284  0.190366  0.810571  1
  Dy  Dy10  1  0.649302  0.049180  0.650745  1
  Dy  Dy11  1  0.060447  0.060548  0.439810  1
  Dy  Dy12  1  0.436343  0.438513  0.062378  1
  Dy  Dy13  1  0.652318  0.649279  0.653230  1
  Dy  Dy14  1  0.810644  0.190809  0.187811  1
  Dy  Dy15  1  0.189950  0.811161  0.809531  1
  In  In16  1  0.417673  0.417708  0.416587  1
  In  In17  1  0.417732  0.417795  0.748118  1
  In  In18  1  0.417796  0.746439  0.418191  1
  In  In19  1  0.747235  0.417823  0.417710  1
  Ni  Ni20  1  0.858675  0.424846  0.857931  1
  Rh  Rh21  1  0.858424  0.858967  0.856882  1
  Rh  Rh22  1  0.857486  0.858746  0.426419  1
  Rh  Rh23  1  0.426446  0.858576  0.856803  1
