# generated using pymatgen
data_Tb3Dy(Ni7P4)2
_symmetry_space_group_name_H-M   'P 1'
_cell_length_a   3.70321200
_cell_length_b   9.14059267
_cell_length_c   10.27204775
_cell_angle_alpha   90.04384658
_cell_angle_beta   90.00000000
_cell_angle_gamma   90.00000000
_symmetry_Int_Tables_number   1
_chemical_formula_structural   Tb3Dy(Ni7P4)2
_chemical_formula_sum   'Tb3 Dy1 Ni14 P8'
_cell_volume   347.70411743
_cell_formula_units_Z   1
loop_
 _symmetry_equiv_pos_site_id
 _symmetry_equiv_pos_as_xyz
  1  'x, y, z'
loop_
 _atom_site_type_symbol
 _atom_site_label
 _atom_site_symmetry_multiplicity
 _atom_site_fract_x
 _atom_site_fract_y
 _atom_site_fract_z
 _atom_site_occupancy
  Tb  Tb0  1  0.500000  0.942258  0.895592  1
  Tb  Tb1  1  0.000000  0.435923  0.178070  1
  Tb  Tb2  1  0.500000  0.564053  0.678101  1
  Dy  Dy3  1  0.000000  0.057672  0.395418  1
  Ni  Ni4  1  0.000000  0.056531  0.698557  1
  Ni  Ni5  1  0.500000  0.943574  0.199340  1
  Ni  Ni6  1  0.000000  0.725230  0.509739  1
  Ni  Ni7  1  0.500000  0.274709  0.009751  1
  Ni  Ni8  1  0.000000  0.097548  0.093913  1
  Ni  Ni9  1  0.500000  0.902818  0.593376  1
  Ni  Ni10  1  0.000000  0.745462  0.274081  1
  Ni  Ni11  1  0.500000  0.254669  0.773477  1
  Ni  Ni12  1  0.000000  0.305655  0.602940  1
  Ni  Ni13  1  0.500000  0.694118  0.103271  1
  Ni  Ni14  1  0.000000  0.686007  0.912560  1
  Ni  Ni15  1  0.500000  0.313433  0.412328  1
  Ni  Ni16  1  0.000000  0.418138  0.869929  1
  Ni  Ni17  1  0.500000  0.582121  0.370050  1
  P  P18  1  0.000000  0.181066  0.889193  1
  P  P19  1  0.500000  0.819275  0.389259  1
  P  P20  1  0.000000  0.845741  0.084792  1
  P  P21  1  0.500000  0.154092  0.584224  1
  P  P22  1  0.000000  0.809712  0.713962  1
  P  P23  1  0.500000  0.190110  0.214257  1
  P  P24  1  0.000000  0.479385  0.460927  1
  P  P25  1  0.500000  0.520700  0.961090  1
