# generated using pymatgen
data_DyLu2Ga4Ni9B2
_symmetry_space_group_name_H-M   'P 1'
_cell_length_a   5.14352400
_cell_length_b   5.14352484
_cell_length_c   10.60534700
_cell_angle_alpha   90.00000000
_cell_angle_beta   90.00000000
_cell_angle_gamma   119.99998171
_symmetry_Int_Tables_number   1
_chemical_formula_structural   DyLu2Ga4Ni9B2
_chemical_formula_sum   'Dy1 Lu2 Ga4 Ni9 B2'
_cell_volume   242.98373700
_cell_formula_units_Z   1
loop_
 _symmetry_equiv_pos_site_id
 _symmetry_equiv_pos_as_xyz
  1  'x, y, z'
loop_
 _atom_site_type_symbol
 _atom_site_label
 _atom_site_symmetry_multiplicity
 _atom_site_fract_x
 _atom_site_fract_y
 _atom_site_fract_z
 _atom_site_occupancy
  Dy  Dy0  1  0.000000  0.000000  0.662884  1
  Lu  Lu1  1  0.000000  0.000000  0.001050  1
  Lu  Lu2  1  0.000000  0.000000  0.336560  1
  Ga  Ga3  1  0.333333  0.666667  0.315308  1
  Ga  Ga4  1  0.666667  0.333333  0.315308  1
  Ga  Ga5  1  0.666667  0.333333  0.684388  1
  Ga  Ga6  1  0.333333  0.666667  0.684388  1
  Ni  Ni7  1  0.500000  0.000000  0.499004  1
  Ni  Ni8  1  0.500000  0.500000  0.499004  1
  Ni  Ni9  1  0.000000  0.500000  0.499004  1
  Ni  Ni10  1  0.500000  0.000000  0.129042  1
  Ni  Ni11  1  0.500000  0.500000  0.129042  1
  Ni  Ni12  1  0.000000  0.500000  0.129042  1
  Ni  Ni13  1  0.500000  0.000000  0.871780  1
  Ni  Ni14  1  0.500000  0.500000  0.871780  1
  Ni  Ni15  1  0.000000  0.500000  0.871780  1
  B  B16  1  0.333333  0.666667  0.000318  1
  B  B17  1  0.666667  0.333333  0.000318  1
