# generated using pymatgen
data_BeTe7
_symmetry_space_group_name_H-M   'P 1'
_cell_length_a   8.66660504
_cell_length_b   8.66660462
_cell_length_c   16.37262590
_cell_angle_alpha   92.46504024
_cell_angle_beta   92.46504646
_cell_angle_gamma   28.27021703
_symmetry_Int_Tables_number   1
_chemical_formula_structural   BeTe7
_chemical_formula_sum   'Be2 Te14'
_cell_volume   581.87322105
_cell_formula_units_Z   2
loop_
 _symmetry_equiv_pos_site_id
 _symmetry_equiv_pos_as_xyz
  1  'x, y, z'
loop_
 _atom_site_type_symbol
 _atom_site_label
 _atom_site_symmetry_multiplicity
 _atom_site_fract_x
 _atom_site_fract_y
 _atom_site_fract_z
 _atom_site_occupancy
  Be  Be0  1  0.722084  0.722084  0.772175  1
  Be  Be1  1  0.277916  0.277916  0.227825  1
  Te  Te2  1  0.276333  0.276333  0.382482  1
  Te  Te3  1  0.723667  0.723667  0.617518  1
  Te  Te4  1  0.989087  0.989087  0.264237  1
  Te  Te5  1  0.179825  0.179825  0.952714  1
  Te  Te6  1  0.404317  0.404317  0.151638  1
  Te  Te7  1  0.650082  0.650082  0.358287  1
  Te  Te8  1  0.010913  0.010913  0.735763  1
  Te  Te9  1  0.595683  0.595683  0.848362  1
  Te  Te10  1  0.820175  0.820175  0.047286  1
  Te  Te11  1  0.090328  0.090328  0.592195  1
  Te  Te12  1  0.909672  0.909672  0.407805  1
  Te  Te13  1  0.292405  0.292405  0.814601  1
  Te  Te14  1  0.707595  0.707595  0.185399  1
  Te  Te15  1  0.349918  0.349918  0.641713  1
