# generated using pymatgen
data_Li4La3NdIr4
_symmetry_space_group_name_H-M   'P 1'
_cell_length_a   7.17763152
_cell_length_b   4.07767100
_cell_length_c   8.54863432
_cell_angle_alpha   90.00000000
_cell_angle_beta   89.74704281
_cell_angle_gamma   90.00000000
_symmetry_Int_Tables_number   1
_chemical_formula_structural   Li4La3NdIr4
_chemical_formula_sum   'Li4 La3 Nd1 Ir4'
_cell_volume   250.19916075
_cell_formula_units_Z   1
loop_
 _symmetry_equiv_pos_site_id
 _symmetry_equiv_pos_as_xyz
  1  'x, y, z'
loop_
 _atom_site_type_symbol
 _atom_site_label
 _atom_site_symmetry_multiplicity
 _atom_site_fract_x
 _atom_site_fract_y
 _atom_site_fract_z
 _atom_site_occupancy
  Li  Li0  1  0.868841  0.250000  0.554794  1
  Li  Li1  1  0.374550  0.250000  0.944373  1
  Li  Li2  1  0.128461  0.750000  0.445861  1
  Li  Li3  1  0.626759  0.750000  0.052698  1
  La  La4  1  0.957992  0.250000  0.181806  1
  La  La5  1  0.457541  0.250000  0.320313  1
  La  La6  1  0.043154  0.750000  0.816681  1
  Nd  Nd7  1  0.544956  0.750000  0.681594  1
  Ir  Ir8  1  0.757724  0.250000  0.872200  1
  Ir  Ir9  1  0.255692  0.250000  0.628550  1
  Ir  Ir10  1  0.242157  0.750000  0.128861  1
  Ir  Ir11  1  0.742172  0.750000  0.372269  1
