# generated using pymatgen
data_Ho2Sc2CrB12Ir
_symmetry_space_group_name_H-M   'P 1'
_cell_length_a   3.50849700
_cell_length_b   8.98057252
_cell_length_c   11.37044051
_cell_angle_alpha   89.93818082
_cell_angle_beta   90.00000000
_cell_angle_gamma   90.00000000
_symmetry_Int_Tables_number   1
_chemical_formula_structural   Ho2Sc2CrB12Ir
_chemical_formula_sum   'Ho4 Sc4 Cr2 B24 Ir2'
_cell_volume   358.26317566
_cell_formula_units_Z   2
loop_
 _symmetry_equiv_pos_site_id
 _symmetry_equiv_pos_as_xyz
  1  'x, y, z'
loop_
 _atom_site_type_symbol
 _atom_site_label
 _atom_site_symmetry_multiplicity
 _atom_site_fract_x
 _atom_site_fract_y
 _atom_site_fract_z
 _atom_site_occupancy
  Ho  Ho0  1  0.000000  0.815796  0.088754  1
  Ho  Ho1  1  0.000000  0.184204  0.911246  1
  Ho  Ho2  1  0.000000  0.324373  0.416823  1
  Ho  Ho3  1  0.000000  0.675627  0.583177  1
  Sc  Sc4  1  0.000000  0.448843  0.128170  1
  Sc  Sc5  1  0.000000  0.551157  0.871830  1
  Sc  Sc6  1  0.000000  0.940117  0.374621  1
  Sc  Sc7  1  0.000000  0.059883  0.625379  1
  Cr  Cr8  1  0.000000  0.640687  0.317373  1
  Cr  Cr9  1  0.000000  0.359313  0.682627  1
  B  B10  1  0.500000  0.054687  0.066375  1
  B  B11  1  0.500000  0.945313  0.933625  1
  B  B12  1  0.500000  0.554106  0.432173  1
  B  B13  1  0.500000  0.445894  0.567827  1
  B  B14  1  0.500000  0.254760  0.080249  1
  B  B15  1  0.500000  0.745240  0.919751  1
  B  B16  1  0.500000  0.751272  0.418390  1
  B  B17  1  0.500000  0.248728  0.581610  1
  B  B18  1  0.500000  0.294530  0.235626  1
  B  B19  1  0.500000  0.705470  0.764374  1
  B  B20  1  0.500000  0.793658  0.265709  1
  B  B21  1  0.500000  0.206342  0.734291  1
  B  B22  1  0.500000  0.128885  0.318423  1
  B  B23  1  0.500000  0.871115  0.681577  1
  B  B24  1  0.500000  0.629227  0.183594  1
  B  B25  1  0.500000  0.370773  0.816406  1
  B  B26  1  0.500000  0.481839  0.286097  1
  B  B27  1  0.500000  0.518161  0.713903  1
  B  B28  1  0.500000  0.980122  0.214863  1
  B  B29  1  0.500000  0.019878  0.785137  1
  B  B30  1  0.500000  0.099503  0.472821  1
  B  B31  1  0.500000  0.900497  0.527179  1
  B  B32  1  0.500000  0.599543  0.026538  1
  B  B33  1  0.500000  0.400457  0.973462  1
  Ir  Ir34  1  0.000000  0.139544  0.180601  1
  Ir  Ir35  1  0.000000  0.860456  0.819399  1
