# generated using pymatgen
data_SmEuMn12P7
_symmetry_space_group_name_H-M   'P 1'
_cell_length_a   9.34099600
_cell_length_b   9.34099751
_cell_length_c   3.62256300
_cell_angle_alpha   90.00000000
_cell_angle_beta   90.00000000
_cell_angle_gamma   120.00000173
_symmetry_Int_Tables_number   1
_chemical_formula_structural   SmEuMn12P7
_chemical_formula_sum   'Sm1 Eu1 Mn12 P7'
_cell_volume   273.73669133
_cell_formula_units_Z   1
loop_
 _symmetry_equiv_pos_site_id
 _symmetry_equiv_pos_as_xyz
  1  'x, y, z'
loop_
 _atom_site_type_symbol
 _atom_site_label
 _atom_site_symmetry_multiplicity
 _atom_site_fract_x
 _atom_site_fract_y
 _atom_site_fract_z
 _atom_site_occupancy
  Sm  Sm0  1  0.333333  0.666667  0.500000  1
  Eu  Eu1  1  0.666667  0.333333  0.000000  1
  Mn  Mn2  1  0.423112  0.048369  0.500000  1
  Mn  Mn3  1  0.951631  0.374744  0.500000  1
  Mn  Mn4  1  0.625256  0.576888  0.500000  1
  Mn  Mn5  1  0.154726  0.275096  0.500000  1
  Mn  Mn6  1  0.724904  0.879629  0.500000  1
  Mn  Mn7  1  0.120371  0.845274  0.500000  1
  Mn  Mn8  1  0.391345  0.436982  0.000000  1
  Mn  Mn9  1  0.563018  0.954363  0.000000  1
  Mn  Mn10  1  0.045637  0.608655  0.000000  1
  Mn  Mn11  1  0.227744  0.105268  0.000000  1
  Mn  Mn12  1  0.894732  0.122476  0.000000  1
  Mn  Mn13  1  0.877524  0.772256  0.000000  1
  P  P14  1  0.125479  0.405468  0.000000  1
  P  P15  1  0.594532  0.720010  0.000000  1
  P  P16  1  0.279990  0.874521  0.000000  1
  P  P17  1  0.000000  0.000000  0.500000  1
  P  P18  1  0.407839  0.292453  0.500000  1
  P  P19  1  0.707547  0.115386  0.500000  1
  P  P20  1  0.884614  0.592161  0.500000  1
