# generated using pymatgen
data_Sr7ThSb6
_symmetry_space_group_name_H-M   'P 1'
_cell_length_a   8.65971244
_cell_length_b   8.65971182
_cell_length_c   8.51949300
_cell_angle_alpha   109.14354509
_cell_angle_beta   109.14354366
_cell_angle_gamma   109.79688873
_symmetry_Int_Tables_number   1
_chemical_formula_structural   Sr7ThSb6
_chemical_formula_sum   'Sr7 Th1 Sb6'
_cell_volume   493.78642054
_cell_formula_units_Z   1
loop_
 _symmetry_equiv_pos_site_id
 _symmetry_equiv_pos_as_xyz
  1  'x, y, z'
loop_
 _atom_site_type_symbol
 _atom_site_label
 _atom_site_symmetry_multiplicity
 _atom_site_fract_x
 _atom_site_fract_y
 _atom_site_fract_z
 _atom_site_occupancy
  Sr  Sr0  1  0.145096  0.501593  0.000200  1
  Sr  Sr1  1  0.356497  0.354904  0.355104  1
  Sr  Sr2  1  0.998407  0.143503  0.498607  1
  Sr  Sr3  1  0.867236  0.860530  0.865494  1
  Sr  Sr4  1  0.993294  0.632764  0.498259  1
  Sr  Sr5  1  0.500000  0.000000  0.141225  1
  Sr  Sr6  1  0.639470  0.506706  0.004964  1
  Th  Th7  1  0.500000  0.000000  0.642515  1
  Sb  Sb8  1  0.861280  0.241911  0.105126  1
  Sb  Sb9  1  0.137712  0.878487  0.265881  1
  Sb  Sb10  1  0.380631  0.638720  0.743846  1
  Sb  Sb11  1  0.258089  0.119369  0.863215  1
  Sb  Sb12  1  0.740775  0.362288  0.628169  1
  Sb  Sb13  1  0.621513  0.759225  0.387393  1
