# generated using pymatgen
data_YbY2Er(Ga2Ag)4
_symmetry_space_group_name_H-M   'P 1'
_cell_length_a   4.35894800
_cell_length_b   6.97968596
_cell_length_c   10.29400725
_cell_angle_alpha   90.31461217
_cell_angle_beta   90.00000000
_cell_angle_gamma   90.00000000
_symmetry_Int_Tables_number   1
_chemical_formula_structural   YbY2Er(Ga2Ag)4
_chemical_formula_sum   'Yb1 Y2 Er1 Ga8 Ag4'
_cell_volume   313.18106248
_cell_formula_units_Z   1
loop_
 _symmetry_equiv_pos_site_id
 _symmetry_equiv_pos_as_xyz
  1  'x, y, z'
loop_
 _atom_site_type_symbol
 _atom_site_label
 _atom_site_symmetry_multiplicity
 _atom_site_fract_x
 _atom_site_fract_y
 _atom_site_fract_z
 _atom_site_occupancy
  Yb  Yb0  1  0.250000  0.275792  0.671528  1
  Y  Y1  1  0.250000  0.779041  0.826912  1
  Y  Y2  1  0.750000  0.223612  0.172834  1
  Er  Er3  1  0.750000  0.721670  0.328424  1
  Ga  Ga4  1  0.250000  0.704323  0.535623  1
  Ga  Ga5  1  0.750000  0.298079  0.464366  1
  Ga  Ga6  1  0.750000  0.793138  0.038192  1
  Ga  Ga7  1  0.250000  0.202218  0.963672  1
  Ga  Ga8  1  0.250000  0.926053  0.154448  1
  Ga  Ga9  1  0.750000  0.072310  0.848841  1
  Ga  Ga10  1  0.750000  0.571759  0.650713  1
  Ga  Ga11  1  0.250000  0.429387  0.345583  1
  Ag  Ag12  1  0.250000  0.543595  0.097987  1
  Ag  Ag13  1  0.750000  0.456346  0.901364  1
  Ag  Ag14  1  0.750000  0.959007  0.597666  1
  Ag  Ag15  1  0.250000  0.043670  0.401848  1
