# generated using pymatgen
data_Tb3Dy7Sn5Sb
_symmetry_space_group_name_H-M   'P 1'
_cell_length_a   8.99181000
_cell_length_b   8.98564161
_cell_length_c   6.50977600
_cell_angle_alpha   90.00000000
_cell_angle_beta   90.00000000
_cell_angle_gamma   120.02270356
_symmetry_Int_Tables_number   1
_chemical_formula_structural   Tb3Dy7Sn5Sb
_chemical_formula_sum   'Tb3 Dy7 Sn5 Sb1'
_cell_volume   455.40048526
_cell_formula_units_Z   1
loop_
 _symmetry_equiv_pos_site_id
 _symmetry_equiv_pos_as_xyz
  1  'x, y, z'
loop_
 _atom_site_type_symbol
 _atom_site_label
 _atom_site_symmetry_multiplicity
 _atom_site_fract_x
 _atom_site_fract_y
 _atom_site_fract_z
 _atom_site_occupancy
  Tb  Tb0  1  0.998192  0.759985  0.750000  1
  Tb  Tb1  1  0.761576  0.000000  0.750000  1
  Tb  Tb2  1  0.238207  0.240015  0.750000  1
  Dy  Dy3  1  0.000659  0.239237  0.250000  1
  Dy  Dy4  1  0.761423  0.760763  0.250000  1
  Dy  Dy5  1  0.239163  0.000000  0.250000  1
  Dy  Dy6  1  0.333183  0.665764  0.500012  1
  Dy  Dy7  1  0.667420  0.334236  0.999988  1
  Dy  Dy8  1  0.667420  0.334236  0.500012  1
  Dy  Dy9  1  0.333183  0.665764  0.999988  1
  Sn  Sn10  1  0.395453  0.394863  0.250000  1
  Sn  Sn11  1  0.000590  0.605137  0.250000  1
  Sn  Sn12  1  0.999938  0.395500  0.750000  1
  Sn  Sn13  1  0.604438  0.604500  0.750000  1
  Sn  Sn14  1  0.605254  0.000000  0.250000  1
  Sb  Sb15  1  0.393900  0.000000  0.750000  1
