# generated using pymatgen
data_HfSc2Sn3Rh10
_symmetry_space_group_name_H-M   'P 1'
_cell_length_a   4.21593700
_cell_length_b   5.58334673
_cell_length_c   11.03153406
_cell_angle_alpha   91.07965457
_cell_angle_beta   90.00000000
_cell_angle_gamma   90.00000000
_symmetry_Int_Tables_number   1
_chemical_formula_structural   HfSc2Sn3Rh10
_chemical_formula_sum   'Hf1 Sc2 Sn3 Rh10'
_cell_volume   259.62559979
_cell_formula_units_Z   1
loop_
 _symmetry_equiv_pos_site_id
 _symmetry_equiv_pos_as_xyz
  1  'x, y, z'
loop_
 _atom_site_type_symbol
 _atom_site_label
 _atom_site_symmetry_multiplicity
 _atom_site_fract_x
 _atom_site_fract_y
 _atom_site_fract_z
 _atom_site_occupancy
  Hf  Hf0  1  0.500000  0.320970  0.141483  1
  Sc  Sc1  1  0.500000  0.829435  0.358823  1
  Sc  Sc2  1  0.500000  0.671767  0.860013  1
  Sn  Sn3  1  0.500000  0.169338  0.644330  1
  Sn  Sn4  1  0.000000  0.525352  0.493808  1
  Sn  Sn5  1  0.000000  0.994182  0.999935  1
  Rh  Rh6  1  0.500000  0.194185  0.889078  1
  Rh  Rh7  1  0.500000  0.802345  0.115485  1
  Rh  Rh8  1  0.500000  0.691984  0.614609  1
  Rh  Rh9  1  0.500000  0.311995  0.385836  1
  Rh  Rh10  1  0.000000  0.420188  0.739732  1
  Rh  Rh11  1  0.000000  0.565376  0.247179  1
  Rh  Rh12  1  0.000000  0.025888  0.503586  1
  Rh  Rh13  1  0.000000  0.496066  0.998162  1
  Rh  Rh14  1  0.000000  0.065659  0.250576  1
  Rh  Rh15  1  0.000000  0.915271  0.757366  1
