# generated using pymatgen
data_Sc19GaSi15Mo
_symmetry_space_group_name_H-M   'P 1'
_cell_length_a   6.88299014
_cell_length_b   7.19145892
_cell_length_c   13.64300389
_cell_angle_alpha   90.01092275
_cell_angle_beta   89.89400587
_cell_angle_gamma   89.81339084
_symmetry_Int_Tables_number   1
_chemical_formula_structural   Sc19GaSi15Mo
_chemical_formula_sum   'Sc19 Ga1 Si15 Mo1'
_cell_volume   675.30676320
_cell_formula_units_Z   1
loop_
 _symmetry_equiv_pos_site_id
 _symmetry_equiv_pos_as_xyz
  1  'x, y, z'
loop_
 _atom_site_type_symbol
 _atom_site_label
 _atom_site_symmetry_multiplicity
 _atom_site_fract_x
 _atom_site_fract_y
 _atom_site_fract_z
 _atom_site_occupancy
  Sc  Sc0  1  0.841350  0.007107  0.249543  1
  Sc  Sc1  1  0.341148  0.495045  0.249841  1
  Sc  Sc2  1  0.658254  0.509337  0.750438  1
  Sc  Sc3  1  0.991177  0.682145  0.600378  1
  Sc  Sc4  1  0.011110  0.322581  0.404929  1
  Sc  Sc5  1  0.512858  0.180298  0.404308  1
  Sc  Sc6  1  0.012667  0.320254  0.093417  1
  Sc  Sc7  1  0.488553  0.818922  0.598440  1
  Sc  Sc8  1  0.991814  0.685279  0.900555  1
  Sc  Sc9  1  0.485104  0.821675  0.902690  1
  Sc  Sc10  1  0.512949  0.180843  0.094513  1
  Sc  Sc11  1  0.331911  0.323508  0.628438  1
  Sc  Sc12  1  0.668911  0.677217  0.374037  1
  Sc  Sc13  1  0.171672  0.825963  0.375708  1
  Sc  Sc14  1  0.670354  0.677129  0.125369  1
  Sc  Sc15  1  0.825883  0.169965  0.628232  1
  Sc  Sc16  1  0.329691  0.320159  0.873157  1
  Sc  Sc17  1  0.826140  0.170754  0.872159  1
  Sc  Sc18  1  0.172620  0.826478  0.122640  1
  Ga  Ga19  1  0.164471  0.029570  0.545876  1
  Si  Si20  1  0.030738  0.387363  0.750440  1
  Si  Si21  1  0.971207  0.606214  0.249377  1
  Si  Si22  1  0.469231  0.896907  0.249584  1
  Si  Si23  1  0.518514  0.089300  0.750032  1
  Si  Si24  1  0.280243  0.647410  0.750245  1
  Si  Si25  1  0.717602  0.365131  0.249669  1
  Si  Si26  1  0.215236  0.137505  0.249314  1
  Si  Si27  1  0.793590  0.863676  0.750403  1
  Si  Si28  1  0.836862  0.968173  0.461714  1
  Si  Si29  1  0.340135  0.532473  0.462841  1
  Si  Si30  1  0.838932  0.968711  0.037437  1
  Si  Si31  1  0.663625  0.467078  0.538378  1
  Si  Si32  1  0.157848  0.027969  0.953117  1
  Si  Si33  1  0.663584  0.467725  0.961295  1
  Si  Si34  1  0.341804  0.532106  0.037130  1
  Mo  Mo35  1  0.152215  0.998025  0.754354  1
