# generated using pymatgen
data_Hf18Ta4Re4AsP
_symmetry_space_group_name_H-M   'P 1'
_cell_length_a   8.66739000
_cell_length_b   8.71162088
_cell_length_c   8.72830600
_cell_angle_alpha   90.00000000
_cell_angle_beta   90.00000000
_cell_angle_gamma   119.83160923
_symmetry_Int_Tables_number   1
_chemical_formula_structural   Hf18Ta4Re4AsP
_chemical_formula_sum   'Hf18 Ta4 Re4 As1 P1'
_cell_volume   571.71859965
_cell_formula_units_Z   1
loop_
 _symmetry_equiv_pos_site_id
 _symmetry_equiv_pos_as_xyz
  1  'x, y, z'
loop_
 _atom_site_type_symbol
 _atom_site_label
 _atom_site_symmetry_multiplicity
 _atom_site_fract_x
 _atom_site_fract_y
 _atom_site_fract_z
 _atom_site_occupancy
  Hf  Hf0  1  0.804754  0.609512  0.544772  1
  Hf  Hf1  1  0.805075  0.194543  0.541452  1
  Hf  Hf2  1  0.389440  0.194504  0.541459  1
  Hf  Hf3  1  0.195403  0.390783  0.445353  1
  Hf  Hf4  1  0.197129  0.804312  0.447071  1
  Hf  Hf5  1  0.607177  0.804319  0.447063  1
  Hf  Hf6  1  0.195403  0.390783  0.054647  1
  Hf  Hf7  1  0.197129  0.804312  0.052929  1
  Hf  Hf8  1  0.607177  0.804319  0.052937  1
  Hf  Hf9  1  0.804754  0.609512  0.955228  1
  Hf  Hf10  1  0.805075  0.194543  0.958548  1
  Hf  Hf11  1  0.389440  0.194504  0.958541  1
  Hf  Hf12  1  0.462759  0.925581  0.750000  1
  Hf  Hf13  1  0.460733  0.538020  0.750000  1
  Hf  Hf14  1  0.077266  0.538000  0.750000  1
  Hf  Hf15  1  0.541158  0.082301  0.250000  1
  Hf  Hf16  1  0.538175  0.458248  0.250000  1
  Hf  Hf17  1  0.920161  0.458283  0.250000  1
  Ta  Ta18  1  0.110331  0.220690  0.750000  1
  Ta  Ta19  1  0.111357  0.889684  0.750000  1
  Ta  Ta20  1  0.778296  0.889676  0.750000  1
  Ta  Ta21  1  0.891903  0.783848  0.250000  1
  Re  Re22  1  0.890168  0.110956  0.250000  1
  Re  Re23  1  0.220826  0.110944  0.250000  1
  Re  Re24  1  0.000582  0.001170  0.500548  1
  Re  Re25  1  0.000582  0.001170  0.999452  1
  As  As26  1  0.665834  0.331661  0.750000  1
  P  P27  1  0.331913  0.663823  0.250000  1
