# generated using pymatgen
data_La3(CdAs3)2
_symmetry_space_group_name_H-M   'P 1'
_cell_length_a   4.10697500
_cell_length_b   10.86842200
_cell_length_c   12.35107800
_cell_angle_alpha   90.00000000
_cell_angle_beta   90.00000000
_cell_angle_gamma   90.00000000
_symmetry_Int_Tables_number   1
_chemical_formula_structural   La3(CdAs3)2
_chemical_formula_sum   'La6 Cd4 As12'
_cell_volume   551.30688540
_cell_formula_units_Z   2
loop_
 _symmetry_equiv_pos_site_id
 _symmetry_equiv_pos_as_xyz
  1  'x, y, z'
loop_
 _atom_site_type_symbol
 _atom_site_label
 _atom_site_symmetry_multiplicity
 _atom_site_fract_x
 _atom_site_fract_y
 _atom_site_fract_z
 _atom_site_occupancy
  La  La0  1  0.750000  0.277968  0.750000  1
  La  La1  1  0.750000  0.279538  0.414858  1
  La  La2  1  0.250000  0.720462  0.914858  1
  La  La3  1  0.250000  0.720462  0.585142  1
  La  La4  1  0.250000  0.722032  0.250000  1
  La  La5  1  0.750000  0.279538  0.085142  1
  Cd  Cd6  1  0.250000  0.001901  0.103434  1
  Cd  Cd7  1  0.250000  0.001901  0.396566  1
  Cd  Cd8  1  0.750000  0.998099  0.603434  1
  Cd  Cd9  1  0.750000  0.998099  0.896566  1
  As  As10  1  0.750000  0.502342  0.250000  1
  As  As11  1  0.750000  0.498866  0.916674  1
  As  As12  1  0.750000  0.817192  0.750000  1
  As  As13  1  0.750000  0.833436  0.416697  1
  As  As14  1  0.250000  0.166564  0.916697  1
  As  As15  1  0.250000  0.166564  0.583303  1
  As  As16  1  0.250000  0.182808  0.250000  1
  As  As17  1  0.250000  0.501134  0.083326  1
  As  As18  1  0.250000  0.497658  0.750000  1
  As  As19  1  0.250000  0.501134  0.416674  1
  As  As20  1  0.750000  0.498866  0.583326  1
  As  As21  1  0.750000  0.833436  0.083303  1
