# generated using pymatgen
data_Hf5ZrBe8Al7Pd8
_symmetry_space_group_name_H-M   'P 1'
_cell_length_a   8.39080860
_cell_length_b   8.38666437
_cell_length_c   8.38666502
_cell_angle_alpha   60.03269871
_cell_angle_beta   59.98364874
_cell_angle_gamma   59.98365126
_symmetry_Int_Tables_number   1
_chemical_formula_structural   Hf5ZrBe8Al7Pd8
_chemical_formula_sum   'Hf5 Zr1 Be8 Al7 Pd8'
_cell_volume   417.31804142
_cell_formula_units_Z   1
loop_
 _symmetry_equiv_pos_site_id
 _symmetry_equiv_pos_as_xyz
  1  'x, y, z'
loop_
 _atom_site_type_symbol
 _atom_site_label
 _atom_site_symmetry_multiplicity
 _atom_site_fract_x
 _atom_site_fract_y
 _atom_site_fract_z
 _atom_site_occupancy
  Hf  Hf0  1  0.303242  0.696758  0.696758  1
  Hf  Hf1  1  0.301792  0.698208  0.302740  1
  Hf  Hf2  1  0.697260  0.302740  0.698208  1
  Hf  Hf3  1  0.301792  0.302740  0.698208  1
  Hf  Hf4  1  0.697260  0.698208  0.302740  1
  Zr  Zr5  1  0.696052  0.303948  0.303948  1
  Be  Be6  1  0.326526  0.327150  0.327150  1
  Be  Be7  1  0.672762  0.672783  0.672783  1
  Be  Be8  1  0.327217  0.327238  0.018328  1
  Be  Be9  1  0.327217  0.018328  0.327238  1
  Be  Be10  1  0.672850  0.673474  0.980826  1
  Be  Be11  1  0.672850  0.980826  0.673474  1
  Be  Be12  1  0.019174  0.327150  0.327150  1
  Be  Be13  1  0.981672  0.672783  0.672783  1
  Al  Al14  1  0.500077  0.999923  0.999923  1
  Al  Al15  1  0.000077  0.499923  0.499923  1
  Al  Al16  1  0.999994  0.500034  0.000006  1
  Al  Al17  1  0.499966  0.000006  0.500034  1
  Al  Al18  1  0.999994  0.000006  0.500034  1
  Al  Al19  1  0.499966  0.500034  0.000006  1
  Al  Al20  1  0.000021  0.999979  0.999979  1
  Pd  Pd21  1  0.127315  0.125273  0.125273  1
  Pd  Pd22  1  0.874269  0.874168  0.874168  1
  Pd  Pd23  1  0.125832  0.125731  0.622604  1
  Pd  Pd24  1  0.125832  0.622604  0.125731  1
  Pd  Pd25  1  0.874727  0.872685  0.377861  1
  Pd  Pd26  1  0.874727  0.377861  0.872685  1
  Pd  Pd27  1  0.622139  0.125273  0.125273  1
  Pd  Pd28  1  0.377396  0.874168  0.874168  1
