# generated using pymatgen
data_Tb3(DyIr)2
_symmetry_space_group_name_H-M   'P 1'
_cell_length_a   6.49602203
_cell_length_b   7.21571070
_cell_length_c   8.61401474
_cell_angle_alpha   96.68190853
_cell_angle_beta   112.15177413
_cell_angle_gamma   89.99999611
_symmetry_Int_Tables_number   1
_chemical_formula_structural   Tb3(DyIr)2
_chemical_formula_sum   'Tb6 Dy4 Ir4'
_cell_volume   371.00259339
_cell_formula_units_Z   2
loop_
 _symmetry_equiv_pos_site_id
 _symmetry_equiv_pos_as_xyz
  1  'x, y, z'
loop_
 _atom_site_type_symbol
 _atom_site_label
 _atom_site_symmetry_multiplicity
 _atom_site_fract_x
 _atom_site_fract_y
 _atom_site_fract_z
 _atom_site_occupancy
  Tb  Tb0  1  0.792140  0.083156  0.814344  1
  Tb  Tb1  1  0.977796  0.416844  0.185656  1
  Tb  Tb2  1  0.207903  0.916560  0.185680  1
  Tb  Tb3  1  0.022223  0.583440  0.814320  1
  Tb  Tb4  1  0.210045  0.184311  0.561083  1
  Tb  Tb5  1  0.648962  0.315689  0.438917  1
  Dy  Dy6  1  0.789839  0.815569  0.438759  1
  Dy  Dy7  1  0.351080  0.684431  0.561241  1
  Dy  Dy8  1  0.429425  0.250000  0.000000  1
  Dy  Dy9  1  0.570651  0.750000  0.000000  1
  Ir  Ir10  1  0.600536  0.425917  0.777612  1
  Ir  Ir11  1  0.822924  0.074083  0.222388  1
  Ir  Ir12  1  0.399586  0.574580  0.222697  1
  Ir  Ir13  1  0.176890  0.925420  0.777303  1
