# generated using pymatgen
data_Y2P7Ru11Pt
_symmetry_space_group_name_H-M   'P 1'
_cell_length_a   9.35857625
_cell_length_b   9.48645524
_cell_length_c   3.95652500
_cell_angle_alpha   90.00000000
_cell_angle_beta   90.00000000
_cell_angle_gamma   119.41609329
_symmetry_Int_Tables_number   1
_chemical_formula_structural   Y2P7Ru11Pt
_chemical_formula_sum   'Y2 P7 Ru11 Pt1'
_cell_volume   305.97338646
_cell_formula_units_Z   1
loop_
 _symmetry_equiv_pos_site_id
 _symmetry_equiv_pos_as_xyz
  1  'x, y, z'
loop_
 _atom_site_type_symbol
 _atom_site_label
 _atom_site_symmetry_multiplicity
 _atom_site_fract_x
 _atom_site_fract_y
 _atom_site_fract_z
 _atom_site_occupancy
  Y  Y0  1  0.670578  0.336487  0.500000  1
  Y  Y1  1  0.329207  0.659236  0.000000  1
  P  P2  1  0.598465  0.703601  0.500000  1
  P  P3  1  0.998099  0.000625  0.000000  1
  P  P4  1  0.271838  0.878527  0.500000  1
  P  P5  1  0.116752  0.400988  0.500000  1
  P  P6  1  0.888484  0.580886  0.000000  1
  P  P7  1  0.426397  0.308909  0.000000  1
  P  P8  1  0.705646  0.126678  0.000000  1
  Ru  Ru9  1  0.389128  0.436925  0.500000  1
  Ru  Ru10  1  0.909858  0.128068  0.500000  1
  Ru  Ru11  1  0.210654  0.086050  0.500000  1
  Ru  Ru12  1  0.876232  0.794867  0.500000  1
  Ru  Ru13  1  0.724355  0.893577  0.000000  1
  Ru  Ru14  1  0.112127  0.840379  0.000000  1
  Ru  Ru15  1  0.162502  0.268674  0.000000  1
  Ru  Ru16  1  0.434015  0.068469  0.000000  1
  Ru  Ru17  1  0.939750  0.366828  0.000000  1
  Ru  Ru18  1  0.640586  0.575270  0.000000  1
  Ru  Ru19  1  0.051200  0.609864  0.500000  1
  Pt  Pt20  1  0.544128  0.935089  0.500000  1
