# generated using pymatgen
data_Dy15Y(InIr)4
_symmetry_space_group_name_H-M   'P 1'
_cell_length_a   9.66860221
_cell_length_b   9.66860161
_cell_length_c   9.66760900
_cell_angle_alpha   60.00339259
_cell_angle_beta   60.00339465
_cell_angle_gamma   60.00374967
_symmetry_Int_Tables_number   1
_chemical_formula_structural   Dy15Y(InIr)4
_chemical_formula_sum   'Dy15 Y1 In4 Ir4'
_cell_volume   639.09588283
_cell_formula_units_Z   1
loop_
 _symmetry_equiv_pos_site_id
 _symmetry_equiv_pos_as_xyz
  1  'x, y, z'
loop_
 _atom_site_type_symbol
 _atom_site_label
 _atom_site_symmetry_multiplicity
 _atom_site_fract_x
 _atom_site_fract_y
 _atom_site_fract_z
 _atom_site_occupancy
  Dy  Dy0  1  0.650956  0.650956  0.046051  1
  Dy  Dy1  1  0.191305  0.809907  0.190365  1
  Dy  Dy2  1  0.059911  0.439285  0.060327  1
  Dy  Dy3  1  0.191305  0.809907  0.808422  1
  Dy  Dy4  1  0.059911  0.439285  0.440477  1
  Dy  Dy5  1  0.809907  0.191305  0.190365  1
  Dy  Dy6  1  0.650956  0.650956  0.652038  1
  Dy  Dy7  1  0.809907  0.191305  0.808422  1
  Dy  Dy8  1  0.191036  0.191036  0.808964  1
  Dy  Dy9  1  0.047663  0.649872  0.651233  1
  Dy  Dy10  1  0.439285  0.059911  0.060327  1
  Dy  Dy11  1  0.060084  0.060084  0.439916  1
  Dy  Dy12  1  0.649872  0.047663  0.651233  1
  Dy  Dy13  1  0.809407  0.809407  0.190593  1
  Dy  Dy14  1  0.439285  0.059911  0.440477  1
  Y  Y15  1  0.439320  0.439320  0.060680  1
  In  In16  1  0.416911  0.416911  0.416725  1
  In  In17  1  0.416911  0.416911  0.749454  1
  In  In18  1  0.417109  0.748955  0.416968  1
  In  In19  1  0.748955  0.417109  0.416968  1
  Ir  Ir20  1  0.424032  0.858751  0.858608  1
  Ir  Ir21  1  0.858611  0.858611  0.858766  1
  Ir  Ir22  1  0.858751  0.424032  0.858608  1
  Ir  Ir23  1  0.858611  0.858611  0.424012  1
