# generated using pymatgen
data_Ba6Dy2Fe2O13
_symmetry_space_group_name_H-M   'P 1'
_cell_length_a   11.64381487
_cell_length_b   11.64381486
_cell_length_c   5.84776800
_cell_angle_alpha   90.00000000
_cell_angle_beta   90.00000000
_cell_angle_gamma   150.82067863
_symmetry_Int_Tables_number   1
_chemical_formula_structural   Ba6Dy2Fe2O13
_chemical_formula_sum   'Ba6 Dy2 Fe2 O13'
_cell_volume   386.54054179
_cell_formula_units_Z   1
loop_
 _symmetry_equiv_pos_site_id
 _symmetry_equiv_pos_as_xyz
  1  'x, y, z'
loop_
 _atom_site_type_symbol
 _atom_site_label
 _atom_site_symmetry_multiplicity
 _atom_site_fract_x
 _atom_site_fract_y
 _atom_site_fract_z
 _atom_site_occupancy
  Ba  Ba0  1  0.500000  0.500000  0.000000  1
  Ba  Ba1  1  0.000000  0.000000  0.500000  1
  Ba  Ba2  1  0.185585  0.814415  0.500000  1
  Ba  Ba3  1  0.685557  0.314443  0.000000  1
  Ba  Ba4  1  0.314443  0.685557  0.000000  1
  Ba  Ba5  1  0.814415  0.185585  0.500000  1
  Dy  Dy6  1  0.902954  0.097046  0.000000  1
  Dy  Dy7  1  0.097046  0.902954  0.000000  1
  Fe  Fe8  1  0.393395  0.606605  0.500000  1
  Fe  Fe9  1  0.606605  0.393395  0.500000  1
  O  O10  1  0.633933  0.817434  0.725454  1
  O  O11  1  0.182566  0.366067  0.274546  1
  O  O12  1  0.817434  0.633933  0.725454  1
  O  O13  1  0.366067  0.182566  0.274546  1
  O  O14  1  0.182566  0.366067  0.725454  1
  O  O15  1  0.633933  0.817434  0.274546  1
  O  O16  1  0.366067  0.182566  0.725454  1
  O  O17  1  0.817434  0.633933  0.274546  1
  O  O18  1  0.305879  0.694121  0.500000  1
  O  O19  1  0.803184  0.196816  0.000000  1
  O  O20  1  0.196816  0.803184  0.000000  1
  O  O21  1  0.694121  0.305879  0.500000  1
  O  O22  1  0.000000  0.000000  0.000000  1
