# generated using pymatgen
data_DyYHo4(AlC3)2
_symmetry_space_group_name_H-M   'P 1'
_cell_length_a   3.55771700
_cell_length_b   7.02372608
_cell_length_c   9.97441557
_cell_angle_alpha   90.01082917
_cell_angle_beta   90.00000000
_cell_angle_gamma   90.00000000
_symmetry_Int_Tables_number   1
_chemical_formula_structural   DyYHo4(AlC3)2
_chemical_formula_sum   'Dy1 Y1 Ho4 Al2 C6'
_cell_volume   249.24497765
_cell_formula_units_Z   1
loop_
 _symmetry_equiv_pos_site_id
 _symmetry_equiv_pos_as_xyz
  1  'x, y, z'
loop_
 _atom_site_type_symbol
 _atom_site_label
 _atom_site_symmetry_multiplicity
 _atom_site_fract_x
 _atom_site_fract_y
 _atom_site_fract_z
 _atom_site_occupancy
  Dy  Dy0  1  0.000000  0.250137  0.541413  1
  Y  Y1  1  0.500000  0.008353  0.800449  1
  Ho  Ho2  1  0.500000  0.510457  0.200623  1
  Ho  Ho3  1  0.500000  0.489531  0.799738  1
  Ho  Ho4  1  0.500000  0.989252  0.199997  1
  Ho  Ho5  1  0.000000  0.749973  0.457701  1
  Al  Al6  1  0.000000  0.748957  0.005996  1
  Al  Al7  1  0.000000  0.250955  0.994785  1
  C  C8  1  0.500000  0.510558  0.566351  1
  C  C9  1  0.500000  0.492136  0.433859  1
  C  C10  1  0.500000  0.989499  0.565347  1
  C  C11  1  0.500000  0.008056  0.433146  1
  C  C12  1  0.000000  0.749953  0.208904  1
  C  C13  1  0.000000  0.252182  0.791693  1
