# generated using pymatgen
data_Ho5(BiO6)2
_symmetry_space_group_name_H-M   'P 1'
_cell_length_a   6.59659845
_cell_length_b   6.58058861
_cell_length_c   6.52047426
_cell_angle_alpha   99.23190936
_cell_angle_beta   98.69211063
_cell_angle_gamma   99.44529821
_symmetry_Int_Tables_number   1
_chemical_formula_structural   Ho5(BiO6)2
_chemical_formula_sum   'Ho5 Bi2 O12'
_cell_volume   270.98078497
_cell_formula_units_Z   1
loop_
 _symmetry_equiv_pos_site_id
 _symmetry_equiv_pos_as_xyz
  1  'x, y, z'
loop_
 _atom_site_type_symbol
 _atom_site_label
 _atom_site_symmetry_multiplicity
 _atom_site_fract_x
 _atom_site_fract_y
 _atom_site_fract_z
 _atom_site_occupancy
  Ho  Ho0  1  0.859129  0.694904  0.392739  1
  Ho  Ho1  1  0.387336  0.856889  0.685033  1
  Ho  Ho2  1  0.310922  0.610893  0.147870  1
  Ho  Ho3  1  0.141114  0.311159  0.608080  1
  Ho  Ho4  1  0.607992  0.133680  0.307752  1
  Bi  Bi5  1  0.677995  0.394872  0.855448  1
  Bi  Bi6  1  0.003997  0.003885  0.999614  1
  O  O7  1  0.428406  0.177527  0.584816  1
  O  O8  1  0.587018  0.429963  0.179569  1
  O  O9  1  0.172900  0.586300  0.433524  1
  O  O10  1  0.567455  0.819541  0.413065  1
  O  O11  1  0.419029  0.572746  0.820980  1
  O  O12  1  0.819051  0.413147  0.569184  1
  O  O13  1  0.091742  0.315492  0.952503  1
  O  O14  1  0.685323  0.048672  0.928465  1
  O  O15  1  0.050529  0.928754  0.681840  1
  O  O16  1  0.926689  0.684261  0.049234  1
  O  O17  1  0.315336  0.945489  0.073190  1
  O  O18  1  0.948037  0.071826  0.317096  1
