# generated using pymatgen
data_Dy4YEr7Co5Sn
_symmetry_space_group_name_H-M   'P 1'
_cell_length_a   8.21666343
_cell_length_b   8.22961047
_cell_length_c   8.22961024
_cell_angle_alpha   106.93355492
_cell_angle_beta   110.63324001
_cell_angle_gamma   110.94488253
_symmetry_Int_Tables_number   1
_chemical_formula_structural   Dy4YEr7Co5Sn
_chemical_formula_sum   'Dy4 Y1 Er7 Co5 Sn1'
_cell_volume   427.38243358
_cell_formula_units_Z   1
loop_
 _symmetry_equiv_pos_site_id
 _symmetry_equiv_pos_as_xyz
  1  'x, y, z'
loop_
 _atom_site_type_symbol
 _atom_site_label
 _atom_site_symmetry_multiplicity
 _atom_site_fract_x
 _atom_site_fract_y
 _atom_site_fract_z
 _atom_site_occupancy
  Dy  Dy0  1  0.193579  0.210427  0.405024  1
  Dy  Dy1  1  0.806686  0.790363  0.596433  1
  Dy  Dy2  1  0.193579  0.788556  0.983151  1
  Dy  Dy3  1  0.806686  0.210252  0.016325  1
  Y  Y4  1  0.476273  0.290084  0.186189  1
  Er  Er5  1  0.105418  0.290976  0.814443  1
  Er  Er6  1  0.894647  0.709667  0.184979  1
  Er  Er7  1  0.524506  0.709539  0.814966  1
  Er  Er8  1  0.305308  0.619901  0.314202  1
  Er  Er9  1  0.305308  0.991107  0.685407  1
  Er  Er10  1  0.694959  0.380710  0.686952  1
  Er  Er11  1  0.694959  0.008005  0.314249  1
  Co  Co12  1  0.499712  0.613680  0.111662  1
  Co  Co13  1  0.499712  0.388050  0.886033  1
  Co  Co14  1  0.377100  0.999673  0.377426  1
  Co  Co15  1  0.622710  0.999946  0.622764  1
  Co  Co16  1  0.999274  0.999228  0.000046  1
  Sn  Sn17  1  0.999586  0.499837  0.499749  1
