# generated using pymatgen
data_Ac3(AgPb)4
_symmetry_space_group_name_H-M   'P 1'
_cell_length_a   5.03221551
_cell_length_b   7.68535465
_cell_length_c   9.41823588
_cell_angle_alpha   114.07950981
_cell_angle_beta   105.49491060
_cell_angle_gamma   90.00000097
_symmetry_Int_Tables_number   1
_chemical_formula_structural   Ac3(AgPb)4
_chemical_formula_sum   'Ac3 Ag4 Pb4'
_cell_volume   317.99214562
_cell_formula_units_Z   1
loop_
 _symmetry_equiv_pos_site_id
 _symmetry_equiv_pos_as_xyz
  1  'x, y, z'
loop_
 _atom_site_type_symbol
 _atom_site_label
 _atom_site_symmetry_multiplicity
 _atom_site_fract_x
 _atom_site_fract_y
 _atom_site_fract_z
 _atom_site_occupancy
  Ac  Ac0  1  0.866492  0.366492  0.732984  1
  Ac  Ac1  1  0.133508  0.633508  0.267016  1
  Ac  Ac2  1  0.000000  0.000000  0.000000  1
  Ag  Ag3  1  0.332652  0.643262  0.665304  1
  Ag  Ag4  1  0.667348  0.356738  0.334696  1
  Ag  Ag5  1  0.332652  0.022043  0.665304  1
  Ag  Ag6  1  0.667348  0.977957  0.334696  1
  Pb  Pb7  1  0.216557  0.216557  0.433113  1
  Pb  Pb8  1  0.783443  0.783443  0.566887  1
  Pb  Pb9  1  0.500000  0.695871  0.000000  1
  Pb  Pb10  1  0.500000  0.304129  0.000000  1
