# generated using pymatgen
data_Tb5Dy3Np4O24
_symmetry_space_group_name_H-M   'P 1'
_cell_length_a   5.54735702
_cell_length_b   7.85584315
_cell_length_c   11.88226303
_cell_angle_alpha   73.88213999
_cell_angle_beta   90.00505921
_cell_angle_gamma   90.01061677
_symmetry_Int_Tables_number   1
_chemical_formula_structural   Tb5Dy3Np4O24
_chemical_formula_sum   'Tb5 Dy3 Np4 O24'
_cell_volume   497.46502238
_cell_formula_units_Z   1
loop_
 _symmetry_equiv_pos_site_id
 _symmetry_equiv_pos_as_xyz
  1  'x, y, z'
loop_
 _atom_site_type_symbol
 _atom_site_label
 _atom_site_symmetry_multiplicity
 _atom_site_fract_x
 _atom_site_fract_y
 _atom_site_fract_z
 _atom_site_occupancy
  Tb  Tb0  1  0.744116  0.000137  0.750160  1
  Tb  Tb1  1  0.255857  0.000097  0.249853  1
  Tb  Tb2  1  0.187365  0.795263  0.579224  1
  Tb  Tb3  1  0.698061  0.499812  0.750153  1
  Tb  Tb4  1  0.301999  0.499955  0.249998  1
  Dy  Dy5  1  0.812623  0.794984  0.079375  1
  Dy  Dy6  1  0.187358  0.205046  0.920577  1
  Dy  Dy7  1  0.812534  0.205192  0.420547  1
  Np  Np8  1  0.255166  0.720441  0.887088  1
  Np  Np9  1  0.745068  0.720399  0.386638  1
  Np  Np10  1  0.254988  0.279513  0.613124  1
  Np  Np11  1  0.744960  0.279493  0.113108  1
  O  O12  1  0.044925  0.943371  0.896918  1
  O  O13  1  0.551363  0.849007  0.931996  1
  O  O14  1  0.955029  0.943524  0.396704  1
  O  O15  1  0.449199  0.799742  0.727775  1
  O  O16  1  0.449667  0.849282  0.431174  1
  O  O17  1  0.965088  0.713502  0.767169  1
  O  O18  1  0.551502  0.799822  0.227058  1
  O  O19  1  0.874013  0.627240  0.554276  1
  O  O20  1  0.387766  0.481303  0.883999  1
  O  O21  1  0.034870  0.713561  0.266795  1
  O  O22  1  0.388484  0.518095  0.616072  1
  O  O23  1  0.875277  0.372100  0.945684  1
  O  O24  1  0.124661  0.627821  0.054430  1
  O  O25  1  0.612021  0.481210  0.383920  1
  O  O26  1  0.965306  0.286498  0.733263  1
  O  O27  1  0.612172  0.518648  0.116007  1
  O  O28  1  0.124732  0.372218  0.445576  1
  O  O29  1  0.448471  0.200078  0.772836  1
  O  O30  1  0.034705  0.286412  0.233149  1
  O  O31  1  0.551191  0.150818  0.568131  1
  O  O32  1  0.551507  0.200195  0.272740  1
  O  O33  1  0.044184  0.057518  0.603232  1
  O  O34  1  0.448663  0.151059  0.068142  1
  O  O35  1  0.955108  0.056643  0.103108  1
