# generated using pymatgen
data_TaNb11IrOs3
_symmetry_space_group_name_H-M   'P 1'
_cell_length_a   5.20153900
_cell_length_b   5.17534800
_cell_length_c   10.34771900
_cell_angle_alpha   90.00000000
_cell_angle_beta   90.00000000
_cell_angle_gamma   90.00000000
_symmetry_Int_Tables_number   1
_chemical_formula_structural   TaNb11IrOs3
_chemical_formula_sum   'Ta1 Nb11 Ir1 Os3'
_cell_volume   278.55826166
_cell_formula_units_Z   1
loop_
 _symmetry_equiv_pos_site_id
 _symmetry_equiv_pos_as_xyz
  1  'x, y, z'
loop_
 _atom_site_type_symbol
 _atom_site_label
 _atom_site_symmetry_multiplicity
 _atom_site_fract_x
 _atom_site_fract_y
 _atom_site_fract_z
 _atom_site_occupancy
  Ta  Ta0  1  0.749943  0.500000  0.000000  1
  Nb  Nb1  1  0.500062  0.000000  0.375425  1
  Nb  Nb2  1  0.500805  0.000000  0.874020  1
  Nb  Nb3  1  0.748747  0.500000  0.500000  1
  Nb  Nb4  1  0.999597  0.749893  0.248692  1
  Nb  Nb5  1  0.999597  0.749893  0.751308  1
  Nb  Nb6  1  0.500805  0.000000  0.125980  1
  Nb  Nb7  1  0.500062  0.000000  0.624575  1
  Nb  Nb8  1  0.249688  0.500000  0.000000  1
  Nb  Nb9  1  0.251542  0.500000  0.500000  1
  Nb  Nb10  1  0.999597  0.250107  0.248692  1
  Nb  Nb11  1  0.999597  0.250107  0.751308  1
  Ir  Ir12  1  0.999997  0.000000  0.500000  1
  Os  Os13  1  0.500574  0.500000  0.249815  1
  Os  Os14  1  0.500574  0.500000  0.750185  1
  Os  Os15  1  0.998810  0.000000  0.000000  1
