# generated using pymatgen
data_Pr2Nd10IrOs3
_symmetry_space_group_name_H-M   'P 1'
_cell_length_a   6.56240906
_cell_length_b   7.50073407
_cell_length_c   9.74895300
_cell_angle_alpha   90.00000000
_cell_angle_beta   90.00000000
_cell_angle_gamma   89.99973286
_symmetry_Int_Tables_number   1
_chemical_formula_structural   Pr2Nd10IrOs3
_chemical_formula_sum   'Pr2 Nd10 Ir1 Os3'
_cell_volume   479.87159427
_cell_formula_units_Z   1
loop_
 _symmetry_equiv_pos_site_id
 _symmetry_equiv_pos_as_xyz
  1  'x, y, z'
loop_
 _atom_site_type_symbol
 _atom_site_label
 _atom_site_symmetry_multiplicity
 _atom_site_fract_x
 _atom_site_fract_y
 _atom_site_fract_z
 _atom_site_occupancy
  Pr  Pr0  1  0.857005  0.538408  0.250000  1
  Pr  Pr1  1  0.641997  0.041309  0.250000  1
  Nd  Nd2  1  0.330196  0.674483  0.066279  1
  Nd  Nd3  1  0.171809  0.177029  0.434120  1
  Nd  Nd4  1  0.672404  0.323911  0.567883  1
  Nd  Nd5  1  0.826245  0.824460  0.930918  1
  Nd  Nd6  1  0.672404  0.323911  0.932117  1
  Nd  Nd7  1  0.826245  0.824460  0.569082  1
  Nd  Nd8  1  0.330196  0.674483  0.433721  1
  Nd  Nd9  1  0.171809  0.177029  0.065880  1
  Nd  Nd10  1  0.142874  0.461082  0.750000  1
  Nd  Nd11  1  0.355508  0.960070  0.750000  1
  Ir  Ir12  1  0.054963  0.884782  0.250000  1
  Os  Os13  1  0.445271  0.384984  0.250000  1
  Os  Os14  1  0.949456  0.114381  0.750000  1
  Os  Os15  1  0.551619  0.615219  0.750000  1
