# generated using pymatgen
data_Ho3Er9Ir3Os
_symmetry_space_group_name_H-M   'P 1'
_cell_length_a   6.37895025
_cell_length_b   7.25194932
_cell_length_c   9.01200600
_cell_angle_alpha   90.00000000
_cell_angle_beta   90.00000000
_cell_angle_gamma   90.00102191
_symmetry_Int_Tables_number   1
_chemical_formula_structural   Ho3Er9Ir3Os
_chemical_formula_sum   'Ho3 Er9 Ir3 Os1'
_cell_volume   416.89381116
_cell_formula_units_Z   1
loop_
 _symmetry_equiv_pos_site_id
 _symmetry_equiv_pos_as_xyz
  1  'x, y, z'
loop_
 _atom_site_type_symbol
 _atom_site_label
 _atom_site_symmetry_multiplicity
 _atom_site_fract_x
 _atom_site_fract_y
 _atom_site_fract_z
 _atom_site_occupancy
  Ho  Ho0  1  0.872323  0.534362  0.250000  1
  Ho  Ho1  1  0.626751  0.034957  0.250000  1
  Ho  Ho2  1  0.126178  0.465420  0.750000  1
  Er  Er3  1  0.328056  0.677600  0.062007  1
  Er  Er4  1  0.169616  0.176529  0.440183  1
  Er  Er5  1  0.674003  0.321446  0.563537  1
  Er  Er6  1  0.827848  0.824480  0.936662  1
  Er  Er7  1  0.674003  0.321446  0.936463  1
  Er  Er8  1  0.827848  0.824480  0.563338  1
  Er  Er9  1  0.328056  0.677600  0.437993  1
  Er  Er10  1  0.169616  0.176529  0.059817  1
  Er  Er11  1  0.373759  0.965660  0.750000  1
  Ir  Ir12  1  0.041595  0.884246  0.250000  1
  Ir  Ir13  1  0.457589  0.384903  0.250000  1
  Ir  Ir14  1  0.540448  0.615390  0.750000  1
  Os  Os15  1  0.962310  0.114953  0.750000  1
