# generated using pymatgen
data_Ti8Ga14AsIr7
_symmetry_space_group_name_H-M   'P 1'
_cell_length_a   8.65009296
_cell_length_b   8.65009338
_cell_length_c   8.65009300
_cell_angle_alpha   120.10413663
_cell_angle_beta   119.99302121
_cell_angle_gamma   89.91590513
_symmetry_Int_Tables_number   1
_chemical_formula_structural   Ti8Ga14AsIr7
_chemical_formula_sum   'Ti8 Ga14 As1 Ir7'
_cell_volume   457.32751338
_cell_formula_units_Z   1
loop_
 _symmetry_equiv_pos_site_id
 _symmetry_equiv_pos_as_xyz
  1  'x, y, z'
loop_
 _atom_site_type_symbol
 _atom_site_label
 _atom_site_symmetry_multiplicity
 _atom_site_fract_x
 _atom_site_fract_y
 _atom_site_fract_z
 _atom_site_occupancy
  Ti  Ti0  1  0.796802  0.293051  0.082017  1
  Ti  Ti1  1  0.211033  0.293051  0.496249  1
  Ti  Ti2  1  0.204173  0.704173  0.500000  1
  Ti  Ti3  1  0.211033  0.714784  0.917983  1
  Ti  Ti4  1  0.796802  0.714784  0.503751  1
  Ti  Ti5  1  0.788524  0.288524  0.500000  1
  Ti  Ti6  1  0.378947  0.123721  0.744773  1
  Ti  Ti7  1  0.378947  0.634174  0.255227  1
  Ga  Ga8  1  0.156278  0.345609  0.189330  1
  Ga  Ga9  1  0.156278  0.966950  0.810670  1
  Ga  Ga10  1  0.153370  0.346264  0.807106  1
  Ga  Ga11  1  0.539158  0.346264  0.192894  1
  Ga  Ga12  1  0.845369  0.654019  0.808652  1
  Ga  Ga13  1  0.845369  0.036717  0.191348  1
  Ga  Ga14  1  0.843563  0.654520  0.189044  1
  Ga  Ga15  1  0.465476  0.654520  0.810956  1
  Ga  Ga16  1  0.379699  0.121844  0.257856  1
  Ga  Ga17  1  0.863989  0.121844  0.742144  1
  Ga  Ga18  1  0.618319  0.873572  0.255253  1
  Ga  Ga19  1  0.618319  0.363066  0.744747  1
  Ga  Ga20  1  0.616296  0.877101  0.739195  1
  Ga  Ga21  1  0.137904  0.877101  0.260805  1
  As  As22  1  0.997640  0.497640  0.500000  1
  Ir  Ir23  1  0.001203  0.000758  0.501459  1
  Ir  Ir24  1  0.499299  0.000758  0.999554  1
  Ir  Ir25  1  0.497133  0.497133  0.000000  1
  Ir  Ir26  1  0.499299  0.499744  0.498541  1
  Ir  Ir27  1  0.001203  0.499744  0.000446  1
  Ir  Ir28  1  0.000326  0.000326  0.000000  1
  Ir  Ir29  1  0.498243  0.998243  0.500000  1
