# generated using pymatgen
data_Ca4AlInPd4
_symmetry_space_group_name_H-M   'P 1'
_cell_length_a   5.80916113
_cell_length_b   5.80916192
_cell_length_c   8.05369434
_cell_angle_alpha   78.09650174
_cell_angle_beta   78.09650216
_cell_angle_gamma   59.91884262
_symmetry_Int_Tables_number   1
_chemical_formula_structural   Ca4AlInPd4
_chemical_formula_sum   'Ca4 Al1 In1 Pd4'
_cell_volume   228.41595582
_cell_formula_units_Z   1
loop_
 _symmetry_equiv_pos_site_id
 _symmetry_equiv_pos_as_xyz
  1  'x, y, z'
loop_
 _atom_site_type_symbol
 _atom_site_label
 _atom_site_symmetry_multiplicity
 _atom_site_fract_x
 _atom_site_fract_y
 _atom_site_fract_z
 _atom_site_occupancy
  Ca  Ca0  1  0.786850  0.512552  0.351507  1
  Ca  Ca1  1  0.487448  0.213150  0.148493  1
  Ca  Ca2  1  0.214641  0.486992  0.649244  1
  Ca  Ca3  1  0.513008  0.785359  0.850756  1
  Al  Al4  1  0.877721  0.122279  0.750000  1
  In  In5  1  0.147344  0.852656  0.250000  1
  Pd  Pd6  1  0.991584  0.739597  0.989620  1
  Pd  Pd7  1  0.260403  0.008416  0.510380  1
  Pd  Pd8  1  0.987007  0.266006  0.983969  1
  Pd  Pd9  1  0.733994  0.012993  0.516031  1
