# generated using pymatgen
data_CePu6UC12
_symmetry_space_group_name_H-M   'P 1'
_cell_length_a   7.09572112
_cell_length_b   7.10112651
_cell_length_c   7.11206248
_cell_angle_alpha   109.52541265
_cell_angle_beta   109.65579488
_cell_angle_gamma   109.35823272
_symmetry_Int_Tables_number   1
_chemical_formula_structural   CePu6UC12
_chemical_formula_sum   'Ce1 Pu6 U1 C12'
_cell_volume   275.43509436
_cell_formula_units_Z   1
loop_
 _symmetry_equiv_pos_site_id
 _symmetry_equiv_pos_as_xyz
  1  'x, y, z'
loop_
 _atom_site_type_symbol
 _atom_site_label
 _atom_site_symmetry_multiplicity
 _atom_site_fract_x
 _atom_site_fract_y
 _atom_site_fract_z
 _atom_site_occupancy
  Ce  Ce0  1  0.499763  0.000484  0.899029  1
  Pu  Pu1  1  0.600659  0.600409  0.600054  1
  Pu  Pu2  1  0.506183  0.002001  0.402910  1
  Pu  Pu3  1  0.004965  0.403920  0.508608  1
  Pu  Pu4  1  0.402594  0.506721  0.001927  1
  Pu  Pu5  1  0.001137  0.897750  0.497745  1
  Pu  Pu6  1  0.897814  0.499251  0.000070  1
  U  U7  1  0.105200  0.103986  0.104050  1
  C  C8  1  0.798575  0.048174  0.757203  1
  C  C9  1  0.977115  0.213010  0.762561  1
  C  C10  1  0.212860  0.500178  0.291707  1
  C  C11  1  0.293036  0.215560  0.502142  1
  C  C12  1  0.763346  0.971718  0.216518  1
  C  C13  1  0.207358  0.759570  0.975147  1
  C  C14  1  0.710093  0.458800  0.259235  1
  C  C15  1  0.456131  0.259115  0.708144  1
  C  C16  1  0.505652  0.298278  0.221045  1
  C  C17  1  0.251848  0.706885  0.448067  1
  C  C18  1  0.759625  0.795891  0.048658  1
  C  C19  1  0.046047  0.758301  0.795179  1
