# generated using pymatgen
data_KI28
_symmetry_space_group_name_H-M   'P 1'
_cell_length_a   10.53714494
_cell_length_b   14.32941752
_cell_length_c   13.11995630
_cell_angle_alpha   109.30550397
_cell_angle_beta   105.59393177
_cell_angle_gamma   86.60012573
_symmetry_Int_Tables_number   1
_chemical_formula_structural   KI28
_chemical_formula_sum   'K1 I28'
_cell_volume   1799.83313798
_cell_formula_units_Z   1
loop_
 _symmetry_equiv_pos_site_id
 _symmetry_equiv_pos_as_xyz
  1  'x, y, z'
loop_
 _atom_site_type_symbol
 _atom_site_label
 _atom_site_symmetry_multiplicity
 _atom_site_fract_x
 _atom_site_fract_y
 _atom_site_fract_z
 _atom_site_occupancy
  K  K0  1  0.500000  0.000000  0.000000  1
  I  I1  1  0.132159  0.145026  0.441868  1
  I  I2  1  0.612415  0.148342  0.455229  1
  I  I3  1  0.301989  0.295274  0.849373  1
  I  I4  1  0.782844  0.306730  0.855273  1
  I  I5  1  0.218240  0.516473  0.672635  1
  I  I6  1  0.726838  0.515255  0.692210  1
  I  I7  1  0.387585  0.851658  0.544771  1
  I  I8  1  0.867841  0.854974  0.558132  1
  I  I9  1  0.217156  0.693270  0.144727  1
  I  I10  1  0.698011  0.704726  0.150627  1
  I  I11  1  0.273162  0.484745  0.307790  1
  I  I12  1  0.781760  0.483527  0.327365  1
  I  I13  1  0.829944  0.030151  0.719144  1
  I  I14  1  0.319795  0.999175  0.729960  1
  I  I15  1  0.009370  0.665582  0.952884  1
  I  I16  1  0.486500  0.733178  0.979005  1
  I  I17  1  0.646970  0.308891  0.299728  1
  I  I18  1  0.203536  0.321924  0.353629  1
  I  I19  1  0.680205  0.000825  0.270040  1
  I  I20  1  0.170056  0.969849  0.280856  1
  I  I21  1  0.513500  0.266822  0.020995  1
  I  I22  1  0.990630  0.334418  0.047116  1
  I  I23  1  0.796464  0.678076  0.646371  1
  I  I24  1  0.353030  0.691109  0.700272  1
  I  I25  1  0.086208  0.326813  0.653048  1
  I  I26  1  0.546418  0.297794  0.649927  1
  I  I27  1  0.453582  0.702206  0.350073  1
  I  I28  1  0.913792  0.673187  0.346952  1
