# generated using pymatgen
data_Tb4Dy3HoReTc3C8
_symmetry_space_group_name_H-M   'P 1'
_cell_length_a   5.11822900
_cell_length_b   6.58972800
_cell_length_c   9.89246300
_cell_angle_alpha   89.99951247
_cell_angle_beta   90.00000000
_cell_angle_gamma   90.00000000
_symmetry_Int_Tables_number   1
_chemical_formula_structural   Tb4Dy3HoReTc3C8
_chemical_formula_sum   'Tb4 Dy3 Ho1 Re1 Tc3 C8'
_cell_volume   333.65038997
_cell_formula_units_Z   1
loop_
 _symmetry_equiv_pos_site_id
 _symmetry_equiv_pos_as_xyz
  1  'x, y, z'
loop_
 _atom_site_type_symbol
 _atom_site_label
 _atom_site_symmetry_multiplicity
 _atom_site_fract_x
 _atom_site_fract_y
 _atom_site_fract_z
 _atom_site_occupancy
  Tb  Tb0  1  0.250000  0.466260  0.784835  1
  Tb  Tb1  1  0.750000  0.032526  0.284772  1
  Tb  Tb2  1  0.250000  0.967180  0.714757  1
  Tb  Tb3  1  0.750000  0.532218  0.214335  1
  Dy  Dy4  1  0.250000  0.822737  0.056636  1
  Dy  Dy5  1  0.750000  0.676391  0.556802  1
  Dy  Dy6  1  0.250000  0.323139  0.442580  1
  Ho  Ho7  1  0.750000  0.177350  0.942362  1
  Re  Re8  1  0.750000  0.720102  0.865511  1
  Tc  Tc9  1  0.250000  0.280236  0.134450  1
  Tc  Tc10  1  0.750000  0.220275  0.635245  1
  Tc  Tc11  1  0.250000  0.780505  0.364782  1
  C  C12  1  0.250000  0.177257  0.952631  1
  C  C13  1  0.750000  0.822859  0.048233  1
  C  C14  1  0.250000  0.678116  0.546824  1
  C  C15  1  0.750000  0.321756  0.453298  1
  C  C16  1  0.250000  0.047486  0.258406  1
  C  C17  1  0.750000  0.453486  0.760514  1
  C  C18  1  0.250000  0.547773  0.240917  1
  C  C19  1  0.750000  0.952344  0.742115  1
