# generated using pymatgen
data_Pr11(Si3Ni2)2
_symmetry_space_group_name_H-M   'P 1'
_cell_length_a   4.26510808
_cell_length_b   9.44342255
_cell_length_c   13.96287890
_cell_angle_alpha   105.49232737
_cell_angle_beta   90.02047230
_cell_angle_gamma   102.89300108
_symmetry_Int_Tables_number   1
_chemical_formula_structural   Pr11(Si3Ni2)2
_chemical_formula_sum   'Pr11 Si6 Ni4'
_cell_volume   527.21165202
_cell_formula_units_Z   1
loop_
 _symmetry_equiv_pos_site_id
 _symmetry_equiv_pos_as_xyz
  1  'x, y, z'
loop_
 _atom_site_type_symbol
 _atom_site_label
 _atom_site_symmetry_multiplicity
 _atom_site_fract_x
 _atom_site_fract_y
 _atom_site_fract_z
 _atom_site_occupancy
  Pr  Pr0  1  0.905244  0.809175  0.216411  1
  Pr  Pr1  1  0.860483  0.717028  0.651171  1
  Pr  Pr2  1  0.216301  0.433352  0.101533  1
  Pr  Pr3  1  0.548327  0.096857  0.126637  1
  Pr  Pr4  1  0.339302  0.679937  0.406226  1
  Pr  Pr5  1  0.452511  0.902916  0.874638  1
  Pr  Pr6  1  0.000454  0.999718  0.500625  1
  Pr  Pr7  1  0.140427  0.283065  0.350164  1
  Pr  Pr8  1  0.783460  0.566154  0.899383  1
  Pr  Pr9  1  0.660494  0.320126  0.594329  1
  Pr  Pr10  1  0.094916  0.190304  0.784763  1
  Si  Si11  1  0.627444  0.254812  0.952390  1
  Si  Si12  1  0.261183  0.520899  0.732473  1
  Si  Si13  1  0.738282  0.478134  0.268370  1
  Si  Si14  1  0.372694  0.744668  0.048734  1
  Si  Si15  1  0.514005  0.028466  0.349259  1
  Si  Si16  1  0.486948  0.971430  0.651942  1
  Ni  Ni17  1  0.748246  0.502275  0.447244  1
  Ni  Ni18  1  0.938625  0.876490  0.024297  1
  Ni  Ni19  1  0.061590  0.122290  0.977026  1
  Ni  Ni20  1  0.251658  0.498952  0.553911  1
