# generated using pymatgen
data_Eu4P7N12
_symmetry_space_group_name_H-M   'P 1'
_cell_length_a   7.66372257
_cell_length_b   7.66372335
_cell_length_c   7.66372400
_cell_angle_alpha   109.47121707
_cell_angle_beta   109.47121912
_cell_angle_gamma   109.47122383
_symmetry_Int_Tables_number   1
_chemical_formula_structural   Eu4P7N12
_chemical_formula_sum   'Eu4 P7 N12'
_cell_volume   346.49547615
_cell_formula_units_Z   1
loop_
 _symmetry_equiv_pos_site_id
 _symmetry_equiv_pos_as_xyz
  1  'x, y, z'
loop_
 _atom_site_type_symbol
 _atom_site_label
 _atom_site_symmetry_multiplicity
 _atom_site_fract_x
 _atom_site_fract_y
 _atom_site_fract_z
 _atom_site_occupancy
  Eu  Eu0  1  0.634426  0.000000  0.000000  1
  Eu  Eu1  1  0.000000  0.000000  0.634426  1
  Eu  Eu2  1  0.000000  0.634426  0.000000  1
  Eu  Eu3  1  0.365574  0.365574  0.365574  1
  P  P4  1  0.250000  0.750000  0.500000  1
  P  P5  1  0.750000  0.250000  0.500000  1
  P  P6  1  0.750000  0.500000  0.250000  1
  P  P7  1  0.250000  0.500000  0.750000  1
  P  P8  1  0.500000  0.750000  0.250000  1
  P  P9  1  0.500000  0.250000  0.750000  1
  P  P10  1  0.000000  0.000000  0.000000  1
  N  N11  1  0.695956  0.311772  0.311772  1
  N  N12  1  0.311772  0.695956  0.311772  1
  N  N13  1  0.304044  0.615816  0.615816  1
  N  N14  1  0.615816  0.615816  0.304044  1
  N  N15  1  0.384184  0.688228  0.000000  1
  N  N16  1  0.000000  0.688228  0.384184  1
  N  N17  1  0.615816  0.304044  0.615816  1
  N  N18  1  0.688228  0.000000  0.384184  1
  N  N19  1  0.384184  0.000000  0.688228  1
  N  N20  1  0.688228  0.384184  0.000000  1
  N  N21  1  0.311772  0.311772  0.695956  1
  N  N22  1  0.000000  0.384184  0.688228  1
