# generated using pymatgen
data_SrTb5YPtI12
_symmetry_space_group_name_H-M   'P 1'
_cell_length_a   9.85793010
_cell_length_b   9.85955971
_cell_length_c   9.85935117
_cell_angle_alpha   106.47192551
_cell_angle_beta   106.45696361
_cell_angle_gamma   106.47252289
_symmetry_Int_Tables_number   1
_chemical_formula_structural   SrTb5YPtI12
_chemical_formula_sum   'Sr1 Tb5 Y1 Pt1 I12'
_cell_volume   809.38364889
_cell_formula_units_Z   1
loop_
 _symmetry_equiv_pos_site_id
 _symmetry_equiv_pos_as_xyz
  1  'x, y, z'
loop_
 _atom_site_type_symbol
 _atom_site_label
 _atom_site_symmetry_multiplicity
 _atom_site_fract_x
 _atom_site_fract_y
 _atom_site_fract_z
 _atom_site_occupancy
  Sr  Sr0  1  0.499962  0.499958  0.500007  1
  Tb  Tb1  1  0.299779  0.096286  0.023854  1
  Tb  Tb2  1  0.023660  0.299742  0.096380  1
  Tb  Tb3  1  0.903621  0.976349  0.700171  1
  Tb  Tb4  1  0.700346  0.903743  0.976523  1
  Tb  Tb5  1  0.976417  0.700295  0.903887  1
  Y  Y6  1  0.096264  0.023746  0.299777  1
  Pt  Pt7  1  0.999980  0.000019  0.999833  1
  I  I8  1  0.074014  0.677641  0.223256  1
  I  I9  1  0.223118  0.073921  0.676929  1
  I  I10  1  0.677404  0.223212  0.073997  1
  I  I11  1  0.926043  0.322570  0.776847  1
  I  I12  1  0.777216  0.926138  0.322564  1
  I  I13  1  0.322605  0.776817  0.926039  1
  I  I14  1  0.451887  0.137492  0.372502  1
  I  I15  1  0.372591  0.452294  0.137700  1
  I  I16  1  0.137614  0.372290  0.452183  1
  I  I17  1  0.547699  0.862328  0.627463  1
  I  I18  1  0.627416  0.547700  0.862330  1
  I  I19  1  0.862363  0.627457  0.547758  1
