# generated using pymatgen
data_Pr3AgIr3RhO14
_symmetry_space_group_name_H-M   'P 1'
_cell_length_a   7.48150255
_cell_length_b   7.48150290
_cell_length_c   7.27742500
_cell_angle_alpha   59.06794810
_cell_angle_beta   59.06794695
_cell_angle_gamma   60.00000130
_symmetry_Int_Tables_number   1
_chemical_formula_structural   Pr3AgIr3RhO14
_chemical_formula_sum   'Pr3 Ag1 Ir3 Rh1 O14'
_cell_volume   283.90708125
_cell_formula_units_Z   1
loop_
 _symmetry_equiv_pos_site_id
 _symmetry_equiv_pos_as_xyz
  1  'x, y, z'
loop_
 _atom_site_type_symbol
 _atom_site_label
 _atom_site_symmetry_multiplicity
 _atom_site_fract_x
 _atom_site_fract_y
 _atom_site_fract_z
 _atom_site_occupancy
  Pr  Pr0  1  0.125000  0.125000  0.125000  1
  Pr  Pr1  1  0.625000  0.125000  0.125000  1
  Pr  Pr2  1  0.125000  0.625000  0.125000  1
  Ag  Ag3  1  0.125000  0.125000  0.625000  1
  Ir  Ir4  1  0.625000  0.625000  0.625000  1
  Ir  Ir5  1  0.125000  0.625000  0.625000  1
  Ir  Ir6  1  0.625000  0.125000  0.625000  1
  Rh  Rh7  1  0.625000  0.625000  0.125000  1
  O  O8  1  0.945193  0.555885  0.553729  1
  O  O9  1  0.304807  0.304807  0.696271  1
  O  O10  1  0.958527  0.541066  0.959340  1
  O  O11  1  0.708934  0.291473  0.290660  1
  O  O12  1  0.541066  0.541066  0.959340  1
  O  O13  1  0.555885  0.945193  0.553729  1
  O  O14  1  0.541066  0.958527  0.959340  1
  O  O15  1  0.244841  0.244841  0.265477  1
  O  O16  1  0.304807  0.694115  0.696271  1
  O  O17  1  0.694115  0.304807  0.696271  1
  O  O18  1  0.005159  0.005159  0.984523  1
  O  O19  1  0.945193  0.945193  0.553729  1
  O  O20  1  0.291473  0.708934  0.290660  1
  O  O21  1  0.708934  0.708934  0.290660  1
