# generated using pymatgen
data_Tb2HoZnCd3Au2
_symmetry_space_group_name_H-M   'P 1'
_cell_length_a   7.89266600
_cell_length_b   7.85907719
_cell_length_c   3.81639600
_cell_angle_alpha   90.00000000
_cell_angle_beta   90.00000000
_cell_angle_gamma   120.14148846
_symmetry_Int_Tables_number   1
_chemical_formula_structural   Tb2HoZnCd3Au2
_chemical_formula_sum   'Tb2 Ho1 Zn1 Cd3 Au2'
_cell_volume   204.71911171
_cell_formula_units_Z   1
loop_
 _symmetry_equiv_pos_site_id
 _symmetry_equiv_pos_as_xyz
  1  'x, y, z'
loop_
 _atom_site_type_symbol
 _atom_site_label
 _atom_site_symmetry_multiplicity
 _atom_site_fract_x
 _atom_site_fract_y
 _atom_site_fract_z
 _atom_site_occupancy
  Tb  Tb0  1  0.000162  0.589405  0.000000  1
  Tb  Tb1  1  0.410756  0.410595  0.000000  1
  Ho  Ho2  1  0.589441  0.000000  0.000000  1
  Zn  Zn3  1  0.999089  0.000000  0.000000  1
  Cd  Cd4  1  0.255697  0.000000  0.500000  1
  Cd  Cd5  1  0.998946  0.254697  0.500000  1
  Cd  Cd6  1  0.744248  0.745303  0.500000  1
  Au  Au7  1  0.335740  0.669820  0.500000  1
  Au  Au8  1  0.665920  0.330180  0.500000  1
