# generated using pymatgen
data_Pr3MgCd2Ge2Au
_symmetry_space_group_name_H-M   'P 1'
_cell_length_a   7.52470319
_cell_length_b   7.52470386
_cell_length_c   4.50057300
_cell_angle_alpha   90.00000000
_cell_angle_beta   90.00000000
_cell_angle_gamma   120.81816219
_symmetry_Int_Tables_number   1
_chemical_formula_structural   Pr3MgCd2Ge2Au
_chemical_formula_sum   'Pr3 Mg1 Cd2 Ge2 Au1'
_cell_volume   218.84538345
_cell_formula_units_Z   1
loop_
 _symmetry_equiv_pos_site_id
 _symmetry_equiv_pos_as_xyz
  1  'x, y, z'
loop_
 _atom_site_type_symbol
 _atom_site_label
 _atom_site_symmetry_multiplicity
 _atom_site_fract_x
 _atom_site_fract_y
 _atom_site_fract_z
 _atom_site_occupancy
  Pr  Pr0  1  0.583641  0.002532  0.000000  1
  Pr  Pr1  1  0.002532  0.583641  0.000000  1
  Pr  Pr2  1  0.412650  0.412650  0.000000  1
  Mg  Mg3  1  0.763800  0.763800  0.500000  1
  Cd  Cd4  1  0.245722  0.998432  0.500000  1
  Cd  Cd5  1  0.998432  0.245722  0.500000  1
  Ge  Ge6  1  0.339911  0.666825  0.500000  1
  Ge  Ge7  1  0.666825  0.339911  0.500000  1
  Au  Au8  1  0.986488  0.986488  0.000000  1
