# generated using pymatgen
data_Ti2AlCo3Sn
_symmetry_space_group_name_H-M   'P 1'
_cell_length_a   7.22166057
_cell_length_b   7.22166090
_cell_length_c   7.22165941
_cell_angle_alpha   33.17995837
_cell_angle_beta   33.17995344
_cell_angle_gamma   33.17995894
_symmetry_Int_Tables_number   1
_chemical_formula_structural   Ti2AlCo3Sn
_chemical_formula_sum   'Ti2 Al1 Co3 Sn1'
_cell_volume   100.41301781
_cell_formula_units_Z   1
loop_
 _symmetry_equiv_pos_site_id
 _symmetry_equiv_pos_as_xyz
  1  'x, y, z'
loop_
 _atom_site_type_symbol
 _atom_site_label
 _atom_site_symmetry_multiplicity
 _atom_site_fract_x
 _atom_site_fract_y
 _atom_site_fract_z
 _atom_site_occupancy
  Ti  Ti0  1  0.751374  0.751374  0.751374  1
  Ti  Ti1  1  0.251172  0.251172  0.251172  1
  Al  Al2  1  0.996918  0.996918  0.996918  1
  Co  Co3  1  0.118090  0.118090  0.118090  1
  Co  Co4  1  0.631387  0.631387  0.631387  1
  Co  Co5  1  0.371776  0.371776  0.371776  1
  Sn  Sn6  1  0.504282  0.504282  0.504282  1
