# generated using pymatgen
data_Ac8InPd6
_symmetry_space_group_name_H-M   'P 1'
_cell_length_a   8.09228986
_cell_length_b   8.09228804
_cell_length_c   8.09228916
_cell_angle_alpha   72.07587913
_cell_angle_beta   72.07588213
_cell_angle_gamma   72.07587976
_symmetry_Int_Tables_number   1
_chemical_formula_structural   Ac8InPd6
_chemical_formula_sum   'Ac8 In1 Pd6'
_cell_volume   466.25985790
_cell_formula_units_Z   1
loop_
 _symmetry_equiv_pos_site_id
 _symmetry_equiv_pos_as_xyz
  1  'x, y, z'
loop_
 _atom_site_type_symbol
 _atom_site_label
 _atom_site_symmetry_multiplicity
 _atom_site_fract_x
 _atom_site_fract_y
 _atom_site_fract_z
 _atom_site_occupancy
  Ac  Ac0  1  0.803344  0.803344  0.803344  1
  Ac  Ac1  1  0.196656  0.196656  0.196656  1
  Ac  Ac2  1  0.319919  0.626807  0.837724  1
  Ac  Ac3  1  0.837724  0.319919  0.626807  1
  Ac  Ac4  1  0.626806  0.837724  0.319919  1
  Ac  Ac5  1  0.680081  0.373193  0.162276  1
  Ac  Ac6  1  0.162276  0.680081  0.373193  1
  Ac  Ac7  1  0.373193  0.162276  0.680081  1
  In  In8  1  0.000000  0.000000  0.000000  1
  Pd  Pd9  1  0.154581  0.960326  0.589719  1
  Pd  Pd10  1  0.589719  0.154581  0.960326  1
  Pd  Pd11  1  0.960326  0.589719  0.154581  1
  Pd  Pd12  1  0.845419  0.039674  0.410281  1
  Pd  Pd13  1  0.410281  0.845419  0.039674  1
  Pd  Pd14  1  0.039674  0.410281  0.845419  1
