# generated using pymatgen
data_Pa8Cd(FeO8)3
_symmetry_space_group_name_H-M   'P 1'
_cell_length_a   5.40195900
_cell_length_b   5.37310610
_cell_length_c   16.07097562
_cell_angle_alpha   89.46144768
_cell_angle_beta   90.00000000
_cell_angle_gamma   90.00000000
_symmetry_Int_Tables_number   1
_chemical_formula_structural   Pa8Cd(FeO8)3
_chemical_formula_sum   'Pa8 Cd1 Fe3 O24'
_cell_volume   466.44426437
_cell_formula_units_Z   1
loop_
 _symmetry_equiv_pos_site_id
 _symmetry_equiv_pos_as_xyz
  1  'x, y, z'
loop_
 _atom_site_type_symbol
 _atom_site_label
 _atom_site_symmetry_multiplicity
 _atom_site_fract_x
 _atom_site_fract_y
 _atom_site_fract_z
 _atom_site_occupancy
  Pa  Pa0  1  0.253462  0.458259  0.662081  1
  Pa  Pa1  1  0.243953  0.954985  0.843594  1
  Pa  Pa2  1  0.243953  0.045015  0.156406  1
  Pa  Pa3  1  0.253462  0.541741  0.337919  1
  Pa  Pa4  1  0.746176  0.038635  0.338002  1
  Pa  Pa5  1  0.753221  0.543685  0.156599  1
  Pa  Pa6  1  0.753221  0.456315  0.843401  1
  Pa  Pa7  1  0.746176  0.961365  0.661998  1
  Cd  Cd8  1  0.781815  0.500000  0.500000  1
  Fe  Fe9  1  0.298106  0.500000  0.000000  1
  Fe  Fe10  1  0.212182  0.000000  0.500000  1
  Fe  Fe11  1  0.700123  0.000000  0.000000  1
  O  O12  1  0.056976  0.644230  0.909067  1
  O  O13  1  0.451979  0.157015  0.592315  1
  O  O14  1  0.451979  0.842985  0.407685  1
  O  O15  1  0.056976  0.355770  0.090933  1
  O  O16  1  0.940671  0.855675  0.090902  1
  O  O17  1  0.547798  0.339430  0.401354  1
  O  O18  1  0.547798  0.660570  0.598646  1
  O  O19  1  0.940671  0.144325  0.909098  1
  O  O20  1  0.022081  0.785438  0.247569  1
  O  O21  1  0.475067  0.285082  0.245148  1
  O  O22  1  0.475067  0.714918  0.754852  1
  O  O23  1  0.022081  0.214562  0.752431  1
  O  O24  1  0.975011  0.713620  0.751562  1
  O  O25  1  0.522284  0.215580  0.751803  1
  O  O26  1  0.522284  0.784420  0.248197  1
  O  O27  1  0.975011  0.286380  0.248438  1
  O  O28  1  0.051692  0.748059  0.590167  1
  O  O29  1  0.448635  0.242602  0.913288  1
  O  O30  1  0.448635  0.757398  0.086712  1
  O  O31  1  0.051692  0.251941  0.409833  1
  O  O32  1  0.965482  0.764819  0.408379  1
  O  O33  1  0.549399  0.258191  0.085008  1
  O  O34  1  0.549399  0.741809  0.914992  1
  O  O35  1  0.965482  0.235181  0.591621  1
