# generated using pymatgen
data_Er4ThV2O12
_symmetry_space_group_name_H-M   'P 1'
_cell_length_a   6.80083761
_cell_length_b   6.80083884
_cell_length_c   7.21792200
_cell_angle_alpha   74.72618480
_cell_angle_beta   74.72619070
_cell_angle_gamma   50.58021763
_symmetry_Int_Tables_number   1
_chemical_formula_structural   Er4ThV2O12
_chemical_formula_sum   'Er4 Th1 V2 O12'
_cell_volume   246.70648824
_cell_formula_units_Z   1
loop_
 _symmetry_equiv_pos_site_id
 _symmetry_equiv_pos_as_xyz
  1  'x, y, z'
loop_
 _atom_site_type_symbol
 _atom_site_label
 _atom_site_symmetry_multiplicity
 _atom_site_fract_x
 _atom_site_fract_y
 _atom_site_fract_z
 _atom_site_occupancy
  Er  Er0  1  0.308504  0.308504  0.353894  1
  Er  Er1  1  0.691496  0.691496  0.646106  1
  Er  Er2  1  0.305871  0.305871  0.839076  1
  Er  Er3  1  0.694129  0.694129  0.160924  1
  Th  Th4  1  0.000000  0.000000  0.500000  1
  V  V5  1  0.754093  0.245907  0.000000  1
  V  V6  1  0.245907  0.754093  0.000000  1
  O  O7  1  0.898577  0.424046  0.918744  1
  O  O8  1  0.424046  0.898577  0.918744  1
  O  O9  1  0.101423  0.575954  0.081256  1
  O  O10  1  0.575954  0.101423  0.081256  1
  O  O11  1  0.093499  0.592500  0.578211  1
  O  O12  1  0.592500  0.093499  0.578211  1
  O  O13  1  0.906501  0.407500  0.421789  1
  O  O14  1  0.407500  0.906501  0.421789  1
  O  O15  1  0.999941  0.999941  0.816712  1
  O  O16  1  0.000059  0.000059  0.183288  1
  O  O17  1  0.498608  0.498608  0.807939  1
  O  O18  1  0.501392  0.501392  0.192061  1
