# generated using pymatgen
data_ScVSb2(SeO3)8
_symmetry_space_group_name_H-M   'P 1'
_cell_length_a   8.32477985
_cell_length_b   8.30562337
_cell_length_c   8.34137021
_cell_angle_alpha   89.85040320
_cell_angle_beta   89.69697166
_cell_angle_gamma   90.29297687
_symmetry_Int_Tables_number   1
_chemical_formula_structural   ScVSb2(SeO3)8
_chemical_formula_sum   'Sc1 V1 Sb2 Se8 O24'
_cell_volume   576.72546079
_cell_formula_units_Z   1
loop_
 _symmetry_equiv_pos_site_id
 _symmetry_equiv_pos_as_xyz
  1  'x, y, z'
loop_
 _atom_site_type_symbol
 _atom_site_label
 _atom_site_symmetry_multiplicity
 _atom_site_fract_x
 _atom_site_fract_y
 _atom_site_fract_z
 _atom_site_occupancy
  Sc  Sc0  1  0.000000  0.500000  0.000000  1
  V  V1  1  0.500000  0.500000  0.500000  1
  Sb  Sb2  1  0.000000  0.000000  0.500000  1
  Sb  Sb3  1  0.500000  0.000000  0.000000  1
  Se  Se4  1  0.342066  0.670254  0.179177  1
  Se  Se5  1  0.822794  0.327727  0.342174  1
  Se  Se6  1  0.672234  0.823031  0.672044  1
  Se  Se7  1  0.178773  0.160519  0.824554  1
  Se  Se8  1  0.657934  0.329746  0.820823  1
  Se  Se9  1  0.177206  0.672273  0.657826  1
  Se  Se10  1  0.327766  0.176969  0.327956  1
  Se  Se11  1  0.821227  0.839481  0.175446  1
  O  O12  1  0.241837  0.551341  0.048915  1
  O  O13  1  0.738907  0.459906  0.475097  1
  O  O14  1  0.762175  0.966920  0.541154  1
  O  O15  1  0.261523  0.014163  0.956875  1
  O  O16  1  0.541029  0.964398  0.762869  1
  O  O17  1  0.475787  0.538157  0.260856  1
  O  O18  1  0.954031  0.447749  0.242063  1
  O  O19  1  0.040203  0.021978  0.737932  1
  O  O20  1  0.965598  0.236986  0.480838  1
  O  O21  1  0.542574  0.741964  0.540437  1
  O  O22  1  0.483542  0.763140  0.037724  1
  O  O23  1  0.055363  0.253658  0.952679  1
  O  O24  1  0.758163  0.448659  0.951085  1
  O  O25  1  0.261093  0.540094  0.524903  1
  O  O26  1  0.237825  0.033080  0.458846  1
  O  O27  1  0.738477  0.985837  0.043125  1
  O  O28  1  0.458971  0.035602  0.237131  1
  O  O29  1  0.524213  0.461843  0.739144  1
  O  O30  1  0.045969  0.552251  0.757937  1
  O  O31  1  0.959797  0.978022  0.262068  1
  O  O32  1  0.034402  0.763014  0.519162  1
  O  O33  1  0.457426  0.258036  0.459563  1
  O  O34  1  0.516458  0.236860  0.962276  1
  O  O35  1  0.944637  0.746342  0.047321  1
