# generated using pymatgen
data_DyYTa5WO18
_symmetry_space_group_name_H-M   'P 1'
_cell_length_a   7.52499019
_cell_length_b   5.31235868
_cell_length_c   8.33431060
_cell_angle_alpha   87.65158907
_cell_angle_beta   90.14017323
_cell_angle_gamma   89.77802792
_symmetry_Int_Tables_number   1
_chemical_formula_structural   DyYTa5WO18
_chemical_formula_sum   'Dy1 Y1 Ta5 W1 O18'
_cell_volume   332.88434337
_cell_formula_units_Z   1
loop_
 _symmetry_equiv_pos_site_id
 _symmetry_equiv_pos_as_xyz
  1  'x, y, z'
loop_
 _atom_site_type_symbol
 _atom_site_label
 _atom_site_symmetry_multiplicity
 _atom_site_fract_x
 _atom_site_fract_y
 _atom_site_fract_z
 _atom_site_occupancy
  Dy  Dy0  1  0.247510  0.964751  0.435724  1
  Y  Y1  1  0.752436  0.035196  0.564189  1
  Ta  Ta2  1  0.499986  0.999996  0.000026  1
  Ta  Ta3  1  0.493766  0.526783  0.695951  1
  Ta  Ta4  1  0.007555  0.530134  0.696466  1
  Ta  Ta5  1  0.992533  0.469848  0.303520  1
  Ta  Ta6  1  0.506136  0.473220  0.304037  1
  W  W7  1  0.000013  0.000001  0.000026  1
  O  O8  1  0.246851  0.910307  0.978343  1
  O  O9  1  0.933308  0.853606  0.781323  1
  O  O10  1  0.561955  0.849163  0.787426  1
  O  O11  1  0.957381  0.741376  0.468453  1
  O  O12  1  0.542310  0.741645  0.468099  1
  O  O13  1  0.250615  0.662965  0.655503  1
  O  O14  1  0.947140  0.673942  0.123461  1
  O  O15  1  0.550605  0.677104  0.120998  1
  O  O16  1  0.250246  0.576881  0.314964  1
  O  O17  1  0.749745  0.423559  0.685182  1
  O  O18  1  0.052858  0.326063  0.876532  1
  O  O19  1  0.449394  0.322899  0.878997  1
  O  O20  1  0.749377  0.337393  0.344231  1
  O  O21  1  0.043081  0.258469  0.531445  1
  O  O22  1  0.457287  0.258211  0.531814  1
  O  O23  1  0.066876  0.146145  0.218893  1
  O  O24  1  0.437889  0.150647  0.212742  1
  O  O25  1  0.753146  0.089695  0.021659  1
