# generated using pymatgen
data_V10Si4Ge2C
_symmetry_space_group_name_H-M   'P 1'
_cell_length_a   7.19786601
_cell_length_b   7.17681195
_cell_length_c   4.85859201
_cell_angle_alpha   89.98324517
_cell_angle_beta   90.00835921
_cell_angle_gamma   119.90327976
_symmetry_Int_Tables_number   1
_chemical_formula_structural   V10Si4Ge2C
_chemical_formula_sum   'V10 Si4 Ge2 C1'
_cell_volume   217.56990151
_cell_formula_units_Z   1
loop_
 _symmetry_equiv_pos_site_id
 _symmetry_equiv_pos_as_xyz
  1  'x, y, z'
loop_
 _atom_site_type_symbol
 _atom_site_label
 _atom_site_symmetry_multiplicity
 _atom_site_fract_x
 _atom_site_fract_y
 _atom_site_fract_z
 _atom_site_occupancy
  V  V0  1  0.000000  0.760957  0.255899  1
  V  V1  1  0.235673  0.236023  0.257211  1
  V  V2  1  0.764327  0.000350  0.257211  1
  V  V3  1  0.000000  0.239406  0.742765  1
  V  V4  1  0.766904  0.762310  0.743122  1
  V  V5  1  0.233096  0.995405  0.743122  1
  V  V6  1  0.330155  0.666297  0.004240  1
  V  V7  1  0.669845  0.336140  0.004240  1
  V  V8  1  0.670723  0.336663  0.496177  1
  V  V9  1  0.329277  0.665941  0.496177  1
  Si  Si10  1  0.000000  0.399119  0.241149  1
  Si  Si11  1  0.601700  0.602845  0.243574  1
  Si  Si12  1  0.398300  0.001145  0.243574  1
  Si  Si13  1  0.000000  0.597981  0.759282  1
  Ge  Ge14  1  0.400412  0.399763  0.756243  1
  Ge  Ge15  1  0.599588  0.999351  0.756243  1
  C  C16  1  0.000000  0.000306  0.499774  1
