# generated using pymatgen
data_Dy7ErRe3B24Ru
_symmetry_space_group_name_H-M   'P 1'
_cell_length_a   3.67819500
_cell_length_b   9.16386933
_cell_length_c   11.55013501
_cell_angle_alpha   90.11363338
_cell_angle_beta   90.00000000
_cell_angle_gamma   90.00000000
_symmetry_Int_Tables_number   1
_chemical_formula_structural   Dy7ErRe3B24Ru
_chemical_formula_sum   'Dy7 Er1 Re3 B24 Ru1'
_cell_volume   389.31384104
_cell_formula_units_Z   1
loop_
 _symmetry_equiv_pos_site_id
 _symmetry_equiv_pos_as_xyz
  1  'x, y, z'
loop_
 _atom_site_type_symbol
 _atom_site_label
 _atom_site_symmetry_multiplicity
 _atom_site_fract_x
 _atom_site_fract_y
 _atom_site_fract_z
 _atom_site_occupancy
  Dy  Dy0  1  0.000000  0.321725  0.414214  1
  Dy  Dy1  1  0.000000  0.677358  0.587761  1
  Dy  Dy2  1  0.000000  0.824660  0.084041  1
  Dy  Dy3  1  0.000000  0.176900  0.913668  1
  Dy  Dy4  1  0.000000  0.941487  0.369642  1
  Dy  Dy5  1  0.000000  0.056518  0.629340  1
  Dy  Dy6  1  0.000000  0.443156  0.130367  1
  Er  Er7  1  0.000000  0.557094  0.870847  1
  Re  Re8  1  0.000000  0.362557  0.678502  1
  Re  Re9  1  0.000000  0.138228  0.179554  1
  Re  Re10  1  0.000000  0.861366  0.820918  1
  B  B11  1  0.500000  0.554035  0.432605  1
  B  B12  1  0.500000  0.447060  0.566843  1
  B  B13  1  0.500000  0.053276  0.066843  1
  B  B14  1  0.500000  0.946927  0.932784  1
  B  B15  1  0.500000  0.748108  0.418390  1
  B  B16  1  0.500000  0.250932  0.581191  1
  B  B17  1  0.500000  0.249187  0.081512  1
  B  B18  1  0.500000  0.751056  0.918679  1
  B  B19  1  0.500000  0.790428  0.265338  1
  B  B20  1  0.500000  0.208529  0.734336  1
  B  B21  1  0.500000  0.291444  0.235151  1
  B  B22  1  0.500000  0.707881  0.765887  1
  B  B23  1  0.500000  0.631534  0.185909  1
  B  B24  1  0.500000  0.369852  0.814198  1
  B  B25  1  0.500000  0.130903  0.314823  1
  B  B26  1  0.500000  0.868652  0.685714  1
  B  B27  1  0.500000  0.982435  0.211685  1
  B  B28  1  0.500000  0.017553  0.787801  1
  B  B29  1  0.500000  0.483691  0.288429  1
  B  B30  1  0.500000  0.518330  0.712211  1
  B  B31  1  0.500000  0.601925  0.028412  1
  B  B32  1  0.500000  0.399146  0.971875  1
  B  B33  1  0.500000  0.100511  0.471404  1
  B  B34  1  0.500000  0.897311  0.528135  1
  Ru  Ru35  1  0.000000  0.638245  0.320992  1
