# generated using pymatgen
data_InBiSbO6
_symmetry_space_group_name_H-M   'P 1'
_cell_length_a   9.25132252
_cell_length_b   9.23713907
_cell_length_c   5.04572299
_cell_angle_alpha   89.99147902
_cell_angle_beta   90.26687414
_cell_angle_gamma   120.34007453
_symmetry_Int_Tables_number   1
_chemical_formula_structural   InBiSbO6
_chemical_formula_sum   'In3 Bi3 Sb3 O18'
_cell_volume   372.12662238
_cell_formula_units_Z   3
loop_
 _symmetry_equiv_pos_site_id
 _symmetry_equiv_pos_as_xyz
  1  'x, y, z'
loop_
 _atom_site_type_symbol
 _atom_site_label
 _atom_site_symmetry_multiplicity
 _atom_site_fract_x
 _atom_site_fract_y
 _atom_site_fract_z
 _atom_site_occupancy
  In  In0  1  0.008781  0.378439  0.497403  1
  In  In1  1  0.287819  0.290664  0.996528  1
  In  In2  1  0.001666  0.706685  0.006267  1
  Bi  Bi3  1  0.626467  0.618435  0.500297  1
  Bi  Bi4  1  0.364141  0.000526  0.503040  1
  Bi  Bi5  1  0.707152  0.002886  0.996600  1
  Sb  Sb6  1  0.002354  0.003588  0.499747  1
  Sb  Sb7  1  0.324063  0.657629  0.998145  1
  Sb  Sb8  1  0.673593  0.337682  0.003070  1
  O  O9  1  0.082592  0.210442  0.715528  1
  O  O10  1  0.224107  0.455000  0.228815  1
  O  O11  1  0.125124  0.590354  0.765969  1
  O  O12  1  0.407230  0.532750  0.783954  1
  O  O13  1  0.233068  0.776223  0.213037  1
  O  O14  1  0.116628  0.913357  0.726272  1
  O  O15  1  0.546101  0.772340  0.216814  1
  O  O16  1  0.204868  0.088620  0.273299  1
  O  O17  1  0.467985  0.871526  0.778741  1
  O  O18  1  0.791329  0.882647  0.726723  1
  O  O19  1  0.459966  0.227955  0.786754  1
  O  O20  1  0.595525  0.124458  0.216678  1
  O  O21  1  0.533942  0.401298  0.223651  1
  O  O22  1  0.777955  0.231452  0.770125  1
  O  O23  1  0.909498  0.121722  0.275006  1
  O  O24  1  0.772459  0.546255  0.784820  1
  O  O25  1  0.877159  0.462421  0.232087  1
  O  O26  1  0.878427  0.794645  0.280630  1
