# generated using pymatgen
data_Nd6Al5Ga4Si3
_symmetry_space_group_name_H-M   'P 1'
_cell_length_a   4.30748042
_cell_length_b   4.22422745
_cell_length_c   22.39328957
_cell_angle_alpha   84.60286809
_cell_angle_beta   95.50887975
_cell_angle_gamma   90.01466209
_symmetry_Int_Tables_number   1
_chemical_formula_structural   Nd6Al5Ga4Si3
_chemical_formula_sum   'Nd6 Al5 Ga4 Si3'
_cell_volume   403.76746588
_cell_formula_units_Z   1
loop_
 _symmetry_equiv_pos_site_id
 _symmetry_equiv_pos_as_xyz
  1  'x, y, z'
loop_
 _atom_site_type_symbol
 _atom_site_label
 _atom_site_symmetry_multiplicity
 _atom_site_fract_x
 _atom_site_fract_y
 _atom_site_fract_z
 _atom_site_occupancy
  Nd  Nd0  1  0.373878  0.875883  0.247463  1
  Nd  Nd1  1  0.040702  0.208897  0.581273  1
  Nd  Nd2  1  0.707958  0.541536  0.916019  1
  Nd  Nd3  1  0.292067  0.457976  0.084379  1
  Nd  Nd4  1  0.959206  0.791007  0.418562  1
  Nd  Nd5  1  0.626128  0.123995  0.752379  1
  Al  Al6  1  0.430673  0.319010  0.361206  1
  Al  Al7  1  0.097179  0.652808  0.694551  1
  Al  Al8  1  0.848210  0.402817  0.194620  1
  Al  Al9  1  0.514762  0.735786  0.528407  1
  Al  Al10  1  0.181404  0.068802  0.862098  1
  Ga  Ga11  1  0.902980  0.347628  0.305666  1
  Ga  Ga12  1  0.569704  0.681283  0.639197  1
  Ga  Ga13  1  0.236760  0.014135  0.973170  1
  Ga  Ga14  1  0.764022  0.985688  0.028110  1
  Si  Si15  1  0.817621  0.931171  0.137275  1
  Si  Si16  1  0.484937  0.264200  0.471065  1
  Si  Si17  1  0.151810  0.597378  0.804560  1
