# generated using pymatgen
data_Dy3MgCd2Si2Ag
_symmetry_space_group_name_H-M   'P 1'
_cell_length_a   7.24191535
_cell_length_b   7.18897440
_cell_length_c   4.34616100
_cell_angle_alpha   90.00000000
_cell_angle_beta   90.00000000
_cell_angle_gamma   119.75847860
_symmetry_Int_Tables_number   1
_chemical_formula_structural   Dy3MgCd2Si2Ag
_chemical_formula_sum   'Dy3 Mg1 Cd2 Si2 Ag1'
_cell_volume   196.43037341
_cell_formula_units_Z   1
loop_
 _symmetry_equiv_pos_site_id
 _symmetry_equiv_pos_as_xyz
  1  'x, y, z'
loop_
 _atom_site_type_symbol
 _atom_site_label
 _atom_site_symmetry_multiplicity
 _atom_site_fract_x
 _atom_site_fract_y
 _atom_site_fract_z
 _atom_site_occupancy
  Dy  Dy0  1  0.424587  0.424168  0.500000  1
  Dy  Dy1  1  0.575413  0.999581  0.500000  1
  Dy  Dy2  1  0.000000  0.577884  0.500000  1
  Mg  Mg3  1  0.000000  0.243713  0.000000  1
  Cd  Cd4  1  0.747097  0.748094  0.000000  1
  Cd  Cd5  1  0.252903  0.000996  0.000000  1
  Si  Si6  1  0.669906  0.333573  0.000000  1
  Si  Si7  1  0.330094  0.663668  0.000000  1
  Ag  Ag8  1  0.000000  0.008325  0.500000  1
