# generated using pymatgen
data_Ce2Dy3CdPb3
_symmetry_space_group_name_H-M   'P 1'
_cell_length_a   9.57706700
_cell_length_b   9.57706698
_cell_length_c   6.42746300
_cell_angle_alpha   90.00000000
_cell_angle_beta   90.00000000
_cell_angle_gamma   120.00000354
_symmetry_Int_Tables_number   1
_chemical_formula_structural   Ce2Dy3CdPb3
_chemical_formula_sum   'Ce4 Dy6 Cd2 Pb6'
_cell_volume   510.54643955
_cell_formula_units_Z   2
loop_
 _symmetry_equiv_pos_site_id
 _symmetry_equiv_pos_as_xyz
  1  'x, y, z'
loop_
 _atom_site_type_symbol
 _atom_site_label
 _atom_site_symmetry_multiplicity
 _atom_site_fract_x
 _atom_site_fract_y
 _atom_site_fract_z
 _atom_site_occupancy
  Ce  Ce0  1  0.666667  0.333333  0.500000  1
  Ce  Ce1  1  0.333333  0.666667  0.500000  1
  Ce  Ce2  1  0.333333  0.666667  0.000000  1
  Ce  Ce3  1  0.666667  0.333333  0.000000  1
  Dy  Dy4  1  0.711433  0.711433  0.250000  1
  Dy  Dy5  1  0.288567  0.000000  0.250000  1
  Dy  Dy6  1  0.000000  0.288567  0.250000  1
  Dy  Dy7  1  0.288567  0.288567  0.750000  1
  Dy  Dy8  1  0.711433  0.000000  0.750000  1
  Dy  Dy9  1  0.000000  0.711433  0.750000  1
  Cd  Cd10  1  0.000000  0.000000  0.500000  1
  Cd  Cd11  1  0.000000  0.000000  0.000000  1
  Pb  Pb12  1  0.365006  0.365006  0.250000  1
  Pb  Pb13  1  0.634994  0.000000  0.250000  1
  Pb  Pb14  1  0.000000  0.634994  0.250000  1
  Pb  Pb15  1  0.634994  0.634994  0.750000  1
  Pb  Pb16  1  0.365006  0.000000  0.750000  1
  Pb  Pb17  1  0.000000  0.365006  0.750000  1
