# generated using pymatgen
data_CsEuMnTe3
_symmetry_space_group_name_H-M   'P 1'
_cell_length_a   8.92276092
_cell_length_b   8.92276070
_cell_length_c   12.34448400
_cell_angle_alpha   90.00000000
_cell_angle_beta   90.00000000
_cell_angle_gamma   150.22366872
_symmetry_Int_Tables_number   1
_chemical_formula_structural   CsEuMnTe3
_chemical_formula_sum   'Cs2 Eu2 Mn2 Te6'
_cell_volume   488.08073691
_cell_formula_units_Z   2
loop_
 _symmetry_equiv_pos_site_id
 _symmetry_equiv_pos_as_xyz
  1  'x, y, z'
loop_
 _atom_site_type_symbol
 _atom_site_label
 _atom_site_symmetry_multiplicity
 _atom_site_fract_x
 _atom_site_fract_y
 _atom_site_fract_z
 _atom_site_occupancy
  Cs  Cs0  1  0.257159  0.742841  0.250000  1
  Cs  Cs1  1  0.742841  0.257159  0.750000  1
  Eu  Eu2  1  0.000000  0.000000  0.000000  1
  Eu  Eu3  1  0.000000  0.000000  0.500000  1
  Mn  Mn4  1  0.537795  0.462205  0.250000  1
  Mn  Mn5  1  0.462205  0.537795  0.750000  1
  Te  Te6  1  0.621416  0.378584  0.069477  1
  Te  Te7  1  0.378584  0.621416  0.930523  1
  Te  Te8  1  0.378584  0.621416  0.569477  1
  Te  Te9  1  0.621416  0.378584  0.430523  1
  Te  Te10  1  0.946363  0.053637  0.250000  1
  Te  Te11  1  0.053637  0.946363  0.750000  1
