# generated using pymatgen
data_V12Si3Ru
_symmetry_space_group_name_H-M   'P 1'
_cell_length_a   4.72552300
_cell_length_b   4.71416500
_cell_length_c   9.42809700
_cell_angle_alpha   90.00000000
_cell_angle_beta   90.00000000
_cell_angle_gamma   90.00000000
_symmetry_Int_Tables_number   1
_chemical_formula_structural   V12Si3Ru
_chemical_formula_sum   'V12 Si3 Ru1'
_cell_volume   210.02872818
_cell_formula_units_Z   1
loop_
 _symmetry_equiv_pos_site_id
 _symmetry_equiv_pos_as_xyz
  1  'x, y, z'
loop_
 _atom_site_type_symbol
 _atom_site_label
 _atom_site_symmetry_multiplicity
 _atom_site_fract_x
 _atom_site_fract_y
 _atom_site_fract_z
 _atom_site_occupancy
  V  V0  1  0.000000  0.500000  0.122243  1
  V  V1  1  0.000000  0.500000  0.629119  1
  V  V2  1  0.500000  0.249502  0.748335  1
  V  V3  1  0.500000  0.249502  0.251665  1
  V  V4  1  0.751014  0.000000  0.000000  1
  V  V5  1  0.753461  0.000000  0.500000  1
  V  V6  1  0.000000  0.500000  0.877757  1
  V  V7  1  0.000000  0.500000  0.370881  1
  V  V8  1  0.500000  0.750498  0.748335  1
  V  V9  1  0.500000  0.750498  0.251665  1
  V  V10  1  0.248986  0.000000  0.000000  1
  V  V11  1  0.246539  0.000000  0.500000  1
  Si  Si12  1  0.500000  0.500000  0.500000  1
  Si  Si13  1  0.000000  0.000000  0.747415  1
  Si  Si14  1  0.000000  0.000000  0.252585  1
  Ru  Ru15  1  0.500000  0.500000  0.000000  1
