# generated using pymatgen
data_Ca3Ho(Ru2O7)2
_symmetry_space_group_name_H-M   'P 1'
_cell_length_a   7.26724407
_cell_length_b   7.27677228
_cell_length_c   7.26724400
_cell_angle_alpha   60.04330550
_cell_angle_beta   60.00000032
_cell_angle_gamma   60.04331064
_symmetry_Int_Tables_number   1
_chemical_formula_structural   Ca3Ho(Ru2O7)2
_chemical_formula_sum   'Ca3 Ho1 Ru4 O14'
_cell_volume   271.92382181
_cell_formula_units_Z   1
loop_
 _symmetry_equiv_pos_site_id
 _symmetry_equiv_pos_as_xyz
  1  'x, y, z'
loop_
 _atom_site_type_symbol
 _atom_site_label
 _atom_site_symmetry_multiplicity
 _atom_site_fract_x
 _atom_site_fract_y
 _atom_site_fract_z
 _atom_site_occupancy
  Ca  Ca0  1  0.625000  0.625000  0.125000  1
  Ca  Ca1  1  0.125000  0.625000  0.625000  1
  Ca  Ca2  1  0.625000  0.625000  0.625000  1
  Ho  Ho3  1  0.625000  0.125000  0.625000  1
  Ru  Ru4  1  0.625000  0.125000  0.125000  1
  Ru  Ru5  1  0.125000  0.625000  0.125000  1
  Ru  Ru6  1  0.125000  0.125000  0.625000  1
  Ru  Ru7  1  0.125000  0.125000  0.125000  1
  O  O8  1  0.204324  0.197009  0.799333  1
  O  O9  1  0.194364  0.807577  0.194364  1
  O  O10  1  0.450667  0.052991  0.045676  1
  O  O11  1  0.194364  0.807577  0.803696  1
  O  O12  1  0.055636  0.442423  0.446304  1
  O  O13  1  0.803696  0.807577  0.194364  1
  O  O14  1  0.446304  0.442423  0.055636  1
  O  O15  1  0.503396  0.489813  0.503396  1
  O  O16  1  0.045676  0.052991  0.450667  1
  O  O17  1  0.450667  0.052991  0.450667  1
  O  O18  1  0.055636  0.442423  0.055636  1
  O  O19  1  0.746604  0.760187  0.746604  1
  O  O20  1  0.799333  0.197009  0.799333  1
  O  O21  1  0.799333  0.197009  0.204324  1
