# generated using pymatgen
data_TbHo3Mn4(Co4P3)4
_symmetry_space_group_name_H-M   'P 1'
_cell_length_a   3.64637300
_cell_length_b   10.30511403
_cell_length_c   11.79075804
_cell_angle_alpha   90.00902628
_cell_angle_beta   90.00000000
_cell_angle_gamma   90.00000000
_symmetry_Int_Tables_number   1
_chemical_formula_structural   TbHo3Mn4(Co4P3)4
_chemical_formula_sum   'Tb1 Ho3 Mn4 Co16 P12'
_cell_volume   443.05293271
_cell_formula_units_Z   1
loop_
 _symmetry_equiv_pos_site_id
 _symmetry_equiv_pos_as_xyz
  1  'x, y, z'
loop_
 _atom_site_type_symbol
 _atom_site_label
 _atom_site_symmetry_multiplicity
 _atom_site_fract_x
 _atom_site_fract_y
 _atom_site_fract_z
 _atom_site_occupancy
  Tb  Tb0  1  0.250000  0.582153  0.704185  1
  Ho  Ho1  1  0.250000  0.917965  0.204171  1
  Ho  Ho2  1  0.750000  0.417874  0.295889  1
  Ho  Ho3  1  0.750000  0.081945  0.795811  1
  Mn  Mn4  1  0.250000  0.710516  0.988929  1
  Mn  Mn5  1  0.250000  0.789624  0.488609  1
  Mn  Mn6  1  0.750000  0.289665  0.011298  1
  Mn  Mn7  1  0.750000  0.210440  0.510949  1
  Co  Co8  1  0.250000  0.406358  0.487464  1
  Co  Co9  1  0.250000  0.093275  0.987709  1
  Co  Co10  1  0.750000  0.593284  0.511361  1
  Co  Co11  1  0.750000  0.906687  0.012404  1
  Co  Co12  1  0.250000  0.220843  0.176882  1
  Co  Co13  1  0.250000  0.278826  0.676543  1
  Co  Co14  1  0.750000  0.779628  0.823479  1
  Co  Co15  1  0.750000  0.721147  0.323128  1
  Co  Co16  1  0.250000  0.884045  0.698931  1
  Co  Co17  1  0.250000  0.616519  0.199155  1
  Co  Co18  1  0.750000  0.116371  0.300968  1
  Co  Co19  1  0.750000  0.382764  0.801397  1
  Co  Co20  1  0.250000  0.465717  0.932879  1
  Co  Co21  1  0.250000  0.034017  0.432118  1
  Co  Co22  1  0.750000  0.533997  0.068157  1
  Co  Co23  1  0.750000  0.966451  0.567511  1
  P  P24  1  0.250000  0.418758  0.113075  1
  P  P25  1  0.250000  0.081402  0.612489  1
  P  P26  1  0.750000  0.581289  0.888101  1
  P  P27  1  0.750000  0.918806  0.387252  1
  P  P28  1  0.250000  0.269302  0.867828  1
  P  P29  1  0.250000  0.230484  0.368039  1
  P  P30  1  0.750000  0.730684  0.132053  1
  P  P31  1  0.750000  0.770445  0.631635  1
  P  P32  1  0.250000  0.600346  0.391097  1
  P  P33  1  0.250000  0.899701  0.891171  1
  P  P34  1  0.750000  0.398638  0.608318  1
  P  P35  1  0.750000  0.100035  0.109016  1
