# generated using pymatgen
data_Ag5(AsO5)2
_symmetry_space_group_name_H-M   'P 1'
_cell_length_a   5.77325747
_cell_length_b   6.14457439
_cell_length_c   8.31056203
_cell_angle_alpha   98.74835487
_cell_angle_beta   90.38459845
_cell_angle_gamma   112.53225097
_symmetry_Int_Tables_number   1
_chemical_formula_structural   Ag5(AsO5)2
_chemical_formula_sum   'Ag5 As2 O10'
_cell_volume   268.45493978
_cell_formula_units_Z   1
loop_
 _symmetry_equiv_pos_site_id
 _symmetry_equiv_pos_as_xyz
  1  'x, y, z'
loop_
 _atom_site_type_symbol
 _atom_site_label
 _atom_site_symmetry_multiplicity
 _atom_site_fract_x
 _atom_site_fract_y
 _atom_site_fract_z
 _atom_site_occupancy
  Ag  Ag0  1  0.297908  0.666993  0.032677  1
  Ag  Ag1  1  0.702092  0.333007  0.967323  1
  Ag  Ag2  1  0.897635  0.718223  0.378558  1
  Ag  Ag3  1  0.102365  0.281777  0.621442  1
  Ag  Ag4  1  0.000000  0.000000  0.000000  1
  As  As5  1  0.557273  0.835689  0.708911  1
  As  As6  1  0.442727  0.164311  0.291089  1
  O  O7  1  0.958504  0.597126  0.139648  1
  O  O8  1  0.041496  0.402874  0.860352  1
  O  O9  1  0.477573  0.077155  0.771534  1
  O  O10  1  0.522427  0.922845  0.228466  1
  O  O11  1  0.618328  0.730173  0.884129  1
  O  O12  1  0.381672  0.269827  0.115871  1
  O  O13  1  0.323956  0.627224  0.575794  1
  O  O14  1  0.159197  0.081702  0.386900  1
  O  O15  1  0.840803  0.918298  0.613100  1
  O  O16  1  0.676044  0.372776  0.424206  1
