# generated using pymatgen
data_Ce2SiPRh4
_symmetry_space_group_name_H-M   'P 1'
_cell_length_a   9.49381530
_cell_length_b   9.49381531
_cell_length_c   3.97566400
_cell_angle_alpha   90.00000000
_cell_angle_beta   90.00000000
_cell_angle_gamma   156.13480000
_symmetry_Int_Tables_number   1
_chemical_formula_structural   Ce2SiPRh4
_chemical_formula_sum   'Ce2 Si1 P1 Rh4'
_cell_volume   144.97807014
_cell_formula_units_Z   1
loop_
 _symmetry_equiv_pos_site_id
 _symmetry_equiv_pos_as_xyz
  1  'x, y, z'
loop_
 _atom_site_type_symbol
 _atom_site_label
 _atom_site_symmetry_multiplicity
 _atom_site_fract_x
 _atom_site_fract_y
 _atom_site_fract_z
 _atom_site_occupancy
  Ce  Ce0  1  0.101842  0.898158  0.750000  1
  Ce  Ce1  1  0.900620  0.099380  0.250000  1
  Si  Si2  1  0.321602  0.678398  0.750000  1
  P  P3  1  0.678571  0.321429  0.250000  1
  Rh  Rh4  1  0.553615  0.446385  0.250000  1
  Rh  Rh5  1  0.448962  0.551038  0.750000  1
  Rh  Rh6  1  0.247437  0.752563  0.250000  1
  Rh  Rh7  1  0.747350  0.252650  0.750000  1
