# generated using pymatgen
data_Lu4Co3Si4Rh
_symmetry_space_group_name_H-M   'P 1'
_cell_length_a   4.12532300
_cell_length_b   6.70064663
_cell_length_c   7.08540392
_cell_angle_alpha   90.18781155
_cell_angle_beta   90.00000000
_cell_angle_gamma   90.00000000
_symmetry_Int_Tables_number   1
_chemical_formula_structural   Lu4Co3Si4Rh
_chemical_formula_sum   'Lu4 Co3 Si4 Rh1'
_cell_volume   195.85603274
_cell_formula_units_Z   1
loop_
 _symmetry_equiv_pos_site_id
 _symmetry_equiv_pos_as_xyz
  1  'x, y, z'
loop_
 _atom_site_type_symbol
 _atom_site_label
 _atom_site_symmetry_multiplicity
 _atom_site_fract_x
 _atom_site_fract_y
 _atom_site_fract_z
 _atom_site_occupancy
  Lu  Lu0  1  0.250000  0.995694  0.802405  1
  Lu  Lu1  1  0.750000  0.004627  0.195373  1
  Lu  Lu2  1  0.250000  0.486788  0.690793  1
  Lu  Lu3  1  0.750000  0.504500  0.311692  1
  Co  Co4  1  0.750000  0.847052  0.569461  1
  Co  Co5  1  0.250000  0.158498  0.433758  1
  Co  Co6  1  0.750000  0.347526  0.933847  1
  Si  Si7  1  0.250000  0.292404  0.101602  1
  Si  Si8  1  0.750000  0.700820  0.884130  1
  Si  Si9  1  0.250000  0.803228  0.407284  1
  Si  Si10  1  0.750000  0.199456  0.601994  1
  Rh  Rh11  1  0.250000  0.659407  0.067660  1
