# generated using pymatgen
data_Cs7TaIn3As5
_symmetry_space_group_name_H-M   'P 1'
_cell_length_a   9.02173783
_cell_length_b   9.89453386
_cell_length_c   15.09583601
_cell_angle_alpha   85.39124114
_cell_angle_beta   85.11895152
_cell_angle_gamma   85.64228081
_symmetry_Int_Tables_number   1
_chemical_formula_structural   Cs7TaIn3As5
_chemical_formula_sum   'Cs14 Ta2 In6 As10'
_cell_volume   1335.06743109
_cell_formula_units_Z   2
loop_
 _symmetry_equiv_pos_site_id
 _symmetry_equiv_pos_as_xyz
  1  'x, y, z'
loop_
 _atom_site_type_symbol
 _atom_site_label
 _atom_site_symmetry_multiplicity
 _atom_site_fract_x
 _atom_site_fract_y
 _atom_site_fract_z
 _atom_site_occupancy
  Cs  Cs0  1  0.814622  0.814326  0.130559  1
  Cs  Cs1  1  0.185378  0.185674  0.869441  1
  Cs  Cs2  1  0.271887  0.254234  0.251679  1
  Cs  Cs3  1  0.728113  0.745766  0.748321  1
  Cs  Cs4  1  0.743580  0.501279  0.975554  1
  Cs  Cs5  1  0.256420  0.498721  0.024446  1
  Cs  Cs6  1  0.687863  0.081942  0.884603  1
  Cs  Cs7  1  0.312137  0.918058  0.115397  1
  Cs  Cs8  1  0.684351  0.659908  0.397116  1
  Cs  Cs9  1  0.315649  0.340092  0.602884  1
  Cs  Cs10  1  0.758104  0.991480  0.531736  1
  Cs  Cs11  1  0.241896  0.008520  0.468264  1
  Cs  Cs12  1  0.827670  0.370163  0.641273  1
  Cs  Cs13  1  0.172330  0.629837  0.358727  1
  Ta  Ta14  1  0.647328  0.393224  0.227728  1
  Ta  Ta15  1  0.352672  0.606776  0.772272  1
  In  In16  1  0.907546  0.274837  0.374624  1
  In  In17  1  0.092454  0.725163  0.625376  1
  In  In18  1  0.938216  0.186649  0.133655  1
  In  In19  1  0.061784  0.813351  0.866345  1
  In  In20  1  0.638318  0.051711  0.295822  1
  In  In21  1  0.361682  0.948289  0.704178  1
  As  As22  1  0.487714  0.595742  0.191923  1
  As  As23  1  0.512286  0.404258  0.808077  1
  As  As24  1  0.915965  0.449442  0.212138  1
  As  As25  1  0.084035  0.550558  0.787862  1
  As  As26  1  0.589468  0.297944  0.387387  1
  As  As27  1  0.410532  0.702056  0.612613  1
  As  As28  1  0.623127  0.203860  0.125770  1
  As  As29  1  0.376873  0.796140  0.874230  1
  As  As30  1  0.963141  0.007551  0.298371  1
  As  As31  1  0.036859  0.992449  0.701629  1
