# generated using pymatgen
data_Li3La4ZnIr4
_symmetry_space_group_name_H-M   'P 1'
_cell_length_a   7.18693850
_cell_length_b   4.08412100
_cell_length_c   8.57106284
_cell_angle_alpha   90.00000000
_cell_angle_beta   89.55059761
_cell_angle_gamma   90.00000000
_symmetry_Int_Tables_number   1
_chemical_formula_structural   Li3La4ZnIr4
_chemical_formula_sum   'Li3 La4 Zn1 Ir4'
_cell_volume   251.57289593
_cell_formula_units_Z   1
loop_
 _symmetry_equiv_pos_site_id
 _symmetry_equiv_pos_as_xyz
  1  'x, y, z'
loop_
 _atom_site_type_symbol
 _atom_site_label
 _atom_site_symmetry_multiplicity
 _atom_site_fract_x
 _atom_site_fract_y
 _atom_site_fract_z
 _atom_site_occupancy
  Li  Li0  1  0.626346  0.250000  0.553920  1
  Li  Li1  1  0.122243  0.250000  0.947438  1
  Li  Li2  1  0.375384  0.750000  0.447863  1
  La  La3  1  0.042256  0.250000  0.316081  1
  La  La4  1  0.543897  0.250000  0.179743  1
  La  La5  1  0.958624  0.750000  0.681792  1
  La  La6  1  0.454676  0.750000  0.821790  1
  Zn  Zn7  1  0.876657  0.750000  0.054632  1
  Ir  Ir8  1  0.242369  0.250000  0.629760  1
  Ir  Ir9  1  0.750277  0.250000  0.879865  1
  Ir  Ir10  1  0.757902  0.750000  0.364106  1
  Ir  Ir11  1  0.249371  0.750000  0.123008  1
