# generated using pymatgen
data_Tm8Nb12Si15Sn
_symmetry_space_group_name_H-M   'P 1'
_cell_length_a   6.87410401
_cell_length_b   7.05673989
_cell_length_c   13.46405839
_cell_angle_alpha   89.85375030
_cell_angle_beta   90.25065156
_cell_angle_gamma   90.01927445
_symmetry_Int_Tables_number   1
_chemical_formula_structural   Tm8Nb12Si15Sn
_chemical_formula_sum   'Tm8 Nb12 Si15 Sn1'
_cell_volume   653.11641793
_cell_formula_units_Z   1
loop_
 _symmetry_equiv_pos_site_id
 _symmetry_equiv_pos_as_xyz
  1  'x, y, z'
loop_
 _atom_site_type_symbol
 _atom_site_label
 _atom_site_symmetry_multiplicity
 _atom_site_fract_x
 _atom_site_fract_y
 _atom_site_fract_z
 _atom_site_occupancy
  Tm  Tm0  1  0.496923  0.668007  0.599544  1
  Tm  Tm1  1  0.001315  0.827854  0.904543  1
  Tm  Tm2  1  0.497454  0.327112  0.094019  1
  Tm  Tm3  1  0.011788  0.181073  0.400556  1
  Tm  Tm4  1  0.496804  0.334616  0.402651  1
  Tm  Tm5  1  0.997723  0.172181  0.094388  1
  Tm  Tm6  1  0.502069  0.673658  0.905083  1
  Tm  Tm7  1  0.006706  0.822915  0.600541  1
  Nb  Nb8  1  0.656423  0.184707  0.631709  1
  Nb  Nb9  1  0.159366  0.323955  0.875629  1
  Nb  Nb10  1  0.337320  0.824636  0.124297  1
  Nb  Nb11  1  0.848126  0.660131  0.369165  1
  Nb  Nb12  1  0.330828  0.822510  0.372081  1
  Nb  Nb13  1  0.837917  0.673918  0.124175  1
  Nb  Nb14  1  0.662374  0.175146  0.875347  1
  Nb  Nb15  1  0.161079  0.327378  0.627686  1
  Nb  Nb16  1  0.835141  0.493876  0.751316  1
  Nb  Nb17  1  0.335675  0.008066  0.751360  1
  Nb  Nb18  1  0.163927  0.506131  0.248461  1
  Nb  Nb19  1  0.663587  0.990732  0.243731  1
  Si  Si20  1  0.164001  0.535654  0.040001  1
  Si  Si21  1  0.335438  0.035612  0.959180  1
  Si  Si22  1  0.834176  0.462587  0.539618  1
  Si  Si23  1  0.326156  0.038925  0.541987  1
  Si  Si24  1  0.834423  0.464414  0.959716  1
  Si  Si25  1  0.664189  0.963351  0.039282  1
  Si  Si26  1  0.167096  0.538558  0.462267  1
  Si  Si27  1  0.454547  0.380205  0.754063  1
  Si  Si28  1  0.957198  0.122021  0.750866  1
  Si  Si29  1  0.542420  0.622484  0.248654  1
  Si  Si30  1  0.040946  0.879553  0.247879  1
  Si  Si31  1  0.703060  0.871631  0.751056  1
  Si  Si32  1  0.202978  0.628972  0.752927  1
  Si  Si33  1  0.298922  0.128920  0.248191  1
  Si  Si34  1  0.794403  0.365756  0.247188  1
  Sn  Sn35  1  0.677503  0.962759  0.460843  1
