# generated using pymatgen
data_Yb8Si13Pd3
_symmetry_space_group_name_H-M   'P 1'
_cell_length_a   8.22303700
_cell_length_b   8.22303717
_cell_length_c   8.32402100
_cell_angle_alpha   90.00003484
_cell_angle_beta   89.99995819
_cell_angle_gamma   119.99998725
_symmetry_Int_Tables_number   1
_chemical_formula_structural   Yb8Si13Pd3
_chemical_formula_sum   'Yb8 Si13 Pd3'
_cell_volume   487.44806690
_cell_formula_units_Z   1
loop_
 _symmetry_equiv_pos_site_id
 _symmetry_equiv_pos_as_xyz
  1  'x, y, z'
loop_
 _atom_site_type_symbol
 _atom_site_label
 _atom_site_symmetry_multiplicity
 _atom_site_fract_x
 _atom_site_fract_y
 _atom_site_fract_z
 _atom_site_occupancy
  Yb  Yb0  1  0.499670  0.999339  0.254220  1
  Yb  Yb1  1  0.499846  0.999692  0.745733  1
  Yb  Yb2  1  0.000661  0.500331  0.254219  1
  Yb  Yb3  1  0.000308  0.500153  0.745733  1
  Yb  Yb4  1  0.499670  0.500331  0.254219  1
  Yb  Yb5  1  0.499847  0.500154  0.745732  1
  Yb  Yb6  1  0.000000  0.000000  0.252599  1
  Yb  Yb7  1  0.000000  0.000000  0.747567  1
  Si  Si8  1  0.162279  0.324559  0.000264  1
  Si  Si9  1  0.833355  0.666711  0.999850  1
  Si  Si10  1  0.675441  0.837721  0.000264  1
  Si  Si11  1  0.835274  0.670550  0.499834  1
  Si  Si12  1  0.333290  0.166645  0.999850  1
  Si  Si13  1  0.164122  0.328244  0.500160  1
  Si  Si14  1  0.162279  0.837721  0.000263  1
  Si  Si15  1  0.329450  0.164725  0.499835  1
  Si  Si16  1  0.833355  0.166645  0.999850  1
  Si  Si17  1  0.671755  0.835878  0.500160  1
  Si  Si18  1  0.835275  0.164725  0.499835  1
  Si  Si19  1  0.164122  0.835878  0.500160  1
  Si  Si20  1  0.333333  0.666667  0.999557  1
  Pd  Pd21  1  0.666667  0.333334  0.999906  1
  Pd  Pd22  1  0.666666  0.333333  0.499846  1
  Pd  Pd23  1  0.333333  0.666667  0.500342  1
