# generated using pymatgen
data_Hf7Sc2Re4P
_symmetry_space_group_name_H-M   'P 1'
_cell_length_a   8.57952501
_cell_length_b   8.57952476
_cell_length_c   8.58606600
_cell_angle_alpha   90.00000000
_cell_angle_beta   90.00000000
_cell_angle_gamma   119.92150643
_symmetry_Int_Tables_number   1
_chemical_formula_structural   Hf7Sc2Re4P
_chemical_formula_sum   'Hf14 Sc4 Re8 P2'
_cell_volume   547.76501911
_cell_formula_units_Z   2
loop_
 _symmetry_equiv_pos_site_id
 _symmetry_equiv_pos_as_xyz
  1  'x, y, z'
loop_
 _atom_site_type_symbol
 _atom_site_label
 _atom_site_symmetry_multiplicity
 _atom_site_fract_x
 _atom_site_fract_y
 _atom_site_fract_z
 _atom_site_occupancy
  Hf  Hf0  1  0.195811  0.804189  0.452306  1
  Hf  Hf1  1  0.195503  0.390533  0.451654  1
  Hf  Hf2  1  0.609467  0.804497  0.451654  1
  Hf  Hf3  1  0.804420  0.195580  0.547965  1
  Hf  Hf4  1  0.804201  0.608831  0.548133  1
  Hf  Hf5  1  0.391169  0.195799  0.548133  1
  Hf  Hf6  1  0.804420  0.195580  0.952035  1
  Hf  Hf7  1  0.804201  0.608831  0.951867  1
  Hf  Hf8  1  0.391169  0.195799  0.951867  1
  Hf  Hf9  1  0.195811  0.804189  0.047694  1
  Hf  Hf10  1  0.195503  0.390533  0.048346  1
  Hf  Hf11  1  0.609467  0.804497  0.048346  1
  Hf  Hf12  1  0.459497  0.919165  0.750000  1
  Hf  Hf13  1  0.080835  0.540503  0.750000  1
  Sc  Sc14  1  0.540611  0.459389  0.250000  1
  Sc  Sc15  1  0.540403  0.081000  0.250000  1
  Sc  Sc16  1  0.919000  0.459597  0.250000  1
  Sc  Sc17  1  0.458185  0.541815  0.750000  1
  Re  Re18  1  0.890453  0.109547  0.250000  1
  Re  Re19  1  0.890460  0.780751  0.250000  1
  Re  Re20  1  0.219249  0.109540  0.250000  1
  Re  Re21  1  0.108747  0.891253  0.750000  1
  Re  Re22  1  0.108895  0.219094  0.750000  1
  Re  Re23  1  0.780906  0.891105  0.750000  1
  Re  Re24  1  0.000267  0.999733  0.499410  1
  Re  Re25  1  0.000267  0.999733  0.000590  1
  P  P26  1  0.333459  0.666541  0.250000  1
  P  P27  1  0.667621  0.332379  0.750000  1
