# generated using pymatgen
data_Ho5Tm11In4OsRh3
_symmetry_space_group_name_H-M   'P 1'
_cell_length_a   9.55510976
_cell_length_b   9.55688610
_cell_length_c   9.58430700
_cell_angle_alpha   59.99925541
_cell_angle_beta   59.93536017
_cell_angle_gamma   59.81757558
_symmetry_Int_Tables_number   1
_chemical_formula_structural   Ho5Tm11In4OsRh3
_chemical_formula_sum   'Ho5 Tm11 In4 Os1 Rh3'
_cell_volume   617.70486063
_cell_formula_units_Z   1
loop_
 _symmetry_equiv_pos_site_id
 _symmetry_equiv_pos_as_xyz
  1  'x, y, z'
loop_
 _atom_site_type_symbol
 _atom_site_label
 _atom_site_symmetry_multiplicity
 _atom_site_fract_x
 _atom_site_fract_y
 _atom_site_fract_z
 _atom_site_occupancy
  Ho  Ho0  1  0.058449  0.058693  0.436874  1
  Ho  Ho1  1  0.445592  0.058946  0.436576  1
  Ho  Ho2  1  0.062492  0.437740  0.061582  1
  Ho  Ho3  1  0.049514  0.648917  0.650106  1
  Ho  Ho4  1  0.438037  0.437554  0.061498  1
  Tm  Tm5  1  0.649224  0.048847  0.650100  1
  Tm  Tm6  1  0.188075  0.810931  0.191959  1
  Tm  Tm7  1  0.190204  0.190081  0.810662  1
  Tm  Tm8  1  0.809354  0.809855  0.193145  1
  Tm  Tm9  1  0.439299  0.060917  0.059929  1
  Tm  Tm10  1  0.810632  0.188122  0.192283  1
  Tm  Tm11  1  0.058042  0.446359  0.437359  1
  Tm  Tm12  1  0.809862  0.191285  0.809673  1
  Tm  Tm13  1  0.191057  0.810505  0.809940  1
  Tm  Tm14  1  0.649870  0.649611  0.048462  1
  Tm  Tm15  1  0.650978  0.650750  0.650940  1
  In  In16  1  0.417343  0.417620  0.415510  1
  In  In17  1  0.749871  0.417577  0.415549  1
  In  In18  1  0.417817  0.749724  0.414936  1
  In  In19  1  0.418060  0.416879  0.747836  1
  Os  Os20  1  0.856787  0.857366  0.426870  1
  Rh  Rh21  1  0.857083  0.859529  0.860470  1
  Rh  Rh22  1  0.424368  0.858624  0.858922  1
  Rh  Rh23  1  0.857993  0.423570  0.858824  1
