# generated using pymatgen
data_Ti6CrRh5
_symmetry_space_group_name_H-M   'P 1'
_cell_length_a   5.38229202
_cell_length_b   7.62635162
_cell_length_c   4.33446100
_cell_angle_alpha   90.00001503
_cell_angle_beta   90.00000000
_cell_angle_gamma   88.36535574
_symmetry_Int_Tables_number   1
_chemical_formula_structural   Ti6CrRh5
_chemical_formula_sum   'Ti6 Cr1 Rh5'
_cell_volume   177.84530699
_cell_formula_units_Z   1
loop_
 _symmetry_equiv_pos_site_id
 _symmetry_equiv_pos_as_xyz
  1  'x, y, z'
loop_
 _atom_site_type_symbol
 _atom_site_label
 _atom_site_symmetry_multiplicity
 _atom_site_fract_x
 _atom_site_fract_y
 _atom_site_fract_z
 _atom_site_occupancy
  Ti  Ti0  1  0.110898  0.277657  0.000000  1
  Ti  Ti1  1  0.453905  0.600966  0.000000  1
  Ti  Ti2  1  0.768673  0.954537  0.000000  1
  Ti  Ti3  1  0.451254  0.119163  0.500000  1
  Ti  Ti4  1  0.771068  0.436606  0.500000  1
  Ti  Ti5  1  0.110959  0.777278  0.500000  1
  Cr  Cr6  1  0.610708  0.277865  0.000000  1
  Rh  Rh7  1  0.947601  0.611430  0.000000  1
  Rh  Rh8  1  0.275408  0.943903  0.000000  1
  Rh  Rh9  1  0.946679  0.110490  0.500000  1
  Rh  Rh10  1  0.275021  0.445656  0.500000  1
  Rh  Rh11  1  0.611038  0.777761  0.500000  1
