# generated using pymatgen
data_TbY5(CI5)2
_symmetry_space_group_name_H-M   'P 1'
_cell_length_a   7.69282196
_cell_length_b   9.55525079
_cell_length_c   9.62751715
_cell_angle_alpha   106.93507697
_cell_angle_beta   96.58401624
_cell_angle_gamma   104.38200705
_symmetry_Int_Tables_number   1
_chemical_formula_structural   TbY5(CI5)2
_chemical_formula_sum   'Tb1 Y5 C2 I10'
_cell_volume   642.28999498
_cell_formula_units_Z   1
loop_
 _symmetry_equiv_pos_site_id
 _symmetry_equiv_pos_as_xyz
  1  'x, y, z'
loop_
 _atom_site_type_symbol
 _atom_site_label
 _atom_site_symmetry_multiplicity
 _atom_site_fract_x
 _atom_site_fract_y
 _atom_site_fract_z
 _atom_site_occupancy
  Tb  Tb0  1  0.103177  0.038245  0.781963  1
  Y  Y1  1  0.372844  0.131652  0.177032  1
  Y  Y2  1  0.897257  0.961929  0.217591  1
  Y  Y3  1  0.028032  0.743697  0.925853  1
  Y  Y4  1  0.971862  0.256251  0.074372  1
  Y  Y5  1  0.627140  0.868337  0.823018  1
  C  C6  1  0.908860  0.970189  0.958909  1
  C  C7  1  0.091097  0.029813  0.041005  1
  I  I8  1  0.194314  0.737365  0.651242  1
  I  I9  1  0.086651  0.363781  0.822863  1
  I  I10  1  0.456545  0.811249  0.093141  1
  I  I11  1  0.254250  0.084686  0.457565  1
  I  I12  1  0.543401  0.188734  0.906929  1
  I  I13  1  0.805693  0.262392  0.348766  1
  I  I14  1  0.344776  0.451964  0.272461  1
  I  I15  1  0.913293  0.636423  0.177244  1
  I  I16  1  0.655202  0.548034  0.727576  1
  I  I17  1  0.745607  0.915259  0.542471  1
