# generated using pymatgen
data_Cs(PuS2)2
_symmetry_space_group_name_H-M   'P 1'
_cell_length_a   8.93942736
_cell_length_b   8.93942584
_cell_length_c   6.94184108
_cell_angle_alpha   75.40961552
_cell_angle_beta   75.40961664
_cell_angle_gamma   26.39653459
_symmetry_Int_Tables_number   1
_chemical_formula_structural   Cs(PuS2)2
_chemical_formula_sum   'Cs1 Pu2 S4'
_cell_volume   238.23086424
_cell_formula_units_Z   1
loop_
 _symmetry_equiv_pos_site_id
 _symmetry_equiv_pos_as_xyz
  1  'x, y, z'
loop_
 _atom_site_type_symbol
 _atom_site_label
 _atom_site_symmetry_multiplicity
 _atom_site_fract_x
 _atom_site_fract_y
 _atom_site_fract_z
 _atom_site_occupancy
  Cs  Cs0  1  0.500000  0.500000  0.500000  1
  Pu  Pu1  1  0.756126  0.756126  0.242507  1
  Pu  Pu2  1  0.243874  0.243874  0.757493  1
  S  S3  1  0.336163  0.336163  0.019327  1
  S  S4  1  0.663837  0.663837  0.980673  1
  S  S5  1  0.830747  0.830747  0.541207  1
  S  S6  1  0.169253  0.169253  0.458793  1
