# generated using pymatgen
data_PrY2Fe(Co4P3)2
_symmetry_space_group_name_H-M   'P 1'
_cell_length_a   3.73376500
_cell_length_b   10.60347400
_cell_length_c   12.27105300
_cell_angle_alpha   90.00000000
_cell_angle_beta   90.00000000
_cell_angle_gamma   90.00000000
_symmetry_Int_Tables_number   1
_chemical_formula_structural   PrY2Fe(Co4P3)2
_chemical_formula_sum   'Pr2 Y4 Fe2 Co16 P12'
_cell_volume   485.82178802
_cell_formula_units_Z   2
loop_
 _symmetry_equiv_pos_site_id
 _symmetry_equiv_pos_as_xyz
  1  'x, y, z'
loop_
 _atom_site_type_symbol
 _atom_site_label
 _atom_site_symmetry_multiplicity
 _atom_site_fract_x
 _atom_site_fract_y
 _atom_site_fract_z
 _atom_site_occupancy
  Pr  Pr0  1  0.000000  0.500000  0.522453  1
  Pr  Pr1  1  0.500000  0.000000  0.477547  1
  Y  Y2  1  0.500000  0.817748  0.203910  1
  Y  Y3  1  0.500000  0.182252  0.203910  1
  Y  Y4  1  0.000000  0.682252  0.796090  1
  Y  Y5  1  0.000000  0.317748  0.796090  1
  Fe  Fe6  1  0.500000  0.500000  0.154343  1
  Fe  Fe7  1  0.000000  0.000000  0.845657  1
  Co  Co8  1  0.500000  0.500000  0.705517  1
  Co  Co9  1  0.000000  0.000000  0.294483  1
  Co  Co10  1  0.000000  0.500000  0.986542  1
  Co  Co11  1  0.500000  0.000000  0.013458  1
  Co  Co12  1  0.500000  0.333020  0.994806  1
  Co  Co13  1  0.500000  0.666980  0.994806  1
  Co  Co14  1  0.000000  0.166980  0.005194  1
  Co  Co15  1  0.000000  0.833020  0.005194  1
  Co  Co16  1  0.500000  0.296174  0.429113  1
  Co  Co17  1  0.500000  0.703826  0.429113  1
  Co  Co18  1  0.000000  0.203826  0.570887  1
  Co  Co19  1  0.000000  0.796174  0.570887  1
  Co  Co20  1  0.500000  0.879490  0.712550  1
  Co  Co21  1  0.500000  0.120510  0.712550  1
  Co  Co22  1  0.000000  0.620510  0.287450  1
  Co  Co23  1  0.000000  0.379490  0.287450  1
  P  P24  1  0.500000  0.500000  0.883857  1
  P  P25  1  0.000000  0.000000  0.116143  1
  P  P26  1  0.500000  0.500000  0.337406  1
  P  P27  1  0.000000  0.000000  0.662594  1
  P  P28  1  0.500000  0.306359  0.617751  1
  P  P29  1  0.500000  0.693641  0.617751  1
  P  P30  1  0.000000  0.193641  0.382249  1
  P  P31  1  0.000000  0.806359  0.382249  1
  P  P32  1  0.500000  0.846977  0.894129  1
  P  P33  1  0.500000  0.153023  0.894129  1
  P  P34  1  0.000000  0.653023  0.105871  1
  P  P35  1  0.000000  0.346977  0.105871  1
