# generated using pymatgen
data_Au3BrO6
_symmetry_space_group_name_H-M   'P 1'
_cell_length_a   8.46616081
_cell_length_b   6.87995697
_cell_length_c   5.83538561
_cell_angle_alpha   83.97651472
_cell_angle_beta   53.55153389
_cell_angle_gamma   42.52368950
_symmetry_Int_Tables_number   1
_chemical_formula_structural   Au3BrO6
_chemical_formula_sum   'Au3 Br1 O6'
_cell_volume   146.09880894
_cell_formula_units_Z   1
loop_
 _symmetry_equiv_pos_site_id
 _symmetry_equiv_pos_as_xyz
  1  'x, y, z'
loop_
 _atom_site_type_symbol
 _atom_site_label
 _atom_site_symmetry_multiplicity
 _atom_site_fract_x
 _atom_site_fract_y
 _atom_site_fract_z
 _atom_site_occupancy
  Au  Au0  1  0.065086  0.843235  0.668774  1
  Au  Au1  1  0.406603  0.181490  0.821760  1
  Au  Au2  1  0.576633  0.832908  0.190083  1
  Br  Br3  1  0.442103  0.646873  0.819386  1
  O  O4  1  0.546753  0.461733  0.465433  1
  O  O5  1  0.789489  0.705420  0.712005  1
  O  O6  1  0.543701  0.289816  0.916390  1
  O  O7  1  0.227921  0.935175  0.322747  1
  O  O8  1  0.949192  0.715331  0.011379  1
  O  O9  1  0.316721  0.023820  0.707843  1
