# generated using pymatgen
data_Y2Ho2Ga18Co5Pt
_symmetry_space_group_name_H-M   'P 1'
_cell_length_a   7.42211663
_cell_length_b   7.42211441
_cell_length_c   9.42363300
_cell_angle_alpha   89.87933210
_cell_angle_beta   89.87933403
_cell_angle_gamma   119.76766593
_symmetry_Int_Tables_number   1
_chemical_formula_structural   Y2Ho2Ga18Co5Pt
_chemical_formula_sum   'Y2 Ho2 Ga18 Co5 Pt1'
_cell_volume   450.62220240
_cell_formula_units_Z   1
loop_
 _symmetry_equiv_pos_site_id
 _symmetry_equiv_pos_as_xyz
  1  'x, y, z'
loop_
 _atom_site_type_symbol
 _atom_site_label
 _atom_site_symmetry_multiplicity
 _atom_site_fract_x
 _atom_site_fract_y
 _atom_site_fract_z
 _atom_site_occupancy
  Y  Y0  1  0.328347  0.002991  0.748806  1
  Y  Y1  1  0.002991  0.328347  0.748806  1
  Ho  Ho2  1  0.671688  0.997047  0.251259  1
  Ho  Ho3  1  0.997047  0.671688  0.251259  1
  Ga  Ga4  1  0.655582  0.000429  0.924266  1
  Ga  Ga5  1  0.335201  0.997919  0.427591  1
  Ga  Ga6  1  0.997919  0.335201  0.427590  1
  Ga  Ga7  1  0.344458  0.999095  0.076812  1
  Ga  Ga8  1  0.000429  0.655582  0.924266  1
  Ga  Ga9  1  0.999095  0.344458  0.076812  1
  Ga  Ga10  1  0.333579  0.333579  0.557418  1
  Ga  Ga11  1  0.343797  0.343797  0.937549  1
  Ga  Ga12  1  0.656573  0.656573  0.063212  1
  Ga  Ga13  1  0.666853  0.666853  0.441781  1
  Ga  Ga14  1  0.870187  0.870187  0.741110  1
  Ga  Ga15  1  0.129189  0.129189  0.258867  1
  Ga  Ga16  1  0.335623  0.553040  0.251418  1
  Ga  Ga17  1  0.553040  0.335623  0.251418  1
  Ga  Ga18  1  0.664509  0.447728  0.748571  1
  Ga  Ga19  1  0.447728  0.664509  0.748571  1
  Ga  Ga20  1  0.664796  0.001604  0.571310  1
  Ga  Ga21  1  0.001604  0.664796  0.571309  1
  Co  Co22  1  0.329536  0.670493  0.000257  1
  Co  Co23  1  0.670868  0.329237  0.499726  1
  Co  Co24  1  0.670493  0.329536  0.000257  1
  Co  Co25  1  0.329237  0.670868  0.499726  1
  Co  Co26  1  0.999798  0.999798  0.499681  1
  Pt  Pt27  1  0.999832  0.999832  0.000354  1
