# generated using pymatgen
data_Dy2Sc3Si12Ir19
_symmetry_space_group_name_H-M   'P 1'
_cell_length_a   12.77431500
_cell_length_b   12.77431585
_cell_length_c   3.95508500
_cell_angle_alpha   90.00000000
_cell_angle_beta   90.00000000
_cell_angle_gamma   120.00000039
_symmetry_Int_Tables_number   1
_chemical_formula_structural   Dy2Sc3Si12Ir19
_chemical_formula_sum   'Dy2 Sc3 Si12 Ir19'
_cell_volume   558.93553689
_cell_formula_units_Z   1
loop_
 _symmetry_equiv_pos_site_id
 _symmetry_equiv_pos_as_xyz
  1  'x, y, z'
loop_
 _atom_site_type_symbol
 _atom_site_label
 _atom_site_symmetry_multiplicity
 _atom_site_fract_x
 _atom_site_fract_y
 _atom_site_fract_z
 _atom_site_occupancy
  Dy  Dy0  1  0.333333  0.666667  0.000000  1
  Dy  Dy1  1  0.666667  0.333333  0.000000  1
  Sc  Sc2  1  0.815746  0.000000  0.500000  1
  Sc  Sc3  1  0.000000  0.815746  0.500000  1
  Sc  Sc4  1  0.184254  0.184254  0.500000  1
  Si  Si5  1  0.178558  0.000000  0.000000  1
  Si  Si6  1  0.000000  0.178558  0.000000  1
  Si  Si7  1  0.821442  0.821442  0.000000  1
  Si  Si8  1  0.167403  0.479996  0.500000  1
  Si  Si9  1  0.520004  0.687406  0.500000  1
  Si  Si10  1  0.312594  0.832597  0.500000  1
  Si  Si11  1  0.687406  0.520004  0.500000  1
  Si  Si12  1  0.832597  0.312594  0.500000  1
  Si  Si13  1  0.479996  0.167403  0.500000  1
  Si  Si14  1  0.634543  0.000000  0.000000  1
  Si  Si15  1  0.000000  0.634543  0.000000  1
  Si  Si16  1  0.365457  0.365457  0.000000  1
  Ir  Ir17  1  0.447552  0.000000  0.000000  1
  Ir  Ir18  1  0.000000  0.447552  0.000000  1
  Ir  Ir19  1  0.552448  0.552448  0.000000  1
  Ir  Ir20  1  0.360541  0.486861  0.500000  1
  Ir  Ir21  1  0.513139  0.873680  0.500000  1
  Ir  Ir22  1  0.126320  0.639459  0.500000  1
  Ir  Ir23  1  0.873680  0.513139  0.500000  1
  Ir  Ir24  1  0.639459  0.126320  0.500000  1
  Ir  Ir25  1  0.486861  0.360541  0.500000  1
  Ir  Ir26  1  0.181863  0.373578  0.000000  1
  Ir  Ir27  1  0.626422  0.808285  0.000000  1
  Ir  Ir28  1  0.191715  0.818137  0.000000  1
  Ir  Ir29  1  0.808285  0.626422  0.000000  1
  Ir  Ir30  1  0.818137  0.191715  0.000000  1
  Ir  Ir31  1  0.373578  0.181863  0.000000  1
  Ir  Ir32  1  0.279902  0.000000  0.500000  1
  Ir  Ir33  1  0.000000  0.279902  0.500000  1
  Ir  Ir34  1  0.720098  0.720098  0.500000  1
  Ir  Ir35  1  0.000000  0.000000  0.000000  1
