# generated using pymatgen
data_Ac4La6Tc2I15
_symmetry_space_group_name_H-M   'P 1'
_cell_length_a   10.29757614
_cell_length_b   11.45650667
_cell_length_c   12.09355561
_cell_angle_alpha   90.11017839
_cell_angle_beta   113.34127715
_cell_angle_gamma   110.58384028
_symmetry_Int_Tables_number   1
_chemical_formula_structural   Ac4La6Tc2I15
_chemical_formula_sum   'Ac4 La6 Tc2 I15'
_cell_volume   1209.67172142
_cell_formula_units_Z   1
loop_
 _symmetry_equiv_pos_site_id
 _symmetry_equiv_pos_as_xyz
  1  'x, y, z'
loop_
 _atom_site_type_symbol
 _atom_site_label
 _atom_site_symmetry_multiplicity
 _atom_site_fract_x
 _atom_site_fract_y
 _atom_site_fract_z
 _atom_site_occupancy
  Ac  Ac0  1  0.234610  0.585976  0.054789  1
  Ac  Ac1  1  0.765390  0.414024  0.945211  1
  Ac  Ac2  1  0.311584  0.922097  0.283303  1
  Ac  Ac3  1  0.688416  0.077903  0.716697  1
  La  La4  1  0.080359  0.550575  0.317665  1
  La  La5  1  0.919641  0.449425  0.682335  1
  La  La6  1  0.842734  0.749832  0.180373  1
  La  La7  1  0.157266  0.250168  0.819627  1
  La  La8  1  0.977944  0.789452  0.918167  1
  La  La9  1  0.022056  0.210548  0.081833  1
  Tc  Tc10  1  0.015144  0.686258  0.123374  1
  Tc  Tc11  1  0.984856  0.313742  0.876626  1
  I  I12  1  0.324674  0.436192  0.299276  1
  I  I13  1  0.675326  0.563808  0.700724  1
  I  I14  1  0.200583  0.735865  0.810656  1
  I  I15  1  0.799417  0.264135  0.189344  1
  I  I16  1  0.140995  0.390628  0.582673  1
  I  I17  1  0.859005  0.609372  0.417327  1
  I  I18  1  0.383885  0.789975  0.529916  1
  I  I19  1  0.616115  0.210025  0.470084  1
  I  I20  1  0.257502  0.086686  0.047198  1
  I  I21  1  0.742498  0.913314  0.952802  1
  I  I22  1  0.570853  0.845430  0.227644  1
  I  I23  1  0.429147  0.154570  0.772356  1
  I  I24  1  0.084623  0.040634  0.330977  1
  I  I25  1  0.915377  0.959366  0.669023  1
  I  I26  1  0.500000  0.500000  0.000000  1
