# generated using pymatgen
data_Ba3LiAg11
_symmetry_space_group_name_H-M   'P 1'
_cell_length_a   10.05011800
_cell_length_b   10.05011843
_cell_length_c   8.31870600
_cell_angle_alpha   90.00000000
_cell_angle_beta   90.00000000
_cell_angle_gamma   119.99999857
_symmetry_Int_Tables_number   1
_chemical_formula_structural   Ba3LiAg11
_chemical_formula_sum   'Ba6 Li2 Ag22'
_cell_volume   727.66042244
_cell_formula_units_Z   2
loop_
 _symmetry_equiv_pos_site_id
 _symmetry_equiv_pos_as_xyz
  1  'x, y, z'
loop_
 _atom_site_type_symbol
 _atom_site_label
 _atom_site_symmetry_multiplicity
 _atom_site_fract_x
 _atom_site_fract_y
 _atom_site_fract_z
 _atom_site_occupancy
  Ba  Ba0  1  0.525090  0.050180  0.250000  1
  Ba  Ba1  1  0.474910  0.949820  0.750000  1
  Ba  Ba2  1  0.949820  0.474910  0.250000  1
  Ba  Ba3  1  0.050180  0.525090  0.750000  1
  Ba  Ba4  1  0.525090  0.474910  0.250000  1
  Ba  Ba5  1  0.474910  0.525090  0.750000  1
  Li  Li6  1  0.000000  0.000000  0.000000  1
  Li  Li7  1  0.000000  0.000000  0.500000  1
  Ag  Ag8  1  0.165529  0.331058  0.067122  1
  Ag  Ag9  1  0.834471  0.668942  0.932878  1
  Ag  Ag10  1  0.668942  0.834471  0.067122  1
  Ag  Ag11  1  0.834471  0.668942  0.567122  1
  Ag  Ag12  1  0.331058  0.165529  0.932878  1
  Ag  Ag13  1  0.165529  0.331058  0.432878  1
  Ag  Ag14  1  0.165529  0.834471  0.067122  1
  Ag  Ag15  1  0.331058  0.165529  0.567122  1
  Ag  Ag16  1  0.834471  0.165529  0.932878  1
  Ag  Ag17  1  0.668942  0.834471  0.432878  1
  Ag  Ag18  1  0.834471  0.165529  0.567122  1
  Ag  Ag19  1  0.165529  0.834471  0.432878  1
  Ag  Ag20  1  0.899295  0.798591  0.250000  1
  Ag  Ag21  1  0.100705  0.201409  0.750000  1
  Ag  Ag22  1  0.201409  0.100705  0.250000  1
  Ag  Ag23  1  0.798591  0.899295  0.750000  1
  Ag  Ag24  1  0.899295  0.100705  0.250000  1
  Ag  Ag25  1  0.100705  0.899295  0.750000  1
  Ag  Ag26  1  0.333333  0.666667  0.076958  1
  Ag  Ag27  1  0.666667  0.333333  0.923042  1
  Ag  Ag28  1  0.666667  0.333333  0.576958  1
  Ag  Ag29  1  0.333333  0.666667  0.423042  1
