# generated using pymatgen
data_Er16Ni4Ag3Hg
_symmetry_space_group_name_H-M   'P 1'
_cell_length_a   9.35756599
_cell_length_b   9.37528904
_cell_length_c   9.37529000
_cell_angle_alpha   59.99999661
_cell_angle_beta   59.93732444
_cell_angle_gamma   59.93732822
_symmetry_Int_Tables_number   1
_chemical_formula_structural   Er16Ni4Ag3Hg
_chemical_formula_sum   'Er16 Ni4 Ag3 Hg1'
_cell_volume   581.03889249
_cell_formula_units_Z   1
loop_
 _symmetry_equiv_pos_site_id
 _symmetry_equiv_pos_as_xyz
  1  'x, y, z'
loop_
 _atom_site_type_symbol
 _atom_site_label
 _atom_site_symmetry_multiplicity
 _atom_site_fract_x
 _atom_site_fract_y
 _atom_site_fract_z
 _atom_site_occupancy
  Er  Er0  1  0.350097  0.349997  0.349997  1
  Er  Er1  1  0.350097  0.349997  0.949909  1
  Er  Er2  1  0.350097  0.949909  0.349997  1
  Er  Er3  1  0.948640  0.350453  0.350453  1
  Er  Er4  1  0.811257  0.188887  0.188887  1
  Er  Er5  1  0.189626  0.810284  0.810284  1
  Er  Er6  1  0.189626  0.810284  0.189807  1
  Er  Er7  1  0.811257  0.188887  0.810969  1
  Er  Er8  1  0.189626  0.189807  0.810284  1
  Er  Er9  1  0.811257  0.810969  0.188887  1
  Er  Er10  1  0.934631  0.564099  0.564099  1
  Er  Er11  1  0.563439  0.936270  0.936270  1
  Er  Er12  1  0.563439  0.936270  0.564021  1
  Er  Er13  1  0.934631  0.564099  0.937170  1
  Er  Er14  1  0.563439  0.564021  0.936270  1
  Er  Er15  1  0.934631  0.937170  0.564099  1
  Ni  Ni16  1  0.142750  0.142880  0.142880  1
  Ni  Ni17  1  0.142750  0.142880  0.571490  1
  Ni  Ni18  1  0.142750  0.571490  0.142880  1
  Ni  Ni19  1  0.571556  0.142815  0.142815  1
  Ag  Ag20  1  0.584033  0.582257  0.582257  1
  Ag  Ag21  1  0.584033  0.582257  0.251453  1
  Ag  Ag22  1  0.584033  0.251453  0.582257  1
  Hg  Hg23  1  0.252306  0.582564  0.582564  1
