# generated using pymatgen
data_Pr3SnRh2Pb2Au
_symmetry_space_group_name_H-M   'P 1'
_cell_length_a   7.85505912
_cell_length_b   7.82101144
_cell_length_c   4.11989400
_cell_angle_alpha   90.00000000
_cell_angle_beta   90.00000000
_cell_angle_gamma   119.90343144
_symmetry_Int_Tables_number   1
_chemical_formula_structural   Pr3SnRh2Pb2Au
_chemical_formula_sum   'Pr3 Sn1 Rh2 Pb2 Au1'
_cell_volume   219.40718145
_cell_formula_units_Z   1
loop_
 _symmetry_equiv_pos_site_id
 _symmetry_equiv_pos_as_xyz
  1  'x, y, z'
loop_
 _atom_site_type_symbol
 _atom_site_label
 _atom_site_symmetry_multiplicity
 _atom_site_fract_x
 _atom_site_fract_y
 _atom_site_fract_z
 _atom_site_occupancy
  Pr  Pr0  1  0.598630  0.014651  0.500000  1
  Pr  Pr1  1  0.414307  0.404573  0.500000  1
  Pr  Pr2  1  0.987632  0.579742  0.500000  1
  Sn  Sn3  1  0.992273  0.245175  0.000000  1
  Rh  Rh4  1  0.999707  0.013617  0.500000  1
  Rh  Rh5  1  0.674380  0.330751  0.000000  1
  Pb  Pb6  1  0.254758  0.007215  0.000000  1
  Pb  Pb7  1  0.751846  0.745879  0.000000  1
  Au  Au8  1  0.326467  0.658395  0.000000  1
