# generated using pymatgen
data_Zr8Ir3PdO2
_symmetry_space_group_name_H-M   'P 1'
_cell_length_a   8.87452784
_cell_length_b   8.87453254
_cell_length_c   8.86208400
_cell_angle_alpha   60.04639344
_cell_angle_beta   60.04642918
_cell_angle_gamma   60.22184977
_symmetry_Int_Tables_number   1
_chemical_formula_structural   Zr8Ir3PdO2
_chemical_formula_sum   'Zr16 Ir6 Pd2 O4'
_cell_volume   494.69759600
_cell_formula_units_Z   2
loop_
 _symmetry_equiv_pos_site_id
 _symmetry_equiv_pos_as_xyz
  1  'x, y, z'
loop_
 _atom_site_type_symbol
 _atom_site_label
 _atom_site_symmetry_multiplicity
 _atom_site_fract_x
 _atom_site_fract_y
 _atom_site_fract_z
 _atom_site_occupancy
  Zr  Zr0  1  0.124912  0.621552  0.626768  1
  Zr  Zr1  1  0.621553  0.124912  0.626768  1
  Zr  Zr2  1  0.629129  0.629129  0.110468  1
  Zr  Zr3  1  0.629129  0.629129  0.631274  1
  Zr  Zr4  1  0.818868  0.818868  0.181132  1
  Zr  Zr5  1  0.183616  0.183616  0.816384  1
  Zr  Zr6  1  0.815533  0.183666  0.817142  1
  Zr  Zr7  1  0.183666  0.815533  0.183659  1
  Zr  Zr8  1  0.183666  0.815533  0.817142  1
  Zr  Zr9  1  0.815533  0.183666  0.183659  1
  Zr  Zr10  1  0.433445  0.433445  0.066555  1
  Zr  Zr11  1  0.062557  0.062557  0.437443  1
  Zr  Zr12  1  0.433951  0.067096  0.435049  1
  Zr  Zr13  1  0.067096  0.433951  0.063904  1
  Zr  Zr14  1  0.067096  0.433951  0.435049  1
  Zr  Zr15  1  0.433951  0.067096  0.063905  1
  Ir  Ir16  1  0.404770  0.404770  0.789902  1
  Ir  Ir17  1  0.404770  0.404769  0.400559  1
  Ir  Ir18  1  0.459565  0.851072  0.844681  1
  Ir  Ir19  1  0.851073  0.459564  0.844682  1
  Ir  Ir20  1  0.849167  0.849167  0.462132  1
  Ir  Ir21  1  0.849167  0.849167  0.839534  1
  Pd  Pd22  1  0.766733  0.414882  0.409193  1
  Pd  Pd23  1  0.414882  0.766732  0.409193  1
  O  O24  1  0.623513  0.123895  0.126296  1
  O  O25  1  0.123895  0.623513  0.126296  1
  O  O26  1  0.124385  0.124385  0.624741  1
  O  O27  1  0.124385  0.124385  0.126490  1
