# generated using pymatgen
data_Eu2ErTaO7
_symmetry_space_group_name_H-M   'P 1'
_cell_length_a   6.51113998
_cell_length_b   6.51113939
_cell_length_c   7.63253400
_cell_angle_alpha   90.00000000
_cell_angle_beta   90.00000000
_cell_angle_gamma   109.60825836
_symmetry_Int_Tables_number   1
_chemical_formula_structural   Eu2ErTaO7
_chemical_formula_sum   'Eu4 Er2 Ta2 O14'
_cell_volume   304.81607560
_cell_formula_units_Z   2
loop_
 _symmetry_equiv_pos_site_id
 _symmetry_equiv_pos_as_xyz
  1  'x, y, z'
loop_
 _atom_site_type_symbol
 _atom_site_label
 _atom_site_symmetry_multiplicity
 _atom_site_fract_x
 _atom_site_fract_y
 _atom_site_fract_z
 _atom_site_occupancy
  Eu  Eu0  1  0.490532  0.490532  0.500000  1
  Eu  Eu1  1  0.490532  0.490532  0.000000  1
  Eu  Eu2  1  0.525185  0.996714  0.750000  1
  Eu  Eu3  1  0.996714  0.525185  0.250000  1
  Er  Er4  1  0.461809  0.001257  0.250000  1
  Er  Er5  1  0.001257  0.461809  0.750000  1
  Ta  Ta6  1  0.996389  0.996389  0.500000  1
  Ta  Ta7  1  0.996389  0.996389  0.000000  1
  O  O8  1  0.685862  0.937866  0.455238  1
  O  O9  1  0.937866  0.685862  0.544762  1
  O  O10  1  0.685862  0.937866  0.044762  1
  O  O11  1  0.937866  0.685862  0.955238  1
  O  O12  1  0.325362  0.075965  0.519430  1
  O  O13  1  0.075965  0.325362  0.480570  1
  O  O14  1  0.325362  0.075965  0.980570  1
  O  O15  1  0.075965  0.325362  0.019430  1
  O  O16  1  0.936544  0.061005  0.750000  1
  O  O17  1  0.061005  0.936544  0.250000  1
  O  O18  1  0.366208  0.629667  0.750000  1
  O  O19  1  0.629667  0.366208  0.250000  1
  O  O20  1  0.639421  0.358237  0.750000  1
  O  O21  1  0.358237  0.639421  0.250000  1
