# generated using pymatgen
data_La3Cu4As3PO2
_symmetry_space_group_name_H-M   'P 1'
_cell_length_a   4.11254320
_cell_length_b   4.11269490
_cell_length_c   14.19769528
_cell_angle_alpha   98.36944859
_cell_angle_beta   98.39680054
_cell_angle_gamma   89.98942180
_symmetry_Int_Tables_number   1
_chemical_formula_structural   La3Cu4As3PO2
_chemical_formula_sum   'La3 Cu4 As3 P1 O2'
_cell_volume   234.97604753
_cell_formula_units_Z   1
loop_
 _symmetry_equiv_pos_site_id
 _symmetry_equiv_pos_as_xyz
  1  'x, y, z'
loop_
 _atom_site_type_symbol
 _atom_site_label
 _atom_site_symmetry_multiplicity
 _atom_site_fract_x
 _atom_site_fract_y
 _atom_site_fract_z
 _atom_site_occupancy
  La  La0  1  0.996925  0.997191  0.994670  1
  La  La1  1  0.706991  0.706789  0.414280  1
  La  La2  1  0.295499  0.295272  0.588928  1
  Cu  Cu3  1  0.591419  0.094419  0.189517  1
  Cu  Cu4  1  0.097627  0.596291  0.189807  1
  Cu  Cu5  1  0.903787  0.405936  0.814222  1
  Cu  Cu6  1  0.411229  0.906917  0.814328  1
  As  As7  1  0.542837  0.541438  0.084014  1
  As  As8  1  0.140327  0.143516  0.284766  1
  As  As9  1  0.860732  0.857361  0.716116  1
  P  P10  1  0.450709  0.453220  0.907008  1
  O  O11  1  0.750837  0.250970  0.501199  1
  O  O12  1  0.251085  0.750684  0.501145  1
