# generated using pymatgen
data_Hf8Co2PdRu
_symmetry_space_group_name_H-M   'P 1'
_cell_length_a   8.59033631
_cell_length_b   8.59033495
_cell_length_c   8.57863700
_cell_angle_alpha   60.04504021
_cell_angle_beta   60.04504544
_cell_angle_gamma   60.08600141
_symmetry_Int_Tables_number   1
_chemical_formula_structural   Hf8Co2PdRu
_chemical_formula_sum   'Hf16 Co4 Pd2 Ru2'
_cell_volume   448.22983663
_cell_formula_units_Z   2
loop_
 _symmetry_equiv_pos_site_id
 _symmetry_equiv_pos_as_xyz
  1  'x, y, z'
loop_
 _atom_site_type_symbol
 _atom_site_label
 _atom_site_symmetry_multiplicity
 _atom_site_fract_x
 _atom_site_fract_y
 _atom_site_fract_z
 _atom_site_occupancy
  Hf  Hf0  1  0.681023  0.105320  0.106827  1
  Hf  Hf1  1  0.105320  0.681023  0.106827  1
  Hf  Hf2  1  0.104043  0.104043  0.687449  1
  Hf  Hf3  1  0.104043  0.104043  0.104463  1
  Hf  Hf4  1  0.313598  0.313598  0.686402  1
  Hf  Hf5  1  0.687532  0.687532  0.312468  1
  Hf  Hf6  1  0.313662  0.693931  0.312695  1
  Hf  Hf7  1  0.693931  0.313662  0.679711  1
  Hf  Hf8  1  0.693931  0.313662  0.312695  1
  Hf  Hf9  1  0.313662  0.693931  0.679711  1
  Hf  Hf10  1  0.946294  0.946294  0.553706  1
  Hf  Hf11  1  0.558313  0.558313  0.941687  1
  Hf  Hf12  1  0.941348  0.557258  0.944502  1
  Hf  Hf13  1  0.557258  0.941348  0.556892  1
  Hf  Hf14  1  0.557258  0.941348  0.944502  1
  Hf  Hf15  1  0.941348  0.557258  0.556892  1
  Co  Co16  1  0.321017  0.890315  0.894334  1
  Co  Co17  1  0.890315  0.321017  0.894334  1
  Co  Co18  1  0.892762  0.892762  0.318393  1
  Co  Co19  1  0.892762  0.892762  0.896082  1
  Pd  Pd20  1  0.332793  0.332793  0.998022  1
  Pd  Pd21  1  0.332793  0.332793  0.336390  1
  Ru  Ru22  1  0.992440  0.332545  0.337507  1
  Ru  Ru23  1  0.332545  0.992440  0.337507  1
