# generated using pymatgen
data_Sc8Ta5Ti7Ge16
_symmetry_space_group_name_H-M   'P 1'
_cell_length_a   6.86808032
_cell_length_b   6.96909789
_cell_length_c   13.21444260
_cell_angle_alpha   89.95355998
_cell_angle_beta   89.98250154
_cell_angle_gamma   89.79964780
_symmetry_Int_Tables_number   1
_chemical_formula_structural   Sc8Ta5Ti7Ge16
_chemical_formula_sum   'Sc8 Ta5 Ti7 Ge16'
_cell_volume   632.49625954
_cell_formula_units_Z   1
loop_
 _symmetry_equiv_pos_site_id
 _symmetry_equiv_pos_as_xyz
  1  'x, y, z'
loop_
 _atom_site_type_symbol
 _atom_site_label
 _atom_site_symmetry_multiplicity
 _atom_site_fract_x
 _atom_site_fract_y
 _atom_site_fract_z
 _atom_site_occupancy
  Sc  Sc0  1  0.491918  0.674288  0.595490  1
  Sc  Sc1  1  0.993390  0.822922  0.905204  1
  Sc  Sc2  1  0.506092  0.323208  0.095009  1
  Sc  Sc3  1  0.006806  0.177789  0.405452  1
  Sc  Sc4  1  0.505653  0.323833  0.404496  1
  Sc  Sc5  1  0.005992  0.176684  0.095244  1
  Sc  Sc6  1  0.494335  0.677086  0.904699  1
  Sc  Sc7  1  0.993263  0.822845  0.595587  1
  Ta  Ta8  1  0.156641  0.327597  0.626700  1
  Ta  Ta9  1  0.833331  0.490650  0.749359  1
  Ta  Ta10  1  0.330427  0.011098  0.749594  1
  Ta  Ta11  1  0.168087  0.508933  0.249461  1
  Ta  Ta12  1  0.668276  0.990215  0.250093  1
  Ti  Ti13  1  0.657472  0.171904  0.625863  1
  Ti  Ti14  1  0.159861  0.329635  0.875011  1
  Ti  Ti15  1  0.342914  0.828819  0.126146  1
  Ti  Ti16  1  0.842456  0.671734  0.373087  1
  Ti  Ti17  1  0.344873  0.828762  0.373122  1
  Ti  Ti18  1  0.843119  0.671262  0.125860  1
  Ti  Ti19  1  0.655928  0.170957  0.874414  1
  Ge  Ge20  1  0.682392  0.965044  0.460095  1
  Ge  Ge21  1  0.181367  0.536633  0.039901  1
  Ge  Ge22  1  0.317960  0.036172  0.960416  1
  Ge  Ge23  1  0.817552  0.465211  0.539082  1
  Ge  Ge24  1  0.318731  0.032030  0.538279  1
  Ge  Ge25  1  0.818460  0.462744  0.960044  1
  Ge  Ge26  1  0.681937  0.962901  0.039977  1
  Ge  Ge27  1  0.181224  0.538664  0.458813  1
  Ge  Ge28  1  0.459655  0.382380  0.751177  1
  Ge  Ge29  1  0.954325  0.116665  0.752864  1
  Ge  Ge30  1  0.543168  0.618079  0.249624  1
  Ge  Ge31  1  0.043376  0.881322  0.249612  1
  Ge  Ge32  1  0.690355  0.855095  0.749338  1
  Ge  Ge33  1  0.192225  0.646879  0.751182  1
  Ge  Ge34  1  0.308172  0.144961  0.249741  1
  Ge  Ge35  1  0.808267  0.355000  0.249964  1
