# generated using pymatgen
data_Zr8Ta12Si15As
_symmetry_space_group_name_H-M   'P 1'
_cell_length_a   6.88294528
_cell_length_b   6.87989113
_cell_length_c   12.76692869
_cell_angle_alpha   90.05672193
_cell_angle_beta   89.77720583
_cell_angle_gamma   90.07000310
_symmetry_Int_Tables_number   1
_chemical_formula_structural   Zr8Ta12Si15As
_chemical_formula_sum   'Zr8 Ta12 Si15 As1'
_cell_volume   604.55873028
_cell_formula_units_Z   1
loop_
 _symmetry_equiv_pos_site_id
 _symmetry_equiv_pos_as_xyz
  1  'x, y, z'
loop_
 _atom_site_type_symbol
 _atom_site_label
 _atom_site_symmetry_multiplicity
 _atom_site_fract_x
 _atom_site_fract_y
 _atom_site_fract_z
 _atom_site_occupancy
  Zr  Zr0  1  0.999705  0.661128  0.030537  1
  Zr  Zr1  1  0.000136  0.337276  0.530932  1
  Zr  Zr2  1  0.661608  0.999838  0.969150  1
  Zr  Zr3  1  0.160547  0.500464  0.781172  1
  Zr  Zr4  1  0.835343  0.498023  0.278194  1
  Zr  Zr5  1  0.500113  0.161031  0.218828  1
  Zr  Zr6  1  0.502062  0.839631  0.720463  1
  Zr  Zr7  1  0.340699  0.000404  0.470531  1
  Ta  Ta8  1  0.348555  0.504564  0.376283  1
  Ta  Ta9  1  0.843899  0.999888  0.371851  1
  Ta  Ta10  1  0.004746  0.153653  0.125810  1
  Ta  Ta11  1  0.997092  0.845961  0.626644  1
  Ta  Ta12  1  0.653399  0.494963  0.876200  1
  Ta  Ta13  1  0.506142  0.345136  0.624283  1
  Ta  Ta14  1  0.494760  0.653047  0.123848  1
  Ta  Ta15  1  0.152966  0.004894  0.873935  1
  Ta  Ta16  1  0.666312  0.670216  0.500341  1
  Ta  Ta17  1  0.830649  0.169699  0.750353  1
  Ta  Ta18  1  0.169609  0.831022  0.248456  1
  Ta  Ta19  1  0.329757  0.330252  0.999881  1
  Si  Si20  1  0.956013  0.298916  0.936500  1
  Si  Si21  1  0.702465  0.043140  0.563678  1
  Si  Si22  1  0.200806  0.456235  0.186298  1
  Si  Si23  1  0.799256  0.543910  0.686776  1
  Si  Si24  1  0.456008  0.201296  0.814016  1
  Si  Si25  1  0.543354  0.799817  0.313049  1
  Si  Si26  1  0.298960  0.956062  0.063177  1
  Si  Si27  1  0.865915  0.791685  0.823071  1
  Si  Si28  1  0.135583  0.208143  0.322479  1
  Si  Si29  1  0.791532  0.865269  0.176375  1
  Si  Si30  1  0.297040  0.633075  0.577879  1
  Si  Si31  1  0.708173  0.365343  0.072504  1
  Si  Si32  1  0.633947  0.292240  0.427527  1
  Si  Si33  1  0.365279  0.708273  0.927050  1
  Si  Si34  1  0.208417  0.134574  0.677522  1
  As  As35  1  0.039155  0.700930  0.434409  1
