# generated using pymatgen
data_Mg3UAs6Ru7
_symmetry_space_group_name_H-M   'P 1'
_cell_length_a   7.09867739
_cell_length_b   7.09867711
_cell_length_c   6.99797800
_cell_angle_alpha   109.18411976
_cell_angle_beta   109.18411898
_cell_angle_gamma   109.75679088
_symmetry_Int_Tables_number   1
_chemical_formula_structural   Mg3UAs6Ru7
_chemical_formula_sum   'Mg3 U1 As6 Ru7'
_cell_volume   272.41566823
_cell_formula_units_Z   1
loop_
 _symmetry_equiv_pos_site_id
 _symmetry_equiv_pos_as_xyz
  1  'x, y, z'
loop_
 _atom_site_type_symbol
 _atom_site_label
 _atom_site_symmetry_multiplicity
 _atom_site_fract_x
 _atom_site_fract_y
 _atom_site_fract_z
 _atom_site_occupancy
  Mg  Mg0  1  0.500000  0.000000  0.000000  1
  Mg  Mg1  1  0.000000  0.500000  0.000000  1
  Mg  Mg2  1  0.500000  0.500000  0.500000  1
  U  U3  1  0.000000  0.000000  0.500000  1
  As  As4  1  0.315798  0.000000  0.305009  1
  As  As5  1  0.000000  0.315798  0.305009  1
  As  As6  1  0.000000  0.684202  0.694991  1
  As  As7  1  0.315798  0.315798  0.010789  1
  As  As8  1  0.684202  0.684202  0.989211  1
  As  As9  1  0.684202  0.000000  0.694991  1
  Ru  Ru10  1  0.753532  0.507064  0.253532  1
  Ru  Ru11  1  0.507064  0.753532  0.253532  1
  Ru  Ru12  1  0.492936  0.246468  0.746468  1
  Ru  Ru13  1  0.753532  0.246468  0.500000  1
  Ru  Ru14  1  0.246468  0.753532  0.500000  1
  Ru  Ru15  1  0.246468  0.492936  0.746468  1
  Ru  Ru16  1  0.000000  0.000000  0.000000  1
