# generated using pymatgen
data_Zn2(Ni7B2)3
_symmetry_space_group_name_H-M   'P 1'
_cell_length_a   7.39971733
_cell_length_b   7.39971746
_cell_length_c   7.39971700
_cell_angle_alpha   59.99999761
_cell_angle_beta   59.99999702
_cell_angle_gamma   60.00000118
_symmetry_Int_Tables_number   1
_chemical_formula_structural   Zn2(Ni7B2)3
_chemical_formula_sum   'Zn2 Ni21 B6'
_cell_volume   286.50378716
_cell_formula_units_Z   1
loop_
 _symmetry_equiv_pos_site_id
 _symmetry_equiv_pos_as_xyz
  1  'x, y, z'
loop_
 _atom_site_type_symbol
 _atom_site_label
 _atom_site_symmetry_multiplicity
 _atom_site_fract_x
 _atom_site_fract_y
 _atom_site_fract_z
 _atom_site_occupancy
  Zn  Zn0  1  0.750000  0.750000  0.750000  1
  Zn  Zn1  1  0.250000  0.250000  0.250000  1
  Ni  Ni2  1  0.000000  0.000000  0.000000  1
  Ni  Ni3  1  0.617061  0.617061  0.148816  1
  Ni  Ni4  1  0.617061  0.148816  0.617061  1
  Ni  Ni5  1  0.148816  0.617061  0.617061  1
  Ni  Ni6  1  0.617061  0.617061  0.617061  1
  Ni  Ni7  1  0.382939  0.382939  0.851184  1
  Ni  Ni8  1  0.382939  0.851184  0.382939  1
  Ni  Ni9  1  0.851184  0.382939  0.382939  1
  Ni  Ni10  1  0.382939  0.382939  0.382939  1
  Ni  Ni11  1  0.000000  0.000000  0.337111  1
  Ni  Ni12  1  0.662889  0.000000  0.337111  1
  Ni  Ni13  1  0.000000  0.662889  0.337111  1
  Ni  Ni14  1  0.662889  0.337111  0.000000  1
  Ni  Ni15  1  0.000000  0.337111  0.000000  1
  Ni  Ni16  1  0.000000  0.337111  0.662889  1
  Ni  Ni17  1  0.337111  0.662889  0.000000  1
  Ni  Ni18  1  0.337111  0.000000  0.662889  1
  Ni  Ni19  1  0.337111  0.000000  0.000000  1
  Ni  Ni20  1  0.000000  0.000000  0.662889  1
  Ni  Ni21  1  0.000000  0.662889  0.000000  1
  Ni  Ni22  1  0.662889  0.000000  0.000000  1
  B  B23  1  0.725818  0.725818  0.274182  1
  B  B24  1  0.274182  0.725818  0.274182  1
  B  B25  1  0.725818  0.274182  0.274182  1
  B  B26  1  0.274182  0.274182  0.725818  1
  B  B27  1  0.725818  0.274182  0.725818  1
  B  B28  1  0.274182  0.725818  0.725818  1
