# generated using pymatgen
data_Tb4Lu6Ru3Rh
_symmetry_space_group_name_H-M   'P 1'
_cell_length_a   6.26711872
_cell_length_b   7.24055980
_cell_length_c   8.39363381
_cell_angle_alpha   96.98742483
_cell_angle_beta   111.99427756
_cell_angle_gamma   90.18948694
_symmetry_Int_Tables_number   1
_chemical_formula_structural   Tb4Lu6Ru3Rh
_chemical_formula_sum   'Tb4 Lu6 Ru3 Rh1'
_cell_volume   350.04412745
_cell_formula_units_Z   1
loop_
 _symmetry_equiv_pos_site_id
 _symmetry_equiv_pos_as_xyz
  1  'x, y, z'
loop_
 _atom_site_type_symbol
 _atom_site_label
 _atom_site_symmetry_multiplicity
 _atom_site_fract_x
 _atom_site_fract_y
 _atom_site_fract_z
 _atom_site_occupancy
  Tb  Tb0  1  0.524230  0.083058  0.810204  1
  Tb  Tb1  1  0.476677  0.918915  0.188347  1
  Tb  Tb2  1  0.714889  0.416321  0.189760  1
  Tb  Tb3  1  0.285307  0.582565  0.805747  1
  Lu  Lu4  1  0.297109  0.311640  0.434924  1
  Lu  Lu5  1  0.705109  0.686400  0.568442  1
  Lu  Lu6  1  0.861624  0.185227  0.566087  1
  Lu  Lu7  1  0.135846  0.817448  0.435452  1
  Lu  Lu8  1  0.078997  0.248178  0.998273  1
  Lu  Lu9  1  0.919604  0.750764  0.999794  1
  Ru  Ru10  1  0.681081  0.425265  0.777044  1
  Ru  Ru11  1  0.099584  0.923800  0.779096  1
  Ru  Ru12  1  0.904039  0.075585  0.222170  1
  Rh  Rh13  1  0.315902  0.574835  0.224662  1
