# generated using pymatgen
data_La2Tm18Si15Os
_symmetry_space_group_name_H-M   'P 1'
_cell_length_a   7.35185514
_cell_length_b   7.69803394
_cell_length_c   14.45097952
_cell_angle_alpha   89.63414509
_cell_angle_beta   89.98965546
_cell_angle_gamma   89.96009501
_symmetry_Int_Tables_number   1
_chemical_formula_structural   La2Tm18Si15Os
_chemical_formula_sum   'La2 Tm18 Si15 Os1'
_cell_volume   817.83385055
_cell_formula_units_Z   1
loop_
 _symmetry_equiv_pos_site_id
 _symmetry_equiv_pos_as_xyz
  1  'x, y, z'
loop_
 _atom_site_type_symbol
 _atom_site_label
 _atom_site_symmetry_multiplicity
 _atom_site_fract_x
 _atom_site_fract_y
 _atom_site_fract_z
 _atom_site_occupancy
  La  La0  1  0.520492  0.571080  0.341076  1
  La  La1  1  0.023136  0.426286  0.659047  1
  Tm  Tm2  1  0.804889  0.578075  0.878074  1
  Tm  Tm3  1  0.325400  0.431959  0.122123  1
  Tm  Tm4  1  0.182629  0.928078  0.373184  1
  Tm  Tm5  1  0.682066  0.069307  0.626516  1
  Tm  Tm6  1  0.183051  0.926878  0.628393  1
  Tm  Tm7  1  0.681698  0.070588  0.372107  1
  Tm  Tm8  1  0.808860  0.574870  0.122788  1
  Tm  Tm9  1  0.329141  0.437775  0.876382  1
  Tm  Tm10  1  0.643697  0.240304  0.999525  1
  Tm  Tm11  1  0.158430  0.761159  0.000433  1
  Tm  Tm12  1  0.350661  0.262278  0.499937  1
  Tm  Tm13  1  0.849519  0.735709  0.499829  1
  Tm  Tm14  1  0.478629  0.922622  0.849680  1
  Tm  Tm15  1  0.973936  0.066553  0.151183  1
  Tm  Tm16  1  0.476558  0.923593  0.149751  1
  Tm  Tm17  1  0.971857  0.067142  0.849832  1
  Tm  Tm18  1  0.528092  0.565629  0.652128  1
  Tm  Tm19  1  0.026377  0.432795  0.347505  1
  Si  Si20  1  0.017250  0.351157  0.999598  1
  Si  Si21  1  0.477457  0.861250  0.501408  1
  Si  Si22  1  0.979935  0.137723  0.498726  1
  Si  Si23  1  0.654971  0.275051  0.789874  1
  Si  Si24  1  0.148584  0.721460  0.209421  1
  Si  Si25  1  0.349488  0.214623  0.286499  1
  Si  Si26  1  0.847661  0.784955  0.712977  1
  Si  Si27  1  0.361829  0.218203  0.711670  1
  Si  Si28  1  0.858621  0.781518  0.288626  1
  Si  Si29  1  0.651237  0.266760  0.206817  1
  Si  Si30  1  0.142790  0.729504  0.793440  1
  Si  Si31  1  0.770714  0.884934  0.000438  1
  Si  Si32  1  0.259839  0.124714  0.999566  1
  Si  Si33  1  0.230436  0.624968  0.502016  1
  Si  Si34  1  0.731896  0.374587  0.498916  1
  Os  Os35  1  0.518171  0.655910  0.000510  1
