# generated using pymatgen
data_Tb3Ho5Cd2NiRu
_symmetry_space_group_name_H-M   'P 1'
_cell_length_a   9.56825589
_cell_length_b   9.56825504
_cell_length_c   9.62463800
_cell_angle_alpha   59.80487157
_cell_angle_beta   59.80487453
_cell_angle_gamma   59.68863284
_symmetry_Int_Tables_number   1
_chemical_formula_structural   Tb3Ho5Cd2NiRu
_chemical_formula_sum   'Tb6 Ho10 Cd4 Ni2 Ru2'
_cell_volume   619.75690596
_cell_formula_units_Z   2
loop_
 _symmetry_equiv_pos_site_id
 _symmetry_equiv_pos_as_xyz
  1  'x, y, z'
loop_
 _atom_site_type_symbol
 _atom_site_label
 _atom_site_symmetry_multiplicity
 _atom_site_fract_x
 _atom_site_fract_y
 _atom_site_fract_z
 _atom_site_occupancy
  Tb  Tb0  1  0.938535  0.558357  0.565608  1
  Tb  Tb1  1  0.558357  0.938535  0.937499  1
  Tb  Tb2  1  0.558357  0.938535  0.565608  1
  Tb  Tb3  1  0.938535  0.558357  0.937499  1
  Tb  Tb4  1  0.564969  0.564969  0.935031  1
  Tb  Tb5  1  0.940190  0.940190  0.559810  1
  Ho  Ho6  1  0.349297  0.349297  0.343249  1
  Ho  Ho7  1  0.349297  0.349297  0.958158  1
  Ho  Ho8  1  0.351325  0.956225  0.346225  1
  Ho  Ho9  1  0.956225  0.351325  0.346225  1
  Ho  Ho10  1  0.811765  0.186275  0.188974  1
  Ho  Ho11  1  0.186275  0.811765  0.812986  1
  Ho  Ho12  1  0.186275  0.811765  0.188974  1
  Ho  Ho13  1  0.811765  0.186275  0.812986  1
  Ho  Ho14  1  0.187599  0.187599  0.812401  1
  Ho  Ho15  1  0.811024  0.811024  0.188976  1
  Cd  Cd16  1  0.579271  0.579271  0.582209  1
  Cd  Cd17  1  0.579271  0.579271  0.259248  1
  Cd  Cd18  1  0.580172  0.257064  0.581381  1
  Cd  Cd19  1  0.257064  0.580172  0.581381  1
  Ni  Ni20  1  0.142128  0.575624  0.141124  1
  Ni  Ni21  1  0.575624  0.142128  0.141124  1
  Ru  Ru22  1  0.143338  0.143338  0.138930  1
  Ru  Ru23  1  0.143338  0.143338  0.574394  1
