# generated using pymatgen
data_Tm3Lu13(HfIr3)4
_symmetry_space_group_name_H-M   'P 1'
_cell_length_a   10.66693301
_cell_length_b   10.67298404
_cell_length_c   6.17482401
_cell_angle_alpha   89.99252815
_cell_angle_beta   89.99949682
_cell_angle_gamma   89.99409318
_symmetry_Int_Tables_number   1
_chemical_formula_structural   Tm3Lu13(HfIr3)4
_chemical_formula_sum   'Tm3 Lu13 Hf4 Ir12'
_cell_volume   702.99139023
_cell_formula_units_Z   1
loop_
 _symmetry_equiv_pos_site_id
 _symmetry_equiv_pos_as_xyz
  1  'x, y, z'
loop_
 _atom_site_type_symbol
 _atom_site_label
 _atom_site_symmetry_multiplicity
 _atom_site_fract_x
 _atom_site_fract_y
 _atom_site_fract_z
 _atom_site_occupancy
  Tm  Tm0  1  0.913705  0.289890  0.626231  1
  Tm  Tm1  1  0.086214  0.710096  0.626187  1
  Tm  Tm2  1  0.086314  0.289925  0.126214  1
  Lu  Lu3  1  0.290211  0.085940  0.374183  1
  Lu  Lu4  1  0.290213  0.914070  0.874200  1
  Lu  Lu5  1  0.709795  0.085949  0.874154  1
  Lu  Lu6  1  0.709873  0.913966  0.374073  1
  Lu  Lu7  1  0.586039  0.790109  0.874098  1
  Lu  Lu8  1  0.586028  0.209888  0.374059  1
  Lu  Lu9  1  0.413996  0.790130  0.374055  1
  Lu  Lu10  1  0.413983  0.209894  0.874043  1
  Lu  Lu11  1  0.210129  0.413920  0.625943  1
  Lu  Lu12  1  0.210026  0.586098  0.125954  1
  Lu  Lu13  1  0.789889  0.414064  0.125934  1
  Lu  Lu14  1  0.789909  0.586123  0.625924  1
  Lu  Lu15  1  0.913822  0.709899  0.125961  1
  Hf  Hf16  1  0.999975  0.999962  0.499774  1
  Hf  Hf17  1  0.999912  0.999798  0.999907  1
  Hf  Hf18  1  0.500005  0.500016  0.999965  1
  Hf  Hf19  1  0.499996  0.500025  0.499922  1
  Ir  Ir20  1  0.854231  0.145207  0.249642  1
  Ir  Ir21  1  0.854328  0.854623  0.750115  1
  Ir  Ir22  1  0.145788  0.145171  0.749636  1
  Ir  Ir23  1  0.145595  0.854689  0.249555  1
  Ir  Ir24  1  0.645281  0.354572  0.750115  1
  Ir  Ir25  1  0.645483  0.645490  0.250006  1
  Ir  Ir26  1  0.354736  0.354554  0.250121  1
  Ir  Ir27  1  0.354729  0.645439  0.750113  1
  Ir  Ir28  1  0.500023  0.999997  0.122583  1
  Ir  Ir29  1  0.499985  0.000003  0.622583  1
  Ir  Ir30  1  0.999888  0.500252  0.877645  1
  Ir  Ir31  1  0.999900  0.500243  0.377103  1
