# generated using pymatgen
data_Dy6Y4Si16Sn
_symmetry_space_group_name_H-M   'P 1'
_cell_length_a   11.11259354
_cell_length_b   11.05544054
_cell_length_c   11.11260084
_cell_angle_alpha   144.65116534
_cell_angle_beta   135.91435627
_cell_angle_gamma   57.82437200
_symmetry_Int_Tables_number   1
_chemical_formula_structural   Dy6Y4Si16Sn
_chemical_formula_sum   'Dy6 Y4 Si16 Sn1'
_cell_volume   544.68148604
_cell_formula_units_Z   1
loop_
 _symmetry_equiv_pos_site_id
 _symmetry_equiv_pos_as_xyz
  1  'x, y, z'
loop_
 _atom_site_type_symbol
 _atom_site_label
 _atom_site_symmetry_multiplicity
 _atom_site_fract_x
 _atom_site_fract_y
 _atom_site_fract_z
 _atom_site_occupancy
  Dy  Dy0  1  0.150359  0.163935  0.515956  1
  Dy  Dy1  1  0.350069  0.368755  0.520488  1
  Dy  Dy2  1  0.242371  0.759859  0.003532  1
  Dy  Dy3  1  0.545184  0.558543  0.497330  1
  Dy  Dy4  1  0.061278  0.558641  0.013393  1
  Dy  Dy5  1  0.647922  0.163852  0.013547  1
  Y  Y6  1  0.756324  0.759902  0.517572  1
  Y  Y7  1  0.441018  0.971764  0.015744  1
  Y  Y8  1  0.848250  0.368766  0.018573  1
  Y  Y9  1  0.956107  0.971808  0.530748  1
  Si  Si10  1  0.199278  0.579287  0.380417  1
  Si  Si11  1  0.000428  0.083812  0.083998  1
  Si  Si12  1  0.697554  0.280290  0.582402  1
  Si  Si13  1  0.799924  0.177891  0.377942  1
  Si  Si14  1  0.895578  0.501447  0.606142  1
  Si  Si15  1  0.417653  0.871222  0.453208  1
  Si  Si16  1  0.104048  0.712595  0.609096  1
  Si  Si17  1  0.301439  0.894629  0.593174  1
  Si  Si18  1  0.578033  0.039302  0.460526  1
  Si  Si19  1  0.999773  0.431127  0.432120  1
  Si  Si20  1  0.882713  0.838862  0.956275  1
  Si  Si21  1  0.401140  0.499929  0.098499  1
  Si  Si22  1  0.117958  0.083540  0.965977  1
  Si  Si23  1  0.288387  0.238892  0.950527  1
  Si  Si24  1  0.499039  0.385283  0.885704  1
  Si  Si25  1  0.595324  0.704816  0.108823  1
  Sn  Sn26  1  0.722848  0.692747  0.969785  1
