# generated using pymatgen
data_PrCrGeO5
_symmetry_space_group_name_H-M   'P 1'
_cell_length_a   7.63286000
_cell_length_b   8.67207800
_cell_length_c   5.88680200
_cell_angle_alpha   90.00000000
_cell_angle_beta   90.00000000
_cell_angle_gamma   90.00000000
_symmetry_Int_Tables_number   1
_chemical_formula_structural   PrCrGeO5
_chemical_formula_sum   'Pr4 Cr4 Ge4 O20'
_cell_volume   389.66365596
_cell_formula_units_Z   4
loop_
 _symmetry_equiv_pos_site_id
 _symmetry_equiv_pos_as_xyz
  1  'x, y, z'
loop_
 _atom_site_type_symbol
 _atom_site_label
 _atom_site_symmetry_multiplicity
 _atom_site_fract_x
 _atom_site_fract_y
 _atom_site_fract_z
 _atom_site_occupancy
  Pr  Pr0  1  0.143255  0.173717  0.000000  1
  Pr  Pr1  1  0.643255  0.326283  0.000000  1
  Pr  Pr2  1  0.356745  0.673717  0.000000  1
  Pr  Pr3  1  0.856744  0.826283  0.000000  1
  Cr  Cr4  1  0.500000  0.000000  0.254151  1
  Cr  Cr5  1  0.000000  0.499999  0.254151  1
  Cr  Cr6  1  0.500000  0.000000  0.745850  1
  Cr  Cr7  1  0.000000  0.499999  0.745850  1
  Ge  Ge8  1  0.884626  0.142230  0.499999  1
  Ge  Ge9  1  0.384625  0.357770  0.499999  1
  Ge  Ge10  1  0.615375  0.642230  0.499999  1
  Ge  Ge11  1  0.115375  0.857770  0.499999  1
  O  O12  1  0.662334  0.052240  0.000000  1
  O  O13  1  0.162334  0.447759  0.000000  1
  O  O14  1  0.837665  0.552241  0.000000  1
  O  O15  1  0.337666  0.947760  0.000000  1
  O  O16  1  0.397330  0.218359  0.258625  1
  O  O17  1  0.897330  0.281641  0.258625  1
  O  O18  1  0.102671  0.718359  0.258625  1
  O  O19  1  0.602671  0.781641  0.258625  1
  O  O20  1  0.000000  0.000000  0.293217  1
  O  O21  1  0.500000  0.499999  0.293217  1
  O  O22  1  0.663731  0.073751  0.499999  1
  O  O23  1  0.163732  0.426248  0.499999  1
  O  O24  1  0.836269  0.573752  0.499999  1
  O  O25  1  0.336269  0.926249  0.499999  1
  O  O26  1  0.000000  0.000000  0.706784  1
  O  O27  1  0.500000  0.499999  0.706784  1
  O  O28  1  0.397330  0.218359  0.741375  1
  O  O29  1  0.897330  0.281641  0.741375  1
  O  O30  1  0.102671  0.718359  0.741375  1
  O  O31  1  0.602671  0.781641  0.741375  1
