# generated using pymatgen
data_La16MgHg3Ir3Ru
_symmetry_space_group_name_H-M   'P 1'
_cell_length_a   10.15335101
_cell_length_b   10.15335134
_cell_length_c   10.08033161
_cell_angle_alpha   59.66219021
_cell_angle_beta   59.66218976
_cell_angle_gamma   59.79971469
_symmetry_Int_Tables_number   1
_chemical_formula_structural   La16MgHg3Ir3Ru
_chemical_formula_sum   'La16 Mg1 Hg3 Ir3 Ru1'
_cell_volume   729.94014096
_cell_formula_units_Z   1
loop_
 _symmetry_equiv_pos_site_id
 _symmetry_equiv_pos_as_xyz
  1  'x, y, z'
loop_
 _atom_site_type_symbol
 _atom_site_label
 _atom_site_symmetry_multiplicity
 _atom_site_fract_x
 _atom_site_fract_y
 _atom_site_fract_z
 _atom_site_occupancy
  La  La0  1  0.439252  0.058744  0.441395  1
  La  La1  1  0.808218  0.808218  0.189389  1
  La  La2  1  0.060774  0.441273  0.058663  1
  La  La3  1  0.192230  0.807105  0.193349  1
  La  La4  1  0.807105  0.192230  0.193349  1
  La  La5  1  0.058444  0.058444  0.443434  1
  La  La6  1  0.654003  0.654003  0.653315  1
  La  La7  1  0.654666  0.039638  0.654448  1
  La  La8  1  0.185839  0.811011  0.812965  1
  La  La9  1  0.039638  0.654666  0.654448  1
  La  La10  1  0.058744  0.439252  0.441395  1
  La  La11  1  0.188781  0.188781  0.812613  1
  La  La12  1  0.651357  0.651357  0.049098  1
  La  La13  1  0.441273  0.060774  0.058663  1
  La  La14  1  0.811011  0.185839  0.812965  1
  La  La15  1  0.439076  0.439076  0.058774  1
  Mg  Mg16  1  0.430716  0.430716  0.708516  1
  Hg  Hg17  1  0.753699  0.413465  0.419450  1
  Hg  Hg18  1  0.413926  0.413926  0.420260  1
  Hg  Hg19  1  0.413465  0.753699  0.419450  1
  Ir  Ir20  1  0.857639  0.421447  0.860004  1
  Ir  Ir21  1  0.858392  0.858392  0.422542  1
  Ir  Ir22  1  0.421447  0.857639  0.860004  1
  Ru  Ru23  1  0.860306  0.860306  0.861511  1
