# generated using pymatgen
data_Eu3Mn2Sb3O14
_symmetry_space_group_name_H-M   'P 1'
_cell_length_a   7.27223838
_cell_length_b   7.36422853
_cell_length_c   7.40301233
_cell_angle_alpha   118.67160223
_cell_angle_beta   61.23500257
_cell_angle_gamma   118.73492102
_symmetry_Int_Tables_number   1
_chemical_formula_structural   Eu3Mn2Sb3O14
_chemical_formula_sum   'Eu3 Mn2 Sb3 O14'
_cell_volume   288.38539194
_cell_formula_units_Z   1
loop_
 _symmetry_equiv_pos_site_id
 _symmetry_equiv_pos_as_xyz
  1  'x, y, z'
loop_
 _atom_site_type_symbol
 _atom_site_label
 _atom_site_symmetry_multiplicity
 _atom_site_fract_x
 _atom_site_fract_y
 _atom_site_fract_z
 _atom_site_occupancy
  Eu  Eu0  1  0.000012  0.500023  0.000013  1
  Eu  Eu1  1  0.499998  0.000022  0.999995  1
  Eu  Eu2  1  0.500011  0.500002  0.500022  1
  Mn  Mn3  1  0.499933  0.500050  0.000090  1
  Mn  Mn4  1  0.999994  0.999965  0.500023  1
  Sb  Sb5  1  0.500004  0.999985  0.499993  1
  Sb  Sb6  1  0.000034  0.499959  0.500012  1
  Sb  Sb7  1  0.000034  0.999967  0.000022  1
  O  O8  1  0.614048  0.382980  0.118119  1
  O  O9  1  0.385955  0.617076  0.881905  1
  O  O10  1  0.083026  0.324393  0.177288  1
  O  O11  1  0.672598  0.925980  0.179565  1
  O  O12  1  0.673415  0.321298  0.571433  1
  O  O13  1  0.916976  0.675622  0.822665  1
  O  O14  1  0.327416  0.074065  0.820436  1
  O  O15  1  0.326624  0.678644  0.428436  1
  O  O16  1  0.675940  0.923286  0.577534  1
  O  O17  1  0.080521  0.338265  0.584983  1
  O  O18  1  0.083105  0.913399  0.156262  1
  O  O19  1  0.324027  0.076656  0.422500  1
  O  O20  1  0.919458  0.661744  0.415012  1
  O  O21  1  0.916870  0.086620  0.843693  1
