# generated using pymatgen
data_Be6Re3Ni2W
_symmetry_space_group_name_H-M   'P 1'
_cell_length_a   4.45975906
_cell_length_b   4.43505510
_cell_length_c   7.30190100
_cell_angle_alpha   89.81198627
_cell_angle_beta   90.07332508
_cell_angle_gamma   119.73803698
_symmetry_Int_Tables_number   1
_chemical_formula_structural   Be6Re3Ni2W
_chemical_formula_sum   'Be6 Re3 Ni2 W1'
_cell_volume   125.40503843
_cell_formula_units_Z   1
loop_
 _symmetry_equiv_pos_site_id
 _symmetry_equiv_pos_as_xyz
  1  'x, y, z'
loop_
 _atom_site_type_symbol
 _atom_site_label
 _atom_site_symmetry_multiplicity
 _atom_site_fract_x
 _atom_site_fract_y
 _atom_site_fract_z
 _atom_site_occupancy
  Be  Be0  1  0.000360  0.002173  0.999341  1
  Be  Be1  1  0.999832  0.001280  0.499839  1
  Be  Be2  1  0.659411  0.826190  0.749169  1
  Be  Be3  1  0.341926  0.168081  0.250801  1
  Be  Be4  1  0.829428  0.169816  0.250695  1
  Be  Be5  1  0.170231  0.338831  0.749098  1
  Re  Re6  1  0.661509  0.329814  0.559512  1
  Re  Re7  1  0.659540  0.326408  0.938874  1
  Re  Re8  1  0.339157  0.667032  0.441643  1
  Ni  Ni9  1  0.838623  0.670505  0.250715  1
  Ni  Ni10  1  0.162608  0.831144  0.748655  1
  W  W11  1  0.337374  0.668727  0.061658  1
