# generated using pymatgen
data_Dy7ErTi9Si16Mo3
_symmetry_space_group_name_H-M   'P 1'
_cell_length_a   7.00178348
_cell_length_b   7.00147709
_cell_length_c   12.87044112
_cell_angle_alpha   90.00222608
_cell_angle_beta   90.01782170
_cell_angle_gamma   90.00707931
_symmetry_Int_Tables_number   1
_chemical_formula_structural   Dy7ErTi9Si16Mo3
_chemical_formula_sum   'Dy7 Er1 Ti9 Si16 Mo3'
_cell_volume   630.94536751
_cell_formula_units_Z   1
loop_
 _symmetry_equiv_pos_site_id
 _symmetry_equiv_pos_as_xyz
  1  'x, y, z'
loop_
 _atom_site_type_symbol
 _atom_site_label
 _atom_site_symmetry_multiplicity
 _atom_site_fract_x
 _atom_site_fract_y
 _atom_site_fract_z
 _atom_site_occupancy
  Dy  Dy0  1  0.000312  0.340438  0.533079  1
  Dy  Dy1  1  0.660143  0.997940  0.966510  1
  Dy  Dy2  1  0.158327  0.501291  0.782018  1
  Dy  Dy3  1  0.841090  0.499896  0.283268  1
  Dy  Dy4  1  0.501246  0.158414  0.218055  1
  Dy  Dy5  1  0.499812  0.841031  0.716642  1
  Dy  Dy6  1  0.340440  0.000324  0.466901  1
  Er  Er7  1  0.998410  0.659726  0.033753  1
  Ti  Ti8  1  0.347014  0.509067  0.374410  1
  Ti  Ti9  1  0.847274  0.991050  0.376338  1
  Ti  Ti10  1  0.008358  0.151713  0.124772  1
  Ti  Ti11  1  0.991115  0.847256  0.623637  1
  Ti  Ti12  1  0.509100  0.347036  0.625574  1
  Ti  Ti13  1  0.151791  0.008263  0.875281  1
  Ti  Ti14  1  0.326654  0.327022  0.000050  1
  Ti  Ti15  1  0.491839  0.653825  0.127397  1
  Ti  Ti16  1  0.653970  0.492015  0.872647  1
  Si  Si17  1  0.047139  0.708381  0.434975  1
  Si  Si18  1  0.951940  0.292511  0.934223  1
  Si  Si19  1  0.708424  0.047138  0.565003  1
  Si  Si20  1  0.208777  0.453718  0.184683  1
  Si  Si21  1  0.791248  0.547548  0.684562  1
  Si  Si22  1  0.453363  0.209058  0.815052  1
  Si  Si23  1  0.547597  0.791176  0.315407  1
  Si  Si24  1  0.291525  0.951481  0.065985  1
  Si  Si25  1  0.798776  0.870329  0.184239  1
  Si  Si26  1  0.299187  0.629798  0.565337  1
  Si  Si27  1  0.702512  0.370381  0.065310  1
  Si  Si28  1  0.629818  0.299212  0.434641  1
  Si  Si29  1  0.369442  0.702017  0.934878  1
  Si  Si30  1  0.129473  0.201221  0.314985  1
  Si  Si31  1  0.201197  0.129530  0.684975  1
  Si  Si32  1  0.870727  0.798248  0.815583  1
  Mo  Mo33  1  0.672961  0.672945  0.499983  1
  Mo  Mo34  1  0.826097  0.173017  0.749358  1
  Mo  Mo35  1  0.172902  0.825981  0.250489  1
