# generated using pymatgen
data_Ac2SnPt2
_symmetry_space_group_name_H-M   'P 1'
_cell_length_a   8.09176000
_cell_length_b   8.09176000
_cell_length_c   4.15444300
_cell_angle_alpha   90.00000000
_cell_angle_beta   90.00000000
_cell_angle_gamma   90.00000000
_symmetry_Int_Tables_number   1
_chemical_formula_structural   Ac2SnPt2
_chemical_formula_sum   'Ac4 Sn2 Pt4'
_cell_volume   272.01871902
_cell_formula_units_Z   2
loop_
 _symmetry_equiv_pos_site_id
 _symmetry_equiv_pos_as_xyz
  1  'x, y, z'
loop_
 _atom_site_type_symbol
 _atom_site_label
 _atom_site_symmetry_multiplicity
 _atom_site_fract_x
 _atom_site_fract_y
 _atom_site_fract_z
 _atom_site_occupancy
  Ac  Ac0  1  0.324935  0.824935  0.500000  1
  Ac  Ac1  1  0.824935  0.675065  0.500000  1
  Ac  Ac2  1  0.175065  0.324935  0.500000  1
  Ac  Ac3  1  0.675065  0.175065  0.500000  1
  Sn  Sn4  1  0.500000  0.500000  0.000000  1
  Sn  Sn5  1  0.000000  0.000000  0.000000  1
  Pt  Pt6  1  0.128903  0.628903  0.000000  1
  Pt  Pt7  1  0.628903  0.871097  0.000000  1
  Pt  Pt8  1  0.871097  0.371097  0.000000  1
  Pt  Pt9  1  0.371097  0.128903  0.000000  1
