# generated using pymatgen
data_Zr10GaBi5PdPb
_symmetry_space_group_name_H-M   'P 1'
_cell_length_a   8.87884767
_cell_length_b   8.88334971
_cell_length_c   5.96868273
_cell_angle_alpha   90.05856340
_cell_angle_beta   89.88280730
_cell_angle_gamma   119.98323302
_symmetry_Int_Tables_number   1
_chemical_formula_structural   Zr10GaBi5PdPb
_chemical_formula_sum   'Zr10 Ga1 Bi5 Pd1 Pb1'
_cell_volume   407.76968303
_cell_formula_units_Z   1
loop_
 _symmetry_equiv_pos_site_id
 _symmetry_equiv_pos_as_xyz
  1  'x, y, z'
loop_
 _atom_site_type_symbol
 _atom_site_label
 _atom_site_symmetry_multiplicity
 _atom_site_fract_x
 _atom_site_fract_y
 _atom_site_fract_z
 _atom_site_occupancy
  Zr  Zr0  1  0.733548  0.000000  0.253633  1
  Zr  Zr1  1  0.001060  0.734395  0.253635  1
  Zr  Zr2  1  0.266666  0.265605  0.253635  1
  Zr  Zr3  1  0.263746  0.000000  0.746716  1
  Zr  Zr4  1  0.999759  0.264852  0.746267  1
  Zr  Zr5  1  0.734905  0.735148  0.746267  1
  Zr  Zr6  1  0.333826  0.667363  0.499125  1
  Zr  Zr7  1  0.666463  0.332637  0.499125  1
  Zr  Zr8  1  0.666946  0.333218  0.000456  1
  Zr  Zr9  1  0.333727  0.666782  0.000456  1
  Ga  Ga10  1  0.999798  0.000000  0.498307  1
  Bi  Bi11  1  0.000412  0.385963  0.249431  1
  Bi  Bi12  1  0.614450  0.614037  0.249431  1
  Bi  Bi13  1  0.612530  0.000000  0.751184  1
  Bi  Bi14  1  0.000634  0.614207  0.750173  1
  Bi  Bi15  1  0.386428  0.385793  0.750173  1
  Pd  Pd16  1  0.000198  0.000000  0.002668  1
  Pb  Pb17  1  0.384903  0.000000  0.249320  1
