# generated using pymatgen
data_Pr2Ga12Pt
_symmetry_space_group_name_H-M   'P 1'
_cell_length_a   6.19583200
_cell_length_b   6.19583200
_cell_length_c   15.62143400
_cell_angle_alpha   90.00000000
_cell_angle_beta   90.00000000
_cell_angle_gamma   90.00000000
_symmetry_Int_Tables_number   1
_chemical_formula_structural   Pr2Ga12Pt
_chemical_formula_sum   'Pr4 Ga24 Pt2'
_cell_volume   599.68082864
_cell_formula_units_Z   2
loop_
 _symmetry_equiv_pos_site_id
 _symmetry_equiv_pos_as_xyz
  1  'x, y, z'
loop_
 _atom_site_type_symbol
 _atom_site_label
 _atom_site_symmetry_multiplicity
 _atom_site_fract_x
 _atom_site_fract_y
 _atom_site_fract_z
 _atom_site_occupancy
  Pr  Pr0  1  0.750000  0.250000  0.247164  1
  Pr  Pr1  1  0.250000  0.750000  0.247164  1
  Pr  Pr2  1  0.250000  0.750000  0.752836  1
  Pr  Pr3  1  0.750000  0.250000  0.752836  1
  Ga  Ga4  1  0.250000  0.250000  0.185078  1
  Ga  Ga5  1  0.750000  0.750000  0.185078  1
  Ga  Ga6  1  0.750000  0.750000  0.814922  1
  Ga  Ga7  1  0.250000  0.250000  0.814922  1
  Ga  Ga8  1  0.250000  0.250000  0.344039  1
  Ga  Ga9  1  0.750000  0.750000  0.344039  1
  Ga  Ga10  1  0.750000  0.750000  0.655961  1
  Ga  Ga11  1  0.250000  0.250000  0.655961  1
  Ga  Ga12  1  0.500104  0.000104  0.912046  1
  Ga  Ga13  1  0.000104  0.999896  0.912046  1
  Ga  Ga14  1  0.499896  0.500104  0.912046  1
  Ga  Ga15  1  0.999896  0.499896  0.912046  1
  Ga  Ga16  1  0.499896  0.999896  0.087954  1
  Ga  Ga17  1  0.999896  0.000104  0.087954  1
  Ga  Ga18  1  0.500104  0.499896  0.087954  1
  Ga  Ga19  1  0.000104  0.500104  0.087954  1
  Ga  Ga20  1  0.577005  0.077005  0.430912  1
  Ga  Ga21  1  0.077005  0.922995  0.430912  1
  Ga  Ga22  1  0.422995  0.577005  0.430912  1
  Ga  Ga23  1  0.922995  0.422995  0.430912  1
  Ga  Ga24  1  0.422995  0.922995  0.569088  1
  Ga  Ga25  1  0.922995  0.077005  0.569088  1
  Ga  Ga26  1  0.577005  0.422995  0.569088  1
  Ga  Ga27  1  0.077005  0.577005  0.569088  1
  Pt  Pt28  1  0.750000  0.250000  0.000000  1
  Pt  Pt29  1  0.250000  0.750000  0.000000  1
