# generated using pymatgen
data_Ca14MnNb2V(GaN9)2
_symmetry_space_group_name_H-M   'P 1'
_cell_length_a   6.10011071
_cell_length_b   10.15162900
_cell_length_c   9.08678120
_cell_angle_alpha   90.00000000
_cell_angle_beta   92.69851447
_cell_angle_gamma   90.00000000
_symmetry_Int_Tables_number   1
_chemical_formula_structural   Ca14MnNb2V(GaN9)2
_chemical_formula_sum   'Ca14 Mn1 Nb2 V1 Ga2 N18'
_cell_volume   562.08457526
_cell_formula_units_Z   1
loop_
 _symmetry_equiv_pos_site_id
 _symmetry_equiv_pos_as_xyz
  1  'x, y, z'
loop_
 _atom_site_type_symbol
 _atom_site_label
 _atom_site_symmetry_multiplicity
 _atom_site_fract_x
 _atom_site_fract_y
 _atom_site_fract_z
 _atom_site_occupancy
  Ca  Ca0  1  0.064743  0.413989  0.174030  1
  Ca  Ca1  1  0.927590  0.924286  0.834149  1
  Ca  Ca2  1  0.927590  0.575714  0.834149  1
  Ca  Ca3  1  0.064743  0.086012  0.174030  1
  Ca  Ca4  1  0.240263  0.924609  0.508698  1
  Ca  Ca5  1  0.750703  0.414516  0.490471  1
  Ca  Ca6  1  0.750703  0.085484  0.490471  1
  Ca  Ca7  1  0.240263  0.575391  0.508698  1
  Ca  Ca8  1  0.564652  0.952994  0.174613  1
  Ca  Ca9  1  0.417028  0.421839  0.851991  1
  Ca  Ca10  1  0.417028  0.078161  0.851991  1
  Ca  Ca11  1  0.564652  0.547006  0.174613  1
  Ca  Ca12  1  0.910719  0.250000  0.804820  1
  Ca  Ca13  1  0.089848  0.750000  0.197442  1
  Mn  Mn14  1  0.549721  0.750000  0.712757  1
  Nb  Nb15  1  0.275640  0.250000  0.559968  1
  Nb  Nb16  1  0.720829  0.750000  0.430103  1
  V  V17  1  0.339823  0.750000  0.928316  1
  Ga  Ga18  1  0.458394  0.250000  0.276431  1
  Ga  Ga19  1  0.684090  0.250000  0.060397  1
  N  N20  1  0.110048  0.399964  0.658892  1
  N  N21  1  0.882816  0.899965  0.342483  1
  N  N22  1  0.882816  0.600035  0.342483  1
  N  N23  1  0.110048  0.100036  0.658892  1
  N  N24  1  0.243199  0.897408  0.015792  1
  N  N25  1  0.774085  0.416949  0.976562  1
  N  N26  1  0.774085  0.083051  0.976562  1
  N  N27  1  0.243199  0.602592  0.015792  1
  N  N28  1  0.361905  0.402531  0.377774  1
  N  N29  1  0.634610  0.887479  0.626483  1
  N  N30  1  0.634610  0.612521  0.626483  1
  N  N31  1  0.361905  0.097469  0.377774  1
  N  N32  1  0.343787  0.250000  0.059346  1
  N  N33  1  0.650094  0.750000  0.907727  1
  N  N34  1  0.553169  0.250000  0.667939  1
  N  N35  1  0.443209  0.750000  0.327777  1
  N  N36  1  0.793476  0.250000  0.277473  1
  N  N37  1  0.243917  0.750000  0.725624  1
