# generated using pymatgen
data_Er20Fe3NiBi8
_symmetry_space_group_name_H-M   'P 1'
_cell_length_a   7.91091806
_cell_length_b   8.87604600
_cell_length_c   12.33190550
_cell_angle_alpha   90.00000000
_cell_angle_beta   89.88308731
_cell_angle_gamma   90.00000000
_symmetry_Int_Tables_number   1
_chemical_formula_structural   Er20Fe3NiBi8
_chemical_formula_sum   'Er20 Fe3 Ni1 Bi8'
_cell_volume   865.91590084
_cell_formula_units_Z   1
loop_
 _symmetry_equiv_pos_site_id
 _symmetry_equiv_pos_as_xyz
  1  'x, y, z'
loop_
 _atom_site_type_symbol
 _atom_site_label
 _atom_site_symmetry_multiplicity
 _atom_site_fract_x
 _atom_site_fract_y
 _atom_site_fract_z
 _atom_site_occupancy
  Er  Er0  1  0.653130  0.750000  0.698852  1
  Er  Er1  1  0.345783  0.250000  0.298707  1
  Er  Er2  1  0.154936  0.250000  0.799852  1
  Er  Er3  1  0.841582  0.750000  0.204252  1
  Er  Er4  1  0.122677  0.750000  0.811839  1
  Er  Er5  1  0.882365  0.250000  0.185362  1
  Er  Er6  1  0.616766  0.250000  0.686069  1
  Er  Er7  1  0.380865  0.750000  0.312895  1
  Er  Er8  1  0.551000  0.750000  0.996147  1
  Er  Er9  1  0.446003  0.250000  0.003918  1
  Er  Er10  1  0.059085  0.250000  0.505116  1
  Er  Er11  1  0.945387  0.750000  0.496003  1
  Er  Er12  1  0.825226  0.456503  0.935648  1
  Er  Er13  1  0.173544  0.532702  0.064130  1
  Er  Er14  1  0.326649  0.538282  0.563362  1
  Er  Er15  1  0.173544  0.967298  0.064130  1
  Er  Er16  1  0.671425  0.465519  0.437578  1
  Er  Er17  1  0.825226  0.043497  0.935648  1
  Er  Er18  1  0.671425  0.034481  0.437578  1
  Er  Er19  1  0.326649  0.961718  0.563362  1
  Fe  Fe20  1  0.069988  0.250000  0.008326  1
  Fe  Fe21  1  0.431113  0.250000  0.507791  1
  Fe  Fe22  1  0.571580  0.750000  0.489569  1
  Ni  Ni23  1  0.931816  0.750000  0.991834  1
  Bi  Bi24  1  0.931932  0.007226  0.674035  1
  Bi  Bi25  1  0.067557  0.993389  0.327057  1
  Bi  Bi26  1  0.432855  0.992852  0.826934  1
  Bi  Bi27  1  0.067557  0.506611  0.327057  1
  Bi  Bi28  1  0.568774  0.007146  0.172989  1
  Bi  Bi29  1  0.931932  0.492774  0.674035  1
  Bi  Bi30  1  0.568774  0.492854  0.172989  1
  Bi  Bi31  1  0.432855  0.507148  0.826934  1
