# generated using pymatgen
data_TbYbEr5PtI12
_symmetry_space_group_name_H-M   'P 1'
_cell_length_a   9.75731345
_cell_length_b   9.77068799
_cell_length_c   9.75332201
_cell_angle_alpha   106.97942455
_cell_angle_beta   106.84450140
_cell_angle_gamma   106.89931800
_symmetry_Int_Tables_number   1
_chemical_formula_structural   TbYbEr5PtI12
_chemical_formula_sum   'Tb1 Yb1 Er5 Pt1 I12'
_cell_volume   776.31884936
_cell_formula_units_Z   1
loop_
 _symmetry_equiv_pos_site_id
 _symmetry_equiv_pos_as_xyz
  1  'x, y, z'
loop_
 _atom_site_type_symbol
 _atom_site_label
 _atom_site_symmetry_multiplicity
 _atom_site_fract_x
 _atom_site_fract_y
 _atom_site_fract_z
 _atom_site_occupancy
  Tb  Tb0  1  0.974062  0.696447  0.901460  1
  Yb  Yb1  1  0.499779  0.500469  0.500095  1
  Er  Er2  1  0.097382  0.026491  0.299826  1
  Er  Er3  1  0.299923  0.098115  0.026373  1
  Er  Er4  1  0.025987  0.298725  0.097338  1
  Er  Er5  1  0.902704  0.973370  0.700187  1
  Er  Er6  1  0.700726  0.903396  0.974045  1
  Pt  Pt7  1  0.000147  0.999871  0.000060  1
  I  I8  1  0.073509  0.677361  0.225813  1
  I  I9  1  0.222377  0.072528  0.676957  1
  I  I10  1  0.676926  0.222970  0.072478  1
  I  I11  1  0.926871  0.320406  0.776464  1
  I  I12  1  0.777853  0.928146  0.323177  1
  I  I13  1  0.326060  0.779697  0.928535  1
  I  I14  1  0.457468  0.151712  0.380591  1
  I  I15  1  0.380207  0.457913  0.151144  1
  I  I16  1  0.151091  0.380747  0.457899  1
  I  I17  1  0.542739  0.849280  0.619610  1
  I  I18  1  0.616897  0.542719  0.848734  1
  I  I19  1  0.847291  0.619638  0.539217  1
