# generated using pymatgen
data_Ho8Si12Ir2PtRh
_symmetry_space_group_name_H-M   'P 1'
_cell_length_a   8.15420900
_cell_length_b   8.15420963
_cell_length_c   7.88417100
_cell_angle_alpha   90.00000000
_cell_angle_beta   90.00000000
_cell_angle_gamma   120.00000963
_symmetry_Int_Tables_number   1
_chemical_formula_structural   Ho8Si12Ir2PtRh
_chemical_formula_sum   'Ho8 Si12 Ir2 Pt1 Rh1'
_cell_volume   453.99423221
_cell_formula_units_Z   1
loop_
 _symmetry_equiv_pos_site_id
 _symmetry_equiv_pos_as_xyz
  1  'x, y, z'
loop_
 _atom_site_type_symbol
 _atom_site_label
 _atom_site_symmetry_multiplicity
 _atom_site_fract_x
 _atom_site_fract_y
 _atom_site_fract_z
 _atom_site_occupancy
  Ho  Ho0  1  0.000000  0.000000  0.249411  1
  Ho  Ho1  1  0.000000  0.000000  0.751293  1
  Ho  Ho2  1  0.511113  0.488887  0.247486  1
  Ho  Ho3  1  0.511113  0.022226  0.247486  1
  Ho  Ho4  1  0.977774  0.488887  0.247486  1
  Ho  Ho5  1  0.491512  0.508488  0.752087  1
  Ho  Ho6  1  0.491512  0.983023  0.752087  1
  Ho  Ho7  1  0.016977  0.508488  0.752087  1
  Si  Si8  1  0.164539  0.835461  0.500128  1
  Si  Si9  1  0.164539  0.329076  0.500128  1
  Si  Si10  1  0.670924  0.835461  0.500128  1
  Si  Si11  1  0.832597  0.167403  0.499780  1
  Si  Si12  1  0.832597  0.665197  0.499780  1
  Si  Si13  1  0.334803  0.167403  0.499780  1
  Si  Si14  1  0.833670  0.166330  0.999111  1
  Si  Si15  1  0.833670  0.667341  0.999111  1
  Si  Si16  1  0.332659  0.166330  0.999111  1
  Si  Si17  1  0.167083  0.832917  0.000706  1
  Si  Si18  1  0.167083  0.334164  0.000706  1
  Si  Si19  1  0.665836  0.832917  0.000706  1
  Ir  Ir20  1  0.666667  0.333333  0.537139  1
  Ir  Ir21  1  0.666667  0.333333  0.963371  1
  Pt  Pt22  1  0.333333  0.666667  0.466286  1
  Rh  Rh23  1  0.333333  0.666667  0.034608  1
