# generated using pymatgen
data_Y4Ta4Co16Si5P7
_symmetry_space_group_name_H-M   'P 1'
_cell_length_a   3.71602100
_cell_length_b   10.59005955
_cell_length_c   12.11790363
_cell_angle_alpha   89.96303647
_cell_angle_beta   90.00000000
_cell_angle_gamma   90.00000000
_symmetry_Int_Tables_number   1
_chemical_formula_structural   Y4Ta4Co16Si5P7
_chemical_formula_sum   'Y4 Ta4 Co16 Si5 P7'
_cell_volume   476.87435281
_cell_formula_units_Z   1
loop_
 _symmetry_equiv_pos_site_id
 _symmetry_equiv_pos_as_xyz
  1  'x, y, z'
loop_
 _atom_site_type_symbol
 _atom_site_label
 _atom_site_symmetry_multiplicity
 _atom_site_fract_x
 _atom_site_fract_y
 _atom_site_fract_z
 _atom_site_occupancy
  Y  Y0  1  0.250000  0.919595  0.204022  1
  Y  Y1  1  0.750000  0.080861  0.796103  1
  Y  Y2  1  0.750000  0.422647  0.296488  1
  Y  Y3  1  0.250000  0.581072  0.704101  1
  Ta  Ta4  1  0.250000  0.797930  0.493631  1
  Ta  Ta5  1  0.750000  0.201474  0.508383  1
  Ta  Ta6  1  0.750000  0.297847  0.006158  1
  Ta  Ta7  1  0.250000  0.702230  0.993097  1
  Co  Co8  1  0.250000  0.092261  0.985680  1
  Co  Co9  1  0.750000  0.907504  0.010944  1
  Co  Co10  1  0.750000  0.594096  0.512263  1
  Co  Co11  1  0.250000  0.410006  0.490809  1
  Co  Co12  1  0.250000  0.283162  0.674309  1
  Co  Co13  1  0.750000  0.716585  0.326542  1
  Co  Co14  1  0.750000  0.782888  0.826710  1
  Co  Co15  1  0.250000  0.214240  0.168409  1
  Co  Co16  1  0.250000  0.618969  0.202833  1
  Co  Co17  1  0.750000  0.381668  0.796658  1
  Co  Co18  1  0.750000  0.117459  0.295993  1
  Co  Co19  1  0.250000  0.880374  0.703679  1
  Co  Co20  1  0.250000  0.035160  0.433750  1
  Co  Co21  1  0.750000  0.961260  0.569467  1
  Co  Co22  1  0.750000  0.537295  0.068171  1
  Co  Co23  1  0.250000  0.462495  0.931976  1
  Si  Si24  1  0.250000  0.075800  0.617791  1
  Si  Si25  1  0.750000  0.924245  0.383004  1
  Si  Si26  1  0.750000  0.576177  0.882649  1
  Si  Si27  1  0.250000  0.422569  0.117934  1
  Si  Si28  1  0.250000  0.230512  0.356135  1
  P  P29  1  0.750000  0.769810  0.642749  1
  P  P30  1  0.750000  0.729849  0.142452  1
  P  P31  1  0.250000  0.270430  0.857278  1
  P  P32  1  0.250000  0.908018  0.890242  1
  P  P33  1  0.750000  0.092218  0.109180  1
  P  P34  1  0.750000  0.408816  0.609213  1
  P  P35  1  0.250000  0.592478  0.391195  1
