# generated using pymatgen
data_Pr3P6RuRh8
_symmetry_space_group_name_H-M   'P 1'
_cell_length_a   4.02290300
_cell_length_b   11.44864600
_cell_length_c   12.81800700
_cell_angle_alpha   90.00000000
_cell_angle_beta   90.00000000
_cell_angle_gamma   90.00000000
_symmetry_Int_Tables_number   1
_chemical_formula_structural   Pr3P6RuRh8
_chemical_formula_sum   'Pr6 P12 Ru2 Rh16'
_cell_volume   590.35628660
_cell_formula_units_Z   2
loop_
 _symmetry_equiv_pos_site_id
 _symmetry_equiv_pos_as_xyz
  1  'x, y, z'
loop_
 _atom_site_type_symbol
 _atom_site_label
 _atom_site_symmetry_multiplicity
 _atom_site_fract_x
 _atom_site_fract_y
 _atom_site_fract_z
 _atom_site_occupancy
  Pr  Pr0  1  0.000000  0.500000  0.518385  1
  Pr  Pr1  1  0.500000  0.000000  0.481615  1
  Pr  Pr2  1  0.500000  0.820724  0.204804  1
  Pr  Pr3  1  0.500000  0.179276  0.204804  1
  Pr  Pr4  1  0.000000  0.679276  0.795196  1
  Pr  Pr5  1  0.000000  0.320724  0.795196  1
  P  P6  1  0.500000  0.500000  0.888198  1
  P  P7  1  0.000000  0.000000  0.111802  1
  P  P8  1  0.500000  0.500000  0.343548  1
  P  P9  1  0.000000  0.000000  0.656452  1
  P  P10  1  0.500000  0.310330  0.617668  1
  P  P11  1  0.500000  0.689670  0.617668  1
  P  P12  1  0.000000  0.189670  0.382332  1
  P  P13  1  0.000000  0.810330  0.382332  1
  P  P14  1  0.500000  0.844864  0.894354  1
  P  P15  1  0.500000  0.155136  0.894354  1
  P  P16  1  0.000000  0.655136  0.105646  1
  P  P17  1  0.000000  0.344864  0.105646  1
  Ru  Ru18  1  0.000000  0.500000  0.992233  1
  Ru  Ru19  1  0.500000  0.000000  0.007767  1
  Rh  Rh20  1  0.500000  0.500000  0.162716  1
  Rh  Rh21  1  0.000000  0.000000  0.837284  1
  Rh  Rh22  1  0.500000  0.500000  0.703070  1
  Rh  Rh23  1  0.000000  0.000000  0.296930  1
  Rh  Rh24  1  0.500000  0.332475  0.995760  1
  Rh  Rh25  1  0.500000  0.667525  0.995760  1
  Rh  Rh26  1  0.000000  0.167525  0.004240  1
  Rh  Rh27  1  0.000000  0.832475  0.004240  1
  Rh  Rh28  1  0.500000  0.293453  0.430148  1
  Rh  Rh29  1  0.500000  0.706547  0.430148  1
  Rh  Rh30  1  0.000000  0.206547  0.569852  1
  Rh  Rh31  1  0.000000  0.793453  0.569852  1
  Rh  Rh32  1  0.500000  0.874639  0.712063  1
  Rh  Rh33  1  0.500000  0.125361  0.712063  1
  Rh  Rh34  1  0.000000  0.625361  0.287937  1
  Rh  Rh35  1  0.000000  0.374639  0.287937  1
