# generated using pymatgen
data_GdTa2Bi5O14
_symmetry_space_group_name_H-M   'P 1'
_cell_length_a   6.75630900
_cell_length_b   6.72507034
_cell_length_c   7.65269900
_cell_angle_alpha   90.00000000
_cell_angle_beta   90.00000000
_cell_angle_gamma   107.51794183
_symmetry_Int_Tables_number   1
_chemical_formula_structural   GdTa2Bi5O14
_chemical_formula_sum   'Gd1 Ta2 Bi5 O14'
_cell_volume   331.58705313
_cell_formula_units_Z   1
loop_
 _symmetry_equiv_pos_site_id
 _symmetry_equiv_pos_as_xyz
  1  'x, y, z'
loop_
 _atom_site_type_symbol
 _atom_site_label
 _atom_site_symmetry_multiplicity
 _atom_site_fract_x
 _atom_site_fract_y
 _atom_site_fract_z
 _atom_site_occupancy
  Gd  Gd0  1  0.005818  0.536275  0.250000  1
  Ta  Ta1  1  0.005153  0.003758  0.497942  1
  Ta  Ta2  1  0.005153  0.003758  0.002058  1
  Bi  Bi3  1  0.550425  0.551041  0.498870  1
  Bi  Bi4  1  0.550425  0.551041  0.001130  1
  Bi  Bi5  1  0.999214  0.477377  0.750000  1
  Bi  Bi6  1  0.513588  0.009269  0.750000  1
  Bi  Bi7  1  0.477244  0.997716  0.250000  1
  O  O8  1  0.955728  0.033596  0.750000  1
  O  O9  1  0.057307  0.923909  0.250000  1
  O  O10  1  0.356234  0.657649  0.250000  1
  O  O11  1  0.641076  0.379392  0.750000  1
  O  O12  1  0.360247  0.657869  0.750000  1
  O  O13  1  0.650441  0.409144  0.250000  1
  O  O14  1  0.300022  0.037806  0.962606  1
  O  O15  1  0.687434  0.910287  0.458247  1
  O  O16  1  0.300022  0.037806  0.537394  1
  O  O17  1  0.687434  0.910287  0.041753  1
  O  O18  1  0.027186  0.284950  0.449965  1
  O  O19  1  0.921332  0.671059  0.968283  1
  O  O20  1  0.921332  0.671059  0.531717  1
  O  O21  1  0.027186  0.284950  0.050035  1
