# generated using pymatgen
data_La8Dy11ScPb16
_symmetry_space_group_name_H-M   'P 1'
_cell_length_a   8.30814500
_cell_length_b   8.36594948
_cell_length_c   15.86494000
_cell_angle_alpha   90.00000000
_cell_angle_beta   90.00000000
_cell_angle_gamma   90.04409186
_symmetry_Int_Tables_number   1
_chemical_formula_structural   La8Dy11ScPb16
_chemical_formula_sum   'La8 Dy11 Sc1 Pb16'
_cell_volume   1102.70059888
_cell_formula_units_Z   1
loop_
 _symmetry_equiv_pos_site_id
 _symmetry_equiv_pos_as_xyz
  1  'x, y, z'
loop_
 _atom_site_type_symbol
 _atom_site_label
 _atom_site_symmetry_multiplicity
 _atom_site_fract_x
 _atom_site_fract_y
 _atom_site_fract_z
 _atom_site_occupancy
  La  La0  1  0.474001  0.677502  0.597439  1
  La  La1  1  0.974279  0.822369  0.902800  1
  La  La2  1  0.526345  0.321749  0.097779  1
  La  La3  1  0.025317  0.177118  0.402270  1
  La  La4  1  0.526345  0.321749  0.402221  1
  La  La5  1  0.025317  0.177118  0.097730  1
  La  La6  1  0.474001  0.677502  0.902561  1
  La  La7  1  0.974279  0.822369  0.597200  1
  Dy  Dy8  1  0.633041  0.158223  0.622151  1
  Dy  Dy9  1  0.133198  0.341905  0.877593  1
  Dy  Dy10  1  0.368029  0.842625  0.122848  1
  Dy  Dy11  1  0.866175  0.658520  0.377265  1
  Dy  Dy12  1  0.368029  0.842625  0.377152  1
  Dy  Dy13  1  0.866175  0.658520  0.122735  1
  Dy  Dy14  1  0.633041  0.158223  0.877849  1
  Dy  Dy15  1  0.133198  0.341905  0.622407  1
  Dy  Dy16  1  0.799516  0.494313  0.750000  1
  Dy  Dy17  1  0.299581  0.005449  0.750000  1
  Dy  Dy18  1  0.200238  0.505600  0.250000  1
  Sc  Sc19  1  0.700970  0.993772  0.250000  1
  Pb  Pb20  1  0.705551  0.959818  0.454559  1
  Pb  Pb21  1  0.205268  0.540630  0.043853  1
  Pb  Pb22  1  0.294873  0.040672  0.956407  1
  Pb  Pb23  1  0.794791  0.459447  0.543616  1
  Pb  Pb24  1  0.294873  0.040672  0.543593  1
  Pb  Pb25  1  0.794791  0.459447  0.956384  1
  Pb  Pb26  1  0.705551  0.959818  0.045441  1
  Pb  Pb27  1  0.205268  0.540630  0.456147  1
  Pb  Pb28  1  0.437194  0.371467  0.750000  1
  Pb  Pb29  1  0.937122  0.128140  0.750000  1
  Pb  Pb30  1  0.564103  0.630993  0.250000  1
  Pb  Pb31  1  0.058947  0.873473  0.250000  1
  Pb  Pb32  1  0.663898  0.850962  0.750000  1
  Pb  Pb33  1  0.163632  0.649505  0.750000  1
  Pb  Pb34  1  0.337909  0.148159  0.250000  1
  Pb  Pb35  1  0.835153  0.347008  0.250000  1
