# generated using pymatgen
data_Th3CoNiIr7
_symmetry_space_group_name_H-M   'P 1'
_cell_length_a   5.36315166
_cell_length_b   5.36315051
_cell_length_c   9.12602869
_cell_angle_alpha   72.91212566
_cell_angle_beta   72.91212727
_cell_angle_gamma   60.00000144
_symmetry_Int_Tables_number   1
_chemical_formula_structural   Th3CoNiIr7
_chemical_formula_sum   'Th3 Co1 Ni1 Ir7'
_cell_volume   213.84271684
_cell_formula_units_Z   1
loop_
 _symmetry_equiv_pos_site_id
 _symmetry_equiv_pos_as_xyz
  1  'x, y, z'
loop_
 _atom_site_type_symbol
 _atom_site_label
 _atom_site_symmetry_multiplicity
 _atom_site_fract_x
 _atom_site_fract_y
 _atom_site_fract_z
 _atom_site_occupancy
  Th  Th0  1  0.861322  0.861322  0.416036  1
  Th  Th1  1  0.139081  0.139081  0.582755  1
  Th  Th2  1  0.999985  0.999985  0.000044  1
  Co  Co3  1  0.333415  0.333415  0.999757  1
  Ni  Ni4  1  0.666406  0.666406  0.000780  1
  Ir  Ir5  1  0.420383  0.420383  0.236086  1
  Ir  Ir6  1  0.923148  0.420383  0.236086  1
  Ir  Ir7  1  0.420383  0.923148  0.236086  1
  Ir  Ir8  1  0.579767  0.579767  0.763692  1
  Ir  Ir9  1  0.076774  0.579767  0.763692  1
  Ir  Ir10  1  0.579767  0.076774  0.763692  1
  Ir  Ir11  1  0.499569  0.499569  0.501294  1
