# generated using pymatgen
data_Y3ErReB12Os
_symmetry_space_group_name_H-M   'P 1'
_cell_length_a   3.66459200
_cell_length_b   9.16199649
_cell_length_c   11.55120419
_cell_angle_alpha   90.16049876
_cell_angle_beta   90.00000000
_cell_angle_gamma   90.00000000
_symmetry_Int_Tables_number   1
_chemical_formula_structural   Y3ErReB12Os
_chemical_formula_sum   'Y6 Er2 Re2 B24 Os2'
_cell_volume   387.82991698
_cell_formula_units_Z   2
loop_
 _symmetry_equiv_pos_site_id
 _symmetry_equiv_pos_as_xyz
  1  'x, y, z'
loop_
 _atom_site_type_symbol
 _atom_site_label
 _atom_site_symmetry_multiplicity
 _atom_site_fract_x
 _atom_site_fract_y
 _atom_site_fract_z
 _atom_site_occupancy
  Y  Y0  1  0.000000  0.321078  0.412341  1
  Y  Y1  1  0.000000  0.678922  0.587659  1
  Y  Y2  1  0.000000  0.824226  0.084644  1
  Y  Y3  1  0.000000  0.175774  0.915356  1
  Y  Y4  1  0.000000  0.943422  0.370588  1
  Y  Y5  1  0.000000  0.056578  0.629412  1
  Er  Er6  1  0.000000  0.442634  0.128725  1
  Er  Er7  1  0.000000  0.557366  0.871275  1
  Re  Re8  1  0.000000  0.139083  0.179345  1
  Re  Re9  1  0.000000  0.860917  0.820655  1
  B  B10  1  0.500000  0.553648  0.432756  1
  B  B11  1  0.500000  0.446352  0.567244  1
  B  B12  1  0.500000  0.053436  0.067038  1
  B  B13  1  0.500000  0.946564  0.932962  1
  B  B14  1  0.500000  0.748151  0.418491  1
  B  B15  1  0.500000  0.251849  0.581509  1
  B  B16  1  0.500000  0.249351  0.081214  1
  B  B17  1  0.500000  0.750649  0.918786  1
  B  B18  1  0.500000  0.790151  0.265768  1
  B  B19  1  0.500000  0.209849  0.734232  1
  B  B20  1  0.500000  0.292162  0.234210  1
  B  B21  1  0.500000  0.707838  0.765790  1
  B  B22  1  0.500000  0.630193  0.185875  1
  B  B23  1  0.500000  0.369807  0.814125  1
  B  B24  1  0.500000  0.131673  0.314370  1
  B  B25  1  0.500000  0.868327  0.685630  1
  B  B26  1  0.500000  0.983123  0.212213  1
  B  B27  1  0.500000  0.016877  0.787787  1
  B  B28  1  0.500000  0.482872  0.287529  1
  B  B29  1  0.500000  0.517128  0.712471  1
  B  B30  1  0.500000  0.602040  0.028579  1
  B  B31  1  0.500000  0.397960  0.971421  1
  B  B32  1  0.500000  0.104115  0.471327  1
  B  B33  1  0.500000  0.895885  0.528673  1
  Os  Os34  1  0.000000  0.636909  0.321337  1
  Os  Os35  1  0.000000  0.363091  0.678663  1
