# generated using pymatgen
data_Na2Ni5(PRu)7
_symmetry_space_group_name_H-M   'P 1'
_cell_length_a   9.35297880
_cell_length_b   9.28977618
_cell_length_c   3.71131100
_cell_angle_alpha   90.00000000
_cell_angle_beta   90.00000000
_cell_angle_gamma   119.70959822
_symmetry_Int_Tables_number   1
_chemical_formula_structural   Na2Ni5(PRu)7
_chemical_formula_sum   'Na2 Ni5 P7 Ru7'
_cell_volume   280.07647067
_cell_formula_units_Z   1
loop_
 _symmetry_equiv_pos_site_id
 _symmetry_equiv_pos_as_xyz
  1  'x, y, z'
loop_
 _atom_site_type_symbol
 _atom_site_label
 _atom_site_symmetry_multiplicity
 _atom_site_fract_x
 _atom_site_fract_y
 _atom_site_fract_z
 _atom_site_occupancy
  Na  Na0  1  0.000347  0.000074  0.000000  1
  Na  Na1  1  0.333268  0.663724  0.500000  1
  Ni  Ni2  1  0.601400  0.697896  0.000000  1
  Ni  Ni3  1  0.095106  0.396507  0.000000  1
  Ni  Ni4  1  0.787880  0.174277  0.000000  1
  Ni  Ni5  1  0.392827  0.221362  0.000000  1
  Ni  Ni6  1  0.822210  0.608251  0.000000  1
  P  P7  1  0.555207  0.925485  0.000000  1
  P  P8  1  0.370403  0.449235  0.000000  1
  P  P9  1  0.073132  0.627342  0.000000  1
  P  P10  1  0.952343  0.211308  0.500000  1
  P  P11  1  0.263845  0.046824  0.500000  1
  P  P12  1  0.785020  0.737812  0.500000  1
  P  P13  1  0.668075  0.333611  0.000000  1
  Ru  Ru14  1  0.300062  0.902468  0.000000  1
  Ru  Ru15  1  0.711528  0.941038  0.500000  1
  Ru  Ru16  1  0.230662  0.289377  0.500000  1
  Ru  Ru17  1  0.049666  0.767016  0.500000  1
  Ru  Ru18  1  0.548284  0.131578  0.500000  1
  Ru  Ru19  1  0.581669  0.458253  0.500000  1
  Ru  Ru20  1  0.877066  0.416561  0.500000  1
