# generated using pymatgen
data_Ho4Ga4NiRu2Pt
_symmetry_space_group_name_H-M   'P 1'
_cell_length_a   4.31566400
_cell_length_b   6.83772330
_cell_length_c   7.66882614
_cell_angle_alpha   90.32439105
_cell_angle_beta   90.00000000
_cell_angle_gamma   90.00000000
_symmetry_Int_Tables_number   1
_chemical_formula_structural   Ho4Ga4NiRu2Pt
_chemical_formula_sum   'Ho4 Ga4 Ni1 Ru2 Pt1'
_cell_volume   226.29818912
_cell_formula_units_Z   1
loop_
 _symmetry_equiv_pos_site_id
 _symmetry_equiv_pos_as_xyz
  1  'x, y, z'
loop_
 _atom_site_type_symbol
 _atom_site_label
 _atom_site_symmetry_multiplicity
 _atom_site_fract_x
 _atom_site_fract_y
 _atom_site_fract_z
 _atom_site_occupancy
  Ho  Ho0  1  0.250000  0.520482  0.684829  1
  Ho  Ho1  1  0.250000  0.024310  0.810812  1
  Ho  Ho2  1  0.750000  0.987851  0.197969  1
  Ho  Ho3  1  0.750000  0.481341  0.305562  1
  Ga  Ga4  1  0.750000  0.327345  0.919721  1
  Ga  Ga5  1  0.250000  0.168854  0.435685  1
  Ga  Ga6  1  0.750000  0.839036  0.570470  1
  Ga  Ga7  1  0.250000  0.661071  0.076484  1
  Ni  Ni8  1  0.750000  0.215241  0.602314  1
  Ru  Ru9  1  0.250000  0.274124  0.105004  1
  Ru  Ru10  1  0.250000  0.777325  0.396889  1
  Pt  Pt11  1  0.750000  0.723016  0.894262  1
