# generated using pymatgen
data_Dy2Er10GaCo4Os
_symmetry_space_group_name_H-M   'P 1'
_cell_length_a   8.15750043
_cell_length_b   8.15664282
_cell_length_c   8.15749967
_cell_angle_alpha   106.49026225
_cell_angle_beta   110.49000082
_cell_angle_gamma   111.47971804
_symmetry_Int_Tables_number   1
_chemical_formula_structural   Dy2Er10GaCo4Os
_chemical_formula_sum   'Dy2 Er10 Ga1 Co4 Os1'
_cell_volume   416.93625193
_cell_formula_units_Z   1
loop_
 _symmetry_equiv_pos_site_id
 _symmetry_equiv_pos_as_xyz
  1  'x, y, z'
loop_
 _atom_site_type_symbol
 _atom_site_label
 _atom_site_symmetry_multiplicity
 _atom_site_fract_x
 _atom_site_fract_y
 _atom_site_fract_z
 _atom_site_occupancy
  Dy  Dy0  1  0.960324  0.778183  0.182157  1
  Dy  Dy1  1  0.596026  0.778183  0.817861  1
  Er  Er2  1  0.307232  0.272688  0.579687  1
  Er  Er3  1  0.692433  0.727199  0.419929  1
  Er  Er4  1  0.307270  0.727199  0.034764  1
  Er  Er5  1  0.693000  0.272688  0.965457  1
  Er  Er6  1  0.195545  0.512347  0.316802  1
  Er  Er7  1  0.195484  0.878838  0.683354  1
  Er  Er8  1  0.804233  0.486559  0.682327  1
  Er  Er9  1  0.804051  0.121691  0.317640  1
  Er  Er10  1  0.403953  0.222822  0.181416  1
  Er  Er11  1  0.041406  0.222822  0.818869  1
  Ga  Ga12  1  0.499960  0.999666  0.499706  1
  Co  Co13  1  0.126973  0.499449  0.627523  1
  Co  Co14  1  0.871927  0.499449  0.372476  1
  Co  Co15  1  0.000743  0.113842  0.113099  1
  Co  Co16  1  0.000816  0.887822  0.887005  1
  Os  Os17  1  0.498624  0.498551  0.999927  1
