# generated using pymatgen
data_Ho4ErGa6P6Ir19
_symmetry_space_group_name_H-M   'P 1'
_cell_length_a   12.95685200
_cell_length_b   12.95685251
_cell_length_c   3.97752500
_cell_angle_alpha   90.00000000
_cell_angle_beta   90.00000000
_cell_angle_gamma   120.00000380
_symmetry_Int_Tables_number   1
_chemical_formula_structural   Ho4ErGa6P6Ir19
_chemical_formula_sum   'Ho4 Er1 Ga6 P6 Ir19'
_cell_volume   578.28582423
_cell_formula_units_Z   1
loop_
 _symmetry_equiv_pos_site_id
 _symmetry_equiv_pos_as_xyz
  1  'x, y, z'
loop_
 _atom_site_type_symbol
 _atom_site_label
 _atom_site_symmetry_multiplicity
 _atom_site_fract_x
 _atom_site_fract_y
 _atom_site_fract_z
 _atom_site_occupancy
  Ho  Ho0  1  0.666667  0.333333  0.000000  1
  Ho  Ho1  1  0.816709  0.812250  0.500000  1
  Ho  Ho2  1  0.187750  0.004459  0.500000  1
  Ho  Ho3  1  0.995541  0.183291  0.500000  1
  Er  Er4  1  0.333333  0.666667  0.000000  1
  Ga  Ga5  1  0.677169  0.158662  0.500000  1
  Ga  Ga6  1  0.841338  0.518506  0.500000  1
  Ga  Ga7  1  0.481494  0.322831  0.500000  1
  Ga  Ga8  1  0.635426  0.637093  0.000000  1
  Ga  Ga9  1  0.362907  0.998333  0.000000  1
  Ga  Ga10  1  0.001667  0.364574  0.000000  1
  P  P11  1  0.180234  0.697281  0.500000  1
  P  P12  1  0.517046  0.819766  0.500000  1
  P  P13  1  0.302719  0.482954  0.500000  1
  P  P14  1  0.175459  0.181124  0.000000  1
  P  P15  1  0.818876  0.994335  0.000000  1
  P  P16  1  0.005665  0.824541  0.000000  1
  Ir  Ir17  1  0.809250  0.169246  0.000000  1
  Ir  Ir18  1  0.830754  0.640004  0.000000  1
  Ir  Ir19  1  0.359996  0.190750  0.000000  1
  Ir  Ir20  1  0.182181  0.793802  0.000000  1
  Ir  Ir21  1  0.611621  0.817819  0.000000  1
  Ir  Ir22  1  0.206198  0.388379  0.000000  1
  Ir  Ir23  1  0.446463  0.440528  0.000000  1
  Ir  Ir24  1  0.559472  0.005935  0.000000  1
  Ir  Ir25  1  0.994065  0.553537  0.000000  1
  Ir  Ir26  1  0.267812  0.280580  0.500000  1
  Ir  Ir27  1  0.719420  0.987231  0.500000  1
  Ir  Ir28  1  0.012769  0.732188  0.500000  1
  Ir  Ir29  1  0.872835  0.348616  0.500000  1
  Ir  Ir30  1  0.651384  0.524220  0.500000  1
  Ir  Ir31  1  0.475780  0.127165  0.500000  1
  Ir  Ir32  1  0.371356  0.868646  0.500000  1
  Ir  Ir33  1  0.497292  0.628644  0.500000  1
  Ir  Ir34  1  0.131354  0.502708  0.500000  1
  Ir  Ir35  1  0.000000  0.000000  0.000000  1
