# generated using pymatgen
data_Tb16In4Pd3Rh
_symmetry_space_group_name_H-M   'P 1'
_cell_length_a   9.78456301
_cell_length_b   9.74414487
_cell_length_c   9.74414400
_cell_angle_alpha   60.00000295
_cell_angle_beta   60.13655513
_cell_angle_gamma   60.13655273
_symmetry_Int_Tables_number   1
_chemical_formula_structural   Tb16In4Pd3Rh
_chemical_formula_sum   'Tb16 In4 Pd3 Rh1'
_cell_volume   658.27473074
_cell_formula_units_Z   1
loop_
 _symmetry_equiv_pos_site_id
 _symmetry_equiv_pos_as_xyz
  1  'x, y, z'
loop_
 _atom_site_type_symbol
 _atom_site_label
 _atom_site_symmetry_multiplicity
 _atom_site_fract_x
 _atom_site_fract_y
 _atom_site_fract_z
 _atom_site_occupancy
  Tb  Tb0  1  0.810741  0.809633  0.189813  1
  Tb  Tb1  1  0.810741  0.189813  0.809633  1
  Tb  Tb2  1  0.193594  0.184920  0.810743  1
  Tb  Tb3  1  0.644222  0.054783  0.650498  1
  Tb  Tb4  1  0.060646  0.062946  0.438204  1
  Tb  Tb5  1  0.436893  0.439164  0.061971  1
  Tb  Tb6  1  0.644222  0.650498  0.650498  1
  Tb  Tb7  1  0.810741  0.189813  0.189813  1
  Tb  Tb8  1  0.193594  0.810743  0.810743  1
  Tb  Tb9  1  0.058485  0.647172  0.647172  1
  Tb  Tb10  1  0.436893  0.061971  0.061971  1
  Tb  Tb11  1  0.436893  0.061971  0.439164  1
  Tb  Tb12  1  0.060646  0.438204  0.062946  1
  Tb  Tb13  1  0.644222  0.650498  0.054783  1
  Tb  Tb14  1  0.193594  0.810743  0.184920  1
  Tb  Tb15  1  0.060646  0.438204  0.438204  1
  In  In16  1  0.417197  0.417286  0.417286  1
  In  In17  1  0.417197  0.417286  0.748230  1
  In  In18  1  0.417197  0.748230  0.417286  1
  In  In19  1  0.749247  0.416917  0.416917  1
  Pd  Pd20  1  0.857174  0.431113  0.855857  1
  Pd  Pd21  1  0.857174  0.855857  0.855857  1
  Pd  Pd22  1  0.857174  0.855857  0.431113  1
  Rh  Rh23  1  0.430870  0.856377  0.856377  1
