# generated using pymatgen
data_Lu4Th3Au10
_symmetry_space_group_name_H-M   'P 1'
_cell_length_a   8.86460097
_cell_length_b   8.86460057
_cell_length_c   10.31929100
_cell_angle_alpha   90.00000000
_cell_angle_beta   90.00000000
_cell_angle_gamma   108.76233416
_symmetry_Int_Tables_number   1
_chemical_formula_structural   Lu4Th3Au10
_chemical_formula_sum   'Lu8 Th6 Au20'
_cell_volume   767.81114184
_cell_formula_units_Z   2
loop_
 _symmetry_equiv_pos_site_id
 _symmetry_equiv_pos_as_xyz
  1  'x, y, z'
loop_
 _atom_site_type_symbol
 _atom_site_label
 _atom_site_symmetry_multiplicity
 _atom_site_fract_x
 _atom_site_fract_y
 _atom_site_fract_z
 _atom_site_occupancy
  Lu  Lu0  1  0.692380  0.307620  0.000000  1
  Lu  Lu1  1  0.307620  0.692380  0.000000  1
  Lu  Lu2  1  0.807620  0.192380  0.500000  1
  Lu  Lu3  1  0.192380  0.807620  0.500000  1
  Lu  Lu4  1  0.001861  0.501861  0.250000  1
  Lu  Lu5  1  0.998139  0.498139  0.750000  1
  Lu  Lu6  1  0.498139  0.998139  0.750000  1
  Lu  Lu7  1  0.501861  0.001861  0.250000  1
  Th  Th8  1  0.000000  0.000000  0.000000  1
  Th  Th9  1  0.500000  0.500000  0.500000  1
  Th  Th10  1  0.308713  0.308713  0.190539  1
  Th  Th11  1  0.691287  0.691287  0.809461  1
  Th  Th12  1  0.191287  0.191287  0.690539  1
  Th  Th13  1  0.808713  0.808713  0.309461  1
  Au  Au14  1  0.854947  0.154540  0.209948  1
  Au  Au15  1  0.145053  0.845460  0.790052  1
  Au  Au16  1  0.645053  0.345460  0.709948  1
  Au  Au17  1  0.654540  0.354947  0.290052  1
  Au  Au18  1  0.354947  0.654540  0.290052  1
  Au  Au19  1  0.345460  0.645053  0.709948  1
  Au  Au20  1  0.845460  0.145053  0.790052  1
  Au  Au21  1  0.154540  0.854947  0.209948  1
  Au  Au22  1  0.939475  0.639261  0.003295  1
  Au  Au23  1  0.060525  0.360739  0.996705  1
  Au  Au24  1  0.560525  0.860739  0.503295  1
  Au  Au25  1  0.139261  0.439475  0.496705  1
  Au  Au26  1  0.439475  0.139261  0.496705  1
  Au  Au27  1  0.860739  0.560525  0.503295  1
  Au  Au28  1  0.360739  0.060525  0.996705  1
  Au  Au29  1  0.639261  0.939475  0.003295  1
  Au  Au30  1  0.100095  0.100095  0.400277  1
  Au  Au31  1  0.899905  0.899905  0.599723  1
  Au  Au32  1  0.399905  0.399905  0.900277  1
  Au  Au33  1  0.600095  0.600095  0.099723  1
