# generated using pymatgen
data_LaU4Si12Ir19
_symmetry_space_group_name_H-M   'P 1'
_cell_length_a   12.98019800
_cell_length_b   12.98019918
_cell_length_c   4.02305200
_cell_angle_alpha   90.00000000
_cell_angle_beta   90.00000000
_cell_angle_gamma   120.00000209
_symmetry_Int_Tables_number   1
_chemical_formula_structural   LaU4Si12Ir19
_chemical_formula_sum   'La1 U4 Si12 Ir19'
_cell_volume   587.01465359
_cell_formula_units_Z   1
loop_
 _symmetry_equiv_pos_site_id
 _symmetry_equiv_pos_as_xyz
  1  'x, y, z'
loop_
 _atom_site_type_symbol
 _atom_site_label
 _atom_site_symmetry_multiplicity
 _atom_site_fract_x
 _atom_site_fract_y
 _atom_site_fract_z
 _atom_site_occupancy
  La  La0  1  0.666667  0.333333  0.000000  1
  U  U1  1  0.999980  0.816876  0.500000  1
  U  U2  1  0.183124  0.183104  0.500000  1
  U  U3  1  0.816896  0.000020  0.500000  1
  U  U4  1  0.333333  0.666667  0.000000  1
  Si  Si5  1  0.001366  0.182539  0.000000  1
  Si  Si6  1  0.817461  0.818827  0.000000  1
  Si  Si7  1  0.181173  0.998634  0.000000  1
  Si  Si8  1  0.519604  0.687419  0.500000  1
  Si  Si9  1  0.312581  0.832185  0.500000  1
  Si  Si10  1  0.167815  0.480396  0.500000  1
  Si  Si11  1  0.478819  0.166388  0.500000  1
  Si  Si12  1  0.687570  0.521181  0.500000  1
  Si  Si13  1  0.833612  0.312430  0.500000  1
  Si  Si14  1  0.999618  0.631564  0.000000  1
  Si  Si15  1  0.368436  0.368054  0.000000  1
  Si  Si16  1  0.631946  0.000382  0.000000  1
  Ir  Ir17  1  0.001071  0.282712  0.500000  1
  Ir  Ir18  1  0.717288  0.718359  0.500000  1
  Ir  Ir19  1  0.281641  0.998929  0.500000  1
  Ir  Ir20  1  0.623695  0.805911  0.000000  1
  Ir  Ir21  1  0.194089  0.817784  0.000000  1
  Ir  Ir22  1  0.182216  0.376305  0.000000  1
  Ir  Ir23  1  0.372441  0.180043  0.000000  1
  Ir  Ir24  1  0.807602  0.627559  0.000000  1
  Ir  Ir25  1  0.819957  0.192398  0.000000  1
  Ir  Ir26  1  0.510108  0.870361  0.500000  1
  Ir  Ir27  1  0.129639  0.639748  0.500000  1
  Ir  Ir28  1  0.360252  0.489892  0.500000  1
  Ir  Ir29  1  0.483832  0.361328  0.500000  1
  Ir  Ir30  1  0.877498  0.516168  0.500000  1
  Ir  Ir31  1  0.638672  0.122502  0.500000  1
  Ir  Ir32  1  0.000000  0.000000  0.000000  1
  Ir  Ir33  1  0.000436  0.447621  0.000000  1
  Ir  Ir34  1  0.552379  0.552815  0.000000  1
  Ir  Ir35  1  0.447185  0.999564  0.000000  1
