# generated using pymatgen
data_Dy11TmCoTc3
_symmetry_space_group_name_H-M   'P 1'
_cell_length_a   6.28329957
_cell_length_b   7.31502062
_cell_length_c   9.19718491
_cell_angle_alpha   90.02199037
_cell_angle_beta   89.95393288
_cell_angle_gamma   90.08414282
_symmetry_Int_Tables_number   1
_chemical_formula_structural   Dy11TmCoTc3
_chemical_formula_sum   'Dy11 Tm1 Co1 Tc3'
_cell_volume   422.72467446
_cell_formula_units_Z   1
loop_
 _symmetry_equiv_pos_site_id
 _symmetry_equiv_pos_as_xyz
  1  'x, y, z'
loop_
 _atom_site_type_symbol
 _atom_site_label
 _atom_site_symmetry_multiplicity
 _atom_site_fract_x
 _atom_site_fract_y
 _atom_site_fract_z
 _atom_site_occupancy
  Dy  Dy0  1  0.127975  0.457624  0.750375  1
  Dy  Dy1  1  0.373530  0.958380  0.750273  1
  Dy  Dy2  1  0.856974  0.543190  0.249577  1
  Dy  Dy3  1  0.627276  0.049482  0.249692  1
  Dy  Dy4  1  0.167852  0.178399  0.436257  1
  Dy  Dy5  1  0.836624  0.823499  0.562188  1
  Dy  Dy6  1  0.167791  0.178516  0.063513  1
  Dy  Dy7  1  0.836328  0.823511  0.937885  1
  Dy  Dy8  1  0.669210  0.322325  0.565498  1
  Dy  Dy9  1  0.334817  0.672943  0.064686  1
  Dy  Dy10  1  0.334256  0.673531  0.435043  1
  Tm  Tm11  1  0.669343  0.322521  0.934632  1
  Co  Co12  1  0.461277  0.385314  0.249521  1
  Tc  Tc13  1  0.540288  0.609985  0.750319  1
  Tc  Tc14  1  0.960962  0.112895  0.750450  1
  Tc  Tc15  1  0.035499  0.887884  0.250092  1
