# generated using pymatgen
data_Dy10Ho6MgZn3Co4
_symmetry_space_group_name_H-M   'P 1'
_cell_length_a   9.42763383
_cell_length_b   9.41579436
_cell_length_c   9.41579400
_cell_angle_alpha   60.00000127
_cell_angle_beta   60.04153496
_cell_angle_gamma   60.04151832
_symmetry_Int_Tables_number   1
_chemical_formula_structural   Dy10Ho6MgZn3Co4
_chemical_formula_sum   'Dy10 Ho6 Mg1 Zn3 Co4'
_cell_volume   591.38994537
_cell_formula_units_Z   1
loop_
 _symmetry_equiv_pos_site_id
 _symmetry_equiv_pos_as_xyz
  1  'x, y, z'
loop_
 _atom_site_type_symbol
 _atom_site_label
 _atom_site_symmetry_multiplicity
 _atom_site_fract_x
 _atom_site_fract_y
 _atom_site_fract_z
 _atom_site_occupancy
  Dy  Dy0  1  0.934087  0.562228  0.562228  1
  Dy  Dy1  1  0.561137  0.937612  0.937612  1
  Dy  Dy2  1  0.561137  0.937612  0.563639  1
  Dy  Dy3  1  0.934087  0.562228  0.941457  1
  Dy  Dy4  1  0.561137  0.563639  0.937612  1
  Dy  Dy5  1  0.934087  0.941457  0.562228  1
  Dy  Dy6  1  0.349340  0.346931  0.346931  1
  Dy  Dy7  1  0.349340  0.346931  0.956797  1
  Dy  Dy8  1  0.349340  0.956797  0.346931  1
  Dy  Dy9  1  0.944982  0.351672  0.351672  1
  Ho  Ho10  1  0.808677  0.190728  0.190728  1
  Ho  Ho11  1  0.187897  0.812544  0.812544  1
  Ho  Ho12  1  0.187897  0.812544  0.187015  1
  Ho  Ho13  1  0.808677  0.190728  0.809866  1
  Ho  Ho14  1  0.187897  0.187015  0.812544  1
  Ho  Ho15  1  0.808677  0.809866  0.190728  1
  Mg  Mg16  1  0.290216  0.569928  0.569928  1
  Zn  Zn17  1  0.583569  0.580751  0.580751  1
  Zn  Zn18  1  0.583569  0.580751  0.254929  1
  Zn  Zn19  1  0.583569  0.254929  0.580751  1
  Co  Co20  1  0.138363  0.142972  0.142972  1
  Co  Co21  1  0.138363  0.142972  0.575695  1
  Co  Co22  1  0.138363  0.575695  0.142972  1
  Co  Co23  1  0.575594  0.141468  0.141468  1
