# generated using pymatgen
data_CePu(TaN2)2
_symmetry_space_group_name_H-M   'P 1'
_cell_length_a   3.30533000
_cell_length_b   5.72659001
_cell_length_c   11.00579101
_cell_angle_alpha   90.00555623
_cell_angle_beta   90.00000000
_cell_angle_gamma   90.00000000
_symmetry_Int_Tables_number   1
_chemical_formula_structural   CePu(TaN2)2
_chemical_formula_sum   'Ce2 Pu2 Ta4 N8'
_cell_volume   208.32058009
_cell_formula_units_Z   2
loop_
 _symmetry_equiv_pos_site_id
 _symmetry_equiv_pos_as_xyz
  1  'x, y, z'
loop_
 _atom_site_type_symbol
 _atom_site_label
 _atom_site_symmetry_multiplicity
 _atom_site_fract_x
 _atom_site_fract_y
 _atom_site_fract_z
 _atom_site_occupancy
  Ce  Ce0  1  0.250000  0.580275  0.859800  1
  Ce  Ce1  1  0.750000  0.419725  0.140200  1
  Pu  Pu2  1  0.750000  0.917733  0.362512  1
  Pu  Pu3  1  0.250000  0.082267  0.637488  1
  Ta  Ta4  1  0.250000  0.921060  0.107443  1
  Ta  Ta5  1  0.750000  0.078940  0.892557  1
  Ta  Ta6  1  0.750000  0.580926  0.605675  1
  Ta  Ta7  1  0.250000  0.419074  0.394325  1
  N  N8  1  0.250000  0.664480  0.247746  1
  N  N9  1  0.750000  0.335520  0.752254  1
  N  N10  1  0.750000  0.840997  0.743712  1
  N  N11  1  0.250000  0.159003  0.256288  1
  N  N12  1  0.250000  0.742569  0.507763  1
  N  N13  1  0.750000  0.257431  0.492237  1
  N  N14  1  0.750000  0.762688  0.009681  1
  N  N15  1  0.250000  0.237312  0.990319  1
