# generated using pymatgen
data_La4PrSm7(Si7Br3)2
_symmetry_space_group_name_H-M   'P 1'
_cell_length_a   4.06969900
_cell_length_b   11.79813600
_cell_length_c   16.46748400
_cell_angle_alpha   90.00000000
_cell_angle_beta   90.00000000
_cell_angle_gamma   90.00000000
_symmetry_Int_Tables_number   1
_chemical_formula_structural   La4PrSm7(Si7Br3)2
_chemical_formula_sum   'La4 Pr1 Sm7 Si14 Br6'
_cell_volume   790.68397638
_cell_formula_units_Z   1
loop_
 _symmetry_equiv_pos_site_id
 _symmetry_equiv_pos_as_xyz
  1  'x, y, z'
loop_
 _atom_site_type_symbol
 _atom_site_label
 _atom_site_symmetry_multiplicity
 _atom_site_fract_x
 _atom_site_fract_y
 _atom_site_fract_z
 _atom_site_occupancy
  La  La0  1  0.500000  0.067208  0.878173  1
  La  La1  1  0.000000  0.933316  0.621164  1
  La  La2  1  0.500000  0.067208  0.121827  1
  La  La3  1  0.000000  0.933316  0.378836  1
  Pr  Pr4  1  0.000000  0.660033  0.000000  1
  Sm  Sm5  1  0.500000  0.342929  0.500000  1
  Sm  Sm6  1  0.500000  0.362564  0.757614  1
  Sm  Sm7  1  0.000000  0.635989  0.740809  1
  Sm  Sm8  1  0.500000  0.362564  0.242386  1
  Sm  Sm9  1  0.000000  0.635989  0.259191  1
  Sm  Sm10  1  0.500000  0.360147  0.000000  1
  Sm  Sm11  1  0.000000  0.639959  0.500000  1
  Si  Si12  1  0.000000  0.158154  0.000000  1
  Si  Si13  1  0.500000  0.842099  0.500000  1
  Si  Si14  1  0.500000  0.569636  0.874607  1
  Si  Si15  1  0.000000  0.428587  0.623381  1
  Si  Si16  1  0.500000  0.569636  0.125393  1
  Si  Si17  1  0.000000  0.428587  0.376619  1
  Si  Si18  1  0.000000  0.258304  0.873122  1
  Si  Si19  1  0.500000  0.741371  0.626533  1
  Si  Si20  1  0.000000  0.258304  0.126878  1
  Si  Si21  1  0.500000  0.741371  0.373467  1
  Si  Si22  1  0.000000  0.460316  0.876766  1
  Si  Si23  1  0.500000  0.538631  0.621914  1
  Si  Si24  1  0.500000  0.538631  0.378086  1
  Si  Si25  1  0.000000  0.460316  0.123234  1
  Br  Br26  1  0.500000  0.116329  0.691433  1
  Br  Br27  1  0.000000  0.882813  0.808121  1
  Br  Br28  1  0.000000  0.143535  0.500000  1
  Br  Br29  1  0.500000  0.863014  0.000000  1
  Br  Br30  1  0.500000  0.116329  0.308567  1
  Br  Br31  1  0.000000  0.882813  0.191879  1
