# generated using pymatgen
data_Y3TmAl18(NiIr)3
_symmetry_space_group_name_H-M   'P 1'
_cell_length_a   7.49076081
_cell_length_b   7.48588660
_cell_length_c   9.38741704
_cell_angle_alpha   89.93442362
_cell_angle_beta   89.92008039
_cell_angle_gamma   119.17659179
_symmetry_Int_Tables_number   1
_chemical_formula_structural   Y3TmAl18(NiIr)3
_chemical_formula_sum   'Y3 Tm1 Al18 Ni3 Ir3'
_cell_volume   459.60898184
_cell_formula_units_Z   1
loop_
 _symmetry_equiv_pos_site_id
 _symmetry_equiv_pos_as_xyz
  1  'x, y, z'
loop_
 _atom_site_type_symbol
 _atom_site_label
 _atom_site_symmetry_multiplicity
 _atom_site_fract_x
 _atom_site_fract_y
 _atom_site_fract_z
 _atom_site_occupancy
  Y  Y0  1  0.003762  0.324004  0.749986  1
  Y  Y1  1  0.676575  0.996451  0.250026  1
  Y  Y2  1  0.326206  0.006164  0.749847  1
  Tm  Tm3  1  0.993020  0.674621  0.250456  1
  Al  Al4  1  0.134488  0.133821  0.249490  1
  Al  Al5  1  0.866003  0.865579  0.750457  1
  Al  Al6  1  0.999533  0.340495  0.074270  1
  Al  Al7  1  0.002128  0.662485  0.927060  1
  Al  Al8  1  0.003705  0.662887  0.572886  1
  Al  Al9  1  0.336749  0.995575  0.425228  1
  Al  Al10  1  0.004093  0.339416  0.425195  1
  Al  Al11  1  0.661507  0.996031  0.573608  1
  Al  Al12  1  0.660562  0.000345  0.926921  1
  Al  Al13  1  0.336740  0.996721  0.075014  1
  Al  Al14  1  0.333966  0.335370  0.548877  1
  Al  Al15  1  0.664802  0.665789  0.449502  1
  Al  Al16  1  0.664093  0.664618  0.050945  1
  Al  Al17  1  0.335025  0.336100  0.950677  1
  Al  Al18  1  0.340621  0.557336  0.249611  1
  Al  Al19  1  0.658280  0.448470  0.753080  1
  Al  Al20  1  0.552649  0.343011  0.246647  1
  Al  Al21  1  0.443184  0.658163  0.750315  1
  Ni  Ni22  1  0.671118  0.329306  0.000302  1
  Ni  Ni23  1  0.328779  0.671048  0.000273  1
  Ni  Ni24  1  0.329558  0.670016  0.499792  1
  Ir  Ir25  1  0.672365  0.328122  0.499627  1
  Ir  Ir26  1  0.999526  0.999772  0.000524  1
  Ir  Ir27  1  0.000962  0.998284  0.499387  1
