# generated using pymatgen
data_Eu4Ho3Sn5Se16
_symmetry_space_group_name_H-M   'P 1'
_cell_length_a   4.10749400
_cell_length_b   12.47992641
_cell_length_c   14.82044700
_cell_angle_alpha   90.09292718
_cell_angle_beta   90.00000000
_cell_angle_gamma   90.00000000
_symmetry_Int_Tables_number   1
_chemical_formula_structural   Eu4Ho3Sn5Se16
_chemical_formula_sum   'Eu4 Ho3 Sn5 Se16'
_cell_volume   759.71323744
_cell_formula_units_Z   1
loop_
 _symmetry_equiv_pos_site_id
 _symmetry_equiv_pos_as_xyz
  1  'x, y, z'
loop_
 _atom_site_type_symbol
 _atom_site_label
 _atom_site_symmetry_multiplicity
 _atom_site_fract_x
 _atom_site_fract_y
 _atom_site_fract_z
 _atom_site_occupancy
  Eu  Eu0  1  0.750000  0.744532  0.168435  1
  Eu  Eu1  1  0.750000  0.247096  0.330990  1
  Eu  Eu2  1  0.250000  0.256786  0.832967  1
  Eu  Eu3  1  0.250000  0.746190  0.666168  1
  Ho  Ho4  1  0.750000  0.571425  0.390296  1
  Ho  Ho5  1  0.250000  0.927033  0.887089  1
  Ho  Ho6  1  0.250000  0.422818  0.605676  1
  Sn  Sn7  1  0.750000  0.071723  0.599014  1
  Sn  Sn8  1  0.750000  0.571101  0.900888  1
  Sn  Sn9  1  0.250000  0.930108  0.403525  1
  Sn  Sn10  1  0.250000  0.426540  0.099377  1
  Sn  Sn11  1  0.750000  0.067438  0.104867  1
  Se  Se12  1  0.750000  0.284652  0.674047  1
  Se  Se13  1  0.750000  0.789275  0.816854  1
  Se  Se14  1  0.250000  0.711441  0.325006  1
  Se  Se15  1  0.250000  0.226781  0.177447  1
  Se  Se16  1  0.750000  0.358237  0.973253  1
  Se  Se17  1  0.750000  0.860587  0.543962  1
  Se  Se18  1  0.250000  0.636714  0.042049  1
  Se  Se19  1  0.250000  0.144015  0.477718  1
  Se  Se20  1  0.750000  0.997279  0.288003  1
  Se  Se21  1  0.750000  0.482830  0.214611  1
  Se  Se22  1  0.250000  0.036216  0.717799  1
  Se  Se23  1  0.250000  0.508067  0.782483  1
  Se  Se24  1  0.750000  0.085585  0.907978  1
  Se  Se25  1  0.750000  0.583956  0.580306  1
  Se  Se26  1  0.250000  0.898950  0.074651  1
  Se  Se27  1  0.250000  0.412627  0.414540  1
