# generated using pymatgen
data_Cs6PrBiBr12
_symmetry_space_group_name_H-M   'P 1'
_cell_length_a   10.10704535
_cell_length_b   10.09823635
_cell_length_c   8.39188000
_cell_angle_alpha   90.00000000
_cell_angle_beta   90.00000000
_cell_angle_gamma   90.14731948
_symmetry_Int_Tables_number   1
_chemical_formula_structural   Cs6PrBiBr12
_chemical_formula_sum   'Cs6 Pr1 Bi1 Br12'
_cell_volume   856.50040935
_cell_formula_units_Z   1
loop_
 _symmetry_equiv_pos_site_id
 _symmetry_equiv_pos_as_xyz
  1  'x, y, z'
loop_
 _atom_site_type_symbol
 _atom_site_label
 _atom_site_symmetry_multiplicity
 _atom_site_fract_x
 _atom_site_fract_y
 _atom_site_fract_z
 _atom_site_occupancy
  Cs  Cs0  1  0.000000  0.000000  0.500000  1
  Cs  Cs1  1  0.000000  0.000000  0.000000  1
  Cs  Cs2  1  0.234436  0.586181  0.500000  1
  Cs  Cs3  1  0.765564  0.413819  0.500000  1
  Cs  Cs4  1  0.414327  0.234172  0.000000  1
  Cs  Cs5  1  0.585673  0.765828  0.000000  1
  Pr  Pr6  1  0.000000  0.500000  0.000000  1
  Bi  Bi7  1  0.500000  0.000000  0.500000  1
  Br  Br8  1  0.695823  0.060031  0.744517  1
  Br  Br9  1  0.304177  0.939969  0.744517  1
  Br  Br10  1  0.940033  0.697910  0.246784  1
  Br  Br11  1  0.059967  0.302090  0.246784  1
  Br  Br12  1  0.304177  0.939969  0.255483  1
  Br  Br13  1  0.695823  0.060031  0.255483  1
  Br  Br14  1  0.059967  0.302090  0.753216  1
  Br  Br15  1  0.940033  0.697910  0.753216  1
  Br  Br16  1  0.569536  0.722448  0.500000  1
  Br  Br17  1  0.430464  0.277552  0.500000  1
  Br  Br18  1  0.280071  0.570435  0.000000  1
  Br  Br19  1  0.719929  0.429565  0.000000  1
