# generated using pymatgen
data_LaZn2GaSi
_symmetry_space_group_name_H-M   'P 1'
_cell_length_a   4.28123000
_cell_length_b   4.28123000
_cell_length_c   10.53905900
_cell_angle_alpha   90.00000000
_cell_angle_beta   90.00000000
_cell_angle_gamma   90.00000000
_symmetry_Int_Tables_number   1
_chemical_formula_structural   LaZn2GaSi
_chemical_formula_sum   'La2 Zn4 Ga2 Si2'
_cell_volume   193.16967797
_cell_formula_units_Z   2
loop_
 _symmetry_equiv_pos_site_id
 _symmetry_equiv_pos_as_xyz
  1  'x, y, z'
loop_
 _atom_site_type_symbol
 _atom_site_label
 _atom_site_symmetry_multiplicity
 _atom_site_fract_x
 _atom_site_fract_y
 _atom_site_fract_z
 _atom_site_occupancy
  La  La0  1  0.000000  0.500000  0.752491  1
  La  La1  1  0.500000  0.000000  0.247509  1
  Zn  Zn2  1  0.500000  0.000000  0.635962  1
  Zn  Zn3  1  0.000000  0.000000  0.000000  1
  Zn  Zn4  1  0.500000  0.500000  0.000000  1
  Zn  Zn5  1  0.000000  0.500000  0.364038  1
  Ga  Ga6  1  0.500000  0.500000  0.500000  1
  Ga  Ga7  1  0.000000  0.000000  0.500000  1
  Si  Si8  1  0.000000  0.500000  0.133273  1
  Si  Si9  1  0.500000  0.000000  0.866727  1
