# generated using pymatgen
data_YbTm3(Pt2O7)2
_symmetry_space_group_name_H-M   'P 1'
_cell_length_a   7.22018739
_cell_length_b   7.21720601
_cell_length_c   7.21720500
_cell_angle_alpha   60.00000003
_cell_angle_beta   60.01365849
_cell_angle_gamma   60.01365766
_symmetry_Int_Tables_number   1
_chemical_formula_structural   YbTm3(Pt2O7)2
_chemical_formula_sum   'Yb1 Tm3 Pt4 O14'
_cell_volume   265.98750792
_cell_formula_units_Z   1
loop_
 _symmetry_equiv_pos_site_id
 _symmetry_equiv_pos_as_xyz
  1  'x, y, z'
loop_
 _atom_site_type_symbol
 _atom_site_label
 _atom_site_symmetry_multiplicity
 _atom_site_fract_x
 _atom_site_fract_y
 _atom_site_fract_z
 _atom_site_occupancy
  Yb  Yb0  1  0.125000  0.625000  0.625000  1
  Tm  Tm1  1  0.625000  0.625000  0.125000  1
  Tm  Tm2  1  0.625000  0.625000  0.625000  1
  Tm  Tm3  1  0.625000  0.125000  0.625000  1
  Pt  Pt4  1  0.125000  0.125000  0.125000  1
  Pt  Pt5  1  0.625000  0.125000  0.125000  1
  Pt  Pt6  1  0.125000  0.625000  0.125000  1
  Pt  Pt7  1  0.125000  0.125000  0.625000  1
  O  O8  1  0.029456  0.463563  0.463563  1
  O  O9  1  0.782944  0.784183  0.216437  1
  O  O10  1  0.782944  0.216437  0.216437  1
  O  O11  1  0.467056  0.033563  0.465817  1
  O  O12  1  0.029456  0.043417  0.463563  1
  O  O13  1  0.029456  0.463563  0.043417  1
  O  O14  1  0.740059  0.753314  0.753314  1
  O  O15  1  0.509941  0.496686  0.496686  1
  O  O16  1  0.782944  0.216437  0.784183  1
  O  O17  1  0.220544  0.786437  0.206583  1
  O  O18  1  0.220544  0.206583  0.786437  1
  O  O19  1  0.467056  0.033563  0.033563  1
  O  O20  1  0.467056  0.465817  0.033563  1
  O  O21  1  0.220544  0.786437  0.786437  1
