# generated using pymatgen
data_Er15TmIn6CoPt
_symmetry_space_group_name_H-M   'P 1'
_cell_length_a   10.36991100
_cell_length_b   10.37319637
_cell_length_c   6.93695705
_cell_angle_alpha   89.98758777
_cell_angle_beta   90.00000000
_cell_angle_gamma   119.98952044
_symmetry_Int_Tables_number   1
_chemical_formula_structural   Er15TmIn6CoPt
_chemical_formula_sum   'Er15 Tm1 In6 Co1 Pt1'
_cell_volume   646.29843442
_cell_formula_units_Z   1
loop_
 _symmetry_equiv_pos_site_id
 _symmetry_equiv_pos_as_xyz
  1  'x, y, z'
loop_
 _atom_site_type_symbol
 _atom_site_label
 _atom_site_symmetry_multiplicity
 _atom_site_fract_x
 _atom_site_fract_y
 _atom_site_fract_z
 _atom_site_occupancy
  Er  Er0  1  0.938462  0.469156  0.795023  1
  Er  Er1  1  0.530693  0.469156  0.795023  1
  Er  Er2  1  0.464476  0.928952  0.292577  1
  Er  Er3  1  0.071401  0.535787  0.292452  1
  Er  Er4  1  0.464385  0.535787  0.292452  1
  Er  Er5  1  0.824835  0.649670  0.499803  1
  Er  Er6  1  0.350951  0.175526  0.499803  1
  Er  Er7  1  0.824574  0.175526  0.499803  1
  Er  Er8  1  0.177891  0.355782  0.000736  1
  Er  Er9  1  0.643508  0.821751  0.000830  1
  Er  Er10  1  0.178243  0.821751  0.000830  1
  Er  Er11  1  0.666569  0.333136  0.170110  1
  Er  Er12  1  0.333453  0.666908  0.682789  1
  Er  Er13  1  0.999996  0.999992  0.778181  1
  Er  Er14  1  0.999975  0.999950  0.276846  1
  Tm  Tm15  1  0.530918  0.061835  0.795083  1
  In  In16  1  0.837805  0.675610  0.037302  1
  In  In17  1  0.324449  0.162065  0.037208  1
  In  In18  1  0.837616  0.162065  0.037208  1
  In  In19  1  0.162984  0.325969  0.538084  1
  In  In20  1  0.674035  0.837052  0.538171  1
  In  In21  1  0.163016  0.837052  0.538171  1
  Co  Co22  1  0.333261  0.666522  0.068246  1
  Pt  Pt23  1  0.666503  0.333004  0.569172  1
