# generated using pymatgen
data_TbDy2Co8P6Os
_symmetry_space_group_name_H-M   'P 1'
_cell_length_a   3.72158000
_cell_length_b   10.51420200
_cell_length_c   12.25761800
_cell_angle_alpha   90.00000000
_cell_angle_beta   90.00000000
_cell_angle_gamma   90.00000000
_symmetry_Int_Tables_number   1
_chemical_formula_structural   TbDy2Co8P6Os
_chemical_formula_sum   'Tb2 Dy4 Co16 P12 Os2'
_cell_volume   479.63377562
_cell_formula_units_Z   2
loop_
 _symmetry_equiv_pos_site_id
 _symmetry_equiv_pos_as_xyz
  1  'x, y, z'
loop_
 _atom_site_type_symbol
 _atom_site_label
 _atom_site_symmetry_multiplicity
 _atom_site_fract_x
 _atom_site_fract_y
 _atom_site_fract_z
 _atom_site_occupancy
  Tb  Tb0  1  0.000000  0.500000  0.523967  1
  Tb  Tb1  1  0.500000  0.000000  0.476033  1
  Dy  Dy2  1  0.500000  0.817027  0.206886  1
  Dy  Dy3  1  0.500000  0.182973  0.206886  1
  Dy  Dy4  1  0.000000  0.682973  0.793114  1
  Dy  Dy5  1  0.000000  0.317027  0.793114  1
  Co  Co6  1  0.500000  0.500000  0.704192  1
  Co  Co7  1  0.000000  0.000000  0.295808  1
  Co  Co8  1  0.000000  0.500000  0.986990  1
  Co  Co9  1  0.500000  0.000000  0.013010  1
  Co  Co10  1  0.500000  0.332684  0.990272  1
  Co  Co11  1  0.500000  0.667316  0.990272  1
  Co  Co12  1  0.000000  0.167316  0.009728  1
  Co  Co13  1  0.000000  0.832684  0.009728  1
  Co  Co14  1  0.500000  0.297339  0.430539  1
  Co  Co15  1  0.500000  0.702661  0.430539  1
  Co  Co16  1  0.000000  0.202661  0.569461  1
  Co  Co17  1  0.000000  0.797339  0.569461  1
  Co  Co18  1  0.500000  0.879531  0.709288  1
  Co  Co19  1  0.500000  0.120469  0.709288  1
  Co  Co20  1  0.000000  0.620469  0.290712  1
  Co  Co21  1  0.000000  0.379531  0.290712  1
  P  P22  1  0.500000  0.500000  0.881217  1
  P  P23  1  0.000000  0.000000  0.118783  1
  P  P24  1  0.500000  0.500000  0.349661  1
  P  P25  1  0.000000  0.000000  0.650339  1
  P  P26  1  0.500000  0.311103  0.616177  1
  P  P27  1  0.500000  0.688897  0.616177  1
  P  P28  1  0.000000  0.188897  0.383823  1
  P  P29  1  0.000000  0.811103  0.383823  1
  P  P30  1  0.500000  0.846383  0.893288  1
  P  P31  1  0.500000  0.153617  0.893288  1
  P  P32  1  0.000000  0.653617  0.106712  1
  P  P33  1  0.000000  0.346383  0.106712  1
  Os  Os34  1  0.500000  0.500000  0.158470  1
  Os  Os35  1  0.000000  0.000000  0.841530  1
