# generated using pymatgen
data_Sr2B2Pd5Pt3
_symmetry_space_group_name_H-M   'P 1'
_cell_length_a   5.58698122
_cell_length_b   6.15026100
_cell_length_c   12.00418049
_cell_angle_alpha   90.00000000
_cell_angle_beta   90.03222135
_cell_angle_gamma   90.00000000
_symmetry_Int_Tables_number   1
_chemical_formula_structural   Sr2B2Pd5Pt3
_chemical_formula_sum   'Sr4 B4 Pd10 Pt6'
_cell_volume   412.48029423
_cell_formula_units_Z   2
loop_
 _symmetry_equiv_pos_site_id
 _symmetry_equiv_pos_as_xyz
  1  'x, y, z'
loop_
 _atom_site_type_symbol
 _atom_site_label
 _atom_site_symmetry_multiplicity
 _atom_site_fract_x
 _atom_site_fract_y
 _atom_site_fract_z
 _atom_site_occupancy
  Sr  Sr0  1  0.750585  0.313274  0.162213  1
  Sr  Sr1  1  0.749415  0.813274  0.337787  1
  Sr  Sr2  1  0.250191  0.687541  0.838486  1
  Sr  Sr3  1  0.249809  0.187541  0.661514  1
  B  B4  1  0.745237  0.405419  0.548186  1
  B  B5  1  0.754763  0.905419  0.951814  1
  B  B6  1  0.255352  0.593013  0.450413  1
  B  B7  1  0.244648  0.093013  0.049587  1
  Pd  Pd8  1  0.752424  0.386659  0.733617  1
  Pd  Pd9  1  0.747576  0.886659  0.766383  1
  Pd  Pd10  1  0.248926  0.613134  0.265192  1
  Pd  Pd11  1  0.251074  0.113134  0.234808  1
  Pd  Pd12  1  0.748245  0.062105  0.558739  1
  Pd  Pd13  1  0.751755  0.562105  0.941261  1
  Pd  Pd14  1  0.249650  0.935846  0.441976  1
  Pd  Pd15  1  0.250350  0.435846  0.058024  1
  Pd  Pd16  1  0.499910  0.167961  0.911722  1
  Pd  Pd17  1  0.000090  0.667961  0.588278  1
  Pt  Pt18  1  0.993649  0.166212  0.913595  1
  Pt  Pt19  1  0.506351  0.666212  0.586405  1
  Pt  Pt20  1  0.497171  0.836820  0.084301  1
  Pt  Pt21  1  0.002829  0.336820  0.415699  1
  Pt  Pt22  1  0.003103  0.832016  0.088114  1
  Pt  Pt23  1  0.496897  0.332016  0.411886  1
