# generated using pymatgen
data_Al20CoNiRh6
_symmetry_space_group_name_H-M   'P 1'
_cell_length_a   7.88517000
_cell_length_b   7.88516954
_cell_length_c   7.82191800
_cell_angle_alpha   90.00000000
_cell_angle_beta   90.00000000
_cell_angle_gamma   120.00000194
_symmetry_Int_Tables_number   1
_chemical_formula_structural   Al20CoNiRh6
_chemical_formula_sum   'Al20 Co1 Ni1 Rh6'
_cell_volume   421.17829135
_cell_formula_units_Z   1
loop_
 _symmetry_equiv_pos_site_id
 _symmetry_equiv_pos_as_xyz
  1  'x, y, z'
loop_
 _atom_site_type_symbol
 _atom_site_label
 _atom_site_symmetry_multiplicity
 _atom_site_fract_x
 _atom_site_fract_y
 _atom_site_fract_z
 _atom_site_occupancy
  Al  Al0  1  0.000000  0.000000  0.999295  1
  Al  Al1  1  0.000000  0.000000  0.500705  1
  Al  Al2  1  0.472643  0.945287  0.250000  1
  Al  Al3  1  0.525866  0.474134  0.750000  1
  Al  Al4  1  0.948267  0.474134  0.750000  1
  Al  Al5  1  0.054713  0.527357  0.250000  1
  Al  Al6  1  0.472643  0.527357  0.250000  1
  Al  Al7  1  0.525866  0.051733  0.750000  1
  Al  Al8  1  0.197541  0.395081  0.939463  1
  Al  Al9  1  0.803624  0.196376  0.440375  1
  Al  Al10  1  0.392750  0.196376  0.440375  1
  Al  Al11  1  0.604919  0.802459  0.939463  1
  Al  Al12  1  0.197541  0.802459  0.939463  1
  Al  Al13  1  0.803624  0.607250  0.059625  1
  Al  Al14  1  0.803624  0.196376  0.059625  1
  Al  Al15  1  0.803624  0.607250  0.440375  1
  Al  Al16  1  0.392750  0.196376  0.059625  1
  Al  Al17  1  0.604919  0.802459  0.560537  1
  Al  Al18  1  0.197541  0.395081  0.560537  1
  Al  Al19  1  0.197541  0.802459  0.560537  1
  Co  Co20  1  0.333333  0.666667  0.750000  1
  Ni  Ni21  1  0.666667  0.333333  0.250000  1
  Rh  Rh22  1  0.129959  0.259920  0.250000  1
  Rh  Rh23  1  0.869934  0.130066  0.750000  1
  Rh  Rh24  1  0.260133  0.130066  0.750000  1
  Rh  Rh25  1  0.740080  0.870041  0.250000  1
  Rh  Rh26  1  0.129959  0.870041  0.250000  1
  Rh  Rh27  1  0.869934  0.739867  0.750000  1
