# generated using pymatgen
data_Mn28Ni
_symmetry_space_group_name_H-M   'P 1'
_cell_length_a   7.47210369
_cell_length_b   7.47210249
_cell_length_c   7.47210300
_cell_angle_alpha   109.47122203
_cell_angle_beta   109.47121876
_cell_angle_gamma   109.47122194
_symmetry_Int_Tables_number   1
_chemical_formula_structural   Mn28Ni
_chemical_formula_sum   'Mn28 Ni1'
_cell_volume   321.14906698
_cell_formula_units_Z   1
loop_
 _symmetry_equiv_pos_site_id
 _symmetry_equiv_pos_as_xyz
  1  'x, y, z'
loop_
 _atom_site_type_symbol
 _atom_site_label
 _atom_site_symmetry_multiplicity
 _atom_site_fract_x
 _atom_site_fract_y
 _atom_site_fract_z
 _atom_site_occupancy
  Mn  Mn0  1  0.637569  0.000000  0.000000  1
  Mn  Mn1  1  0.000000  0.637569  0.000000  1
  Mn  Mn2  1  0.000000  0.000000  0.637569  1
  Mn  Mn3  1  0.362431  0.362431  0.362431  1
  Mn  Mn4  1  0.388196  0.676008  0.000000  1
  Mn  Mn5  1  0.712188  0.323992  0.323992  1
  Mn  Mn6  1  0.388196  0.000000  0.676008  1
  Mn  Mn7  1  0.676008  0.388196  0.000000  1
  Mn  Mn8  1  0.000000  0.388196  0.676008  1
  Mn  Mn9  1  0.323992  0.712188  0.323992  1
  Mn  Mn10  1  0.323992  0.323992  0.712188  1
  Mn  Mn11  1  0.000000  0.676008  0.388196  1
  Mn  Mn12  1  0.676008  0.000000  0.388196  1
  Mn  Mn13  1  0.611804  0.611804  0.287812  1
  Mn  Mn14  1  0.287812  0.611804  0.611804  1
  Mn  Mn15  1  0.611804  0.287812  0.611804  1
  Mn  Mn16  1  0.372560  0.194232  0.000000  1
  Mn  Mn17  1  0.178328  0.805768  0.805768  1
  Mn  Mn18  1  0.372560  0.000000  0.194232  1
  Mn  Mn19  1  0.194232  0.372560  0.000000  1
  Mn  Mn20  1  0.000000  0.372560  0.194232  1
  Mn  Mn21  1  0.805768  0.178328  0.805768  1
  Mn  Mn22  1  0.805768  0.805768  0.178328  1
  Mn  Mn23  1  0.000000  0.194232  0.372560  1
  Mn  Mn24  1  0.194232  0.000000  0.372560  1
  Mn  Mn25  1  0.627440  0.627440  0.821672  1
  Mn  Mn26  1  0.821672  0.627440  0.627440  1
  Mn  Mn27  1  0.627440  0.821672  0.627440  1
  Ni  Ni28  1  0.000000  0.000000  0.000000  1
