# generated using pymatgen
data_Tb2Y7Lu(SiB4)4
_symmetry_space_group_name_H-M   'P 1'
_cell_length_a   7.23265723
_cell_length_b   7.23293422
_cell_length_c   8.08867105
_cell_angle_alpha   89.99199859
_cell_angle_beta   89.99060697
_cell_angle_gamma   90.02707592
_symmetry_Int_Tables_number   1
_chemical_formula_structural   Tb2Y7Lu(SiB4)4
_chemical_formula_sum   'Tb2 Y7 Lu1 Si4 B16'
_cell_volume   423.14529262
_cell_formula_units_Z   1
loop_
 _symmetry_equiv_pos_site_id
 _symmetry_equiv_pos_as_xyz
  1  'x, y, z'
loop_
 _atom_site_type_symbol
 _atom_site_label
 _atom_site_symmetry_multiplicity
 _atom_site_fract_x
 _atom_site_fract_y
 _atom_site_fract_z
 _atom_site_occupancy
  Tb  Tb0  1  0.680710  0.180052  0.225136  1
  Tb  Tb1  1  0.319290  0.819948  0.774864  1
  Y  Y2  1  0.319381  0.820080  0.224500  1
  Y  Y3  1  0.820110  0.680513  0.224364  1
  Y  Y4  1  0.820168  0.680574  0.775641  1
  Y  Y5  1  0.680619  0.179920  0.775500  1
  Y  Y6  1  0.179890  0.319487  0.775636  1
  Y  Y7  1  0.179832  0.319426  0.224359  1
  Y  Y8  1  0.500000  0.500000  0.500000  1
  Lu  Lu9  1  0.000000  0.000000  0.500000  1
  Si  Si10  1  0.113142  0.617458  0.500004  1
  Si  Si11  1  0.886858  0.382542  0.499996  1
  Si  Si12  1  0.382371  0.113307  0.499981  1
  Si  Si13  1  0.617629  0.886693  0.500019  1
  B  B14  1  0.172507  0.039032  0.999945  1
  B  B15  1  0.827493  0.960968  0.000055  1
  B  B16  1  0.960845  0.172392  0.000077  1
  B  B17  1  0.327616  0.539192  0.999925  1
  B  B18  1  0.039155  0.827608  0.999923  1
  B  B19  1  0.672384  0.460808  0.000075  1
  B  B20  1  0.539075  0.672486  0.999945  1
  B  B21  1  0.460925  0.327514  0.000055  1
  B  B22  1  0.089888  0.589790  0.999839  1
  B  B23  1  0.910112  0.410210  0.000161  1
  B  B24  1  0.410333  0.089769  0.000010  1
  B  B25  1  0.589667  0.910231  0.999990  1
  B  B26  1  0.000086  0.999980  0.162558  1
  B  B27  1  0.999914  0.000020  0.837442  1
  B  B28  1  0.500030  0.499930  0.838208  1
  B  B29  1  0.499970  0.500070  0.161792  1
