# generated using pymatgen
data_TbHo11Co6Sn
_symmetry_space_group_name_H-M   'P 1'
_cell_length_a   8.32888599
_cell_length_b   8.32888591
_cell_length_c   8.33278025
_cell_angle_alpha   109.41782605
_cell_angle_beta   109.51142099
_cell_angle_gamma   109.46549126
_symmetry_Int_Tables_number   1
_chemical_formula_structural   TbHo11Co6Sn
_chemical_formula_sum   'Tb1 Ho11 Co6 Sn1'
_cell_volume   445.08507999
_cell_formula_units_Z   1
loop_
 _symmetry_equiv_pos_site_id
 _symmetry_equiv_pos_as_xyz
  1  'x, y, z'
loop_
 _atom_site_type_symbol
 _atom_site_label
 _atom_site_symmetry_multiplicity
 _atom_site_fract_x
 _atom_site_fract_y
 _atom_site_fract_z
 _atom_site_occupancy
  Tb  Tb0  1  0.697453  0.194406  0.891860  1
  Ho  Ho1  1  0.805833  0.502753  0.696465  1
  Ho  Ho2  1  0.497489  0.303353  0.194913  1
  Ho  Ho3  1  0.805848  0.108999  0.303675  1
  Ho  Ho4  1  0.502408  0.696300  0.805586  1
  Ho  Ho5  1  0.194675  0.497826  0.303675  1
  Ho  Ho6  1  0.109285  0.303177  0.805586  1
  Ho  Ho7  1  0.891562  0.697425  0.194913  1
  Ho  Ho8  1  0.193713  0.890633  0.696465  1
  Ho  Ho9  1  0.696852  0.805312  0.502164  1
  Ho  Ho10  1  0.302972  0.194193  0.497166  1
  Ho  Ho11  1  0.303106  0.805628  0.108734  1
  Co  Co12  1  0.612888  0.112999  0.498972  1
  Co  Co13  1  0.886680  0.500472  0.387151  1
  Co  Co14  1  0.499855  0.387030  0.886885  1
  Co  Co15  1  0.113395  0.499913  0.613309  1
  Co  Co16  1  0.500138  0.613418  0.113556  1
  Co  Co17  1  0.385974  0.886084  0.498972  1
  Sn  Sn18  1  0.999874  0.000078  0.999953  1
