# generated using pymatgen
data_Tb2Y2MnTc7
_symmetry_space_group_name_H-M   'P 1'
_cell_length_a   5.34208300
_cell_length_b   5.34208411
_cell_length_c   8.98950300
_cell_angle_alpha   90.00000000
_cell_angle_beta   90.00000000
_cell_angle_gamma   120.00001172
_symmetry_Int_Tables_number   1
_chemical_formula_structural   Tb2Y2MnTc7
_chemical_formula_sum   'Tb2 Y2 Mn1 Tc7'
_cell_volume   222.17112538
_cell_formula_units_Z   1
loop_
 _symmetry_equiv_pos_site_id
 _symmetry_equiv_pos_as_xyz
  1  'x, y, z'
loop_
 _atom_site_type_symbol
 _atom_site_label
 _atom_site_symmetry_multiplicity
 _atom_site_fract_x
 _atom_site_fract_y
 _atom_site_fract_z
 _atom_site_occupancy
  Tb  Tb0  1  0.333333  0.666667  0.436273  1
  Tb  Tb1  1  0.666667  0.333333  0.563727  1
  Y  Y2  1  0.666667  0.333333  0.935279  1
  Y  Y3  1  0.333333  0.666667  0.064721  1
  Mn  Mn4  1  0.000000  0.000000  0.500000  1
  Tc  Tc5  1  0.000000  0.000000  0.000000  1
  Tc  Tc6  1  0.829863  0.170137  0.251685  1
  Tc  Tc7  1  0.829863  0.659728  0.251685  1
  Tc  Tc8  1  0.340272  0.170137  0.251685  1
  Tc  Tc9  1  0.170137  0.829863  0.748315  1
  Tc  Tc10  1  0.170137  0.340272  0.748315  1
  Tc  Tc11  1  0.659728  0.829863  0.748315  1
