# generated using pymatgen
data_CeDy5Er2(ReB6)4
_symmetry_space_group_name_H-M   'P 1'
_cell_length_a   3.69149100
_cell_length_b   9.17533716
_cell_length_c   11.56106305
_cell_angle_alpha   90.05991464
_cell_angle_beta   90.00000000
_cell_angle_gamma   90.00000000
_symmetry_Int_Tables_number   1
_chemical_formula_structural   CeDy5Er2(ReB6)4
_chemical_formula_sum   'Ce1 Dy5 Er2 Re4 B24'
_cell_volume   391.58078987
_cell_formula_units_Z   1
loop_
 _symmetry_equiv_pos_site_id
 _symmetry_equiv_pos_as_xyz
  1  'x, y, z'
loop_
 _atom_site_type_symbol
 _atom_site_label
 _atom_site_symmetry_multiplicity
 _atom_site_fract_x
 _atom_site_fract_y
 _atom_site_fract_z
 _atom_site_occupancy
  Ce  Ce0  1  0.000000  0.323299  0.413884  1
  Dy  Dy1  1  0.000000  0.677204  0.586855  1
  Dy  Dy2  1  0.000000  0.823109  0.085455  1
  Dy  Dy3  1  0.000000  0.176275  0.913992  1
  Dy  Dy4  1  0.000000  0.942670  0.369798  1
  Dy  Dy5  1  0.000000  0.056407  0.630601  1
  Er  Er6  1  0.000000  0.443369  0.128939  1
  Er  Er7  1  0.000000  0.556993  0.870426  1
  Re  Re8  1  0.000000  0.637697  0.320625  1
  Re  Re9  1  0.000000  0.362064  0.679152  1
  Re  Re10  1  0.000000  0.139683  0.179246  1
  Re  Re11  1  0.000000  0.860874  0.821137  1
  B  B12  1  0.500000  0.553990  0.432295  1
  B  B13  1  0.500000  0.446328  0.567986  1
  B  B14  1  0.500000  0.053475  0.066828  1
  B  B15  1  0.500000  0.946569  0.932982  1
  B  B16  1  0.500000  0.749351  0.418346  1
  B  B17  1  0.500000  0.251252  0.582711  1
  B  B18  1  0.500000  0.249407  0.080833  1
  B  B19  1  0.500000  0.750299  0.918487  1
  B  B20  1  0.500000  0.791764  0.265305  1
  B  B21  1  0.500000  0.208410  0.735318  1
  B  B22  1  0.500000  0.291800  0.233630  1
  B  B23  1  0.500000  0.707505  0.765666  1
  B  B24  1  0.500000  0.631139  0.184803  1
  B  B25  1  0.500000  0.369806  0.814901  1
  B  B26  1  0.500000  0.131034  0.313487  1
  B  B27  1  0.500000  0.868614  0.686099  1
  B  B28  1  0.500000  0.982640  0.211359  1
  B  B29  1  0.500000  0.016996  0.788460  1
  B  B30  1  0.500000  0.483670  0.287157  1
  B  B31  1  0.500000  0.517911  0.713065  1
  B  B32  1  0.500000  0.600234  0.027669  1
  B  B33  1  0.500000  0.400079  0.971754  1
  B  B34  1  0.500000  0.099812  0.472216  1
  B  B35  1  0.500000  0.898273  0.528529  1
