# generated using pymatgen
data_Mn2Cd(Sb6Pt)2
_symmetry_space_group_name_H-M   'P 1'
_cell_length_a   8.16712008
_cell_length_b   8.15500652
_cell_length_c   8.15500686
_cell_angle_alpha   109.32472501
_cell_angle_beta   109.53577768
_cell_angle_gamma   109.49293785
_symmetry_Int_Tables_number   1
_chemical_formula_structural   Mn2Cd(Sb6Pt)2
_chemical_formula_sum   'Mn2 Cd1 Sb12 Pt2'
_cell_volume   418.42421704
_cell_formula_units_Z   1
loop_
 _symmetry_equiv_pos_site_id
 _symmetry_equiv_pos_as_xyz
  1  'x, y, z'
loop_
 _atom_site_type_symbol
 _atom_site_label
 _atom_site_symmetry_multiplicity
 _atom_site_fract_x
 _atom_site_fract_y
 _atom_site_fract_z
 _atom_site_occupancy
  Mn  Mn0  1  0.000000  0.000000  0.500000  1
  Mn  Mn1  1  0.000000  0.500000  0.000000  1
  Cd  Cd2  1  0.000000  0.000000  0.000000  1
  Sb  Sb3  1  0.147640  0.817423  0.654203  1
  Sb  Sb4  1  0.852360  0.182577  0.345797  1
  Sb  Sb5  1  0.852360  0.506563  0.669783  1
  Sb  Sb6  1  0.147640  0.493437  0.330217  1
  Sb  Sb7  1  0.828091  0.666690  0.161401  1
  Sb  Sb8  1  0.171909  0.333310  0.838599  1
  Sb  Sb9  1  0.505915  0.656260  0.849655  1
  Sb  Sb10  1  0.494085  0.343740  0.150345  1
  Sb  Sb11  1  0.668896  0.163741  0.816817  1
  Sb  Sb12  1  0.331104  0.836259  0.183183  1
  Sb  Sb13  1  0.668896  0.852079  0.505156  1
  Sb  Sb14  1  0.331104  0.147921  0.494844  1
  Pt  Pt15  1  0.500000  0.000000  0.000000  1
  Pt  Pt16  1  0.500000  0.500000  0.500000  1
