# generated using pymatgen
data_YEr3Al4(Ga7Ir3)2
_symmetry_space_group_name_H-M   'P 1'
_cell_length_a   7.56169473
_cell_length_b   7.55948400
_cell_length_c   9.47539800
_cell_angle_alpha   90.00000000
_cell_angle_beta   90.00000000
_cell_angle_gamma   119.65815465
_symmetry_Int_Tables_number   1
_chemical_formula_structural   YEr3Al4(Ga7Ir3)2
_chemical_formula_sum   'Y1 Er3 Al4 Ga14 Ir6'
_cell_volume   470.67930057
_cell_formula_units_Z   1
loop_
 _symmetry_equiv_pos_site_id
 _symmetry_equiv_pos_as_xyz
  1  'x, y, z'
loop_
 _atom_site_type_symbol
 _atom_site_label
 _atom_site_symmetry_multiplicity
 _atom_site_fract_x
 _atom_site_fract_y
 _atom_site_fract_z
 _atom_site_occupancy
  Y  Y0  1  0.329920  0.999914  0.750000  1
  Er  Er1  1  0.000480  0.670159  0.250000  1
  Er  Er2  1  0.999522  0.329849  0.750000  1
  Er  Er3  1  0.670131  0.000459  0.250000  1
  Al  Al4  1  0.331259  0.331658  0.554107  1
  Al  Al5  1  0.668728  0.668709  0.445477  1
  Al  Al6  1  0.668728  0.668709  0.054523  1
  Al  Al7  1  0.331259  0.331658  0.945893  1
  Ga  Ga8  1  0.126624  0.126627  0.250000  1
  Ga  Ga9  1  0.872923  0.873237  0.750000  1
  Ga  Ga10  1  0.000115  0.335177  0.079859  1
  Ga  Ga11  1  0.999461  0.664366  0.920458  1
  Ga  Ga12  1  0.999461  0.664366  0.579542  1
  Ga  Ga13  1  0.335200  0.000114  0.419795  1
  Ga  Ga14  1  0.000115  0.335177  0.420141  1
  Ga  Ga15  1  0.665244  0.999866  0.579528  1
  Ga  Ga16  1  0.665244  0.999866  0.920472  1
  Ga  Ga17  1  0.335200  0.000114  0.080205  1
  Ga  Ga18  1  0.347210  0.550278  0.250000  1
  Ga  Ga19  1  0.653257  0.450233  0.750000  1
  Ga  Ga20  1  0.550353  0.347262  0.250000  1
  Ga  Ga21  1  0.449735  0.652469  0.750000  1
  Ir  Ir22  1  0.669835  0.330339  0.000178  1
  Ir  Ir23  1  0.330299  0.669617  0.000198  1
  Ir  Ir24  1  0.330299  0.669617  0.499802  1
  Ir  Ir25  1  0.669835  0.330339  0.499822  1
  Ir  Ir26  1  0.999782  0.999909  0.000228  1
  Ir  Ir27  1  0.999782  0.999909  0.499772  1
