# generated using pymatgen
data_HoTh2(SnIr)3
_symmetry_space_group_name_H-M   'P 1'
_cell_length_a   7.55446784
_cell_length_b   7.52851900
_cell_length_c   4.08146500
_cell_angle_alpha   90.00000000
_cell_angle_beta   90.00000000
_cell_angle_gamma   119.88643494
_symmetry_Int_Tables_number   1
_chemical_formula_structural   HoTh2(SnIr)3
_chemical_formula_sum   'Ho1 Th2 Sn3 Ir3'
_cell_volume   201.25931361
_cell_formula_units_Z   1
loop_
 _symmetry_equiv_pos_site_id
 _symmetry_equiv_pos_as_xyz
  1  'x, y, z'
loop_
 _atom_site_type_symbol
 _atom_site_label
 _atom_site_symmetry_multiplicity
 _atom_site_fract_x
 _atom_site_fract_y
 _atom_site_fract_z
 _atom_site_occupancy
  Ho  Ho0  1  0.000000  0.594692  0.500000  1
  Th  Th1  1  0.411928  0.412476  0.500000  1
  Th  Th2  1  0.588072  0.000547  0.500000  1
  Sn  Sn3  1  0.756302  0.745811  0.000000  1
  Sn  Sn4  1  0.243698  0.989509  0.000000  1
  Sn  Sn5  1  0.000000  0.261478  0.000000  1
  Ir  Ir6  1  0.656799  0.324257  0.000000  1
  Ir  Ir7  1  0.343201  0.667459  0.000000  1
  Ir  Ir8  1  0.000000  0.003771  0.500000  1
