# generated using pymatgen
data_Y4Hf3ZnPt4
_symmetry_space_group_name_H-M   'P 1'
_cell_length_a   4.56776200
_cell_length_b   7.07423674
_cell_length_c   8.19826172
_cell_angle_alpha   92.87614130
_cell_angle_beta   90.00000000
_cell_angle_gamma   90.00000000
_symmetry_Int_Tables_number   1
_chemical_formula_structural   Y4Hf3ZnPt4
_chemical_formula_sum   'Y4 Hf3 Zn1 Pt4'
_cell_volume   264.58025228
_cell_formula_units_Z   1
loop_
 _symmetry_equiv_pos_site_id
 _symmetry_equiv_pos_as_xyz
  1  'x, y, z'
loop_
 _atom_site_type_symbol
 _atom_site_label
 _atom_site_symmetry_multiplicity
 _atom_site_fract_x
 _atom_site_fract_y
 _atom_site_fract_z
 _atom_site_occupancy
  Y  Y0  1  0.250000  0.986701  0.313950  1
  Y  Y1  1  0.250000  0.457482  0.168498  1
  Y  Y2  1  0.750000  0.030509  0.692467  1
  Y  Y3  1  0.750000  0.509323  0.835195  1
  Hf  Hf4  1  0.250000  0.365266  0.570473  1
  Hf  Hf5  1  0.250000  0.856600  0.936104  1
  Hf  Hf6  1  0.750000  0.646770  0.425039  1
  Zn  Zn7  1  0.750000  0.144976  0.071527  1
  Pt  Pt8  1  0.250000  0.228471  0.873775  1
  Pt  Pt9  1  0.250000  0.736847  0.602160  1
  Pt  Pt10  1  0.750000  0.764692  0.109372  1
  Pt  Pt11  1  0.750000  0.272363  0.401438  1
