# generated using pymatgen
data_Yb3Ho(B4Ru5)2
_symmetry_space_group_name_H-M   'P 1'
_cell_length_a   3.01275400
_cell_length_b   8.71505571
_cell_length_c   10.20733650
_cell_angle_alpha   89.91481996
_cell_angle_beta   90.00000000
_cell_angle_gamma   90.00000000
_symmetry_Int_Tables_number   1
_chemical_formula_structural   Yb3Ho(B4Ru5)2
_chemical_formula_sum   'Yb3 Ho1 B8 Ru10'
_cell_volume   268.00678655
_cell_formula_units_Z   1
loop_
 _symmetry_equiv_pos_site_id
 _symmetry_equiv_pos_as_xyz
  1  'x, y, z'
loop_
 _atom_site_type_symbol
 _atom_site_label
 _atom_site_symmetry_multiplicity
 _atom_site_fract_x
 _atom_site_fract_y
 _atom_site_fract_z
 _atom_site_occupancy
  Yb  Yb0  1  0.500000  0.841837  0.181507  1
  Yb  Yb1  1  0.500000  0.157916  0.817856  1
  Yb  Yb2  1  0.500000  0.658166  0.682890  1
  Ho  Ho3  1  0.500000  0.342246  0.317745  1
  B  B4  1  0.500000  0.964589  0.589930  1
  B  B5  1  0.500000  0.033707  0.411702  1
  B  B6  1  0.500000  0.853342  0.899378  1
  B  B7  1  0.500000  0.146471  0.098554  1
  B  B8  1  0.500000  0.648288  0.400040  1
  B  B9  1  0.500000  0.352836  0.602318  1
  B  B10  1  0.500000  0.466118  0.910055  1
  B  B11  1  0.500000  0.536075  0.087644  1
  Ru  Ru12  1  0.000000  0.656477  0.954423  1
  Ru  Ru13  1  0.000000  0.343152  0.046249  1
  Ru  Ru14  1  0.000000  0.843051  0.453939  1
  Ru  Ru15  1  0.000000  0.156685  0.545368  1
  Ru  Ru16  1  0.000000  0.999923  0.000073  1
  Ru  Ru17  1  0.000000  0.404620  0.760251  1
  Ru  Ru18  1  0.000000  0.596558  0.239418  1
  Ru  Ru19  1  0.000000  0.500401  0.500709  1
  Ru  Ru20  1  0.000000  0.904388  0.740156  1
  Ru  Ru21  1  0.000000  0.093155  0.259798  1
