# generated using pymatgen
data_Dy2Si3Tc14C3
_symmetry_space_group_name_H-M   'P 1'
_cell_length_a   6.89734631
_cell_length_b   6.89734579
_cell_length_c   6.89734611
_cell_angle_alpha   82.17018937
_cell_angle_beta   82.17017787
_cell_angle_gamma   82.17018789
_symmetry_Int_Tables_number   1
_chemical_formula_structural   Dy2Si3Tc14C3
_chemical_formula_sum   'Dy2 Si3 Tc14 C3'
_cell_volume   319.71724187
_cell_formula_units_Z   1
loop_
 _symmetry_equiv_pos_site_id
 _symmetry_equiv_pos_as_xyz
  1  'x, y, z'
loop_
 _atom_site_type_symbol
 _atom_site_label
 _atom_site_symmetry_multiplicity
 _atom_site_fract_x
 _atom_site_fract_y
 _atom_site_fract_z
 _atom_site_occupancy
  Dy  Dy0  1  0.652264  0.652264  0.652264  1
  Dy  Dy1  1  0.347736  0.347736  0.347736  1
  Si  Si2  1  0.000000  0.000000  0.500000  1
  Si  Si3  1  0.500000  0.000000  0.000000  1
  Si  Si4  1  0.000000  0.500000  0.000000  1
  Tc  Tc5  1  0.722730  0.277270  0.000000  1
  Tc  Tc6  1  0.000000  0.722730  0.277270  1
  Tc  Tc7  1  0.277270  0.000000  0.722730  1
  Tc  Tc8  1  0.000000  0.277270  0.722730  1
  Tc  Tc9  1  0.722730  0.000000  0.277270  1
  Tc  Tc10  1  0.277270  0.722730  0.000000  1
  Tc  Tc11  1  0.347045  0.347045  0.859053  1
  Tc  Tc12  1  0.859053  0.347045  0.347045  1
  Tc  Tc13  1  0.347045  0.859053  0.347045  1
  Tc  Tc14  1  0.652955  0.652955  0.140947  1
  Tc  Tc15  1  0.140947  0.652955  0.652955  1
  Tc  Tc16  1  0.652955  0.140947  0.652955  1
  Tc  Tc17  1  0.900618  0.900618  0.900618  1
  Tc  Tc18  1  0.099382  0.099382  0.099382  1
  C  C19  1  0.500000  0.500000  0.000000  1
  C  C20  1  0.000000  0.500000  0.500000  1
  C  C21  1  0.500000  0.000000  0.500000  1
