# generated using pymatgen
data_Tb3In3Ag2Ir
_symmetry_space_group_name_H-M   'P 1'
_cell_length_a   7.84608900
_cell_length_b   7.84609027
_cell_length_c   3.90732900
_cell_angle_alpha   90.00000000
_cell_angle_beta   90.00000000
_cell_angle_gamma   120.00000727
_symmetry_Int_Tables_number   1
_chemical_formula_structural   Tb3In3Ag2Ir
_chemical_formula_sum   'Tb3 In3 Ag2 Ir1'
_cell_volume   208.31335395
_cell_formula_units_Z   1
loop_
 _symmetry_equiv_pos_site_id
 _symmetry_equiv_pos_as_xyz
  1  'x, y, z'
loop_
 _atom_site_type_symbol
 _atom_site_label
 _atom_site_symmetry_multiplicity
 _atom_site_fract_x
 _atom_site_fract_y
 _atom_site_fract_z
 _atom_site_occupancy
  Tb  Tb0  1  0.425093  0.396799  0.000000  1
  Tb  Tb1  1  0.603201  0.028294  0.000000  1
  Tb  Tb2  1  0.971706  0.574907  0.000000  1
  In  In3  1  0.002995  0.264979  0.500000  1
  In  In4  1  0.735021  0.738016  0.500000  1
  In  In5  1  0.261984  0.997005  0.500000  1
  Ag  Ag6  1  0.000000  0.000000  0.000000  1
  Ag  Ag7  1  0.333333  0.666667  0.500000  1
  Ir  Ir8  1  0.666667  0.333333  0.500000  1
