# generated using pymatgen
data_Lu4Ga3GeRu4
_symmetry_space_group_name_H-M   'P 1'
_cell_length_a   4.44870100
_cell_length_b   6.98861307
_cell_length_c   7.12472204
_cell_angle_alpha   90.00243590
_cell_angle_beta   90.00000000
_cell_angle_gamma   90.00000000
_symmetry_Int_Tables_number   1
_chemical_formula_structural   Lu4Ga3GeRu4
_chemical_formula_sum   'Lu4 Ga3 Ge1 Ru4'
_cell_volume   221.50938897
_cell_formula_units_Z   1
loop_
 _symmetry_equiv_pos_site_id
 _symmetry_equiv_pos_as_xyz
  1  'x, y, z'
loop_
 _atom_site_type_symbol
 _atom_site_label
 _atom_site_symmetry_multiplicity
 _atom_site_fract_x
 _atom_site_fract_y
 _atom_site_fract_z
 _atom_site_occupancy
  Lu  Lu0  1  0.250000  0.484112  0.695931  1
  Lu  Lu1  1  0.750000  0.013206  0.197132  1
  Lu  Lu2  1  0.750000  0.515609  0.302143  1
  Lu  Lu3  1  0.250000  0.986394  0.804797  1
  Ga  Ga4  1  0.750000  0.696772  0.893066  1
  Ga  Ga5  1  0.250000  0.795554  0.397619  1
  Ga  Ga6  1  0.250000  0.301057  0.108011  1
  Ge  Ge7  1  0.750000  0.206166  0.600304  1
  Ru  Ru8  1  0.750000  0.845954  0.562835  1
  Ru  Ru9  1  0.750000  0.328352  0.933124  1
  Ru  Ru10  1  0.250000  0.666477  0.062331  1
  Ru  Ru11  1  0.250000  0.160346  0.442707  1
