# generated using pymatgen
data_Ho7Er13(Bi2Ru)4
_symmetry_space_group_name_H-M   'P 1'
_cell_length_a   7.91839203
_cell_length_b   8.97598000
_cell_length_c   12.42431005
_cell_angle_alpha   90.00000000
_cell_angle_beta   89.99008866
_cell_angle_gamma   90.00000000
_symmetry_Int_Tables_number   1
_chemical_formula_structural   Ho7Er13(Bi2Ru)4
_chemical_formula_sum   'Ho7 Er13 Bi8 Ru4'
_cell_volume   883.06190460
_cell_formula_units_Z   1
loop_
 _symmetry_equiv_pos_site_id
 _symmetry_equiv_pos_as_xyz
  1  'x, y, z'
loop_
 _atom_site_type_symbol
 _atom_site_label
 _atom_site_symmetry_multiplicity
 _atom_site_fract_x
 _atom_site_fract_y
 _atom_site_fract_z
 _atom_site_occupancy
  Ho  Ho0  1  0.661276  0.750000  0.707851  1
  Ho  Ho1  1  0.338798  0.250000  0.292170  1
  Ho  Ho2  1  0.161237  0.250000  0.792137  1
  Ho  Ho3  1  0.838701  0.750000  0.207841  1
  Ho  Ho4  1  0.127974  0.750000  0.812222  1
  Ho  Ho5  1  0.872007  0.250000  0.187771  1
  Ho  Ho6  1  0.627981  0.250000  0.687773  1
  Er  Er7  1  0.372261  0.750000  0.312465  1
  Er  Er8  1  0.554984  0.750000  0.995218  1
  Er  Er9  1  0.444931  0.250000  0.004816  1
  Er  Er10  1  0.055101  0.250000  0.504771  1
  Er  Er11  1  0.944876  0.750000  0.495222  1
  Er  Er12  1  0.827206  0.458397  0.933762  1
  Er  Er13  1  0.172836  0.541568  0.066256  1
  Er  Er14  1  0.327228  0.541666  0.566105  1
  Er  Er15  1  0.172836  0.958432  0.066256  1
  Er  Er16  1  0.672692  0.458595  0.433754  1
  Er  Er17  1  0.827206  0.041603  0.933762  1
  Er  Er18  1  0.672692  0.041405  0.433754  1
  Er  Er19  1  0.327228  0.958334  0.566105  1
  Bi  Bi20  1  0.936254  0.005264  0.672495  1
  Bi  Bi21  1  0.063920  0.994607  0.327495  1
  Bi  Bi22  1  0.436252  0.994730  0.827515  1
  Bi  Bi23  1  0.063920  0.505393  0.327495  1
  Bi  Bi24  1  0.563598  0.005148  0.172539  1
  Bi  Bi25  1  0.936254  0.494736  0.672495  1
  Bi  Bi26  1  0.563598  0.494852  0.172539  1
  Bi  Bi27  1  0.436252  0.505270  0.827515  1
  Ru  Ru28  1  0.927333  0.750000  0.991375  1
  Ru  Ru29  1  0.072656  0.250000  0.008635  1
  Ru  Ru30  1  0.427326  0.250000  0.508654  1
  Ru  Ru31  1  0.572585  0.750000  0.491236  1
