# generated using pymatgen
data_Cs2NaMnO4
_symmetry_space_group_name_H-M   'P 1'
_cell_length_a   6.22706600
_cell_length_b   6.13393113
_cell_length_c   8.35932303
_cell_angle_alpha   87.16255091
_cell_angle_beta   90.00000000
_cell_angle_gamma   90.00000000
_symmetry_Int_Tables_number   1
_chemical_formula_structural   Cs2NaMnO4
_chemical_formula_sum   'Cs4 Na2 Mn2 O8'
_cell_volume   318.90453746
_cell_formula_units_Z   2
loop_
 _symmetry_equiv_pos_site_id
 _symmetry_equiv_pos_as_xyz
  1  'x, y, z'
loop_
 _atom_site_type_symbol
 _atom_site_label
 _atom_site_symmetry_multiplicity
 _atom_site_fract_x
 _atom_site_fract_y
 _atom_site_fract_z
 _atom_site_occupancy
  Cs  Cs0  1  0.250000  0.158897  0.816382  1
  Cs  Cs1  1  0.750000  0.841103  0.183618  1
  Cs  Cs2  1  0.250000  0.705723  0.509438  1
  Cs  Cs3  1  0.750000  0.294277  0.490562  1
  Na  Na4  1  0.750000  0.364174  0.974662  1
  Na  Na5  1  0.250000  0.635826  0.025338  1
  Mn  Mn6  1  0.250000  0.212160  0.240730  1
  Mn  Mn7  1  0.750000  0.787840  0.759270  1
  O  O8  1  0.972386  0.647980  0.833877  1
  O  O9  1  0.472386  0.352020  0.166123  1
  O  O10  1  0.027614  0.352020  0.166123  1
  O  O11  1  0.527614  0.647980  0.833877  1
  O  O12  1  0.750000  0.050446  0.825349  1
  O  O13  1  0.750000  0.793446  0.553850  1
  O  O14  1  0.250000  0.949554  0.174651  1
  O  O15  1  0.250000  0.206554  0.446150  1
