# generated using pymatgen
data_Cs2Dy7GaBr18
_symmetry_space_group_name_H-M   'P 1'
_cell_length_a   10.71151679
_cell_length_b   10.71151581
_cell_length_c   11.61540300
_cell_angle_alpha   117.45753297
_cell_angle_beta   62.54246975
_cell_angle_gamma   120.00000326
_symmetry_Int_Tables_number   1
_chemical_formula_structural   Cs2Dy7GaBr18
_chemical_formula_sum   'Cs2 Dy7 Ga1 Br18'
_cell_volume   976.97402128
_cell_formula_units_Z   1
loop_
 _symmetry_equiv_pos_site_id
 _symmetry_equiv_pos_as_xyz
  1  'x, y, z'
loop_
 _atom_site_type_symbol
 _atom_site_label
 _atom_site_symmetry_multiplicity
 _atom_site_fract_x
 _atom_site_fract_y
 _atom_site_fract_z
 _atom_site_occupancy
  Cs  Cs0  1  0.222087  0.777919  0.333841  1
  Cs  Cs1  1  0.777910  0.222082  0.666157  1
  Dy  Dy2  1  0.765080  0.116015  0.164611  1
  Dy  Dy3  1  0.883973  0.813645  0.164515  1
  Dy  Dy4  1  0.186339  0.234924  0.164618  1
  Dy  Dy5  1  0.499999  0.500003  0.500002  1
  Dy  Dy6  1  0.813659  0.765076  0.835384  1
  Dy  Dy7  1  0.116025  0.186353  0.835486  1
  Dy  Dy8  1  0.234924  0.883986  0.835391  1
  Ga  Ga9  1  0.999999  0.999998  0.000001  1
  Br  Br10  1  0.287962  0.427264  0.008742  1
  Br  Br11  1  0.572576  0.869218  0.008838  1
  Br  Br12  1  0.130841  0.712282  0.008829  1
  Br  Br13  1  0.946624  0.350423  0.336017  1
  Br  Br14  1  0.067852  0.053361  0.335879  1
  Br  Br15  1  0.649567  0.932111  0.335869  1
  Br  Br16  1  0.507585  0.209382  0.338010  1
  Br  Br17  1  0.790508  0.636033  0.337923  1
  Br  Br18  1  0.363940  0.492472  0.337968  1
  Br  Br19  1  0.636060  0.507528  0.662034  1
  Br  Br20  1  0.209485  0.363947  0.662071  1
  Br  Br21  1  0.492417  0.790620  0.661990  1
  Br  Br22  1  0.350441  0.067903  0.664136  1
  Br  Br23  1  0.932147  0.946641  0.664124  1
  Br  Br24  1  0.053375  0.649578  0.663984  1
  Br  Br25  1  0.869155  0.287703  0.991164  1
  Br  Br26  1  0.427425  0.130789  0.991159  1
  Br  Br27  1  0.712043  0.572737  0.991256  1
