# generated using pymatgen
data_La2DyPt2RhPb3
_symmetry_space_group_name_H-M   'P 1'
_cell_length_a   7.91418300
_cell_length_b   7.93388325
_cell_length_c   3.96614700
_cell_angle_alpha   90.00000000
_cell_angle_beta   90.00000000
_cell_angle_gamma   120.08237517
_symmetry_Int_Tables_number   1
_chemical_formula_structural   La2DyPt2RhPb3
_chemical_formula_sum   'La2 Dy1 Pt2 Rh1 Pb3'
_cell_volume   215.49154735
_cell_formula_units_Z   1
loop_
 _symmetry_equiv_pos_site_id
 _symmetry_equiv_pos_as_xyz
  1  'x, y, z'
loop_
 _atom_site_type_symbol
 _atom_site_label
 _atom_site_symmetry_multiplicity
 _atom_site_fract_x
 _atom_site_fract_y
 _atom_site_fract_z
 _atom_site_occupancy
  La  La0  1  0.592115  0.999626  0.500000  1
  La  La1  1  0.407885  0.407512  0.500000  1
  Dy  Dy2  1  0.000000  0.593805  0.500000  1
  Pt  Pt3  1  0.672586  0.338389  0.000000  1
  Pt  Pt4  1  0.327414  0.665802  0.000000  1
  Rh  Rh5  1  0.000000  0.996553  0.500000  1
  Pb  Pb6  1  0.000000  0.258108  0.000000  1
  Pb  Pb7  1  0.253016  0.996612  0.000000  1
  Pb  Pb8  1  0.746984  0.743597  0.000000  1
