# generated using pymatgen
data_CsScTe3O8
_symmetry_space_group_name_H-M   'P 1'
_cell_length_a   5.87386516
_cell_length_b   7.88125069
_cell_length_c   11.41230223
_cell_angle_alpha   99.93570358
_cell_angle_beta   89.38990236
_cell_angle_gamma   110.02751066
_symmetry_Int_Tables_number   1
_chemical_formula_structural   CsScTe3O8
_chemical_formula_sum   'Cs2 Sc2 Te6 O16'
_cell_volume   488.25143486
_cell_formula_units_Z   2
loop_
 _symmetry_equiv_pos_site_id
 _symmetry_equiv_pos_as_xyz
  1  'x, y, z'
loop_
 _atom_site_type_symbol
 _atom_site_label
 _atom_site_symmetry_multiplicity
 _atom_site_fract_x
 _atom_site_fract_y
 _atom_site_fract_z
 _atom_site_occupancy
  Cs  Cs0  1  0.819393  0.110533  0.162086  1
  Cs  Cs1  1  0.180607  0.889467  0.837914  1
  Sc  Sc2  1  0.500000  0.500000  0.000000  1
  Sc  Sc3  1  0.000000  0.500000  0.500000  1
  Te  Te4  1  0.217943  0.985521  0.419891  1
  Te  Te5  1  0.782057  0.014479  0.580109  1
  Te  Te6  1  0.076573  0.672169  0.151469  1
  Te  Te7  1  0.923427  0.327831  0.848531  1
  Te  Te8  1  0.512702  0.525007  0.334356  1
  Te  Te9  1  0.487298  0.474993  0.665644  1
  O  O10  1  0.174916  0.739132  0.427370  1
  O  O11  1  0.825084  0.260868  0.572630  1
  O  O12  1  0.233308  0.923707  0.232696  1
  O  O13  1  0.766692  0.076293  0.767304  1
  O  O14  1  0.882480  0.960108  0.397463  1
  O  O15  1  0.117520  0.039892  0.602537  1
  O  O16  1  0.295835  0.682686  0.028660  1
  O  O17  1  0.704165  0.317314  0.971340  1
  O  O18  1  0.830172  0.715941  0.070531  1
  O  O19  1  0.169828  0.284059  0.929469  1
  O  O20  1  0.415004  0.431085  0.170998  1
  O  O21  1  0.584996  0.568915  0.829002  1
  O  O22  1  0.236576  0.374440  0.403347  1
  O  O23  1  0.763424  0.625560  0.596653  1
  O  O24  1  0.731662  0.401978  0.354067  1
  O  O25  1  0.268338  0.598022  0.645933  1
