# generated using pymatgen
data_Y8Si12PdPt3
_symmetry_space_group_name_H-M   'P 1'
_cell_length_a   8.20432300
_cell_length_b   8.20432263
_cell_length_c   7.95400300
_cell_angle_alpha   90.00000000
_cell_angle_beta   90.00000000
_cell_angle_gamma   119.99999746
_symmetry_Int_Tables_number   1
_chemical_formula_structural   Y8Si12PdPt3
_chemical_formula_sum   'Y8 Si12 Pd1 Pt3'
_cell_volume   463.66239440
_cell_formula_units_Z   1
loop_
 _symmetry_equiv_pos_site_id
 _symmetry_equiv_pos_as_xyz
  1  'x, y, z'
loop_
 _atom_site_type_symbol
 _atom_site_label
 _atom_site_symmetry_multiplicity
 _atom_site_fract_x
 _atom_site_fract_y
 _atom_site_fract_z
 _atom_site_occupancy
  Y  Y0  1  0.512435  0.024870  0.250116  1
  Y  Y1  1  0.488784  0.977568  0.749692  1
  Y  Y2  1  0.975130  0.487565  0.250116  1
  Y  Y3  1  0.022432  0.511216  0.749692  1
  Y  Y4  1  0.512435  0.487565  0.250116  1
  Y  Y5  1  0.488784  0.511216  0.749692  1
  Y  Y6  1  0.000000  0.000000  0.250667  1
  Y  Y7  1  0.000000  0.000000  0.749341  1
  Si  Si8  1  0.165610  0.331220  0.002920  1
  Si  Si9  1  0.834235  0.668470  0.997775  1
  Si  Si10  1  0.668780  0.834390  0.002920  1
  Si  Si11  1  0.834374  0.668748  0.502085  1
  Si  Si12  1  0.331530  0.165765  0.997775  1
  Si  Si13  1  0.165416  0.330833  0.498270  1
  Si  Si14  1  0.165610  0.834390  0.002920  1
  Si  Si15  1  0.331252  0.165626  0.502085  1
  Si  Si16  1  0.834235  0.165765  0.997775  1
  Si  Si17  1  0.669167  0.834584  0.498270  1
  Si  Si18  1  0.834374  0.165626  0.502085  1
  Si  Si19  1  0.165416  0.834584  0.498270  1
  Pd  Pd20  1  0.333333  0.666667  0.458439  1
  Pt  Pt21  1  0.333333  0.666667  0.038323  1
  Pt  Pt22  1  0.666667  0.333333  0.958873  1
  Pt  Pt23  1  0.666667  0.333333  0.541785  1
