# generated using pymatgen
data_MnCrP2O7
_symmetry_space_group_name_H-M   'P 1'
_cell_length_a   5.63329185
_cell_length_b   6.59354935
_cell_length_c   7.63246391
_cell_angle_alpha   80.47386635
_cell_angle_beta   86.95961789
_cell_angle_gamma   71.48490438
_symmetry_Int_Tables_number   1
_chemical_formula_structural   MnCrP2O7
_chemical_formula_sum   'Mn2 Cr2 P4 O14'
_cell_volume   265.11481235
_cell_formula_units_Z   2
loop_
 _symmetry_equiv_pos_site_id
 _symmetry_equiv_pos_as_xyz
  1  'x, y, z'
loop_
 _atom_site_type_symbol
 _atom_site_label
 _atom_site_symmetry_multiplicity
 _atom_site_fract_x
 _atom_site_fract_y
 _atom_site_fract_z
 _atom_site_occupancy
  Mn  Mn0  1  0.320875  0.659179  0.650147  1
  Mn  Mn1  1  0.679380  0.340398  0.349959  1
  Cr  Cr2  1  0.720824  0.846581  0.824020  1
  Cr  Cr3  1  0.279169  0.153797  0.175730  1
  P  P4  1  0.178999  0.683834  0.097289  1
  P  P5  1  0.820973  0.316294  0.902718  1
  P  P6  1  0.225860  0.200164  0.616420  1
  P  P7  1  0.774171  0.799689  0.383637  1
  O  O8  1  0.089069  0.699458  0.906123  1
  O  O9  1  0.910782  0.300584  0.093858  1
  O  O10  1  0.294460  0.856197  0.118843  1
  O  O11  1  0.705432  0.143964  0.881213  1
  O  O12  1  0.348376  0.452584  0.167346  1
  O  O13  1  0.651629  0.547534  0.832637  1
  O  O14  1  0.610860  0.651804  0.432997  1
  O  O15  1  0.389083  0.348065  0.566981  1
  O  O16  1  0.045518  0.213207  0.470734  1
  O  O17  1  0.954484  0.786752  0.529333  1
  O  O18  1  0.078290  0.285380  0.790534  1
  O  O19  1  0.921779  0.714554  0.209541  1
  O  O20  1  0.614497  0.036190  0.316947  1
  O  O21  1  0.385494  0.963789  0.682991  1
