# generated using pymatgen
data_NdThPd2Pb
_symmetry_space_group_name_H-M   'P 1'
_cell_length_a   3.77293000
_cell_length_b   8.10122554
_cell_length_c   8.10122554
_cell_angle_alpha   92.34174893
_cell_angle_beta   90.00000000
_cell_angle_gamma   90.00000000
_symmetry_Int_Tables_number   1
_chemical_formula_structural   NdThPd2Pb
_chemical_formula_sum   'Nd2 Th2 Pd4 Pb2'
_cell_volume   247.41006156
_cell_formula_units_Z   2
loop_
 _symmetry_equiv_pos_site_id
 _symmetry_equiv_pos_as_xyz
  1  'x, y, z'
loop_
 _atom_site_type_symbol
 _atom_site_label
 _atom_site_symmetry_multiplicity
 _atom_site_fract_x
 _atom_site_fract_y
 _atom_site_fract_z
 _atom_site_occupancy
  Nd  Nd0  1  0.500000  0.326992  0.173008  1
  Nd  Nd1  1  0.500000  0.673008  0.826992  1
  Th  Th2  1  0.500000  0.174172  0.674172  1
  Th  Th3  1  0.500000  0.825828  0.325828  1
  Pd  Pd4  1  0.000000  0.628378  0.128378  1
  Pd  Pd5  1  0.000000  0.371622  0.871622  1
  Pd  Pd6  1  0.000000  0.879106  0.620894  1
  Pd  Pd7  1  0.000000  0.120894  0.379106  1
  Pb  Pb8  1  0.000000  0.000000  0.000000  1
  Pb  Pb9  1  0.000000  0.500000  0.500000  1
