# generated using pymatgen
data_HoEr(Si7Ir3)2
_symmetry_space_group_name_H-M   'P 1'
_cell_length_a   8.04504495
_cell_length_b   8.04504535
_cell_length_c   8.04504512
_cell_angle_alpha   56.48527668
_cell_angle_beta   56.48527787
_cell_angle_gamma   56.48528347
_symmetry_Int_Tables_number   1
_chemical_formula_structural   HoEr(Si7Ir3)2
_chemical_formula_sum   'Ho1 Er1 Si14 Ir6'
_cell_volume   338.27580547
_cell_formula_units_Z   1
loop_
 _symmetry_equiv_pos_site_id
 _symmetry_equiv_pos_as_xyz
  1  'x, y, z'
loop_
 _atom_site_type_symbol
 _atom_site_label
 _atom_site_symmetry_multiplicity
 _atom_site_fract_x
 _atom_site_fract_y
 _atom_site_fract_z
 _atom_site_occupancy
  Ho  Ho0  1  0.500000  0.500000  0.500000  1
  Er  Er1  1  0.000000  0.000000  0.000000  1
  Si  Si2  1  0.850162  0.064254  0.672623  1
  Si  Si3  1  0.672623  0.850162  0.064254  1
  Si  Si4  1  0.064254  0.672623  0.850162  1
  Si  Si5  1  0.649275  0.827385  0.435936  1
  Si  Si6  1  0.249883  0.249883  0.249883  1
  Si  Si7  1  0.750117  0.750117  0.750117  1
  Si  Si8  1  0.172615  0.564064  0.350725  1
  Si  Si9  1  0.564064  0.350725  0.172615  1
  Si  Si10  1  0.350725  0.172615  0.564064  1
  Si  Si11  1  0.935746  0.327377  0.149838  1
  Si  Si12  1  0.327377  0.149838  0.935746  1
  Si  Si13  1  0.149838  0.935746  0.327377  1
  Si  Si14  1  0.827385  0.435936  0.649275  1
  Si  Si15  1  0.435936  0.649275  0.827385  1
  Ir  Ir16  1  0.750268  0.070693  0.428864  1
  Ir  Ir17  1  0.428864  0.750268  0.070693  1
  Ir  Ir18  1  0.070693  0.428864  0.750268  1
  Ir  Ir19  1  0.249732  0.929307  0.571136  1
  Ir  Ir20  1  0.571136  0.249732  0.929307  1
  Ir  Ir21  1  0.929307  0.571136  0.249732  1
