# generated using pymatgen
data_HoTh3(CdPd2)2
_symmetry_space_group_name_H-M   'P 1'
_cell_length_a   7.89367528
_cell_length_b   7.89367528
_cell_length_c   3.81455700
_cell_angle_alpha   90.00000000
_cell_angle_beta   90.00000000
_cell_angle_gamma   90.61390739
_symmetry_Int_Tables_number   1
_chemical_formula_structural   HoTh3(CdPd2)2
_chemical_formula_sum   'Ho1 Th3 Cd2 Pd4'
_cell_volume   237.67182041
_cell_formula_units_Z   1
loop_
 _symmetry_equiv_pos_site_id
 _symmetry_equiv_pos_as_xyz
  1  'x, y, z'
loop_
 _atom_site_type_symbol
 _atom_site_label
 _atom_site_symmetry_multiplicity
 _atom_site_fract_x
 _atom_site_fract_y
 _atom_site_fract_z
 _atom_site_occupancy
  Ho  Ho0  1  0.825414  0.674586  0.500000  1
  Th  Th1  1  0.676604  0.171934  0.500000  1
  Th  Th2  1  0.328066  0.823396  0.500000  1
  Th  Th3  1  0.170831  0.329169  0.500000  1
  Cd  Cd4  1  0.997825  0.994885  0.000000  1
  Cd  Cd5  1  0.505115  0.502175  0.000000  1
  Pd  Pd6  1  0.127986  0.627978  0.000000  1
  Pd  Pd7  1  0.872022  0.372014  0.000000  1
  Pd  Pd8  1  0.625567  0.874433  0.000000  1
  Pd  Pd9  1  0.370570  0.129430  0.000000  1
