# generated using pymatgen
data_CaThZn21Pt
_symmetry_space_group_name_H-M   'P 1'
_cell_length_a   8.28755958
_cell_length_b   8.29923343
_cell_length_c   8.28756000
_cell_angle_alpha   100.05934182
_cell_angle_beta   99.69894253
_cell_angle_gamma   130.97207928
_symmetry_Int_Tables_number   1
_chemical_formula_structural   CaThZn21Pt
_chemical_formula_sum   'Ca1 Th1 Zn21 Pt1'
_cell_volume   391.86164134
_cell_formula_units_Z   1
loop_
 _symmetry_equiv_pos_site_id
 _symmetry_equiv_pos_as_xyz
  1  'x, y, z'
loop_
 _atom_site_type_symbol
 _atom_site_label
 _atom_site_symmetry_multiplicity
 _atom_site_fract_x
 _atom_site_fract_y
 _atom_site_fract_z
 _atom_site_occupancy
  Ca  Ca0  1  0.998843  0.001551  0.002708  1
  Th  Th1  1  0.252291  0.748751  0.496460  1
  Zn  Zn2  1  0.421065  0.092375  0.914478  1
  Zn  Zn3  1  0.180525  0.507500  0.083745  1
  Zn  Zn4  1  0.504011  0.499279  0.995268  1
  Zn  Zn5  1  0.747150  0.251332  0.504181  1
  Zn  Zn6  1  0.127482  0.376611  0.751007  1
  Zn  Zn7  1  0.625606  0.376611  0.249130  1
  Zn  Zn8  1  0.623175  0.872632  0.249457  1
  Zn  Zn9  1  0.177896  0.092375  0.671310  1
  Zn  Zn10  1  0.760067  0.932224  0.584900  1
  Zn  Zn11  1  0.345758  0.172556  0.415075  1
  Zn  Zn12  1  0.423756  0.507500  0.326974  1
  Zn  Zn13  1  0.904542  0.819069  0.329879  1
  Zn  Zn14  1  0.492744  0.577253  0.672077  1
  Zn  Zn15  1  0.068594  0.242782  0.416599  1
  Zn  Zn16  1  0.828803  0.655784  0.586180  1
  Zn  Zn17  1  0.069604  0.655784  0.826980  1
  Zn  Zn18  1  0.489189  0.819069  0.914527  1
  Zn  Zn19  1  0.905177  0.577253  0.084508  1
  Zn  Zn20  1  0.826182  0.242782  0.174189  1
  Zn  Zn21  1  0.347324  0.932224  0.172158  1
  Zn  Zn22  1  0.757481  0.172556  0.826796  1
  Pt  Pt23  1  0.622737  0.374150  0.751413  1
