# generated using pymatgen
data_Ca5Pr15Bi7Pb9
_symmetry_space_group_name_H-M   'P 1'
_cell_length_a   8.41306737
_cell_length_b   8.46024625
_cell_length_c   16.29358800
_cell_angle_alpha   90.01258303
_cell_angle_beta   89.78115627
_cell_angle_gamma   90.19313359
_symmetry_Int_Tables_number   1
_chemical_formula_structural   Ca5Pr15Bi7Pb9
_chemical_formula_sum   'Ca5 Pr15 Bi7 Pb9'
_cell_volume   1159.70747496
_cell_formula_units_Z   1
loop_
 _symmetry_equiv_pos_site_id
 _symmetry_equiv_pos_as_xyz
  1  'x, y, z'
loop_
 _atom_site_type_symbol
 _atom_site_label
 _atom_site_symmetry_multiplicity
 _atom_site_fract_x
 _atom_site_fract_y
 _atom_site_fract_z
 _atom_site_occupancy
  Ca  Ca0  1  0.380575  0.841347  0.879597  1
  Ca  Ca1  1  0.214430  0.503685  0.752309  1
  Ca  Ca2  1  0.711395  0.997108  0.752625  1
  Ca  Ca3  1  0.787781  0.498060  0.247958  1
  Ca  Ca4  1  0.287422  0.000754  0.247555  1
  Pr  Pr5  1  0.884136  0.663656  0.620290  1
  Pr  Pr6  1  0.616309  0.161049  0.380148  1
  Pr  Pr7  1  0.116026  0.339350  0.118459  1
  Pr  Pr8  1  0.619813  0.163519  0.119667  1
  Pr  Pr9  1  0.115874  0.337141  0.380088  1
  Pr  Pr10  1  0.381885  0.838576  0.620364  1
  Pr  Pr11  1  0.882115  0.660389  0.880841  1
  Pr  Pr12  1  0.537552  0.323454  0.896677  1
  Pr  Pr13  1  0.038007  0.178423  0.606154  1
  Pr  Pr14  1  0.463282  0.676998  0.395228  1
  Pr  Pr15  1  0.963901  0.820304  0.104519  1
  Pr  Pr16  1  0.468118  0.677229  0.100519  1
  Pr  Pr17  1  0.961886  0.820847  0.394423  1
  Pr  Pr18  1  0.537126  0.321413  0.605519  1
  Pr  Pr19  1  0.032927  0.180721  0.896674  1
  Bi  Bi20  1  0.277289  0.027287  0.042005  1
  Bi  Bi21  1  0.775311  0.472526  0.457173  1
  Bi  Bi22  1  0.724724  0.972939  0.543309  1
  Bi  Bi23  1  0.224712  0.531151  0.956117  1
  Bi  Bi24  1  0.720518  0.968637  0.957713  1
  Bi  Bi25  1  0.224912  0.526719  0.543274  1
  Bi  Bi26  1  0.274952  0.026267  0.456665  1
  Pb  Pb27  1  0.777290  0.469605  0.041673  1
  Pb  Pb28  1  0.579474  0.621299  0.751259  1
  Pb  Pb29  1  0.078951  0.880098  0.751096  1
  Pb  Pb30  1  0.420797  0.379043  0.249869  1
  Pb  Pb31  1  0.920591  0.120731  0.249936  1
  Pb  Pb32  1  0.339389  0.145561  0.751140  1
  Pb  Pb33  1  0.840466  0.355102  0.749746  1
  Pb  Pb34  1  0.659451  0.855140  0.249568  1
  Pb  Pb35  1  0.160617  0.643878  0.249843  1
