# generated using pymatgen
data_Dy2Pa(InIr)3
_symmetry_space_group_name_H-M   'P 1'
_cell_length_a   7.81727100
_cell_length_b   7.56363125
_cell_length_c   3.84602800
_cell_angle_alpha   90.00000000
_cell_angle_beta   90.00000000
_cell_angle_gamma   121.11563677
_symmetry_Int_Tables_number   1
_chemical_formula_structural   Dy2Pa(InIr)3
_chemical_formula_sum   'Dy2 Pa1 In3 Ir3'
_cell_volume   194.68643201
_cell_formula_units_Z   1
loop_
 _symmetry_equiv_pos_site_id
 _symmetry_equiv_pos_as_xyz
  1  'x, y, z'
loop_
 _atom_site_type_symbol
 _atom_site_label
 _atom_site_symmetry_multiplicity
 _atom_site_fract_x
 _atom_site_fract_y
 _atom_site_fract_z
 _atom_site_occupancy
  Dy  Dy0  1  0.999611  0.403704  0.000000  1
  Dy  Dy1  1  0.595906  0.596295  0.000000  1
  Pa  Pa2  1  0.416181  0.000001  0.000000  1
  In  In3  1  0.755271  0.000001  0.500002  1
  In  In4  1  0.989388  0.730733  0.500002  1
  In  In5  1  0.258655  0.269268  0.500002  1
  Ir  Ir6  1  0.638313  0.301549  0.500002  1
  Ir  Ir7  1  0.336766  0.698453  0.500002  1
  Ir  Ir8  1  0.010011  0.000000  0.000000  1
