# generated using pymatgen
data_EuPu(AlAu2)3
_symmetry_space_group_name_H-M   'P 1'
_cell_length_a   8.87368792
_cell_length_b   8.87368811
_cell_length_c   8.87368900
_cell_angle_alpha   57.97829275
_cell_angle_beta   57.97829198
_cell_angle_gamma   57.97829119
_symmetry_Int_Tables_number   1
_chemical_formula_structural   EuPu(AlAu2)3
_chemical_formula_sum   'Eu2 Pu2 Al6 Au12'
_cell_volume   471.16429374
_cell_formula_units_Z   2
loop_
 _symmetry_equiv_pos_site_id
 _symmetry_equiv_pos_as_xyz
  1  'x, y, z'
loop_
 _atom_site_type_symbol
 _atom_site_label
 _atom_site_symmetry_multiplicity
 _atom_site_fract_x
 _atom_site_fract_y
 _atom_site_fract_z
 _atom_site_occupancy
  Eu  Eu0  1  0.090603  0.090603  0.090603  1
  Eu  Eu1  1  0.590603  0.590603  0.590603  1
  Pu  Pu2  1  0.907882  0.907882  0.907882  1
  Pu  Pu3  1  0.407882  0.407882  0.407882  1
  Al  Al4  1  0.559992  0.748812  0.940985  1
  Al  Al5  1  0.940985  0.559992  0.748812  1
  Al  Al6  1  0.748812  0.940985  0.559992  1
  Al  Al7  1  0.440985  0.248812  0.059992  1
  Al  Al8  1  0.059992  0.440985  0.248812  1
  Al  Al9  1  0.248812  0.059992  0.440985  1
  Au  Au10  1  0.475860  0.865732  0.203312  1
  Au  Au11  1  0.203312  0.475860  0.865732  1
  Au  Au12  1  0.865732  0.203312  0.475860  1
  Au  Au13  1  0.703312  0.365732  0.975860  1
  Au  Au14  1  0.975860  0.703312  0.365732  1
  Au  Au15  1  0.365732  0.975860  0.703312  1
  Au  Au16  1  0.526202  0.134596  0.796023  1
  Au  Au17  1  0.796023  0.526202  0.134596  1
  Au  Au18  1  0.134596  0.796023  0.526202  1
  Au  Au19  1  0.296023  0.634596  0.026202  1
  Au  Au20  1  0.026202  0.296023  0.634596  1
  Au  Au21  1  0.634596  0.026202  0.296023  1
