# generated using pymatgen
data_EuLu3Np6O20
_symmetry_space_group_name_H-M   'P 1'
_cell_length_a   6.50305360
_cell_length_b   7.54316968
_cell_length_c   8.41166300
_cell_angle_alpha   102.70365782
_cell_angle_beta   97.36404846
_cell_angle_gamma   106.94726560
_symmetry_Int_Tables_number   1
_chemical_formula_structural   EuLu3Np6O20
_chemical_formula_sum   'Eu1 Lu3 Np6 O20'
_cell_volume   376.77949320
_cell_formula_units_Z   1
loop_
 _symmetry_equiv_pos_site_id
 _symmetry_equiv_pos_as_xyz
  1  'x, y, z'
loop_
 _atom_site_type_symbol
 _atom_site_label
 _atom_site_symmetry_multiplicity
 _atom_site_fract_x
 _atom_site_fract_y
 _atom_site_fract_z
 _atom_site_occupancy
  Eu  Eu0  1  0.000054  0.999720  0.000224  1
  Lu  Lu1  1  0.799248  0.597742  0.599418  1
  Lu  Lu2  1  0.996822  0.498352  0.998846  1
  Lu  Lu3  1  0.607498  0.205572  0.201535  1
  Np  Np4  1  0.798712  0.102050  0.600464  1
  Np  Np5  1  0.602464  0.698149  0.199698  1
  Np  Np6  1  0.198485  0.398498  0.395091  1
  Np  Np7  1  0.400759  0.300594  0.802675  1
  Np  Np8  1  0.199900  0.900555  0.397286  1
  Np  Np9  1  0.394368  0.798382  0.802025  1
  O  O10  1  0.856245  0.324254  0.457971  1
  O  O11  1  0.633529  0.914051  0.057153  1
  O  O12  1  0.948038  0.765937  0.159892  1
  O  O13  1  0.854617  0.832552  0.453924  1
  O  O14  1  0.434648  0.517939  0.647891  1
  O  O15  1  0.645237  0.427873  0.048633  1
  O  O16  1  0.736003  0.369712  0.749493  1
  O  O17  1  0.261117  0.128176  0.263646  1
  O  O18  1  0.440988  0.025134  0.645230  1
  O  O19  1  0.957648  0.289812  0.161233  1
  O  O20  1  0.556023  0.974648  0.358272  1
  O  O21  1  0.061683  0.716122  0.839958  1
  O  O22  1  0.262959  0.632211  0.248648  1
  O  O23  1  0.724800  0.869883  0.741850  1
  O  O24  1  0.356129  0.571268  0.951047  1
  O  O25  1  0.051247  0.231493  0.838162  1
  O  O26  1  0.552906  0.482010  0.349546  1
  O  O27  1  0.148985  0.171407  0.548179  1
  O  O28  1  0.366930  0.079794  0.943719  1
  O  O29  1  0.151958  0.676111  0.538293  1
