# generated using pymatgen
data_Li8Ca4In3Pb
_symmetry_space_group_name_H-M   'P 1'
_cell_length_a   5.01333912
_cell_length_b   7.11160909
_cell_length_c   9.97825211
_cell_angle_alpha   89.99893557
_cell_angle_beta   89.98307327
_cell_angle_gamma   90.01793042
_symmetry_Int_Tables_number   1
_chemical_formula_structural   Li8Ca4In3Pb
_chemical_formula_sum   'Li8 Ca4 In3 Pb1'
_cell_volume   355.75367160
_cell_formula_units_Z   1
loop_
 _symmetry_equiv_pos_site_id
 _symmetry_equiv_pos_as_xyz
  1  'x, y, z'
loop_
 _atom_site_type_symbol
 _atom_site_label
 _atom_site_symmetry_multiplicity
 _atom_site_fract_x
 _atom_site_fract_y
 _atom_site_fract_z
 _atom_site_occupancy
  Li  Li0  1  0.744170  0.000336  0.125618  1
  Li  Li1  1  0.744212  0.499625  0.125619  1
  Li  Li2  1  0.244220  0.999263  0.374541  1
  Li  Li3  1  0.244139  0.500770  0.374541  1
  Li  Li4  1  0.755810  0.000345  0.625290  1
  Li  Li5  1  0.755852  0.499620  0.625290  1
  Li  Li6  1  0.255882  0.000243  0.874544  1
  Li  Li7  1  0.255860  0.499795  0.874542  1
  Ca  Ca8  1  0.244416  0.750000  0.125029  1
  Ca  Ca9  1  0.744505  0.249999  0.375455  1
  Ca  Ca10  1  0.255696  0.749999  0.624076  1
  Ca  Ca11  1  0.755525  0.249998  0.875449  1
  In  In12  1  0.245425  0.249999  0.125297  1
  In  In13  1  0.745365  0.749998  0.374885  1
  In  In14  1  0.254578  0.250001  0.624957  1
  Pb  Pb15  1  0.754334  0.750001  0.874865  1
