# generated using pymatgen
data_Ru2BrCl11
_symmetry_space_group_name_H-M   'P 1'
_cell_length_a   7.86465771
_cell_length_b   7.16399474
_cell_length_c   18.79237233
_cell_angle_alpha   73.09172899
_cell_angle_beta   78.81200743
_cell_angle_gamma   91.28224731
_symmetry_Int_Tables_number   1
_chemical_formula_structural   Ru2BrCl11
_chemical_formula_sum   'Ru4 Br2 Cl22'
_cell_volume   990.27493861
_cell_formula_units_Z   2
loop_
 _symmetry_equiv_pos_site_id
 _symmetry_equiv_pos_as_xyz
  1  'x, y, z'
loop_
 _atom_site_type_symbol
 _atom_site_label
 _atom_site_symmetry_multiplicity
 _atom_site_fract_x
 _atom_site_fract_y
 _atom_site_fract_z
 _atom_site_occupancy
  Ru  Ru0  1  0.296790  0.820074  0.345758  1
  Ru  Ru1  1  0.703210  0.179926  0.654242  1
  Ru  Ru2  1  0.843445  0.332043  0.082466  1
  Ru  Ru3  1  0.156555  0.667957  0.917534  1
  Br  Br4  1  0.670479  0.773985  0.557275  1
  Br  Br5  1  0.329521  0.226015  0.442725  1
  Cl  Cl6  1  0.226903  0.887920  0.470258  1
  Cl  Cl7  1  0.773097  0.112080  0.529742  1
  Cl  Cl8  1  0.558185  0.994750  0.323467  1
  Cl  Cl9  1  0.441815  0.005250  0.676533  1
  Cl  Cl10  1  0.459430  0.553330  0.408209  1
  Cl  Cl11  1  0.540570  0.446670  0.591791  1
  Cl  Cl12  1  0.360965  0.743710  0.236136  1
  Cl  Cl13  1  0.639035  0.256290  0.763864  1
  Cl  Cl14  1  0.051938  0.611324  0.390976  1
  Cl  Cl15  1  0.948062  0.388676  0.609024  1
  Cl  Cl16  1  0.159243  0.084740  0.297475  1
  Cl  Cl17  1  0.840757  0.915260  0.702525  1
  Cl  Cl18  1  0.866179  0.025747  0.154298  1
  Cl  Cl19  1  0.133821  0.974253  0.845702  1
  Cl  Cl20  1  0.574406  0.373461  0.139438  1
  Cl  Cl21  1  0.425594  0.626539  0.860562  1
  Cl  Cl22  1  0.737530  0.218872  0.996535  1
  Cl  Cl23  1  0.262470  0.781128  0.003465  1
  Cl  Cl24  1  0.966515  0.464861  0.159448  1
  Cl  Cl25  1  0.033485  0.535139  0.840552  1
  Cl  Cl26  1  0.137247  0.336454  0.006916  1
  Cl  Cl27  1  0.862753  0.663546  0.993084  1
