# generated using pymatgen
data_Tm4Si2B8Mo
_symmetry_space_group_name_H-M   'P 1'
_cell_length_a   7.06091700
_cell_length_b   7.06091700
_cell_length_c   7.53167900
_cell_angle_alpha   90.00000000
_cell_angle_beta   90.00000000
_cell_angle_gamma   90.00000000
_symmetry_Int_Tables_number   1
_chemical_formula_structural   Tm4Si2B8Mo
_chemical_formula_sum   'Tm8 Si4 B16 Mo2'
_cell_volume   375.50352222
_cell_formula_units_Z   2
loop_
 _symmetry_equiv_pos_site_id
 _symmetry_equiv_pos_as_xyz
  1  'x, y, z'
loop_
 _atom_site_type_symbol
 _atom_site_label
 _atom_site_symmetry_multiplicity
 _atom_site_fract_x
 _atom_site_fract_y
 _atom_site_fract_z
 _atom_site_occupancy
  Tm  Tm0  1  0.679489  0.179489  0.237018  1
  Tm  Tm1  1  0.320511  0.820511  0.762982  1
  Tm  Tm2  1  0.320511  0.820511  0.237018  1
  Tm  Tm3  1  0.820511  0.679489  0.237018  1
  Tm  Tm4  1  0.820511  0.679489  0.762982  1
  Tm  Tm5  1  0.679489  0.179489  0.762982  1
  Tm  Tm6  1  0.179489  0.320511  0.762982  1
  Tm  Tm7  1  0.179489  0.320511  0.237018  1
  Si  Si8  1  0.124092  0.624092  0.500000  1
  Si  Si9  1  0.875908  0.375908  0.500000  1
  Si  Si10  1  0.375908  0.124092  0.500000  1
  Si  Si11  1  0.624092  0.875908  0.500000  1
  B  B12  1  0.172546  0.039164  0.000000  1
  B  B13  1  0.827454  0.960836  0.000000  1
  B  B14  1  0.960836  0.172546  0.000000  1
  B  B15  1  0.327454  0.539164  0.000000  1
  B  B16  1  0.039164  0.827454  0.000000  1
  B  B17  1  0.672546  0.460836  0.000000  1
  B  B18  1  0.539164  0.672546  0.000000  1
  B  B19  1  0.460836  0.327454  0.000000  1
  B  B20  1  0.089610  0.589610  0.000000  1
  B  B21  1  0.910390  0.410390  0.000000  1
  B  B22  1  0.410390  0.089610  0.000000  1
  B  B23  1  0.589610  0.910390  0.000000  1
  B  B24  1  0.000000  0.000000  0.177876  1
  B  B25  1  0.000000  0.000000  0.822124  1
  B  B26  1  0.500000  0.500000  0.822124  1
  B  B27  1  0.500000  0.500000  0.177876  1
  Mo  Mo28  1  0.000000  0.000000  0.500000  1
  Mo  Mo29  1  0.500000  0.500000  0.500000  1
