# generated using pymatgen
data_Ho4Fe3Co4CuO20
_symmetry_space_group_name_H-M   'P 1'
_cell_length_a   5.71874200
_cell_length_b   7.30667787
_cell_length_c   8.44980755
_cell_angle_alpha   90.53583803
_cell_angle_beta   90.00000000
_cell_angle_gamma   90.00000000
_symmetry_Int_Tables_number   1
_chemical_formula_structural   Ho4Fe3Co4CuO20
_chemical_formula_sum   'Ho4 Fe3 Co4 Cu1 O20'
_cell_volume   353.05981596
_cell_formula_units_Z   1
loop_
 _symmetry_equiv_pos_site_id
 _symmetry_equiv_pos_as_xyz
  1  'x, y, z'
loop_
 _atom_site_type_symbol
 _atom_site_label
 _atom_site_symmetry_multiplicity
 _atom_site_fract_x
 _atom_site_fract_y
 _atom_site_fract_z
 _atom_site_occupancy
  Ho  Ho0  1  0.500000  0.371236  0.325686  1
  Ho  Ho1  1  0.500000  0.636506  0.670592  1
  Ho  Ho2  1  0.500000  0.142239  0.833090  1
  Ho  Ho3  1  0.500000  0.859573  0.169129  1
  Fe  Fe4  1  0.000000  0.889899  0.852612  1
  Fe  Fe5  1  0.000000  0.392213  0.645521  1
  Fe  Fe6  1  0.000000  0.610003  0.352389  1
  Co  Co7  1  0.249596  0.000783  0.499322  1
  Co  Co8  1  0.750404  0.000783  0.499322  1
  Co  Co9  1  0.752888  0.498431  0.998421  1
  Co  Co10  1  0.247112  0.498431  0.998421  1
  Cu  Cu11  1  0.000000  0.078899  0.156260  1
  O  O12  1  0.228671  0.004256  0.003988  1
  O  O13  1  0.771329  0.004256  0.003988  1
  O  O14  1  0.763427  0.500887  0.499928  1
  O  O15  1  0.236573  0.500887  0.499928  1
  O  O16  1  0.000000  0.359435  0.064883  1
  O  O17  1  0.000000  0.649104  0.926461  1
  O  O18  1  0.000000  0.146873  0.569276  1
  O  O19  1  0.000000  0.852190  0.433829  1
  O  O20  1  0.256468  0.103150  0.295971  1
  O  O21  1  0.737665  0.897959  0.703519  1
  O  O22  1  0.262335  0.897959  0.703519  1
  O  O23  1  0.739672  0.393428  0.796445  1
  O  O24  1  0.743532  0.103150  0.295971  1
  O  O25  1  0.261200  0.606753  0.203835  1
  O  O26  1  0.738800  0.606753  0.203835  1
  O  O27  1  0.260328  0.393428  0.796445  1
  O  O28  1  0.500000  0.338470  0.057235  1
  O  O29  1  0.500000  0.659658  0.943892  1
  O  O30  1  0.500000  0.160483  0.553648  1
  O  O31  1  0.500000  0.841920  0.442639  1
