# generated using pymatgen
data_Nd3Ho5(AlIr)2
_symmetry_space_group_name_H-M   'P 1'
_cell_length_a   9.62753671
_cell_length_b   9.62753788
_cell_length_c   9.62753700
_cell_angle_alpha   59.99999957
_cell_angle_beta   59.99999558
_cell_angle_gamma   60.00000303
_symmetry_Int_Tables_number   1
_chemical_formula_structural   Nd3Ho5(AlIr)2
_chemical_formula_sum   'Nd6 Ho10 Al4 Ir4'
_cell_volume   631.00182003
_cell_formula_units_Z   2
loop_
 _symmetry_equiv_pos_site_id
 _symmetry_equiv_pos_as_xyz
  1  'x, y, z'
loop_
 _atom_site_type_symbol
 _atom_site_label
 _atom_site_symmetry_multiplicity
 _atom_site_fract_x
 _atom_site_fract_y
 _atom_site_fract_z
 _atom_site_occupancy
  Nd  Nd0  1  0.939766  0.560234  0.560234  1
  Nd  Nd1  1  0.560234  0.939766  0.939766  1
  Nd  Nd2  1  0.560234  0.939766  0.560234  1
  Nd  Nd3  1  0.939766  0.560234  0.939766  1
  Nd  Nd4  1  0.560234  0.560234  0.939766  1
  Nd  Nd5  1  0.939766  0.939766  0.560234  1
  Ho  Ho6  1  0.350092  0.350092  0.350092  1
  Ho  Ho7  1  0.350092  0.350092  0.949723  1
  Ho  Ho8  1  0.350092  0.949723  0.350092  1
  Ho  Ho9  1  0.949723  0.350092  0.350092  1
  Ho  Ho10  1  0.808792  0.191208  0.191208  1
  Ho  Ho11  1  0.191208  0.808792  0.808792  1
  Ho  Ho12  1  0.191208  0.808792  0.191208  1
  Ho  Ho13  1  0.808792  0.191208  0.808792  1
  Ho  Ho14  1  0.191208  0.191208  0.808792  1
  Ho  Ho15  1  0.808792  0.808792  0.191208  1
  Al  Al16  1  0.574490  0.574490  0.574490  1
  Al  Al17  1  0.574490  0.574490  0.276531  1
  Al  Al18  1  0.574490  0.276531  0.574490  1
  Al  Al19  1  0.276531  0.574490  0.574490  1
  Ir  Ir20  1  0.141081  0.141081  0.141081  1
  Ir  Ir21  1  0.141081  0.141081  0.576756  1
  Ir  Ir22  1  0.141081  0.576756  0.141081  1
  Ir  Ir23  1  0.576756  0.141081  0.141081  1
