# generated using pymatgen
data_Yb4CoRu7
_symmetry_space_group_name_H-M   'P 1'
_cell_length_a   5.19773672
_cell_length_b   5.23581037
_cell_length_c   8.67187600
_cell_angle_alpha   90.00000000
_cell_angle_beta   90.00000000
_cell_angle_gamma   119.76461628
_symmetry_Int_Tables_number   1
_chemical_formula_structural   Yb4CoRu7
_chemical_formula_sum   'Yb4 Co1 Ru7'
_cell_volume   204.86468185
_cell_formula_units_Z   1
loop_
 _symmetry_equiv_pos_site_id
 _symmetry_equiv_pos_as_xyz
  1  'x, y, z'
loop_
 _atom_site_type_symbol
 _atom_site_label
 _atom_site_symmetry_multiplicity
 _atom_site_fract_x
 _atom_site_fract_y
 _atom_site_fract_z
 _atom_site_occupancy
  Yb  Yb0  1  0.666416  0.332884  0.567131  1
  Yb  Yb1  1  0.330619  0.661253  0.435975  1
  Yb  Yb2  1  0.330619  0.661253  0.064025  1
  Yb  Yb3  1  0.666416  0.332884  0.932869  1
  Co  Co4  1  0.172645  0.345363  0.750000  1
  Ru  Ru5  1  0.991759  0.983545  0.506799  1
  Ru  Ru6  1  0.991759  0.983545  0.993201  1
  Ru  Ru7  1  0.181633  0.836545  0.750000  1
  Ru  Ru8  1  0.655089  0.836634  0.750000  1
  Ru  Ru9  1  0.837951  0.675912  0.250000  1
  Ru  Ru10  1  0.825689  0.175098  0.250000  1
  Ru  Ru11  1  0.349405  0.175083  0.250000  1
