# generated using pymatgen
data_SrU2N4
_symmetry_space_group_name_H-M   'P 1'
_cell_length_a   10.14968903
_cell_length_b   3.52316000
_cell_length_c   11.97196204
_cell_angle_alpha   90.00000000
_cell_angle_beta   89.99078744
_cell_angle_gamma   90.00000000
_symmetry_Int_Tables_number   1
_chemical_formula_structural   SrU2N4
_chemical_formula_sum   'Sr4 U8 N16'
_cell_volume   428.10512657
_cell_formula_units_Z   4
loop_
 _symmetry_equiv_pos_site_id
 _symmetry_equiv_pos_as_xyz
  1  'x, y, z'
loop_
 _atom_site_type_symbol
 _atom_site_label
 _atom_site_symmetry_multiplicity
 _atom_site_fract_x
 _atom_site_fract_y
 _atom_site_fract_z
 _atom_site_occupancy
  Sr  Sr0  1  0.749967  0.500001  0.145827  1
  Sr  Sr1  1  0.249958  0.500001  0.354100  1
  Sr  Sr2  1  0.750013  0.000000  0.645920  1
  Sr  Sr3  1  0.250055  0.000000  0.854144  1
  U  U4  1  0.078471  0.500001  0.113728  1
  U  U5  1  0.423615  0.000000  0.112271  1
  U  U6  1  0.923669  0.000000  0.387712  1
  U  U7  1  0.578488  0.500001  0.386261  1
  U  U8  1  0.421495  0.000000  0.613770  1
  U  U9  1  0.076336  0.500001  0.612281  1
  U  U10  1  0.576400  0.500001  0.887741  1
  U  U11  1  0.921538  0.000000  0.886251  1
  N  N12  1  0.614578  0.000000  0.007267  1
  N  N13  1  0.943133  0.000000  0.075337  1
  N  N14  1  0.210929  0.000000  0.166185  1
  N  N15  1  0.486879  0.500001  0.213237  1
  N  N16  1  0.987000  0.500001  0.286639  1
  N  N17  1  0.711027  0.000000  0.333760  1
  N  N18  1  0.443055  0.000000  0.424703  1
  N  N19  1  0.114583  0.000000  0.492727  1
  N  N20  1  0.885407  0.500001  0.507273  1
  N  N21  1  0.556850  0.500001  0.575367  1
  N  N22  1  0.289051  0.500001  0.666208  1
  N  N23  1  0.013024  0.000000  0.713334  1
  N  N24  1  0.513087  0.000000  0.786712  1
  N  N25  1  0.789098  0.500001  0.833811  1
  N  N26  1  0.056884  0.500001  0.924668  1
  N  N27  1  0.385423  0.500001  0.992776  1
