# generated using pymatgen
data_TbCo2(SiIr)3
_symmetry_space_group_name_H-M   'P 1'
_cell_length_a   3.82695100
_cell_length_b   10.81948800
_cell_length_c   12.37016200
_cell_angle_alpha   90.00000000
_cell_angle_beta   90.00000000
_cell_angle_gamma   90.00000000
_symmetry_Int_Tables_number   1
_chemical_formula_structural   TbCo2(SiIr)3
_chemical_formula_sum   'Tb4 Co8 Si12 Ir12'
_cell_volume   512.19460342
_cell_formula_units_Z   4
loop_
 _symmetry_equiv_pos_site_id
 _symmetry_equiv_pos_as_xyz
  1  'x, y, z'
loop_
 _atom_site_type_symbol
 _atom_site_label
 _atom_site_symmetry_multiplicity
 _atom_site_fract_x
 _atom_site_fract_y
 _atom_site_fract_z
 _atom_site_occupancy
  Tb  Tb0  1  0.250000  0.584265  0.708150  1
  Tb  Tb1  1  0.250000  0.915735  0.208150  1
  Tb  Tb2  1  0.750000  0.415735  0.291850  1
  Tb  Tb3  1  0.750000  0.084265  0.791850  1
  Co  Co4  1  0.250000  0.885690  0.695712  1
  Co  Co5  1  0.250000  0.614310  0.195712  1
  Co  Co6  1  0.750000  0.114310  0.304288  1
  Co  Co7  1  0.750000  0.385690  0.804288  1
  Co  Co8  1  0.250000  0.467203  0.933125  1
  Co  Co9  1  0.250000  0.032797  0.433125  1
  Co  Co10  1  0.750000  0.532797  0.066875  1
  Co  Co11  1  0.750000  0.967203  0.566875  1
  Si  Si12  1  0.250000  0.425410  0.109673  1
  Si  Si13  1  0.250000  0.074590  0.609673  1
  Si  Si14  1  0.750000  0.574590  0.890327  1
  Si  Si15  1  0.750000  0.925410  0.390327  1
  Si  Si16  1  0.250000  0.275296  0.872415  1
  Si  Si17  1  0.250000  0.224704  0.372415  1
  Si  Si18  1  0.750000  0.724704  0.127585  1
  Si  Si19  1  0.750000  0.775296  0.627585  1
  Si  Si20  1  0.250000  0.601527  0.385143  1
  Si  Si21  1  0.250000  0.898473  0.885143  1
  Si  Si22  1  0.750000  0.398473  0.614857  1
  Si  Si23  1  0.750000  0.101527  0.114857  1
  Ir  Ir24  1  0.250000  0.704883  0.990087  1
  Ir  Ir25  1  0.250000  0.795117  0.490087  1
  Ir  Ir26  1  0.750000  0.295117  0.009913  1
  Ir  Ir27  1  0.750000  0.204883  0.509913  1
  Ir  Ir28  1  0.250000  0.406141  0.485254  1
  Ir  Ir29  1  0.250000  0.093859  0.985254  1
  Ir  Ir30  1  0.750000  0.593859  0.514746  1
  Ir  Ir31  1  0.750000  0.906141  0.014746  1
  Ir  Ir32  1  0.250000  0.222408  0.180625  1
  Ir  Ir33  1  0.250000  0.277592  0.680625  1
  Ir  Ir34  1  0.750000  0.777592  0.819375  1
  Ir  Ir35  1  0.750000  0.722408  0.319375  1
