# generated using pymatgen
data_Dy6IrBr10
_symmetry_space_group_name_H-M   'P 1'
_cell_length_a   7.41372223
_cell_length_b   9.21969358
_cell_length_c   9.28975761
_cell_angle_alpha   107.76616558
_cell_angle_beta   97.08606854
_cell_angle_gamma   104.96656659
_symmetry_Int_Tables_number   1
_chemical_formula_structural   Dy6IrBr10
_chemical_formula_sum   'Dy6 Ir1 Br10'
_cell_volume   569.90207965
_cell_formula_units_Z   1
loop_
 _symmetry_equiv_pos_site_id
 _symmetry_equiv_pos_as_xyz
  1  'x, y, z'
loop_
 _atom_site_type_symbol
 _atom_site_label
 _atom_site_symmetry_multiplicity
 _atom_site_fract_x
 _atom_site_fract_y
 _atom_site_fract_z
 _atom_site_occupancy
  Dy  Dy0  1  0.972436  0.297008  0.094489  1
  Dy  Dy1  1  0.027564  0.702992  0.905511  1
  Dy  Dy2  1  0.638988  0.865037  0.820078  1
  Dy  Dy3  1  0.361012  0.134963  0.179922  1
  Dy  Dy4  1  0.126020  0.048296  0.754919  1
  Dy  Dy5  1  0.873980  0.951704  0.245081  1
  Ir  Ir6  1  0.000000  0.000000  0.000000  1
  Br  Br7  1  0.546637  0.176244  0.915723  1
  Br  Br8  1  0.453363  0.823756  0.084277  1
  Br  Br9  1  0.754080  0.916905  0.543281  1
  Br  Br10  1  0.245920  0.083095  0.456719  1
  Br  Br11  1  0.085542  0.372457  0.831506  1
  Br  Br12  1  0.914458  0.627543  0.168494  1
  Br  Br13  1  0.216738  0.745335  0.656135  1
  Br  Br14  1  0.783262  0.254665  0.343865  1
  Br  Br15  1  0.648359  0.548075  0.727367  1
  Br  Br16  1  0.351641  0.451925  0.272633  1
