# generated using pymatgen
data_Y2Al7GaSiRh3
_symmetry_space_group_name_H-M   'P 1'
_cell_length_a   7.53431372
_cell_length_b   7.50385406
_cell_length_c   9.48578767
_cell_angle_alpha   90.05246050
_cell_angle_beta   89.78035300
_cell_angle_gamma   119.58546674
_symmetry_Int_Tables_number   1
_chemical_formula_structural   Y2Al7GaSiRh3
_chemical_formula_sum   'Y4 Al14 Ga2 Si2 Rh6'
_cell_volume   466.36680169
_cell_formula_units_Z   2
loop_
 _symmetry_equiv_pos_site_id
 _symmetry_equiv_pos_as_xyz
  1  'x, y, z'
loop_
 _atom_site_type_symbol
 _atom_site_label
 _atom_site_symmetry_multiplicity
 _atom_site_fract_x
 _atom_site_fract_y
 _atom_site_fract_z
 _atom_site_occupancy
  Y  Y0  1  0.994075  0.666080  0.243332  1
  Y  Y1  1  0.005925  0.333920  0.756668  1
  Y  Y2  1  0.678354  0.001405  0.247022  1
  Y  Y3  1  0.321646  0.998595  0.752978  1
  Al  Al4  1  0.997812  0.665016  0.568514  1
  Al  Al5  1  0.335497  0.999385  0.425818  1
  Al  Al6  1  0.002188  0.334984  0.431486  1
  Al  Al7  1  0.664503  0.000615  0.574182  1
  Al  Al8  1  0.660960  0.995815  0.923179  1
  Al  Al9  1  0.339040  0.004185  0.076821  1
  Al  Al10  1  0.333872  0.332554  0.554906  1
  Al  Al11  1  0.666128  0.667446  0.445094  1
  Al  Al12  1  0.663285  0.666522  0.055128  1
  Al  Al13  1  0.336715  0.333478  0.944872  1
  Al  Al14  1  0.337986  0.550304  0.249900  1
  Al  Al15  1  0.662014  0.449696  0.750100  1
  Al  Al16  1  0.548300  0.340624  0.250341  1
  Al  Al17  1  0.451700  0.659376  0.749659  1
  Ga  Ga18  1  0.133756  0.129603  0.250990  1
  Ga  Ga19  1  0.866244  0.870397  0.749010  1
  Si  Si20  1  0.002939  0.330184  0.075608  1
  Si  Si21  1  0.997061  0.669816  0.924392  1
  Rh  Rh22  1  0.688534  0.337589  0.001222  1
  Rh  Rh23  1  0.311466  0.662411  0.998778  1
  Rh  Rh24  1  0.327770  0.670615  0.500720  1
  Rh  Rh25  1  0.672230  0.329385  0.499280  1
  Rh  Rh26  1  0.000000  0.000000  0.000000  1
  Rh  Rh27  1  0.000000  0.000000  0.500000  1
