# generated using pymatgen
data_Y2Lu18Zn3Cd3Ru2
_symmetry_space_group_name_H-M   'P 1'
_cell_length_a   9.33877455
_cell_length_b   9.33877392
_cell_length_c   9.51329200
_cell_angle_alpha   90.00000000
_cell_angle_beta   90.00000000
_cell_angle_gamma   119.91538555
_symmetry_Int_Tables_number   1
_chemical_formula_structural   Y2Lu18Zn3Cd3Ru2
_chemical_formula_sum   'Y2 Lu18 Zn3 Cd3 Ru2'
_cell_volume   719.13574039
_cell_formula_units_Z   1
loop_
 _symmetry_equiv_pos_site_id
 _symmetry_equiv_pos_as_xyz
  1  'x, y, z'
loop_
 _atom_site_type_symbol
 _atom_site_label
 _atom_site_symmetry_multiplicity
 _atom_site_fract_x
 _atom_site_fract_y
 _atom_site_fract_z
 _atom_site_occupancy
  Y  Y0  1  0.460069  0.919249  0.750000  1
  Y  Y1  1  0.080751  0.539931  0.750000  1
  Lu  Lu2  1  0.999655  0.000345  0.475389  1
  Lu  Lu3  1  0.999655  0.000345  0.024611  1
  Lu  Lu4  1  0.207760  0.792240  0.438040  1
  Lu  Lu5  1  0.209321  0.416502  0.438904  1
  Lu  Lu6  1  0.583498  0.790679  0.438904  1
  Lu  Lu7  1  0.790291  0.209709  0.554393  1
  Lu  Lu8  1  0.789664  0.581571  0.554316  1
  Lu  Lu9  1  0.418429  0.210336  0.554316  1
  Lu  Lu10  1  0.790291  0.209709  0.945607  1
  Lu  Lu11  1  0.789664  0.581571  0.945684  1
  Lu  Lu12  1  0.418429  0.210336  0.945684  1
  Lu  Lu13  1  0.207760  0.792240  0.061960  1
  Lu  Lu14  1  0.209321  0.416502  0.061096  1
  Lu  Lu15  1  0.583498  0.790679  0.061096  1
  Lu  Lu16  1  0.541652  0.458348  0.250000  1
  Lu  Lu17  1  0.541545  0.082012  0.250000  1
  Lu  Lu18  1  0.917988  0.458455  0.250000  1
  Lu  Lu19  1  0.461570  0.538430  0.750000  1
  Zn  Zn20  1  0.878569  0.121431  0.250000  1
  Zn  Zn21  1  0.878011  0.756647  0.250000  1
  Zn  Zn22  1  0.243353  0.121989  0.250000  1
  Cd  Cd23  1  0.109135  0.890865  0.750000  1
  Cd  Cd24  1  0.111268  0.220083  0.750000  1
  Cd  Cd25  1  0.779917  0.888732  0.750000  1
  Ru  Ru26  1  0.333360  0.666640  0.250000  1
  Ru  Ru27  1  0.665578  0.334422  0.750000  1
