# generated using pymatgen
data_Ti2VSi4MoIr4
_symmetry_space_group_name_H-M   'P 1'
_cell_length_a   3.88484400
_cell_length_b   6.21792764
_cell_length_c   7.18758329
_cell_angle_alpha   90.51621079
_cell_angle_beta   90.00000000
_cell_angle_gamma   90.00000000
_symmetry_Int_Tables_number   1
_chemical_formula_structural   Ti2VSi4MoIr4
_chemical_formula_sum   'Ti2 V1 Si4 Mo1 Ir4'
_cell_volume   173.61390739
_cell_formula_units_Z   1
loop_
 _symmetry_equiv_pos_site_id
 _symmetry_equiv_pos_as_xyz
  1  'x, y, z'
loop_
 _atom_site_type_symbol
 _atom_site_label
 _atom_site_symmetry_multiplicity
 _atom_site_fract_x
 _atom_site_fract_y
 _atom_site_fract_z
 _atom_site_occupancy
  Ti  Ti0  1  0.250000  0.025916  0.813172  1
  Ti  Ti1  1  0.750000  0.972589  0.187109  1
  V  V2  1  0.250000  0.525112  0.673926  1
  Si  Si3  1  0.250000  0.755806  0.382143  1
  Si  Si4  1  0.250000  0.277310  0.128009  1
  Si  Si5  1  0.750000  0.246502  0.616831  1
  Si  Si6  1  0.750000  0.722159  0.871897  1
  Mo  Mo7  1  0.750000  0.477242  0.328046  1
  Ir  Ir8  1  0.250000  0.145251  0.435612  1
  Ir  Ir9  1  0.250000  0.659462  0.055239  1
  Ir  Ir10  1  0.750000  0.851979  0.566737  1
  Ir  Ir11  1  0.750000  0.340670  0.941279  1
