# generated using pymatgen
data_Tb3Ce(NbRu3)2
_symmetry_space_group_name_H-M   'P 1'
_cell_length_a   5.77630700
_cell_length_b   5.77630673
_cell_length_c   7.89586500
_cell_angle_alpha   90.00000000
_cell_angle_beta   90.00000000
_cell_angle_gamma   120.00000728
_symmetry_Int_Tables_number   1
_chemical_formula_structural   Tb3Ce(NbRu3)2
_chemical_formula_sum   'Tb3 Ce1 Nb2 Ru6'
_cell_volume   228.15543986
_cell_formula_units_Z   1
loop_
 _symmetry_equiv_pos_site_id
 _symmetry_equiv_pos_as_xyz
  1  'x, y, z'
loop_
 _atom_site_type_symbol
 _atom_site_label
 _atom_site_symmetry_multiplicity
 _atom_site_fract_x
 _atom_site_fract_y
 _atom_site_fract_z
 _atom_site_occupancy
  Tb  Tb0  1  0.666667  0.333333  0.560632  1
  Tb  Tb1  1  0.666667  0.333333  0.941314  1
  Tb  Tb2  1  0.333333  0.666667  0.068234  1
  Ce  Ce3  1  0.333333  0.666667  0.456654  1
  Nb  Nb4  1  0.000000  0.000000  0.494669  1
  Nb  Nb5  1  0.000000  0.000000  0.998115  1
  Ru  Ru6  1  0.828642  0.171358  0.248420  1
  Ru  Ru7  1  0.828642  0.657284  0.248420  1
  Ru  Ru8  1  0.342716  0.171358  0.248420  1
  Ru  Ru9  1  0.170643  0.829357  0.745041  1
  Ru  Ru10  1  0.170643  0.341285  0.745041  1
  Ru  Ru11  1  0.658715  0.829357  0.745041  1
