# generated using pymatgen
data_Sm4Ho2Al24GaOs7
_symmetry_space_group_name_H-M   'P 1'
_cell_length_a   8.90173648
_cell_length_b   8.90173535
_cell_length_c   9.59669648
_cell_angle_alpha   90.15557269
_cell_angle_beta   89.84442663
_cell_angle_gamma   119.95598764
_symmetry_Int_Tables_number   1
_chemical_formula_structural   Sm4Ho2Al24GaOs7
_chemical_formula_sum   'Sm4 Ho2 Al24 Ga1 Os7'
_cell_volume   658.85842767
_cell_formula_units_Z   1
loop_
 _symmetry_equiv_pos_site_id
 _symmetry_equiv_pos_as_xyz
  1  'x, y, z'
loop_
 _atom_site_type_symbol
 _atom_site_label
 _atom_site_symmetry_multiplicity
 _atom_site_fract_x
 _atom_site_fract_y
 _atom_site_fract_z
 _atom_site_occupancy
  Sm  Sm0  1  0.190646  0.381693  0.244479  1
  Sm  Sm1  1  0.809354  0.618307  0.755521  1
  Sm  Sm2  1  0.618307  0.809354  0.244479  1
  Sm  Sm3  1  0.381693  0.190646  0.755521  1
  Ho  Ho4  1  0.194136  0.805864  0.256037  1
  Ho  Ho5  1  0.805864  0.194136  0.743963  1
  Al  Al6  1  0.326180  0.673820  0.020405  1
  Al  Al7  1  0.673820  0.326180  0.979595  1
  Al  Al8  1  0.666098  0.333902  0.517048  1
  Al  Al9  1  0.333902  0.666098  0.482952  1
  Al  Al10  1  0.161505  0.325962  0.571284  1
  Al  Al11  1  0.838495  0.674038  0.428716  1
  Al  Al12  1  0.674038  0.838495  0.571284  1
  Al  Al13  1  0.853462  0.678574  0.081643  1
  Al  Al14  1  0.325962  0.161505  0.428716  1
  Al  Al15  1  0.146538  0.321426  0.918357  1
  Al  Al16  1  0.163189  0.836811  0.574731  1
  Al  Al17  1  0.321426  0.146538  0.081643  1
  Al  Al18  1  0.836811  0.163189  0.425269  1
  Al  Al19  1  0.678574  0.853462  0.918357  1
  Al  Al20  1  0.836624  0.163376  0.075389  1
  Al  Al21  1  0.163376  0.836624  0.924611  1
  Al  Al22  1  0.560989  0.121182  0.249370  1
  Al  Al23  1  0.439011  0.878818  0.750630  1
  Al  Al24  1  0.878818  0.439011  0.249370  1
  Al  Al25  1  0.121182  0.560989  0.750630  1
  Al  Al26  1  0.566889  0.433111  0.259425  1
  Al  Al27  1  0.433111  0.566889  0.740575  1
  Al  Al28  1  0.000103  0.999897  0.250823  1
  Al  Al29  1  0.999897  0.000103  0.749177  1
  Ga  Ga30  1  0.500000  0.500000  0.000000  1
  Os  Os31  1  0.500000  0.000000  0.000000  1
  Os  Os32  1  0.000000  0.500000  0.000000  1
  Os  Os33  1  0.500000  0.000000  0.500000  1
  Os  Os34  1  0.000000  0.500000  0.500000  1
  Os  Os35  1  0.500000  0.500000  0.500000  1
  Os  Os36  1  0.000000  0.000000  0.000000  1
  Os  Os37  1  0.000000  0.000000  0.500000  1
