# generated using pymatgen
data_MgSc6NiI12
_symmetry_space_group_name_H-M   'P 1'
_cell_length_a   9.36878470
_cell_length_b   9.36878470
_cell_length_c   9.36878308
_cell_angle_alpha   107.23739606
_cell_angle_beta   107.23739440
_cell_angle_gamma   107.23740839
_symmetry_Int_Tables_number   1
_chemical_formula_structural   MgSc6NiI12
_chemical_formula_sum   'Mg1 Sc6 Ni1 I12'
_cell_volume   680.36611463
_cell_formula_units_Z   1
loop_
 _symmetry_equiv_pos_site_id
 _symmetry_equiv_pos_as_xyz
  1  'x, y, z'
loop_
 _atom_site_type_symbol
 _atom_site_label
 _atom_site_symmetry_multiplicity
 _atom_site_fract_x
 _atom_site_fract_y
 _atom_site_fract_z
 _atom_site_occupancy
  Mg  Mg0  1  0.500000  0.500000  0.500000  1
  Sc  Sc1  1  0.093350  0.026476  0.287631  1
  Sc  Sc2  1  0.026476  0.287631  0.093350  1
  Sc  Sc3  1  0.287631  0.093350  0.026476  1
  Sc  Sc4  1  0.906649  0.973524  0.712369  1
  Sc  Sc5  1  0.973524  0.712369  0.906649  1
  Sc  Sc6  1  0.712369  0.906649  0.973524  1
  Ni  Ni7  1  0.000000  0.000000  0.000000  1
  I  I8  1  0.073473  0.686620  0.220657  1
  I  I9  1  0.686620  0.220657  0.073473  1
  I  I10  1  0.220657  0.073473  0.686620  1
  I  I11  1  0.926527  0.313380  0.779343  1
  I  I12  1  0.313380  0.779343  0.926527  1
  I  I13  1  0.779343  0.926527  0.313380  1
  I  I14  1  0.455387  0.155546  0.381482  1
  I  I15  1  0.155546  0.381482  0.455387  1
  I  I16  1  0.381482  0.455387  0.155546  1
  I  I17  1  0.544613  0.844454  0.618518  1
  I  I18  1  0.844454  0.618518  0.544613  1
  I  I19  1  0.618518  0.544613  0.844454  1
