# generated using pymatgen
data_Dy24ZnHgTe10
_symmetry_space_group_name_H-M   'P 1'
_cell_length_a   4.06358700
_cell_length_b   11.60116468
_cell_length_c   22.04025783
_cell_angle_alpha   89.96471247
_cell_angle_beta   90.00000000
_cell_angle_gamma   90.00000000
_symmetry_Int_Tables_number   1
_chemical_formula_structural   Dy24ZnHgTe10
_chemical_formula_sum   'Dy24 Zn1 Hg1 Te10'
_cell_volume   1039.02917452
_cell_formula_units_Z   1
loop_
 _symmetry_equiv_pos_site_id
 _symmetry_equiv_pos_as_xyz
  1  'x, y, z'
loop_
 _atom_site_type_symbol
 _atom_site_label
 _atom_site_symmetry_multiplicity
 _atom_site_fract_x
 _atom_site_fract_y
 _atom_site_fract_z
 _atom_site_occupancy
  Dy  Dy0  1  0.250000  0.149042  0.390611  1
  Dy  Dy1  1  0.750000  0.849201  0.608955  1
  Dy  Dy2  1  0.750000  0.656907  0.108272  1
  Dy  Dy3  1  0.250000  0.350679  0.891777  1
  Dy  Dy4  1  0.250000  0.456325  0.341004  1
  Dy  Dy5  1  0.750000  0.545631  0.658017  1
  Dy  Dy6  1  0.750000  0.951116  0.153806  1
  Dy  Dy7  1  0.250000  0.042823  0.841917  1
  Dy  Dy8  1  0.250000  0.735351  0.231668  1
  Dy  Dy9  1  0.750000  0.263149  0.767419  1
  Dy  Dy10  1  0.750000  0.235864  0.266807  1
  Dy  Dy11  1  0.250000  0.765834  0.732633  1
  Dy  Dy12  1  0.250000  0.110889  0.035844  1
  Dy  Dy13  1  0.750000  0.881387  0.970964  1
  Dy  Dy14  1  0.750000  0.615005  0.466286  1
  Dy  Dy15  1  0.250000  0.385193  0.534460  1
  Dy  Dy16  1  0.250000  0.414814  0.147429  1
  Dy  Dy17  1  0.750000  0.587946  0.851667  1
  Dy  Dy18  1  0.750000  0.912815  0.350355  1
  Dy  Dy19  1  0.250000  0.087040  0.647961  1
  Dy  Dy20  1  0.250000  0.614093  0.984029  1
  Dy  Dy21  1  0.750000  0.388116  0.016941  1
  Dy  Dy22  1  0.750000  0.112385  0.517088  1
  Dy  Dy23  1  0.250000  0.887382  0.482554  1
  Zn  Zn24  1  0.250000  0.850052  0.070027  1
  Hg  Hg25  1  0.250000  0.650938  0.570504  1
  Te  Te26  1  0.750000  0.151553  0.931205  1
  Te  Te27  1  0.750000  0.347256  0.430355  1
  Te  Te28  1  0.250000  0.711901  0.372039  1
  Te  Te29  1  0.750000  0.286173  0.627934  1
  Te  Te30  1  0.750000  0.214698  0.127755  1
  Te  Te31  1  0.250000  0.788650  0.873671  1
  Te  Te32  1  0.250000  0.021384  0.258617  1
  Te  Te33  1  0.750000  0.978225  0.739633  1
  Te  Te34  1  0.750000  0.522703  0.238959  1
  Te  Te35  1  0.250000  0.477484  0.760838  1
