# generated using pymatgen
data_Tc3P2Ru
_symmetry_space_group_name_H-M   'P 1'
_cell_length_a   5.99574200
_cell_length_b   3.94932500
_cell_length_c   6.87964700
_cell_angle_alpha   90.00000000
_cell_angle_beta   90.00000000
_cell_angle_gamma   90.00000000
_symmetry_Int_Tables_number   1
_chemical_formula_structural   Tc3P2Ru
_chemical_formula_sum   'Tc6 P4 Ru2'
_cell_volume   162.90408163
_cell_formula_units_Z   2
loop_
 _symmetry_equiv_pos_site_id
 _symmetry_equiv_pos_as_xyz
  1  'x, y, z'
loop_
 _atom_site_type_symbol
 _atom_site_label
 _atom_site_symmetry_multiplicity
 _atom_site_fract_x
 _atom_site_fract_y
 _atom_site_fract_z
 _atom_site_occupancy
  Tc  Tc0  1  0.975569  0.250000  0.663333  1
  Tc  Tc1  1  0.524430  0.750000  0.163333  1
  Tc  Tc2  1  0.486298  0.250000  0.837223  1
  Tc  Tc3  1  0.013702  0.750000  0.337222  1
  Tc  Tc4  1  0.864187  0.250000  0.074817  1
  Tc  Tc5  1  0.635813  0.750000  0.574817  1
  P  P6  1  0.253964  0.250000  0.107144  1
  P  P7  1  0.246035  0.750000  0.607143  1
  P  P8  1  0.742168  0.250000  0.391224  1
  P  P9  1  0.757833  0.750000  0.891224  1
  Ru  Ru10  1  0.353440  0.250000  0.426261  1
  Ru  Ru11  1  0.146558  0.750000  0.926261  1
