# generated using pymatgen
data_Li3Nd3AgSn4
_symmetry_space_group_name_H-M   'P 1'
_cell_length_a   8.86362008
_cell_length_b   8.87050738
_cell_length_c   8.87050724
_cell_angle_alpha   149.21758957
_cell_angle_beta   131.75383805
_cell_angle_gamma   58.33584656
_symmetry_Int_Tables_number   1
_chemical_formula_structural   Li3Nd3AgSn4
_chemical_formula_sum   'Li3 Nd3 Ag1 Sn4'
_cell_volume   264.23855652
_cell_formula_units_Z   1
loop_
 _symmetry_equiv_pos_site_id
 _symmetry_equiv_pos_as_xyz
  1  'x, y, z'
loop_
 _atom_site_type_symbol
 _atom_site_label
 _atom_site_symmetry_multiplicity
 _atom_site_fract_x
 _atom_site_fract_y
 _atom_site_fract_z
 _atom_site_occupancy
  Li  Li0  1  0.481997  0.672093  0.809905  1
  Li  Li1  1  0.860471  0.671912  0.188559  1
  Li  Li2  1  0.140510  0.329925  0.810585  1
  Nd  Nd3  1  0.498775  0.998212  0.500563  1
  Nd  Nd4  1  0.870041  0.869805  0.000236  1
  Nd  Nd5  1  0.133956  0.130151  0.003804  1
  Ag  Ag6  1  0.517929  0.327937  0.189990  1
  Sn  Sn7  1  0.276491  0.785274  0.491217  1
  Sn  Sn8  1  0.714754  0.211756  0.502998  1
  Sn  Sn9  1  0.805711  0.502323  0.303388  1
  Sn  Sn10  1  0.199365  0.500611  0.698754  1
