# generated using pymatgen
data_Th2Al8GaIr3
_symmetry_space_group_name_H-M   'P 1'
_cell_length_a   7.66360228
_cell_length_b   7.66360203
_cell_length_c   9.55090100
_cell_angle_alpha   90.00000000
_cell_angle_beta   90.00000000
_cell_angle_gamma   119.41431175
_symmetry_Int_Tables_number   1
_chemical_formula_structural   Th2Al8GaIr3
_chemical_formula_sum   'Th4 Al16 Ga2 Ir6'
_cell_volume   488.62294091
_cell_formula_units_Z   2
loop_
 _symmetry_equiv_pos_site_id
 _symmetry_equiv_pos_as_xyz
  1  'x, y, z'
loop_
 _atom_site_type_symbol
 _atom_site_label
 _atom_site_symmetry_multiplicity
 _atom_site_fract_x
 _atom_site_fract_y
 _atom_site_fract_z
 _atom_site_occupancy
  Th  Th0  1  0.994311  0.673665  0.250000  1
  Th  Th1  1  0.005689  0.326335  0.750000  1
  Th  Th2  1  0.673665  0.994311  0.250000  1
  Th  Th3  1  0.326335  0.005689  0.750000  1
  Al  Al4  1  0.004507  0.336588  0.073045  1
  Al  Al5  1  0.995493  0.663412  0.926955  1
  Al  Al6  1  0.995493  0.663412  0.573045  1
  Al  Al7  1  0.336588  0.004507  0.426955  1
  Al  Al8  1  0.004507  0.336588  0.426955  1
  Al  Al9  1  0.663412  0.995493  0.573045  1
  Al  Al10  1  0.663412  0.995493  0.926955  1
  Al  Al11  1  0.336588  0.004507  0.073045  1
  Al  Al12  1  0.336990  0.336990  0.549304  1
  Al  Al13  1  0.663010  0.663010  0.450696  1
  Al  Al14  1  0.663010  0.663010  0.049304  1
  Al  Al15  1  0.336990  0.336990  0.950696  1
  Al  Al16  1  0.338020  0.545826  0.250000  1
  Al  Al17  1  0.661980  0.454174  0.750000  1
  Al  Al18  1  0.545826  0.338020  0.250000  1
  Al  Al19  1  0.454174  0.661980  0.750000  1
  Ga  Ga20  1  0.138188  0.138188  0.250000  1
  Ga  Ga21  1  0.861812  0.861812  0.750000  1
  Ir  Ir22  1  0.671948  0.328052  0.000000  1
  Ir  Ir23  1  0.328052  0.671948  0.000000  1
  Ir  Ir24  1  0.328052  0.671948  0.500000  1
  Ir  Ir25  1  0.671948  0.328052  0.500000  1
  Ir  Ir26  1  0.000000  0.000000  0.000000  1
  Ir  Ir27  1  0.000000  0.000000  0.500000  1
