# generated using pymatgen
data_Er3Sc3Sn6(PtRh2)2
_symmetry_space_group_name_H-M   'P 1'
_cell_length_a   7.59096100
_cell_length_b   7.59096169
_cell_length_c   7.29235200
_cell_angle_alpha   90.00000000
_cell_angle_beta   90.00000000
_cell_angle_gamma   120.00001005
_symmetry_Int_Tables_number   1
_chemical_formula_structural   Er3Sc3Sn6(PtRh2)2
_chemical_formula_sum   'Er3 Sc3 Sn6 Pt2 Rh4'
_cell_volume   363.90814115
_cell_formula_units_Z   1
loop_
 _symmetry_equiv_pos_site_id
 _symmetry_equiv_pos_as_xyz
  1  'x, y, z'
loop_
 _atom_site_type_symbol
 _atom_site_label
 _atom_site_symmetry_multiplicity
 _atom_site_fract_x
 _atom_site_fract_y
 _atom_site_fract_z
 _atom_site_occupancy
  Er  Er0  1  0.403720  0.002955  0.250092  1
  Er  Er1  1  0.599235  0.596280  0.250092  1
  Er  Er2  1  0.997045  0.400765  0.250092  1
  Sc  Sc3  1  0.394507  0.996309  0.749964  1
  Sc  Sc4  1  0.601802  0.605493  0.749964  1
  Sc  Sc5  1  0.003691  0.398198  0.749964  1
  Sn  Sn6  1  0.272225  0.266511  0.991477  1
  Sn  Sn7  1  0.994287  0.727775  0.991477  1
  Sn  Sn8  1  0.005030  0.733240  0.507955  1
  Sn  Sn9  1  0.728208  0.994970  0.507955  1
  Sn  Sn10  1  0.266760  0.271792  0.507955  1
  Sn  Sn11  1  0.733489  0.005713  0.991477  1
  Pt  Pt12  1  0.333333  0.666667  0.988153  1
  Pt  Pt13  1  0.666667  0.333333  0.524183  1
  Rh  Rh14  1  0.000000  0.000000  0.749815  1
  Rh  Rh15  1  0.000000  0.000000  0.249592  1
  Rh  Rh16  1  0.666667  0.333333  0.973249  1
  Rh  Rh17  1  0.333333  0.666667  0.516546  1
