# generated using pymatgen
data_SmMgPaRh2
_symmetry_space_group_name_H-M   'P 1'
_cell_length_a   7.77584000
_cell_length_b   7.63140900
_cell_length_c   3.70832700
_cell_angle_alpha   90.00000000
_cell_angle_beta   90.00000000
_cell_angle_gamma   90.00000000
_symmetry_Int_Tables_number   1
_chemical_formula_structural   SmMgPaRh2
_chemical_formula_sum   'Sm2 Mg2 Pa2 Rh4'
_cell_volume   220.05440613
_cell_formula_units_Z   2
loop_
 _symmetry_equiv_pos_site_id
 _symmetry_equiv_pos_as_xyz
  1  'x, y, z'
loop_
 _atom_site_type_symbol
 _atom_site_label
 _atom_site_symmetry_multiplicity
 _atom_site_fract_x
 _atom_site_fract_y
 _atom_site_fract_z
 _atom_site_occupancy
  Sm  Sm0  1  0.666245  0.167156  0.500000  1
  Sm  Sm1  1  0.166245  0.332844  0.500000  1
  Mg  Mg2  1  0.994583  0.001108  0.000000  1
  Mg  Mg3  1  0.494583  0.498892  0.000000  1
  Pa  Pa4  1  0.827544  0.664798  0.500000  1
  Pa  Pa5  1  0.327544  0.835202  0.500000  1
  Rh  Rh6  1  0.860113  0.408625  0.000000  1
  Rh  Rh7  1  0.360113  0.091375  0.000000  1
  Rh  Rh8  1  0.651513  0.845637  0.000000  1
  Rh  Rh9  1  0.151513  0.654363  0.000000  1
