# generated using pymatgen
data_La11Si5Ni4Bi
_symmetry_space_group_name_H-M   'P 1'
_cell_length_a   4.34365011
_cell_length_b   9.65728614
_cell_length_c   14.25585500
_cell_angle_alpha   105.34078729
_cell_angle_beta   89.98704673
_cell_angle_gamma   102.89443274
_symmetry_Int_Tables_number   1
_chemical_formula_structural   La11Si5Ni4Bi
_chemical_formula_sum   'La11 Si5 Ni4 Bi1'
_cell_volume   561.05171477
_cell_formula_units_Z   1
loop_
 _symmetry_equiv_pos_site_id
 _symmetry_equiv_pos_as_xyz
  1  'x, y, z'
loop_
 _atom_site_type_symbol
 _atom_site_label
 _atom_site_symmetry_multiplicity
 _atom_site_fract_x
 _atom_site_fract_y
 _atom_site_fract_z
 _atom_site_occupancy
  La  La0  1  0.906475  0.807792  0.213093  1
  La  La1  1  0.849404  0.695995  0.648553  1
  La  La2  1  0.218332  0.436219  0.103236  1
  La  La3  1  0.548277  0.096574  0.125665  1
  La  La4  1  0.334518  0.669674  0.402409  1
  La  La5  1  0.453931  0.905644  0.882262  1
  La  La6  1  0.003525  0.006207  0.482633  1
  La  La7  1  0.140344  0.286731  0.349799  1
  La  La8  1  0.785847  0.568876  0.902329  1
  La  La9  1  0.660832  0.324588  0.597061  1
  La  La10  1  0.103975  0.207437  0.797769  1
  Si  Si11  1  0.627785  0.255196  0.957562  1
  Si  Si12  1  0.259725  0.519767  0.733972  1
  Si  Si13  1  0.737458  0.475780  0.268778  1
  Si  Si14  1  0.376685  0.748781  0.049539  1
  Si  Si15  1  0.514842  0.028916  0.340683  1
  Ni  Ni16  1  0.746018  0.496133  0.445976  1
  Ni  Ni17  1  0.940355  0.875893  0.024089  1
  Ni  Ni18  1  0.062577  0.124703  0.980391  1
  Ni  Ni19  1  0.245708  0.494950  0.554346  1
  Bi  Bi20  1  0.485977  0.971190  0.651374  1
