# generated using pymatgen
data_Er4Hf3AlIr4
_symmetry_space_group_name_H-M   'P 1'
_cell_length_a   4.42174900
_cell_length_b   7.02950778
_cell_length_c   8.21220080
_cell_angle_alpha   93.33152857
_cell_angle_beta   90.00000000
_cell_angle_gamma   90.00000000
_symmetry_Int_Tables_number   1
_chemical_formula_structural   Er4Hf3AlIr4
_chemical_formula_sum   'Er4 Hf3 Al1 Ir4'
_cell_volume   254.82614184
_cell_formula_units_Z   1
loop_
 _symmetry_equiv_pos_site_id
 _symmetry_equiv_pos_as_xyz
  1  'x, y, z'
loop_
 _atom_site_type_symbol
 _atom_site_label
 _atom_site_symmetry_multiplicity
 _atom_site_fract_x
 _atom_site_fract_y
 _atom_site_fract_z
 _atom_site_occupancy
  Er  Er0  1  0.250000  0.982963  0.315891  1
  Er  Er1  1  0.250000  0.463208  0.166104  1
  Er  Er2  1  0.750000  0.032931  0.685915  1
  Er  Er3  1  0.750000  0.506015  0.836932  1
  Hf  Hf4  1  0.250000  0.367256  0.571157  1
  Hf  Hf5  1  0.250000  0.858472  0.937593  1
  Hf  Hf6  1  0.750000  0.640376  0.427780  1
  Al  Al7  1  0.750000  0.141312  0.069571  1
  Ir  Ir8  1  0.250000  0.227581  0.879875  1
  Ir  Ir9  1  0.250000  0.743331  0.601358  1
  Ir  Ir10  1  0.750000  0.770663  0.113529  1
  Ir  Ir11  1  0.750000  0.265890  0.394295  1
