# generated using pymatgen
data_LaTh2(CuSn)3
_symmetry_space_group_name_H-M   'P 1'
_cell_length_a   4.54201600
_cell_length_b   4.54201529
_cell_length_c   12.21053500
_cell_angle_alpha   90.00000000
_cell_angle_beta   90.00000000
_cell_angle_gamma   119.99999059
_symmetry_Int_Tables_number   1
_chemical_formula_structural   LaTh2(CuSn)3
_chemical_formula_sum   'La1 Th2 Cu3 Sn3'
_cell_volume   218.15371720
_cell_formula_units_Z   1
loop_
 _symmetry_equiv_pos_site_id
 _symmetry_equiv_pos_as_xyz
  1  'x, y, z'
loop_
 _atom_site_type_symbol
 _atom_site_label
 _atom_site_symmetry_multiplicity
 _atom_site_fract_x
 _atom_site_fract_y
 _atom_site_fract_z
 _atom_site_occupancy
  La  La0  1  0.000000  0.000000  0.163856  1
  Th  Th1  1  0.000000  0.000000  0.825987  1
  Th  Th2  1  0.000000  0.000000  0.495360  1
  Cu  Cu3  1  0.666667  0.333333  0.996892  1
  Cu  Cu4  1  0.333333  0.666667  0.617573  1
  Cu  Cu5  1  0.333333  0.666667  0.377792  1
  Sn  Sn6  1  0.666667  0.333333  0.671830  1
  Sn  Sn7  1  0.666667  0.333333  0.321344  1
  Sn  Sn8  1  0.333333  0.666667  0.985366  1
