# generated using pymatgen
data_Tb2Lu2Al3ZnPt4
_symmetry_space_group_name_H-M   'P 1'
_cell_length_a   4.41527500
_cell_length_b   6.80719014
_cell_length_c   7.78958130
_cell_angle_alpha   89.83772445
_cell_angle_beta   90.00000000
_cell_angle_gamma   90.00000000
_symmetry_Int_Tables_number   1
_chemical_formula_structural   Tb2Lu2Al3ZnPt4
_chemical_formula_sum   'Tb2 Lu2 Al3 Zn1 Pt4'
_cell_volume   234.11972905
_cell_formula_units_Z   1
loop_
 _symmetry_equiv_pos_site_id
 _symmetry_equiv_pos_as_xyz
  1  'x, y, z'
loop_
 _atom_site_type_symbol
 _atom_site_label
 _atom_site_symmetry_multiplicity
 _atom_site_fract_x
 _atom_site_fract_y
 _atom_site_fract_z
 _atom_site_occupancy
  Tb  Tb0  1  0.750000  0.972669  0.318576  1
  Tb  Tb1  1  0.750000  0.468088  0.177440  1
  Lu  Lu2  1  0.250000  0.028715  0.687385  1
  Lu  Lu3  1  0.250000  0.527525  0.816541  1
  Al  Al4  1  0.250000  0.649509  0.439157  1
  Al  Al5  1  0.750000  0.853752  0.934611  1
  Al  Al6  1  0.750000  0.355942  0.562469  1
  Zn  Zn7  1  0.250000  0.151497  0.065089  1
  Pt  Pt8  1  0.250000  0.272756  0.395008  1
  Pt  Pt9  1  0.250000  0.762576  0.112207  1
  Pt  Pt10  1  0.750000  0.728314  0.619464  1
  Pt  Pt11  1  0.750000  0.228659  0.872053  1
