# generated using pymatgen
data_Nd(TaSn)6
_symmetry_space_group_name_H-M   'P 1'
_cell_length_a   5.81376916
_cell_length_b   9.64933557
_cell_length_c   16.04715103
_cell_angle_alpha   107.48562120
_cell_angle_beta   100.30939444
_cell_angle_gamma   90.05838632
_symmetry_Int_Tables_number   1
_chemical_formula_structural   Nd(TaSn)6
_chemical_formula_sum   'Nd3 Ta18 Sn18'
_cell_volume   843.32858884
_cell_formula_units_Z   3
loop_
 _symmetry_equiv_pos_site_id
 _symmetry_equiv_pos_as_xyz
  1  'x, y, z'
loop_
 _atom_site_type_symbol
 _atom_site_label
 _atom_site_symmetry_multiplicity
 _atom_site_fract_x
 _atom_site_fract_y
 _atom_site_fract_z
 _atom_site_occupancy
  Nd  Nd0  1  0.331092  0.830527  0.663626  1
  Nd  Nd1  1  0.667925  0.167900  0.336936  1
  Nd  Nd2  1  0.999581  0.999025  0.000358  1
  Ta  Ta3  1  0.166085  0.415497  0.333737  1
  Ta  Ta4  1  0.332984  0.832790  0.167164  1
  Ta  Ta5  1  0.666459  0.666590  0.834225  1
  Ta  Ta6  1  0.500211  0.749997  0.000233  1
  Ta  Ta7  1  0.166373  0.166179  0.833835  1
  Ta  Ta8  1  0.833970  0.332240  0.166936  1
  Ta  Ta9  1  0.832270  0.082725  0.666981  1
  Ta  Ta10  1  0.165657  0.666169  0.833727  1
  Ta  Ta11  1  0.499261  0.998851  0.500288  1
  Ta  Ta12  1  0.499453  0.248684  0.000471  1
  Ta  Ta13  1  0.999278  0.998794  0.500253  1
  Ta  Ta14  1  0.999661  0.498878  0.500294  1
  Ta  Ta15  1  0.832904  0.832365  0.166770  1
  Ta  Ta16  1  0.833472  0.582501  0.666870  1
  Ta  Ta17  1  0.333191  0.331944  0.166476  1
  Ta  Ta18  1  0.166404  0.915258  0.333576  1
  Ta  Ta19  1  0.666158  0.165757  0.833451  1
  Ta  Ta20  1  0.499678  0.498808  0.500270  1
  Sn  Sn21  1  0.999288  0.331665  0.000023  1
  Sn  Sn22  1  0.887812  0.887353  0.776673  1
  Sn  Sn23  1  0.111470  0.111057  0.224016  1
  Sn  Sn24  1  0.222696  0.222115  0.446945  1
  Sn  Sn25  1  0.443508  0.444015  0.889579  1
  Sn  Sn26  1  0.109711  0.609021  0.220459  1
  Sn  Sn27  1  0.779032  0.278599  0.559423  1
  Sn  Sn28  1  0.889406  0.389307  0.780167  1
  Sn  Sn29  1  0.220181  0.719029  0.441071  1
  Sn  Sn30  1  0.334293  0.496864  0.667479  1
  Sn  Sn31  1  0.556653  0.055478  0.112822  1
  Sn  Sn32  1  0.665385  0.501693  0.333193  1
  Sn  Sn33  1  0.442614  0.943111  0.887805  1
  Sn  Sn34  1  0.331394  0.168940  0.667300  1
  Sn  Sn35  1  0.776130  0.775623  0.553669  1
  Sn  Sn36  1  0.667002  0.829525  0.333174  1
  Sn  Sn37  1  0.556026  0.554836  0.111392  1
  Sn  Sn38  1  0.000588  0.666340  0.000697  1
