# generated using pymatgen
data_Ho2Th2As4Pd3Pt
_symmetry_space_group_name_H-M   'P 1'
_cell_length_a   4.32267600
_cell_length_b   4.32267717
_cell_length_c   15.46749400
_cell_angle_alpha   90.00000000
_cell_angle_beta   90.00000000
_cell_angle_gamma   120.00000636
_symmetry_Int_Tables_number   1
_chemical_formula_structural   Ho2Th2As4Pd3Pt
_chemical_formula_sum   'Ho2 Th2 As4 Pd3 Pt1'
_cell_volume   250.29723216
_cell_formula_units_Z   1
loop_
 _symmetry_equiv_pos_site_id
 _symmetry_equiv_pos_as_xyz
  1  'x, y, z'
loop_
 _atom_site_type_symbol
 _atom_site_label
 _atom_site_symmetry_multiplicity
 _atom_site_fract_x
 _atom_site_fract_y
 _atom_site_fract_z
 _atom_site_occupancy
  Ho  Ho0  1  0.000000  0.000000  0.249281  1
  Ho  Ho1  1  0.000000  0.000000  0.749798  1
  Th  Th2  1  0.000000  0.000000  0.499683  1
  Th  Th3  1  0.000000  0.000000  0.000103  1
  As  As4  1  0.333333  0.666667  0.881523  1
  As  As5  1  0.666667  0.333333  0.117962  1
  As  As6  1  0.666667  0.333333  0.383252  1
  As  As7  1  0.333333  0.666667  0.617922  1
  Pd  Pd8  1  0.333333  0.666667  0.356256  1
  Pd  Pd9  1  0.666667  0.333333  0.643615  1
  Pd  Pd10  1  0.666667  0.333333  0.856709  1
  Pt  Pt11  1  0.333333  0.666667  0.143896  1
