# generated using pymatgen
data_CsCu2(PO3)6
_symmetry_space_group_name_H-M   'P 1'
_cell_length_a   6.34078329
_cell_length_b   8.48891687
_cell_length_c   8.48891748
_cell_angle_alpha   104.93652776
_cell_angle_beta   103.37385306
_cell_angle_gamma   103.37386645
_symmetry_Int_Tables_number   1
_chemical_formula_structural   CsCu2(PO3)6
_chemical_formula_sum   'Cs1 Cu2 P6 O18'
_cell_volume   408.42858130
_cell_formula_units_Z   1
loop_
 _symmetry_equiv_pos_site_id
 _symmetry_equiv_pos_as_xyz
  1  'x, y, z'
loop_
 _atom_site_type_symbol
 _atom_site_label
 _atom_site_symmetry_multiplicity
 _atom_site_fract_x
 _atom_site_fract_y
 _atom_site_fract_z
 _atom_site_occupancy
  Cs  Cs0  1  0.539513  0.954035  0.954035  1
  Cu  Cu1  1  0.003341  0.776026  0.226031  1
  Cu  Cu2  1  0.003341  0.226031  0.776026  1
  P  P3  1  0.099915  0.408928  0.183235  1
  P  P4  1  0.099915  0.183235  0.408928  1
  P  P5  1  0.898934  0.591723  0.815906  1
  P  P6  1  0.898934  0.815906  0.591723  1
  P  P7  1  0.500098  0.715892  0.281250  1
  P  P8  1  0.500098  0.281250  0.715892  1
  O  O9  1  0.096340  0.347536  0.347536  1
  O  O10  1  0.899435  0.648568  0.648568  1
  O  O11  1  0.365899  0.515573  0.233964  1
  O  O12  1  0.365899  0.233964  0.515573  1
  O  O13  1  0.633197  0.481721  0.764514  1
  O  O14  1  0.633197  0.764514  0.481721  1
  O  O15  1  0.950906  0.523578  0.178764  1
  O  O16  1  0.950906  0.178764  0.523578  1
  O  O17  1  0.054552  0.482640  0.825254  1
  O  O18  1  0.054552  0.825254  0.482640  1
  O  O19  1  0.040370  0.252706  0.028766  1
  O  O20  1  0.040370  0.028766  0.252706  1
  O  O21  1  0.948800  0.748725  0.966948  1
  O  O22  1  0.948800  0.966948  0.748725  1
  O  O23  1  0.664609  0.734310  0.180021  1
  O  O24  1  0.664609  0.180021  0.734310  1
  O  O25  1  0.337884  0.258775  0.818413  1
  O  O26  1  0.337884  0.818413  0.258775  1
