# generated using pymatgen
data_Ta8Co7Si14Os
_symmetry_space_group_name_H-M   'P 1'
_cell_length_a   9.24504876
_cell_length_b   9.24772029
_cell_length_c   9.26384147
_cell_angle_alpha   94.23482364
_cell_angle_beta   94.21948042
_cell_angle_gamma   148.46272818
_symmetry_Int_Tables_number   1
_chemical_formula_structural   Ta8Co7Si14Os
_chemical_formula_sum   'Ta8 Co7 Si14 Os1'
_cell_volume   398.73709871
_cell_formula_units_Z   1
loop_
 _symmetry_equiv_pos_site_id
 _symmetry_equiv_pos_as_xyz
  1  'x, y, z'
loop_
 _atom_site_type_symbol
 _atom_site_label
 _atom_site_symmetry_multiplicity
 _atom_site_fract_x
 _atom_site_fract_y
 _atom_site_fract_z
 _atom_site_occupancy
  Ta  Ta0  1  0.132790  0.132790  0.265581  1
  Ta  Ta1  1  0.866763  0.866763  0.733526  1
  Ta  Ta2  1  0.867560  0.133229  0.000793  1
  Ta  Ta3  1  0.133232  0.867564  0.000793  1
  Ta  Ta4  1  0.499319  0.310646  0.810794  1
  Ta  Ta5  1  0.502346  0.690367  0.191247  1
  Ta  Ta6  1  0.688900  0.500879  0.191247  1
  Ta  Ta7  1  0.311475  0.500148  0.810794  1
  Co  Co8  1  0.103236  0.603236  0.206472  1
  Co  Co9  1  0.099560  0.898914  0.498520  1
  Co  Co10  1  0.398960  0.599606  0.498520  1
  Co  Co11  1  0.598106  0.397433  0.497936  1
  Co  Co12  1  0.899830  0.100503  0.497936  1
  Co  Co13  1  0.899478  0.399478  0.798956  1
  Co  Co14  1  0.600136  0.100136  0.200271  1
  Si  Si15  1  0.506727  0.102015  0.588464  1
  Si  Si16  1  0.502170  0.906866  0.405097  1
  Si  Si17  1  0.902927  0.498232  0.405097  1
  Si  Si18  1  0.081737  0.486448  0.588464  1
  Si  Si19  1  0.751162  0.751745  0.000243  1
  Si  Si20  1  0.249081  0.248498  0.000243  1
  Si  Si21  1  0.291881  0.291881  0.583761  1
  Si  Si22  1  0.708373  0.708373  0.416745  1
  Si  Si23  1  0.724386  0.311290  0.006673  1
  Si  Si24  1  0.282286  0.695383  0.006673  1
  Si  Si25  1  0.999718  0.296314  0.295829  1
  Si  Si26  1  0.988017  0.697739  0.701992  1
  Si  Si27  1  0.713975  0.004253  0.701992  1
  Si  Si28  1  0.296111  0.999515  0.295829  1
  Os  Os29  1  0.399756  0.899756  0.799512  1
