# generated using pymatgen
data_Hf6Zn22CuSi
_symmetry_space_group_name_H-M   'P 1'
_cell_length_a   8.70558855
_cell_length_b   8.70558901
_cell_length_c   8.70559000
_cell_angle_alpha   60.00000384
_cell_angle_beta   60.00000210
_cell_angle_gamma   60.00000314
_symmetry_Int_Tables_number   1
_chemical_formula_structural   Hf6Zn22CuSi
_chemical_formula_sum   'Hf6 Zn22 Cu1 Si1'
_cell_volume   466.52996065
_cell_formula_units_Z   1
loop_
 _symmetry_equiv_pos_site_id
 _symmetry_equiv_pos_as_xyz
  1  'x, y, z'
loop_
 _atom_site_type_symbol
 _atom_site_label
 _atom_site_symmetry_multiplicity
 _atom_site_fract_x
 _atom_site_fract_y
 _atom_site_fract_z
 _atom_site_occupancy
  Hf  Hf0  1  0.709098  0.290902  0.290902  1
  Hf  Hf1  1  0.290902  0.709098  0.709098  1
  Hf  Hf2  1  0.290902  0.709098  0.290902  1
  Hf  Hf3  1  0.709098  0.290902  0.709098  1
  Hf  Hf4  1  0.290902  0.290902  0.709098  1
  Hf  Hf5  1  0.709098  0.709098  0.290902  1
  Zn  Zn6  1  0.121043  0.121043  0.121043  1
  Zn  Zn7  1  0.878957  0.878957  0.878957  1
  Zn  Zn8  1  0.121043  0.121043  0.636870  1
  Zn  Zn9  1  0.121043  0.636870  0.121043  1
  Zn  Zn10  1  0.878957  0.878957  0.363130  1
  Zn  Zn11  1  0.878957  0.363130  0.878957  1
  Zn  Zn12  1  0.636870  0.121043  0.121043  1
  Zn  Zn13  1  0.363130  0.878957  0.878957  1
  Zn  Zn14  1  0.500000  0.000000  0.000000  1
  Zn  Zn15  1  0.000000  0.500000  0.500000  1
  Zn  Zn16  1  0.000000  0.500000  0.000000  1
  Zn  Zn17  1  0.500000  0.000000  0.500000  1
  Zn  Zn18  1  0.000000  0.000000  0.500000  1
  Zn  Zn19  1  0.500000  0.500000  0.000000  1
  Zn  Zn20  1  0.335854  0.335854  0.335854  1
  Zn  Zn21  1  0.664146  0.664146  0.664146  1
  Zn  Zn22  1  0.335854  0.335854  0.992438  1
  Zn  Zn23  1  0.335854  0.992438  0.335854  1
  Zn  Zn24  1  0.664146  0.664146  0.007562  1
  Zn  Zn25  1  0.664146  0.007562  0.664146  1
  Zn  Zn26  1  0.992438  0.335854  0.335854  1
  Zn  Zn27  1  0.007562  0.664146  0.664146  1
  Cu  Cu28  1  0.000000  0.000000  0.000000  1
  Si  Si29  1  0.500000  0.500000  0.500000  1
