# generated using pymatgen
data_Ho6CoP12Ir17
_symmetry_space_group_name_H-M   'P 1'
_cell_length_a   3.95303100
_cell_length_b   11.14474200
_cell_length_c   12.76657100
_cell_angle_alpha   90.00000000
_cell_angle_beta   90.00000000
_cell_angle_gamma   90.00000000
_symmetry_Int_Tables_number   1
_chemical_formula_structural   Ho6CoP12Ir17
_chemical_formula_sum   'Ho6 Co1 P12 Ir17'
_cell_volume   562.43780418
_cell_formula_units_Z   1
loop_
 _symmetry_equiv_pos_site_id
 _symmetry_equiv_pos_as_xyz
  1  'x, y, z'
loop_
 _atom_site_type_symbol
 _atom_site_label
 _atom_site_symmetry_multiplicity
 _atom_site_fract_x
 _atom_site_fract_y
 _atom_site_fract_z
 _atom_site_occupancy
  Ho  Ho0  1  0.000000  0.500000  0.522254  1
  Ho  Ho1  1  0.500000  0.000000  0.477382  1
  Ho  Ho2  1  0.500000  0.819090  0.202637  1
  Ho  Ho3  1  0.500000  0.180910  0.202637  1
  Ho  Ho4  1  0.000000  0.687970  0.797875  1
  Ho  Ho5  1  0.000000  0.312030  0.797875  1
  Co  Co6  1  0.500000  0.000000  0.023381  1
  P  P7  1  0.500000  0.315142  0.618391  1
  P  P8  1  0.500000  0.684858  0.618391  1
  P  P9  1  0.000000  0.184422  0.381217  1
  P  P10  1  0.000000  0.815578  0.381217  1
  P  P11  1  0.500000  0.500000  0.876709  1
  P  P12  1  0.000000  0.000000  0.121939  1
  P  P13  1  0.500000  0.853923  0.896552  1
  P  P14  1  0.500000  0.146077  0.896552  1
  P  P15  1  0.000000  0.657948  0.105861  1
  P  P16  1  0.000000  0.342052  0.105861  1
  P  P17  1  0.500000  0.500000  0.358056  1
  P  P18  1  0.000000  0.000000  0.640265  1
  Ir  Ir19  1  0.000000  0.500000  0.973037  1
  Ir  Ir20  1  0.500000  0.295119  0.429654  1
  Ir  Ir21  1  0.500000  0.704881  0.429654  1
  Ir  Ir22  1  0.000000  0.206639  0.569986  1
  Ir  Ir23  1  0.000000  0.793361  0.569986  1
  Ir  Ir24  1  0.500000  0.870100  0.713954  1
  Ir  Ir25  1  0.500000  0.129900  0.713954  1
  Ir  Ir26  1  0.000000  0.630904  0.285228  1
  Ir  Ir27  1  0.000000  0.369096  0.285228  1
  Ir  Ir28  1  0.500000  0.332915  0.999884  1
  Ir  Ir29  1  0.500000  0.667085  0.999884  1
  Ir  Ir30  1  0.000000  0.157906  0.002769  1
  Ir  Ir31  1  0.000000  0.842094  0.002769  1
  Ir  Ir32  1  0.500000  0.500000  0.178688  1
  Ir  Ir33  1  0.000000  0.000000  0.820435  1
  Ir  Ir34  1  0.500000  0.500000  0.700120  1
  Ir  Ir35  1  0.000000  0.000000  0.299716  1
