# generated using pymatgen
data_LiY15ErIn3Rh4
_symmetry_space_group_name_H-M   'P 1'
_cell_length_a   9.69165186
_cell_length_b   9.70293911
_cell_length_c   9.69165239
_cell_angle_alpha   60.02975913
_cell_angle_beta   59.77557233
_cell_angle_gamma   60.02976155
_symmetry_Int_Tables_number   1
_chemical_formula_structural   LiY15ErIn3Rh4
_chemical_formula_sum   'Li1 Y15 Er1 In3 Rh4'
_cell_volume   643.63027588
_cell_formula_units_Z   1
loop_
 _symmetry_equiv_pos_site_id
 _symmetry_equiv_pos_as_xyz
  1  'x, y, z'
loop_
 _atom_site_type_symbol
 _atom_site_label
 _atom_site_symmetry_multiplicity
 _atom_site_fract_x
 _atom_site_fract_y
 _atom_site_fract_z
 _atom_site_occupancy
  Li  Li0  1  0.428531  0.715437  0.428531  1
  Y  Y1  1  0.190070  0.192273  0.809997  1
  Y  Y2  1  0.437101  0.061725  0.061795  1
  Y  Y3  1  0.435749  0.063878  0.435749  1
  Y  Y4  1  0.062672  0.438334  0.062672  1
  Y  Y5  1  0.648320  0.052520  0.648320  1
  Y  Y6  1  0.188061  0.812208  0.813458  1
  Y  Y7  1  0.061795  0.061725  0.437101  1
  Y  Y8  1  0.809997  0.192273  0.190070  1
  Y  Y9  1  0.813458  0.812208  0.188061  1
  Y  Y10  1  0.649912  0.648374  0.048231  1
  Y  Y11  1  0.653101  0.651485  0.653101  1
  Y  Y12  1  0.063919  0.436247  0.436005  1
  Y  Y13  1  0.048231  0.648374  0.649912  1
  Y  Y14  1  0.809224  0.191776  0.809224  1
  Y  Y15  1  0.436005  0.436247  0.063919  1
  Er  Er16  1  0.186393  0.815176  0.186393  1
  In  In17  1  0.416276  0.421380  0.746457  1
  In  In18  1  0.746457  0.421380  0.416276  1
  In  In19  1  0.416283  0.420295  0.416283  1
  Rh  Rh20  1  0.857212  0.427484  0.857212  1
  Rh  Rh21  1  0.860423  0.859340  0.424734  1
  Rh  Rh22  1  0.424734  0.859340  0.860423  1
  Rh  Rh23  1  0.856074  0.860526  0.856074  1
