# generated using pymatgen
data_Tm5Tc2C7
_symmetry_space_group_name_H-M   'P 1'
_cell_length_a   8.20058698
_cell_length_b   8.20058691
_cell_length_c   3.39125100
_cell_angle_alpha   90.00000000
_cell_angle_beta   90.00000000
_cell_angle_gamma   121.94635120
_symmetry_Int_Tables_number   1
_chemical_formula_structural   Tm5Tc2C7
_chemical_formula_sum   'Tm5 Tc2 C7'
_cell_volume   193.51923232
_cell_formula_units_Z   1
loop_
 _symmetry_equiv_pos_site_id
 _symmetry_equiv_pos_as_xyz
  1  'x, y, z'
loop_
 _atom_site_type_symbol
 _atom_site_label
 _atom_site_symmetry_multiplicity
 _atom_site_fract_x
 _atom_site_fract_y
 _atom_site_fract_z
 _atom_site_occupancy
  Tm  Tm0  1  0.500000  0.500000  0.000000  1
  Tm  Tm1  1  0.077952  0.337838  0.500000  1
  Tm  Tm2  1  0.922048  0.662162  0.500000  1
  Tm  Tm3  1  0.662162  0.922048  0.500000  1
  Tm  Tm4  1  0.337838  0.077952  0.500000  1
  Tc  Tc5  1  0.714227  0.285773  0.000000  1
  Tc  Tc6  1  0.285773  0.714227  0.000000  1
  C  C7  1  0.623717  0.376283  0.500000  1
  C  C8  1  0.376283  0.623717  0.500000  1
  C  C9  1  0.000000  0.000000  0.000000  1
  C  C10  1  0.170429  0.170429  0.000000  1
  C  C11  1  0.829571  0.829571  0.000000  1
  C  C12  1  0.000000  0.500000  0.000000  1
  C  C13  1  0.500000  0.000000  0.000000  1
