# generated using pymatgen
data_Nd10CoOsI15
_symmetry_space_group_name_H-M   'P 1'
_cell_length_a   9.99999872
_cell_length_b   10.92396679
_cell_length_c   11.81918958
_cell_angle_alpha   92.47877461
_cell_angle_beta   113.94388252
_cell_angle_gamma   110.34116892
_symmetry_Int_Tables_number   1
_chemical_formula_structural   Nd10CoOsI15
_chemical_formula_sum   'Nd10 Co1 Os1 I15'
_cell_volume   1080.53051428
_cell_formula_units_Z   1
loop_
 _symmetry_equiv_pos_site_id
 _symmetry_equiv_pos_as_xyz
  1  'x, y, z'
loop_
 _atom_site_type_symbol
 _atom_site_label
 _atom_site_symmetry_multiplicity
 _atom_site_fract_x
 _atom_site_fract_y
 _atom_site_fract_z
 _atom_site_occupancy
  Nd  Nd0  1  0.218700  0.579794  0.051186  1
  Nd  Nd1  1  0.777744  0.424884  0.952029  1
  Nd  Nd2  1  0.294522  0.895420  0.267879  1
  Nd  Nd3  1  0.706196  0.101086  0.729795  1
  Nd  Nd4  1  0.088710  0.546374  0.326593  1
  Nd  Nd5  1  0.908028  0.455471  0.666136  1
  Nd  Nd6  1  0.840738  0.746027  0.173157  1
  Nd  Nd7  1  0.163545  0.253101  0.825156  1
  Nd  Nd8  1  0.975140  0.790164  0.904942  1
  Nd  Nd9  1  0.025338  0.204932  0.099532  1
  Co  Co10  1  0.034197  0.673272  0.119254  1
  Os  Os11  1  0.966464  0.331508  0.883742  1
  I  I12  1  0.341656  0.442936  0.301412  1
  I  I13  1  0.657200  0.557322  0.699008  1
  I  I14  1  0.212423  0.738947  0.815072  1
  I  I15  1  0.787119  0.261752  0.184682  1
  I  I16  1  0.141797  0.384849  0.583942  1
  I  I17  1  0.858443  0.616534  0.414389  1
  I  I18  1  0.387411  0.800164  0.528713  1
  I  I19  1  0.608630  0.197310  0.469048  1
  I  I20  1  0.264422  0.087237  0.053808  1
  I  I21  1  0.735126  0.910233  0.945609  1
  I  I22  1  0.567487  0.843099  0.227077  1
  I  I23  1  0.437084  0.157473  0.774386  1
  I  I24  1  0.093623  0.035063  0.337395  1
  I  I25  1  0.910141  0.962900  0.663976  1
  I  I26  1  0.498120  0.502148  0.002080  1
