# generated using pymatgen
data_Y5HoCo10(P3Ir2)4
_symmetry_space_group_name_H-M   'P 1'
_cell_length_a   3.79161300
_cell_length_b   10.81888637
_cell_length_c   12.52388943
_cell_angle_alpha   89.96985206
_cell_angle_beta   90.00000000
_cell_angle_gamma   90.00000000
_symmetry_Int_Tables_number   1
_chemical_formula_structural   Y5HoCo10(P3Ir2)4
_chemical_formula_sum   'Y5 Ho1 Co10 P12 Ir8'
_cell_volume   513.74277584
_cell_formula_units_Z   1
loop_
 _symmetry_equiv_pos_site_id
 _symmetry_equiv_pos_as_xyz
  1  'x, y, z'
loop_
 _atom_site_type_symbol
 _atom_site_label
 _atom_site_symmetry_multiplicity
 _atom_site_fract_x
 _atom_site_fract_y
 _atom_site_fract_z
 _atom_site_occupancy
  Y  Y0  1  0.000000  0.499996  0.521147  1
  Y  Y1  1  0.500000  0.000025  0.478896  1
  Y  Y2  1  0.500000  0.815376  0.197153  1
  Y  Y3  1  0.500000  0.184589  0.197146  1
  Y  Y4  1  0.000000  0.684539  0.802867  1
  Ho  Ho5  1  0.000000  0.315509  0.802730  1
  Co  Co6  1  0.000000  0.499853  0.991915  1
  Co  Co7  1  0.500000  0.000157  0.007838  1
  Co  Co8  1  0.500000  0.879411  0.716451  1
  Co  Co9  1  0.500000  0.121016  0.716665  1
  Co  Co10  1  0.000000  0.620634  0.283553  1
  Co  Co11  1  0.000000  0.379369  0.283547  1
  Co  Co12  1  0.500000  0.332870  0.995225  1
  Co  Co13  1  0.500000  0.666991  0.995466  1
  Co  Co14  1  0.000000  0.167297  0.004253  1
  Co  Co15  1  0.000000  0.832891  0.004483  1
  P  P16  1  0.500000  0.309608  0.625376  1
  P  P17  1  0.500000  0.690049  0.625082  1
  P  P18  1  0.000000  0.190245  0.375011  1
  P  P19  1  0.000000  0.809769  0.374985  1
  P  P20  1  0.500000  0.499716  0.894569  1
  P  P21  1  0.000000  0.000040  0.105362  1
  P  P22  1  0.500000  0.843269  0.897309  1
  P  P23  1  0.500000  0.157202  0.897020  1
  P  P24  1  0.000000  0.656692  0.102655  1
  P  P25  1  0.000000  0.343280  0.102696  1
  P  P26  1  0.500000  0.499999  0.343958  1
  P  P27  1  0.000000  0.999973  0.656063  1
  Ir  Ir28  1  0.500000  0.298436  0.426079  1
  Ir  Ir29  1  0.500000  0.701500  0.426038  1
  Ir  Ir30  1  0.000000  0.201687  0.574239  1
  Ir  Ir31  1  0.000000  0.798459  0.573951  1
  Ir  Ir32  1  0.500000  0.499970  0.159390  1
  Ir  Ir33  1  0.000000  0.000091  0.840589  1
  Ir  Ir34  1  0.500000  0.499459  0.709122  1
  Ir  Ir35  1  0.000000  0.000034  0.291168  1
