# generated using pymatgen
data_Lu6Ti4Al12Os7
_symmetry_space_group_name_H-M   'P 1'
_cell_length_a   8.93405647
_cell_length_b   8.93405754
_cell_length_c   8.93405800
_cell_angle_alpha   60.00000570
_cell_angle_beta   60.00000175
_cell_angle_gamma   60.00000512
_symmetry_Int_Tables_number   1
_chemical_formula_structural   Lu6Ti4Al12Os7
_chemical_formula_sum   'Lu6 Ti4 Al12 Os7'
_cell_volume   504.23298200
_cell_formula_units_Z   1
loop_
 _symmetry_equiv_pos_site_id
 _symmetry_equiv_pos_as_xyz
  1  'x, y, z'
loop_
 _atom_site_type_symbol
 _atom_site_label
 _atom_site_symmetry_multiplicity
 _atom_site_fract_x
 _atom_site_fract_y
 _atom_site_fract_z
 _atom_site_occupancy
  Lu  Lu0  1  0.707581  0.707581  0.292419  1
  Lu  Lu1  1  0.292419  0.707581  0.292419  1
  Lu  Lu2  1  0.707581  0.292419  0.292419  1
  Lu  Lu3  1  0.292419  0.292419  0.707581  1
  Lu  Lu4  1  0.707581  0.292419  0.707581  1
  Lu  Lu5  1  0.292419  0.707581  0.707581  1
  Ti  Ti6  1  0.880177  0.880177  0.359466  1
  Ti  Ti7  1  0.880177  0.359466  0.880177  1
  Ti  Ti8  1  0.359466  0.880177  0.880177  1
  Ti  Ti9  1  0.880177  0.880177  0.880177  1
  Al  Al10  1  0.119280  0.119280  0.642160  1
  Al  Al11  1  0.119280  0.642160  0.119280  1
  Al  Al12  1  0.642160  0.119280  0.119280  1
  Al  Al13  1  0.119280  0.119280  0.119280  1
  Al  Al14  1  0.668679  0.668679  0.993963  1
  Al  Al15  1  0.668679  0.993963  0.668679  1
  Al  Al16  1  0.993963  0.668679  0.668679  1
  Al  Al17  1  0.668679  0.668679  0.668679  1
  Al  Al18  1  0.331781  0.331781  0.004657  1
  Al  Al19  1  0.331781  0.004657  0.331781  1
  Al  Al20  1  0.004657  0.331781  0.331781  1
  Al  Al21  1  0.331781  0.331781  0.331781  1
  Os  Os22  1  0.000000  0.000000  0.000000  1
  Os  Os23  1  0.998998  0.998998  0.501002  1
  Os  Os24  1  0.501002  0.998998  0.501002  1
  Os  Os25  1  0.998998  0.501002  0.501002  1
  Os  Os26  1  0.501002  0.501002  0.998998  1
  Os  Os27  1  0.998998  0.501002  0.998998  1
  Os  Os28  1  0.501002  0.998998  0.998998  1
