# generated using pymatgen
data_SrBiAsO5
_symmetry_space_group_name_H-M   'P 1'
_cell_length_a   7.20069368
_cell_length_b   7.21151958
_cell_length_c   5.98084166
_cell_angle_alpha   110.31143053
_cell_angle_beta   101.21817629
_cell_angle_gamma   105.16509345
_symmetry_Int_Tables_number   1
_chemical_formula_structural   SrBiAsO5
_chemical_formula_sum   'Sr2 Bi2 As2 O10'
_cell_volume   266.78369734
_cell_formula_units_Z   2
loop_
 _symmetry_equiv_pos_site_id
 _symmetry_equiv_pos_as_xyz
  1  'x, y, z'
loop_
 _atom_site_type_symbol
 _atom_site_label
 _atom_site_symmetry_multiplicity
 _atom_site_fract_x
 _atom_site_fract_y
 _atom_site_fract_z
 _atom_site_occupancy
  Sr  Sr0  1  0.388019  0.172210  0.320733  1
  Sr  Sr1  1  0.611982  0.827791  0.679267  1
  Bi  Bi2  1  0.752867  0.537032  0.098155  1
  Bi  Bi3  1  0.247133  0.462967  0.901845  1
  As  As4  1  0.843062  0.126716  0.316670  1
  As  As5  1  0.156939  0.873286  0.683331  1
  O  O6  1  0.829927  0.879296  0.118279  1
  O  O7  1  0.700782  0.197496  0.111355  1
  O  O8  1  0.504003  0.531958  0.241672  1
  O  O9  1  0.277202  0.876542  0.464397  1
  O  O10  1  0.094350  0.290697  0.449157  1
  O  O11  1  0.905650  0.709303  0.550843  1
  O  O12  1  0.722798  0.123457  0.535603  1
  O  O13  1  0.495996  0.468041  0.758327  1
  O  O14  1  0.299218  0.802504  0.888645  1
  O  O15  1  0.170073  0.120704  0.881721  1
