# generated using pymatgen
data_Y20Hg6OsRu
_symmetry_space_group_name_H-M   'P 1'
_cell_length_a   9.67903600
_cell_length_b   9.67903595
_cell_length_c   9.68755700
_cell_angle_alpha   90.00000000
_cell_angle_beta   90.00000000
_cell_angle_gamma   120.00000018
_symmetry_Int_Tables_number   1
_chemical_formula_structural   Y20Hg6OsRu
_chemical_formula_sum   'Y20 Hg6 Os1 Ru1'
_cell_volume   785.97568296
_cell_formula_units_Z   1
loop_
 _symmetry_equiv_pos_site_id
 _symmetry_equiv_pos_as_xyz
  1  'x, y, z'
loop_
 _atom_site_type_symbol
 _atom_site_label
 _atom_site_symmetry_multiplicity
 _atom_site_fract_x
 _atom_site_fract_y
 _atom_site_fract_z
 _atom_site_occupancy
  Y  Y0  1  0.000000  0.000000  0.499550  1
  Y  Y1  1  0.000000  0.000000  0.000450  1
  Y  Y2  1  0.209155  0.790845  0.440446  1
  Y  Y3  1  0.209155  0.418311  0.440446  1
  Y  Y4  1  0.581689  0.790845  0.440446  1
  Y  Y5  1  0.790755  0.209245  0.560147  1
  Y  Y6  1  0.790755  0.581508  0.560147  1
  Y  Y7  1  0.418492  0.209245  0.560147  1
  Y  Y8  1  0.790755  0.209245  0.939853  1
  Y  Y9  1  0.790755  0.581508  0.939853  1
  Y  Y10  1  0.418492  0.209245  0.939853  1
  Y  Y11  1  0.209155  0.790845  0.059554  1
  Y  Y12  1  0.209155  0.418311  0.059554  1
  Y  Y13  1  0.581689  0.790845  0.059554  1
  Y  Y14  1  0.539881  0.460119  0.250000  1
  Y  Y15  1  0.539881  0.079761  0.250000  1
  Y  Y16  1  0.920239  0.460119  0.250000  1
  Y  Y17  1  0.458942  0.541058  0.750000  1
  Y  Y18  1  0.458942  0.917883  0.750000  1
  Y  Y19  1  0.082117  0.541058  0.750000  1
  Hg  Hg20  1  0.880979  0.119021  0.250000  1
  Hg  Hg21  1  0.880979  0.761958  0.250000  1
  Hg  Hg22  1  0.238042  0.119021  0.250000  1
  Hg  Hg23  1  0.118873  0.881127  0.750000  1
  Hg  Hg24  1  0.118873  0.237744  0.750000  1
  Hg  Hg25  1  0.762256  0.881127  0.750000  1
  Os  Os26  1  0.333333  0.666667  0.250000  1
  Ru  Ru27  1  0.666667  0.333333  0.750000  1
