# generated using pymatgen
data_Er3Al12Ru3Au
_symmetry_space_group_name_H-M   'P 1'
_cell_length_a   8.85860772
_cell_length_b   8.85860675
_cell_length_c   9.49200200
_cell_angle_alpha   90.00000000
_cell_angle_beta   90.00000000
_cell_angle_gamma   119.76230142
_symmetry_Int_Tables_number   1
_chemical_formula_structural   Er3Al12Ru3Au
_chemical_formula_sum   'Er6 Al24 Ru6 Au2'
_cell_volume   646.62813485
_cell_formula_units_Z   2
loop_
 _symmetry_equiv_pos_site_id
 _symmetry_equiv_pos_as_xyz
  1  'x, y, z'
loop_
 _atom_site_type_symbol
 _atom_site_label
 _atom_site_symmetry_multiplicity
 _atom_site_fract_x
 _atom_site_fract_y
 _atom_site_fract_z
 _atom_site_occupancy
  Er  Er0  1  0.187698  0.384923  0.250000  1
  Er  Er1  1  0.812302  0.615077  0.750000  1
  Er  Er2  1  0.615077  0.812302  0.250000  1
  Er  Er3  1  0.384923  0.187698  0.750000  1
  Er  Er4  1  0.193499  0.806501  0.250000  1
  Er  Er5  1  0.806501  0.193499  0.750000  1
  Al  Al6  1  0.328119  0.671881  0.024611  1
  Al  Al7  1  0.671881  0.328119  0.975389  1
  Al  Al8  1  0.671881  0.328119  0.524611  1
  Al  Al9  1  0.328119  0.671881  0.475389  1
  Al  Al10  1  0.150494  0.321077  0.579178  1
  Al  Al11  1  0.849506  0.678923  0.420822  1
  Al  Al12  1  0.678923  0.849506  0.579178  1
  Al  Al13  1  0.849506  0.678923  0.079178  1
  Al  Al14  1  0.321077  0.150494  0.420822  1
  Al  Al15  1  0.150494  0.321077  0.920822  1
  Al  Al16  1  0.163252  0.836748  0.577706  1
  Al  Al17  1  0.321077  0.150494  0.079178  1
  Al  Al18  1  0.836748  0.163252  0.422294  1
  Al  Al19  1  0.678923  0.849506  0.920822  1
  Al  Al20  1  0.836748  0.163252  0.077706  1
  Al  Al21  1  0.163252  0.836748  0.922294  1
  Al  Al22  1  0.559391  0.120384  0.250000  1
  Al  Al23  1  0.440609  0.879616  0.750000  1
  Al  Al24  1  0.879616  0.440609  0.250000  1
  Al  Al25  1  0.120384  0.559391  0.750000  1
  Al  Al26  1  0.565493  0.434507  0.250000  1
  Al  Al27  1  0.434507  0.565493  0.750000  1
  Al  Al28  1  0.998105  0.001895  0.250000  1
  Al  Al29  1  0.001895  0.998105  0.750000  1
  Ru  Ru30  1  0.500000  0.000000  0.000000  1
  Ru  Ru31  1  0.000000  0.500000  0.000000  1
  Ru  Ru32  1  0.500000  0.000000  0.500000  1
  Ru  Ru33  1  0.000000  0.500000  0.500000  1
  Ru  Ru34  1  0.000000  0.000000  0.000000  1
  Ru  Ru35  1  0.000000  0.000000  0.500000  1
  Au  Au36  1  0.500000  0.500000  0.000000  1
  Au  Au37  1  0.500000  0.500000  0.500000  1
