# generated using pymatgen
data_Tb3Y9Tc3Ir
_symmetry_space_group_name_H-M   'P 1'
_cell_length_a   6.34700128
_cell_length_b   7.43093700
_cell_length_c   9.22071500
_cell_angle_alpha   90.00000000
_cell_angle_beta   90.00000000
_cell_angle_gamma   89.91011213
_symmetry_Int_Tables_number   1
_chemical_formula_structural   Tb3Y9Tc3Ir
_chemical_formula_sum   'Tb3 Y9 Tc3 Ir1'
_cell_volume   434.88680390
_cell_formula_units_Z   1
loop_
 _symmetry_equiv_pos_site_id
 _symmetry_equiv_pos_as_xyz
  1  'x, y, z'
loop_
 _atom_site_type_symbol
 _atom_site_label
 _atom_site_symmetry_multiplicity
 _atom_site_fract_x
 _atom_site_fract_y
 _atom_site_fract_z
 _atom_site_occupancy
  Tb  Tb0  1  0.632717  0.044262  0.250000  1
  Tb  Tb1  1  0.373004  0.956556  0.750000  1
  Tb  Tb2  1  0.126239  0.459374  0.750000  1
  Y  Y3  1  0.869991  0.540844  0.250000  1
  Y  Y4  1  0.164345  0.177204  0.061657  1
  Y  Y5  1  0.834304  0.824020  0.935062  1
  Y  Y6  1  0.662239  0.323600  0.936101  1
  Y  Y7  1  0.834304  0.824020  0.564938  1
  Y  Y8  1  0.336089  0.675362  0.062801  1
  Y  Y9  1  0.164345  0.177204  0.438343  1
  Y  Y10  1  0.336089  0.675362  0.437199  1
  Y  Y11  1  0.662239  0.323600  0.563899  1
  Tc  Tc12  1  0.461909  0.382248  0.250000  1
  Tc  Tc13  1  0.534811  0.617444  0.750000  1
  Tc  Tc14  1  0.966708  0.114736  0.750000  1
  Ir  Ir15  1  0.040664  0.884161  0.250000  1
