# generated using pymatgen
data_Tb6ScNb(Co4P3)4
_symmetry_space_group_name_H-M   'P 1'
_cell_length_a   3.72097300
_cell_length_b   10.66964500
_cell_length_c   12.37279600
_cell_angle_alpha   90.00000000
_cell_angle_beta   90.00000000
_cell_angle_gamma   90.00000000
_symmetry_Int_Tables_number   1
_chemical_formula_structural   Tb6ScNb(Co4P3)4
_chemical_formula_sum   'Tb6 Sc1 Nb1 Co16 P12'
_cell_volume   491.21807742
_cell_formula_units_Z   1
loop_
 _symmetry_equiv_pos_site_id
 _symmetry_equiv_pos_as_xyz
  1  'x, y, z'
loop_
 _atom_site_type_symbol
 _atom_site_label
 _atom_site_symmetry_multiplicity
 _atom_site_fract_x
 _atom_site_fract_y
 _atom_site_fract_z
 _atom_site_occupancy
  Tb  Tb0  1  0.000000  0.500000  0.526824  1
  Tb  Tb1  1  0.500000  0.000000  0.473541  1
  Tb  Tb2  1  0.500000  0.821168  0.205279  1
  Tb  Tb3  1  0.500000  0.178832  0.205279  1
  Tb  Tb4  1  0.000000  0.680114  0.795004  1
  Tb  Tb5  1  0.000000  0.319886  0.795004  1
  Sc  Sc6  1  0.500000  0.500000  0.154434  1
  Nb  Nb7  1  0.000000  0.000000  0.842925  1
  Co  Co8  1  0.500000  0.500000  0.703032  1
  Co  Co9  1  0.000000  0.000000  0.297522  1
  Co  Co10  1  0.000000  0.500000  0.985220  1
  Co  Co11  1  0.500000  0.000000  0.012988  1
  Co  Co12  1  0.500000  0.330023  0.992896  1
  Co  Co13  1  0.500000  0.669977  0.992896  1
  Co  Co14  1  0.000000  0.166108  0.006756  1
  Co  Co15  1  0.000000  0.833892  0.006756  1
  Co  Co16  1  0.500000  0.295053  0.433399  1
  Co  Co17  1  0.500000  0.704947  0.433399  1
  Co  Co18  1  0.000000  0.204129  0.568338  1
  Co  Co19  1  0.000000  0.795871  0.568338  1
  Co  Co20  1  0.500000  0.878370  0.704016  1
  Co  Co21  1  0.500000  0.121630  0.704016  1
  Co  Co22  1  0.000000  0.622317  0.296731  1
  Co  Co23  1  0.000000  0.377683  0.296731  1
  P  P24  1  0.500000  0.500000  0.883989  1
  P  P25  1  0.000000  0.000000  0.117126  1
  P  P26  1  0.500000  0.500000  0.357531  1
  P  P27  1  0.000000  0.000000  0.643609  1
  P  P28  1  0.500000  0.309829  0.615547  1
  P  P29  1  0.500000  0.690171  0.615547  1
  P  P30  1  0.000000  0.190544  0.384916  1
  P  P31  1  0.000000  0.809456  0.384916  1
  P  P32  1  0.500000  0.841523  0.892669  1
  P  P33  1  0.500000  0.158477  0.892669  1
  P  P34  1  0.000000  0.660144  0.105079  1
  P  P35  1  0.000000  0.339856  0.105079  1
