# generated using pymatgen
data_ErZnCu3Hg
_symmetry_space_group_name_H-M   'P 1'
_cell_length_a   5.13975131
_cell_length_b   5.10606049
_cell_length_c   5.13975000
_cell_angle_alpha   59.78148769
_cell_angle_beta   59.99999553
_cell_angle_gamma   59.78148169
_symmetry_Int_Tables_number   1
_chemical_formula_structural   ErZnCu3Hg
_chemical_formula_sum   'Er1 Zn1 Cu3 Hg1'
_cell_volume   95.06326083
_cell_formula_units_Z   1
loop_
 _symmetry_equiv_pos_site_id
 _symmetry_equiv_pos_as_xyz
  1  'x, y, z'
loop_
 _atom_site_type_symbol
 _atom_site_label
 _atom_site_symmetry_multiplicity
 _atom_site_fract_x
 _atom_site_fract_y
 _atom_site_fract_z
 _atom_site_occupancy
  Er  Er0  1  0.751564  0.745307  0.751564  1
  Zn  Zn1  1  0.373407  0.879778  0.373407  1
  Cu  Cu2  1  0.374237  0.375857  0.374237  1
  Cu  Cu3  1  0.875668  0.375857  0.374237  1
  Cu  Cu4  1  0.374237  0.375857  0.875668  1
  Hg  Hg5  1  0.000886  0.997342  0.000886  1
