# generated using pymatgen
data_Rb3U2PbS6
_symmetry_space_group_name_H-M   'P 1'
_cell_length_a   7.20506055
_cell_length_b   7.20505991
_cell_length_c   7.97959900
_cell_angle_alpha   81.31412845
_cell_angle_beta   81.31413727
_cell_angle_gamma   119.96897012
_symmetry_Int_Tables_number   1
_chemical_formula_structural   Rb3U2PbS6
_chemical_formula_sum   'Rb3 U2 Pb1 S6'
_cell_volume   342.11441106
_cell_formula_units_Z   1
loop_
 _symmetry_equiv_pos_site_id
 _symmetry_equiv_pos_as_xyz
  1  'x, y, z'
loop_
 _atom_site_type_symbol
 _atom_site_label
 _atom_site_symmetry_multiplicity
 _atom_site_fract_x
 _atom_site_fract_y
 _atom_site_fract_z
 _atom_site_occupancy
  Rb  Rb0  1  0.660542  0.339458  0.500000  1
  Rb  Rb1  1  0.339458  0.660542  0.500000  1
  Rb  Rb2  1  0.000000  0.000000  0.500000  1
  U  U3  1  0.832918  0.167082  0.000000  1
  U  U4  1  0.167082  0.832918  0.000000  1
  Pb  Pb5  1  0.500000  0.500000  0.000000  1
  S  S6  1  0.790243  0.790243  0.195496  1
  S  S7  1  0.209757  0.209757  0.804504  1
  S  S8  1  0.433466  0.077639  0.197854  1
  S  S9  1  0.566534  0.922361  0.802146  1
  S  S10  1  0.922361  0.566534  0.802146  1
  S  S11  1  0.077639  0.433466  0.197854  1
