# generated using pymatgen
data_Ca2Y(BPt2)3
_symmetry_space_group_name_H-M   'P 1'
_cell_length_a   5.46225860
_cell_length_b   5.46225955
_cell_length_c   7.71849100
_cell_angle_alpha   90.00000000
_cell_angle_beta   90.00000000
_cell_angle_gamma   120.40786140
_symmetry_Int_Tables_number   1
_chemical_formula_structural   Ca2Y(BPt2)3
_chemical_formula_sum   'Ca2 Y1 B3 Pt6'
_cell_volume   198.61315611
_cell_formula_units_Z   1
loop_
 _symmetry_equiv_pos_site_id
 _symmetry_equiv_pos_as_xyz
  1  'x, y, z'
loop_
 _atom_site_type_symbol
 _atom_site_label
 _atom_site_symmetry_multiplicity
 _atom_site_fract_x
 _atom_site_fract_y
 _atom_site_fract_z
 _atom_site_occupancy
  Ca  Ca0  1  0.000000  0.500000  0.669706  1
  Ca  Ca1  1  0.500000  0.000000  0.996961  1
  Y  Y2  1  0.500000  0.500000  0.333333  1
  B  B3  1  0.000000  0.500000  0.164683  1
  B  B4  1  0.500000  0.500000  0.833333  1
  B  B5  1  0.500000  0.000000  0.501984  1
  Pt  Pt6  1  0.296129  0.153622  0.663737  1
  Pt  Pt7  1  0.149615  0.850385  0.333333  1
  Pt  Pt8  1  0.846378  0.703871  0.002930  1
  Pt  Pt9  1  0.850385  0.149615  0.333333  1
  Pt  Pt10  1  0.153622  0.296129  0.002930  1
  Pt  Pt11  1  0.703871  0.846378  0.663737  1
