# generated using pymatgen
data_Yb(TcN)2
_symmetry_space_group_name_H-M   'P 1'
_cell_length_a   2.97927200
_cell_length_b   2.97927203
_cell_length_c   7.65913000
_cell_angle_alpha   89.99983778
_cell_angle_beta   90.00015177
_cell_angle_gamma   120.00008693
_symmetry_Int_Tables_number   1
_chemical_formula_structural   Yb(TcN)2
_chemical_formula_sum   'Yb1 Tc2 N2'
_cell_volume   58.87487610
_cell_formula_units_Z   1
loop_
 _symmetry_equiv_pos_site_id
 _symmetry_equiv_pos_as_xyz
  1  'x, y, z'
loop_
 _atom_site_type_symbol
 _atom_site_label
 _atom_site_symmetry_multiplicity
 _atom_site_fract_x
 _atom_site_fract_y
 _atom_site_fract_z
 _atom_site_occupancy
  Yb  Yb0  1  0.000000  0.000000  0.000002  1
  Tc  Tc1  1  0.666668  0.333333  0.361427  1
  Tc  Tc2  1  0.333333  0.666668  0.638568  1
  N  N3  1  0.666665  0.333335  0.794125  1
  N  N4  1  0.333335  0.666665  0.205881  1
