# generated using pymatgen
data_YbZr(Si7Ir3)2
_symmetry_space_group_name_H-M   'P 1'
_cell_length_a   8.01387408
_cell_length_b   8.01387456
_cell_length_c   8.01387353
_cell_angle_alpha   56.56778732
_cell_angle_beta   56.56777479
_cell_angle_gamma   56.56778062
_symmetry_Int_Tables_number   1
_chemical_formula_structural   YbZr(Si7Ir3)2
_chemical_formula_sum   'Yb1 Zr1 Si14 Ir6'
_cell_volume   335.06431649
_cell_formula_units_Z   1
loop_
 _symmetry_equiv_pos_site_id
 _symmetry_equiv_pos_as_xyz
  1  'x, y, z'
loop_
 _atom_site_type_symbol
 _atom_site_label
 _atom_site_symmetry_multiplicity
 _atom_site_fract_x
 _atom_site_fract_y
 _atom_site_fract_z
 _atom_site_occupancy
  Yb  Yb0  1  0.500000  0.500000  0.500000  1
  Zr  Zr1  1  0.000000  0.000000  0.000000  1
  Si  Si2  1  0.849234  0.064085  0.673082  1
  Si  Si3  1  0.673082  0.849234  0.064085  1
  Si  Si4  1  0.064085  0.673082  0.849234  1
  Si  Si5  1  0.648244  0.827095  0.434978  1
  Si  Si6  1  0.249923  0.249923  0.249923  1
  Si  Si7  1  0.750077  0.750077  0.750077  1
  Si  Si8  1  0.172905  0.565022  0.351756  1
  Si  Si9  1  0.565022  0.351756  0.172905  1
  Si  Si10  1  0.351756  0.172905  0.565022  1
  Si  Si11  1  0.935915  0.326918  0.150766  1
  Si  Si12  1  0.326918  0.150766  0.935915  1
  Si  Si13  1  0.150766  0.935915  0.326918  1
  Si  Si14  1  0.827095  0.434978  0.648244  1
  Si  Si15  1  0.434978  0.648244  0.827095  1
  Ir  Ir16  1  0.754391  0.067686  0.424482  1
  Ir  Ir17  1  0.424482  0.754391  0.067686  1
  Ir  Ir18  1  0.067686  0.424482  0.754391  1
  Ir  Ir19  1  0.245609  0.932314  0.575518  1
  Ir  Ir20  1  0.575518  0.245609  0.932314  1
  Ir  Ir21  1  0.932314  0.575518  0.245609  1
