# generated using pymatgen
data_NdSmAsPt8
_symmetry_space_group_name_H-M   'P 1'
_cell_length_a   9.24463541
_cell_length_b   9.23380062
_cell_length_c   4.32782800
_cell_angle_alpha   90.00000000
_cell_angle_beta   90.00000000
_cell_angle_gamma   145.32356674
_symmetry_Int_Tables_number   1
_chemical_formula_structural   NdSmAsPt8
_chemical_formula_sum   'Nd1 Sm1 As1 Pt8'
_cell_volume   210.18791595
_cell_formula_units_Z   1
loop_
 _symmetry_equiv_pos_site_id
 _symmetry_equiv_pos_as_xyz
  1  'x, y, z'
loop_
 _atom_site_type_symbol
 _atom_site_label
 _atom_site_symmetry_multiplicity
 _atom_site_fract_x
 _atom_site_fract_y
 _atom_site_fract_z
 _atom_site_occupancy
  Nd  Nd0  1  0.377054  0.626414  0.500000  1
  Sm  Sm1  1  0.629496  0.378211  0.500000  1
  As  As2  1  0.231880  0.232068  0.000000  1
  Pt  Pt3  1  0.104257  0.877985  0.000000  1
  Pt  Pt4  1  0.877460  0.104159  0.000000  1
  Pt  Pt5  1  0.487268  0.984461  0.000000  1
  Pt  Pt6  1  0.982782  0.487611  0.000000  1
  Pt  Pt7  1  0.195375  0.790742  0.500000  1
  Pt  Pt8  1  0.789090  0.195957  0.500000  1
  Pt  Pt9  1  0.986769  0.986143  0.500000  1
  Pt  Pt10  1  0.652167  0.649847  0.000000  1
