# generated using pymatgen
data_Y6Tm14Cd6OsRu
_symmetry_space_group_name_H-M   'P 1'
_cell_length_a   9.51976500
_cell_length_b   9.51976447
_cell_length_c   9.73118900
_cell_angle_alpha   90.00000000
_cell_angle_beta   90.00000000
_cell_angle_gamma   119.99999838
_symmetry_Int_Tables_number   1
_chemical_formula_structural   Y6Tm14Cd6OsRu
_chemical_formula_sum   'Y6 Tm14 Cd6 Os1 Ru1'
_cell_volume   763.74605055
_cell_formula_units_Z   1
loop_
 _symmetry_equiv_pos_site_id
 _symmetry_equiv_pos_as_xyz
  1  'x, y, z'
loop_
 _atom_site_type_symbol
 _atom_site_label
 _atom_site_symmetry_multiplicity
 _atom_site_fract_x
 _atom_site_fract_y
 _atom_site_fract_z
 _atom_site_occupancy
  Y  Y0  1  0.539261  0.460739  0.250000  1
  Y  Y1  1  0.539261  0.078523  0.250000  1
  Y  Y2  1  0.921477  0.460739  0.250000  1
  Y  Y3  1  0.459540  0.540460  0.750000  1
  Y  Y4  1  0.459540  0.919079  0.750000  1
  Y  Y5  1  0.080921  0.540460  0.750000  1
  Tm  Tm6  1  0.000000  0.000000  0.499706  1
  Tm  Tm7  1  0.000000  0.000000  0.000294  1
  Tm  Tm8  1  0.209866  0.790134  0.440538  1
  Tm  Tm9  1  0.209866  0.419733  0.440538  1
  Tm  Tm10  1  0.580267  0.790134  0.440538  1
  Tm  Tm11  1  0.789995  0.210005  0.560086  1
  Tm  Tm12  1  0.789995  0.579988  0.560086  1
  Tm  Tm13  1  0.420012  0.210005  0.560086  1
  Tm  Tm14  1  0.789995  0.210005  0.939914  1
  Tm  Tm15  1  0.789995  0.579988  0.939914  1
  Tm  Tm16  1  0.420012  0.210005  0.939914  1
  Tm  Tm17  1  0.209866  0.790134  0.059462  1
  Tm  Tm18  1  0.209866  0.419733  0.059462  1
  Tm  Tm19  1  0.580267  0.790134  0.059462  1
  Cd  Cd20  1  0.885954  0.114046  0.250000  1
  Cd  Cd21  1  0.885954  0.771909  0.250000  1
  Cd  Cd22  1  0.228091  0.114046  0.250000  1
  Cd  Cd23  1  0.114064  0.885936  0.750000  1
  Cd  Cd24  1  0.114064  0.228127  0.750000  1
  Cd  Cd25  1  0.771873  0.885936  0.750000  1
  Os  Os26  1  0.333333  0.666667  0.250000  1
  Ru  Ru27  1  0.666667  0.333333  0.750000  1
