# generated using pymatgen
data_Dy3YTh4(ReB6)4
_symmetry_space_group_name_H-M   'P 1'
_cell_length_a   3.77555400
_cell_length_b   9.28048600
_cell_length_c   11.70616500
_cell_angle_alpha   90.00241044
_cell_angle_beta   90.00000000
_cell_angle_gamma   90.00000000
_symmetry_Int_Tables_number   1
_chemical_formula_structural   Dy3YTh4(ReB6)4
_chemical_formula_sum   'Dy3 Y1 Th4 Re4 B24'
_cell_volume   410.17203479
_cell_formula_units_Z   1
loop_
 _symmetry_equiv_pos_site_id
 _symmetry_equiv_pos_as_xyz
  1  'x, y, z'
loop_
 _atom_site_type_symbol
 _atom_site_label
 _atom_site_symmetry_multiplicity
 _atom_site_fract_x
 _atom_site_fract_y
 _atom_site_fract_z
 _atom_site_occupancy
  Dy  Dy0  1  0.000000  0.444735  0.127357  1
  Dy  Dy1  1  0.000000  0.555256  0.872698  1
  Dy  Dy2  1  0.000000  0.944710  0.372639  1
  Y  Y3  1  0.000000  0.055155  0.627099  1
  Th  Th4  1  0.000000  0.822549  0.085849  1
  Th  Th5  1  0.000000  0.177417  0.914191  1
  Th  Th6  1  0.000000  0.322697  0.414043  1
  Th  Th7  1  0.000000  0.677336  0.585892  1
  Re  Re8  1  0.000000  0.139010  0.179893  1
  Re  Re9  1  0.000000  0.860859  0.820228  1
  Re  Re10  1  0.000000  0.639181  0.320137  1
  Re  Re11  1  0.000000  0.361106  0.679829  1
  B  B12  1  0.500000  0.056087  0.070174  1
  B  B13  1  0.500000  0.943890  0.929883  1
  B  B14  1  0.500000  0.556136  0.429832  1
  B  B15  1  0.500000  0.443938  0.570115  1
  B  B16  1  0.500000  0.249157  0.082952  1
  B  B17  1  0.500000  0.750795  0.917111  1
  B  B18  1  0.500000  0.749185  0.417081  1
  B  B19  1  0.500000  0.250954  0.582819  1
  B  B20  1  0.500000  0.290742  0.233138  1
  B  B21  1  0.500000  0.709188  0.766882  1
  B  B22  1  0.500000  0.790794  0.266849  1
  B  B23  1  0.500000  0.209299  0.733230  1
  B  B24  1  0.500000  0.130969  0.313576  1
  B  B25  1  0.500000  0.868876  0.686447  1
  B  B26  1  0.500000  0.630989  0.186414  1
  B  B27  1  0.500000  0.369037  0.813607  1
  B  B28  1  0.500000  0.485649  0.286065  1
  B  B29  1  0.500000  0.514441  0.713950  1
  B  B30  1  0.500000  0.985537  0.213958  1
  B  B31  1  0.500000  0.014445  0.786181  1
  B  B32  1  0.500000  0.104067  0.471267  1
  B  B33  1  0.500000  0.895837  0.528571  1
  B  B34  1  0.500000  0.603936  0.028625  1
  B  B35  1  0.500000  0.396041  0.971416  1
