# generated using pymatgen
data_Er4Ga2Os5W
_symmetry_space_group_name_H-M   'P 1'
_cell_length_a   5.30027929
_cell_length_b   5.30721584
_cell_length_c   8.85095400
_cell_angle_alpha   90.00000000
_cell_angle_beta   90.00000000
_cell_angle_gamma   118.11874022
_symmetry_Int_Tables_number   1
_chemical_formula_structural   Er4Ga2Os5W
_chemical_formula_sum   'Er4 Ga2 Os5 W1'
_cell_volume   219.58909087
_cell_formula_units_Z   1
loop_
 _symmetry_equiv_pos_site_id
 _symmetry_equiv_pos_as_xyz
  1  'x, y, z'
loop_
 _atom_site_type_symbol
 _atom_site_label
 _atom_site_symmetry_multiplicity
 _atom_site_fract_x
 _atom_site_fract_y
 _atom_site_fract_z
 _atom_site_occupancy
  Er  Er0  1  0.326798  0.669985  0.434393  1
  Er  Er1  1  0.659449  0.328005  0.559323  1
  Er  Er2  1  0.659449  0.328005  0.940677  1
  Er  Er3  1  0.326798  0.669985  0.065607  1
  Ga  Ga4  1  0.185506  0.836037  0.750000  1
  Ga  Ga5  1  0.183095  0.345927  0.750000  1
  Os  Os6  1  0.981045  0.002305  0.503768  1
  Os  Os7  1  0.981045  0.002305  0.996232  1
  Os  Os8  1  0.827763  0.652388  0.250000  1
  Os  Os9  1  0.353225  0.173556  0.250000  1
  Os  Os10  1  0.675823  0.829506  0.750000  1
  W  W11  1  0.840001  0.161999  0.250000  1
