# generated using pymatgen
data_Li3Dy2HoInSi2
_symmetry_space_group_name_H-M   'P 1'
_cell_length_a   7.22454946
_cell_length_b   7.22455003
_cell_length_c   4.21086400
_cell_angle_alpha   90.00000000
_cell_angle_beta   90.00000000
_cell_angle_gamma   119.94618433
_symmetry_Int_Tables_number   1
_chemical_formula_structural   Li3Dy2HoInSi2
_chemical_formula_sum   'Li3 Dy2 Ho1 In1 Si2'
_cell_volume   190.44021939
_cell_formula_units_Z   1
loop_
 _symmetry_equiv_pos_site_id
 _symmetry_equiv_pos_as_xyz
  1  'x, y, z'
loop_
 _atom_site_type_symbol
 _atom_site_label
 _atom_site_symmetry_multiplicity
 _atom_site_fract_x
 _atom_site_fract_y
 _atom_site_fract_z
 _atom_site_occupancy
  Li  Li0  1  0.254956  0.999796  0.500000  1
  Li  Li1  1  0.744982  0.744982  0.500000  1
  Li  Li2  1  0.999796  0.254956  0.500000  1
  Dy  Dy3  1  0.999838  0.558474  0.000000  1
  Dy  Dy4  1  0.558474  0.999838  0.000000  1
  Ho  Ho5  1  0.441532  0.441532  0.000000  1
  In  In6  1  0.000710  0.000710  0.000000  1
  Si  Si7  1  0.333148  0.666565  0.500000  1
  Si  Si8  1  0.666565  0.333148  0.500000  1
