# generated using pymatgen
data_Sc4SiTc7
_symmetry_space_group_name_H-M   'P 1'
_cell_length_a   5.22183600
_cell_length_b   5.22183682
_cell_length_c   8.55326300
_cell_angle_alpha   90.00000000
_cell_angle_beta   90.00000000
_cell_angle_gamma   120.00000747
_symmetry_Int_Tables_number   1
_chemical_formula_structural   Sc4SiTc7
_chemical_formula_sum   'Sc4 Si1 Tc7'
_cell_volume   201.98027042
_cell_formula_units_Z   1
loop_
 _symmetry_equiv_pos_site_id
 _symmetry_equiv_pos_as_xyz
  1  'x, y, z'
loop_
 _atom_site_type_symbol
 _atom_site_label
 _atom_site_symmetry_multiplicity
 _atom_site_fract_x
 _atom_site_fract_y
 _atom_site_fract_z
 _atom_site_occupancy
  Sc  Sc0  1  0.333333  0.666667  0.435902  1
  Sc  Sc1  1  0.666667  0.333333  0.564098  1
  Sc  Sc2  1  0.666667  0.333333  0.935077  1
  Sc  Sc3  1  0.333333  0.666667  0.064923  1
  Si  Si4  1  0.000000  0.000000  0.500000  1
  Tc  Tc5  1  0.000000  0.000000  0.000000  1
  Tc  Tc6  1  0.829438  0.170562  0.253758  1
  Tc  Tc7  1  0.829438  0.658878  0.253758  1
  Tc  Tc8  1  0.341122  0.170562  0.253758  1
  Tc  Tc9  1  0.170562  0.829438  0.746242  1
  Tc  Tc10  1  0.170562  0.341122  0.746242  1
  Tc  Tc11  1  0.658878  0.829438  0.746242  1
