# generated using pymatgen
data_LaNd2Th5(ReC2)4
_symmetry_space_group_name_H-M   'P 1'
_cell_length_a   5.39113900
_cell_length_b   6.68508529
_cell_length_c   10.17421170
_cell_angle_alpha   90.57082081
_cell_angle_beta   90.00000000
_cell_angle_gamma   90.00000000
_symmetry_Int_Tables_number   1
_chemical_formula_structural   LaNd2Th5(ReC2)4
_chemical_formula_sum   'La1 Nd2 Th5 Re4 C8'
_cell_volume   366.66267159
_cell_formula_units_Z   1
loop_
 _symmetry_equiv_pos_site_id
 _symmetry_equiv_pos_as_xyz
  1  'x, y, z'
loop_
 _atom_site_type_symbol
 _atom_site_label
 _atom_site_symmetry_multiplicity
 _atom_site_fract_x
 _atom_site_fract_y
 _atom_site_fract_z
 _atom_site_occupancy
  La  La0  1  0.250000  0.470943  0.784300  1
  Nd  Nd1  1  0.250000  0.308713  0.449844  1
  Nd  Nd2  1  0.750000  0.193845  0.949496  1
  Th  Th3  1  0.750000  0.025479  0.279115  1
  Th  Th4  1  0.250000  0.978072  0.722019  1
  Th  Th5  1  0.750000  0.521357  0.224331  1
  Th  Th6  1  0.250000  0.808752  0.048203  1
  Th  Th7  1  0.750000  0.687916  0.548592  1
  Re  Re8  1  0.250000  0.268310  0.138902  1
  Re  Re9  1  0.750000  0.228215  0.637410  1
  Re  Re10  1  0.250000  0.770608  0.361030  1
  Re  Re11  1  0.750000  0.732570  0.861151  1
  C  C12  1  0.250000  0.688273  0.546287  1
  C  C13  1  0.750000  0.820468  0.051066  1
  C  C14  1  0.250000  0.165573  0.955383  1
  C  C15  1  0.750000  0.328847  0.450578  1
  C  C16  1  0.250000  0.031628  0.255740  1
  C  C17  1  0.750000  0.469451  0.754429  1
  C  C18  1  0.250000  0.533500  0.240688  1
  C  C19  1  0.750000  0.967478  0.741435  1
