# generated using pymatgen
data_YbHo2Al3CuSi2
_symmetry_space_group_name_H-M   'P 1'
_cell_length_a   6.87343800
_cell_length_b   6.89344117
_cell_length_c   4.20507400
_cell_angle_alpha   90.00000000
_cell_angle_beta   90.00000000
_cell_angle_gamma   119.90404704
_symmetry_Int_Tables_number   1
_chemical_formula_structural   YbHo2Al3CuSi2
_chemical_formula_sum   'Yb1 Ho2 Al3 Cu1 Si2'
_cell_volume   172.71635695
_cell_formula_units_Z   1
loop_
 _symmetry_equiv_pos_site_id
 _symmetry_equiv_pos_as_xyz
  1  'x, y, z'
loop_
 _atom_site_type_symbol
 _atom_site_label
 _atom_site_symmetry_multiplicity
 _atom_site_fract_x
 _atom_site_fract_y
 _atom_site_fract_z
 _atom_site_occupancy
  Yb  Yb0  1  0.409953  0.000000  0.000000  1
  Ho  Ho1  1  0.998576  0.408561  0.000000  1
  Ho  Ho2  1  0.590014  0.591438  0.000000  1
  Al  Al3  1  0.766982  0.000000  0.499999  1
  Al  Al4  1  0.237274  0.245722  0.499999  1
  Al  Al5  1  0.991553  0.754277  0.499999  1
  Cu  Cu6  1  0.004333  0.000000  0.000000  1
  Si  Si7  1  0.670624  0.339932  0.499999  1
  Si  Si8  1  0.330691  0.660067  0.499999  1
