# generated using pymatgen
data_Yb4NpRu2
_symmetry_space_group_name_H-M   'P 1'
_cell_length_a   8.78537057
_cell_length_b   8.78537055
_cell_length_c   7.19359813
_cell_angle_alpha   80.71447038
_cell_angle_beta   80.71447010
_cell_angle_gamma   43.11497283
_symmetry_Int_Tables_number   1
_chemical_formula_structural   Yb4NpRu2
_chemical_formula_sum   'Yb8 Np2 Ru4'
_cell_volume   373.71976501
_cell_formula_units_Z   2
loop_
 _symmetry_equiv_pos_site_id
 _symmetry_equiv_pos_as_xyz
  1  'x, y, z'
loop_
 _atom_site_type_symbol
 _atom_site_label
 _atom_site_symmetry_multiplicity
 _atom_site_fract_x
 _atom_site_fract_y
 _atom_site_fract_z
 _atom_site_occupancy
  Yb  Yb0  1  0.040488  0.782009  0.917538  1
  Yb  Yb1  1  0.217991  0.959512  0.582462  1
  Yb  Yb2  1  0.959512  0.217991  0.082462  1
  Yb  Yb3  1  0.782009  0.040488  0.417538  1
  Yb  Yb4  1  0.365665  0.201686  0.806398  1
  Yb  Yb5  1  0.798314  0.634335  0.693602  1
  Yb  Yb6  1  0.634335  0.798314  0.193602  1
  Yb  Yb7  1  0.201686  0.365665  0.306398  1
  Np  Np8  1  0.591347  0.408653  0.750000  1
  Np  Np9  1  0.408653  0.591347  0.250000  1
  Ru  Ru10  1  0.226524  0.587620  0.525255  1
  Ru  Ru11  1  0.412380  0.773476  0.974745  1
  Ru  Ru12  1  0.773476  0.412380  0.474745  1
  Ru  Ru13  1  0.587620  0.226524  0.025255  1
