# generated using pymatgen
data_Tm4ScZnNiSb
_symmetry_space_group_name_H-M   'P 1'
_cell_length_a   8.25777865
_cell_length_b   8.25778004
_cell_length_c   8.41065590
_cell_angle_alpha   124.52274814
_cell_angle_beta   124.52275439
_cell_angle_gamma   81.11503497
_symmetry_Int_Tables_number   1
_chemical_formula_structural   Tm4ScZnNiSb
_chemical_formula_sum   'Tm8 Sc2 Zn2 Ni2 Sb2'
_cell_volume   377.39282241
_cell_formula_units_Z   2
loop_
 _symmetry_equiv_pos_site_id
 _symmetry_equiv_pos_as_xyz
  1  'x, y, z'
loop_
 _atom_site_type_symbol
 _atom_site_label
 _atom_site_symmetry_multiplicity
 _atom_site_fract_x
 _atom_site_fract_y
 _atom_site_fract_z
 _atom_site_occupancy
  Tm  Tm0  1  0.787222  0.287222  0.796052  1
  Tm  Tm1  1  0.212778  0.712778  0.203948  1
  Tm  Tm2  1  0.491170  0.991170  0.203948  1
  Tm  Tm3  1  0.307978  0.464060  0.500000  1
  Tm  Tm4  1  0.035940  0.192022  0.500000  1
  Tm  Tm5  1  0.508830  0.008830  0.796052  1
  Tm  Tm6  1  0.692022  0.535940  0.500000  1
  Tm  Tm7  1  0.964060  0.807978  0.500000  1
  Sc  Sc8  1  0.000000  0.000000  0.000000  1
  Sc  Sc9  1  0.500000  0.500000  0.000000  1
  Zn  Zn10  1  0.137689  0.637689  0.775378  1
  Zn  Zn11  1  0.862311  0.362311  0.224622  1
  Ni  Ni12  1  0.629407  0.870593  0.500000  1
  Ni  Ni13  1  0.370593  0.129407  0.500000  1
  Sb  Sb14  1  0.250000  0.250000  0.000000  1
  Sb  Sb15  1  0.750000  0.750000  0.000000  1
