# generated using pymatgen
data_Rb2TiHgS4
_symmetry_space_group_name_H-M   'P 1'
_cell_length_a   14.07404233
_cell_length_b   12.52210159
_cell_length_c   7.67146600
_cell_angle_alpha   84.75122482
_cell_angle_beta   62.37476809
_cell_angle_gamma   32.87400666
_symmetry_Int_Tables_number   1
_chemical_formula_structural   Rb2TiHgS4
_chemical_formula_sum   'Rb4 Ti2 Hg2 S8'
_cell_volume   510.37036929
_cell_formula_units_Z   2
loop_
 _symmetry_equiv_pos_site_id
 _symmetry_equiv_pos_as_xyz
  1  'x, y, z'
loop_
 _atom_site_type_symbol
 _atom_site_label
 _atom_site_symmetry_multiplicity
 _atom_site_fract_x
 _atom_site_fract_y
 _atom_site_fract_z
 _atom_site_occupancy
  Rb  Rb0  1  0.678538  0.678538  0.321462  1
  Rb  Rb1  1  0.321462  0.321462  0.678538  1
  Rb  Rb2  1  0.928538  0.928538  0.571462  1
  Rb  Rb3  1  0.571462  0.571462  0.928538  1
  Ti  Ti4  1  0.750000  0.750000  0.750000  1
  Ti  Ti5  1  0.500000  0.500000  0.500000  1
  Hg  Hg6  1  0.000000  0.000000  0.000000  1
  Hg  Hg7  1  0.250000  0.250000  0.250000  1
  S  S8  1  0.386451  0.004119  0.918474  1
  S  S9  1  0.690958  0.918474  0.004119  1
  S  S10  1  0.918474  0.690958  0.386451  1
  S  S11  1  0.004119  0.386451  0.690958  1
  S  S12  1  0.245881  0.863549  0.559042  1
  S  S13  1  0.559042  0.331526  0.245881  1
  S  S14  1  0.331526  0.559042  0.863549  1
  S  S15  1  0.863549  0.245881  0.331526  1
