# generated using pymatgen
data_Be8ReOsW2
_symmetry_space_group_name_H-M   'P 1'
_cell_length_a   4.40099500
_cell_length_b   4.40099484
_cell_length_c   7.22223000
_cell_angle_alpha   90.00000000
_cell_angle_beta   90.00000000
_cell_angle_gamma   120.00000871
_symmetry_Int_Tables_number   1
_chemical_formula_structural   Be8ReOsW2
_chemical_formula_sum   'Be8 Re1 Os1 W2'
_cell_volume   121.14448364
_cell_formula_units_Z   1
loop_
 _symmetry_equiv_pos_site_id
 _symmetry_equiv_pos_as_xyz
  1  'x, y, z'
loop_
 _atom_site_type_symbol
 _atom_site_label
 _atom_site_symmetry_multiplicity
 _atom_site_fract_x
 _atom_site_fract_y
 _atom_site_fract_z
 _atom_site_occupancy
  Be  Be0  1  0.000000  0.000000  0.000769  1
  Be  Be1  1  0.000000  0.000000  0.503972  1
  Be  Be2  1  0.831492  0.662982  0.249121  1
  Be  Be3  1  0.169107  0.830893  0.750180  1
  Be  Be4  1  0.661786  0.830893  0.750180  1
  Be  Be5  1  0.337018  0.168508  0.249121  1
  Be  Be6  1  0.831492  0.168508  0.249121  1
  Be  Be7  1  0.169107  0.338214  0.750180  1
  Re  Re8  1  0.333333  0.666667  0.437750  1
  Os  Os9  1  0.666667  0.333333  0.937906  1
  W  W10  1  0.333333  0.666667  0.061490  1
  W  W11  1  0.666667  0.333333  0.560210  1
