# generated using pymatgen
data_Tb16InAg(HgRh2)2
_symmetry_space_group_name_H-M   'P 1'
_cell_length_a   9.63533351
_cell_length_b   9.64621709
_cell_length_c   9.64613400
_cell_angle_alpha   60.00029180
_cell_angle_beta   59.96292004
_cell_angle_gamma   59.93945388
_symmetry_Int_Tables_number   1
_chemical_formula_structural   Tb16InAg(HgRh2)2
_chemical_formula_sum   'Tb16 In1 Ag1 Hg2 Rh4'
_cell_volume   633.49351799
_cell_formula_units_Z   1
loop_
 _symmetry_equiv_pos_site_id
 _symmetry_equiv_pos_as_xyz
  1  'x, y, z'
loop_
 _atom_site_type_symbol
 _atom_site_label
 _atom_site_symmetry_multiplicity
 _atom_site_fract_x
 _atom_site_fract_y
 _atom_site_fract_z
 _atom_site_occupancy
  Tb  Tb0  1  0.810848  0.809369  0.189891  1
  Tb  Tb1  1  0.810169  0.191760  0.807614  1
  Tb  Tb2  1  0.188871  0.190836  0.810146  1
  Tb  Tb3  1  0.648763  0.053864  0.648686  1
  Tb  Tb4  1  0.066457  0.059260  0.437142  1
  Tb  Tb5  1  0.437715  0.436647  0.062819  1
  Tb  Tb6  1  0.649996  0.648720  0.650441  1
  Tb  Tb7  1  0.810169  0.191760  0.190458  1
  Tb  Tb8  1  0.189400  0.812422  0.809342  1
  Tb  Tb9  1  0.054425  0.646393  0.649590  1
  Tb  Tb10  1  0.439015  0.059659  0.064235  1
  Tb  Tb11  1  0.439015  0.059659  0.437090  1
  Tb  Tb12  1  0.064961  0.436726  0.062594  1
  Tb  Tb13  1  0.649996  0.648720  0.050844  1
  Tb  Tb14  1  0.189400  0.812422  0.188835  1
  Tb  Tb15  1  0.064961  0.436726  0.435719  1
  In  In16  1  0.742337  0.421557  0.418053  1
  Ag  Ag17  1  0.416727  0.750473  0.416400  1
  Hg  Hg18  1  0.414165  0.417082  0.414047  1
  Hg  Hg19  1  0.414165  0.417082  0.754704  1
  Rh  Rh20  1  0.856248  0.427011  0.858371  1
  Rh  Rh21  1  0.856733  0.857855  0.858126  1
  Rh  Rh22  1  0.856733  0.857855  0.427287  1
  Rh  Rh23  1  0.428731  0.856141  0.857565  1
