# generated using pymatgen
data_Ti8Al14SiPt2Rh5
_symmetry_space_group_name_H-M   'P 1'
_cell_length_a   8.64937661
_cell_length_b   8.63826996
_cell_length_c   8.64937678
_cell_angle_alpha   119.93021336
_cell_angle_beta   119.88353198
_cell_angle_gamma   90.19834767
_symmetry_Int_Tables_number   1
_chemical_formula_structural   Ti8Al14SiPt2Rh5
_chemical_formula_sum   'Ti8 Al14 Si1 Pt2 Rh5'
_cell_volume   457.45630203
_cell_formula_units_Z   1
loop_
 _symmetry_equiv_pos_site_id
 _symmetry_equiv_pos_as_xyz
  1  'x, y, z'
loop_
 _atom_site_type_symbol
 _atom_site_label
 _atom_site_symmetry_multiplicity
 _atom_site_fract_x
 _atom_site_fract_y
 _atom_site_fract_z
 _atom_site_occupancy
  Ti  Ti0  1  0.796416  0.296505  0.087653  1
  Ti  Ti1  1  0.208853  0.296505  0.500089  1
  Ti  Ti2  1  0.203784  0.703711  0.499928  1
  Ti  Ti3  1  0.207361  0.708431  0.910744  1
  Ti  Ti4  1  0.797686  0.708431  0.501070  1
  Ti  Ti5  1  0.790464  0.291171  0.500706  1
  Ti  Ti6  1  0.382340  0.127065  0.744726  1
  Ti  Ti7  1  0.379440  0.636771  0.257331  1
  Al  Al8  1  0.158318  0.340451  0.182133  1
  Al  Al9  1  0.157564  0.978106  0.820543  1
  Al  Al10  1  0.155703  0.345332  0.815588  1
  Al  Al11  1  0.529744  0.345332  0.189629  1
  Al  Al12  1  0.841514  0.656531  0.815018  1
  Al  Al13  1  0.844274  0.027765  0.183491  1
  Al  Al14  1  0.838666  0.654697  0.177724  1
  Al  Al15  1  0.476972  0.654697  0.816031  1
  Al  Al16  1  0.378217  0.122773  0.263393  1
  Al  Al17  1  0.859381  0.122773  0.744556  1
  Al  Al18  1  0.617993  0.875350  0.257357  1
  Al  Al19  1  0.620923  0.362024  0.741101  1
  Al  Al20  1  0.622406  0.876428  0.738619  1
  Al  Al21  1  0.137807  0.876428  0.254022  1
  Si  Si22  1  0.997549  0.496913  0.499364  1
  Pt  Pt23  1  0.000085  0.999175  0.499585  1
  Pt  Pt24  1  0.499590  0.999175  0.999090  1
  Rh  Rh25  1  0.498434  0.499012  0.000577  1
  Rh  Rh26  1  0.498706  0.500119  0.498737  1
  Rh  Rh27  1  0.001382  0.500119  0.001414  1
  Rh  Rh28  1  0.000426  0.000066  0.999640  1
  Rh  Rh29  1  0.498001  0.998143  0.500143  1
