# generated using pymatgen
data_Cs2PdSe16
_symmetry_space_group_name_H-M   'P 1'
_cell_length_a   13.02491000
_cell_length_b   13.02491000
_cell_length_c   7.30292600
_cell_angle_alpha   90.00000000
_cell_angle_beta   90.00000000
_cell_angle_gamma   90.00000000
_symmetry_Int_Tables_number   1
_chemical_formula_structural   Cs2PdSe16
_chemical_formula_sum   'Cs4 Pd2 Se32'
_cell_volume   1238.92883858
_cell_formula_units_Z   2
loop_
 _symmetry_equiv_pos_site_id
 _symmetry_equiv_pos_as_xyz
  1  'x, y, z'
loop_
 _atom_site_type_symbol
 _atom_site_label
 _atom_site_symmetry_multiplicity
 _atom_site_fract_x
 _atom_site_fract_y
 _atom_site_fract_z
 _atom_site_occupancy
  Cs  Cs0  1  0.500000  0.000000  0.000000  1
  Cs  Cs1  1  0.000000  0.500000  0.000000  1
  Cs  Cs2  1  0.500000  0.500000  0.500000  1
  Cs  Cs3  1  0.000000  0.000000  0.500000  1
  Pd  Pd4  1  0.000000  0.000000  0.000000  1
  Pd  Pd5  1  0.500000  0.500000  0.000000  1
  Se  Se6  1  0.190716  0.423250  0.581463  1
  Se  Se7  1  0.809284  0.576750  0.581463  1
  Se  Se8  1  0.576750  0.190716  0.418537  1
  Se  Se9  1  0.423250  0.809284  0.418537  1
  Se  Se10  1  0.309284  0.923250  0.581463  1
  Se  Se11  1  0.076750  0.309284  0.418537  1
  Se  Se12  1  0.814381  0.964238  0.968110  1
  Se  Se13  1  0.035762  0.814381  0.031890  1
  Se  Se14  1  0.964238  0.185619  0.031890  1
  Se  Se15  1  0.185619  0.035762  0.968110  1
  Se  Se16  1  0.535762  0.685619  0.031890  1
  Se  Se17  1  0.464238  0.314381  0.031890  1
  Se  Se18  1  0.685619  0.464238  0.968110  1
  Se  Se19  1  0.314381  0.535762  0.968110  1
  Se  Se20  1  0.789686  0.204286  0.124733  1
  Se  Se21  1  0.795714  0.789686  0.875267  1
  Se  Se22  1  0.204286  0.210314  0.875267  1
  Se  Se23  1  0.210314  0.795714  0.124733  1
  Se  Se24  1  0.295714  0.710314  0.875267  1
  Se  Se25  1  0.704286  0.289686  0.875267  1
  Se  Se26  1  0.710314  0.704286  0.124733  1
  Se  Se27  1  0.289686  0.295714  0.124733  1
  Se  Se28  1  0.919282  0.308759  0.586732  1
  Se  Se29  1  0.691241  0.919282  0.413268  1
  Se  Se30  1  0.308759  0.080718  0.413268  1
  Se  Se31  1  0.080718  0.691241  0.586732  1
  Se  Se32  1  0.191241  0.580718  0.413268  1
  Se  Se33  1  0.808759  0.419282  0.413268  1
  Se  Se34  1  0.580718  0.808759  0.586732  1
  Se  Se35  1  0.419282  0.191241  0.586732  1
  Se  Se36  1  0.690716  0.076750  0.581463  1
  Se  Se37  1  0.923250  0.690716  0.418537  1
