# generated using pymatgen
data_Yb2Ga9CoPd2
_symmetry_space_group_name_H-M   'P 1'
_cell_length_a   7.57550523
_cell_length_b   7.57550455
_cell_length_c   9.51428500
_cell_angle_alpha   90.00000000
_cell_angle_beta   90.00000000
_cell_angle_gamma   119.44086992
_symmetry_Int_Tables_number   1
_chemical_formula_structural   Yb2Ga9CoPd2
_chemical_formula_sum   'Yb4 Ga18 Co2 Pd4'
_cell_volume   475.49874107
_cell_formula_units_Z   2
loop_
 _symmetry_equiv_pos_site_id
 _symmetry_equiv_pos_as_xyz
  1  'x, y, z'
loop_
 _atom_site_type_symbol
 _atom_site_label
 _atom_site_symmetry_multiplicity
 _atom_site_fract_x
 _atom_site_fract_y
 _atom_site_fract_z
 _atom_site_occupancy
  Yb  Yb0  1  0.317154  0.990418  0.250000  1
  Yb  Yb1  1  0.009582  0.682846  0.750000  1
  Yb  Yb2  1  0.666326  0.986530  0.750000  1
  Yb  Yb3  1  0.013470  0.333674  0.250000  1
  Ga  Ga4  1  0.347354  0.014179  0.921544  1
  Ga  Ga5  1  0.985821  0.652646  0.078456  1
  Ga  Ga6  1  0.347354  0.014179  0.578456  1
  Ga  Ga7  1  0.985821  0.652646  0.421544  1
  Ga  Ga8  1  0.665024  0.018262  0.079901  1
  Ga  Ga9  1  0.981738  0.334976  0.920099  1
  Ga  Ga10  1  0.665024  0.018262  0.420099  1
  Ga  Ga11  1  0.981738  0.334976  0.579901  1
  Ga  Ga12  1  0.667059  0.657213  0.936430  1
  Ga  Ga13  1  0.342787  0.332941  0.063570  1
  Ga  Ga14  1  0.667059  0.657213  0.563570  1
  Ga  Ga15  1  0.342787  0.332941  0.436430  1
  Ga  Ga16  1  0.131478  0.135124  0.750000  1
  Ga  Ga17  1  0.864876  0.868522  0.250000  1
  Ga  Ga18  1  0.462510  0.664273  0.250000  1
  Ga  Ga19  1  0.335727  0.537490  0.750000  1
  Ga  Ga20  1  0.571515  0.338849  0.750000  1
  Ga  Ga21  1  0.661151  0.428485  0.250000  1
  Co  Co22  1  0.667673  0.332327  0.000000  1
  Co  Co23  1  0.667673  0.332327  0.500000  1
  Pd  Pd24  1  0.998141  0.001859  0.000000  1
  Pd  Pd25  1  0.998141  0.001859  0.500000  1
  Pd  Pd26  1  0.327510  0.672490  0.000000  1
  Pd  Pd27  1  0.327510  0.672490  0.500000  1
