# generated using pymatgen
data_Y18ErLuSn16
_symmetry_space_group_name_H-M   'P 1'
_cell_length_a   8.04972200
_cell_length_b   8.19300380
_cell_length_c   15.49973500
_cell_angle_alpha   90.00000000
_cell_angle_beta   90.00000000
_cell_angle_gamma   89.97471238
_symmetry_Int_Tables_number   1
_chemical_formula_structural   Y18ErLuSn16
_chemical_formula_sum   'Y18 Er1 Lu1 Sn16'
_cell_volume   1022.22916856
_cell_formula_units_Z   1
loop_
 _symmetry_equiv_pos_site_id
 _symmetry_equiv_pos_as_xyz
  1  'x, y, z'
loop_
 _atom_site_type_symbol
 _atom_site_label
 _atom_site_symmetry_multiplicity
 _atom_site_fract_x
 _atom_site_fract_y
 _atom_site_fract_z
 _atom_site_occupancy
  Y  Y0  1  0.367670  0.836270  0.877999  1
  Y  Y1  1  0.868185  0.663591  0.622108  1
  Y  Y2  1  0.632258  0.163520  0.377828  1
  Y  Y3  1  0.132083  0.336369  0.122019  1
  Y  Y4  1  0.632258  0.163520  0.122172  1
  Y  Y5  1  0.132083  0.336369  0.377981  1
  Y  Y6  1  0.367670  0.836270  0.622001  1
  Y  Y7  1  0.868185  0.663591  0.877892  1
  Y  Y8  1  0.520944  0.320309  0.902297  1
  Y  Y9  1  0.021403  0.179834  0.597710  1
  Y  Y10  1  0.478943  0.679640  0.402267  1
  Y  Y11  1  0.978658  0.820360  0.097754  1
  Y  Y12  1  0.478943  0.679640  0.097733  1
  Y  Y13  1  0.978658  0.820360  0.402246  1
  Y  Y14  1  0.520944  0.320309  0.597703  1
  Y  Y15  1  0.021403  0.179834  0.902290  1
  Y  Y16  1  0.698572  0.997311  0.750000  1
  Y  Y17  1  0.801059  0.497358  0.250000  1
  Er  Er18  1  0.198938  0.502893  0.750000  1
  Lu  Lu19  1  0.300810  0.002930  0.250000  1
  Sn  Sn20  1  0.292739  0.035497  0.042399  1
  Sn  Sn21  1  0.792434  0.464076  0.458553  1
  Sn  Sn22  1  0.707401  0.964102  0.541827  1
  Sn  Sn23  1  0.207226  0.535563  0.957600  1
  Sn  Sn24  1  0.707401  0.964102  0.958173  1
  Sn  Sn25  1  0.207226  0.535563  0.542400  1
  Sn  Sn26  1  0.292739  0.035497  0.457601  1
  Sn  Sn27  1  0.792434  0.464076  0.041447  1
  Sn  Sn28  1  0.564556  0.618160  0.750000  1
  Sn  Sn29  1  0.065816  0.881192  0.750000  1
  Sn  Sn30  1  0.433790  0.380642  0.250000  1
  Sn  Sn31  1  0.936169  0.118019  0.250000  1
  Sn  Sn32  1  0.329799  0.147996  0.750000  1
  Sn  Sn33  1  0.831144  0.352997  0.750000  1
  Sn  Sn34  1  0.669039  0.853281  0.250000  1
  Sn  Sn35  1  0.170423  0.648955  0.250000  1
