# generated using pymatgen
data_Dy3Er2TmFeBi2
_symmetry_space_group_name_H-M   'P 1'
_cell_length_a   8.28345400
_cell_length_b   8.28163230
_cell_length_c   4.17119100
_cell_angle_alpha   90.00000000
_cell_angle_beta   90.00000000
_cell_angle_gamma   120.00727677
_symmetry_Int_Tables_number   1
_chemical_formula_structural   Dy3Er2TmFeBi2
_chemical_formula_sum   'Dy3 Er2 Tm1 Fe1 Bi2'
_cell_volume   247.79142196
_cell_formula_units_Z   1
loop_
 _symmetry_equiv_pos_site_id
 _symmetry_equiv_pos_as_xyz
  1  'x, y, z'
loop_
 _atom_site_type_symbol
 _atom_site_label
 _atom_site_symmetry_multiplicity
 _atom_site_fract_x
 _atom_site_fract_y
 _atom_site_fract_z
 _atom_site_occupancy
  Dy  Dy0  1  0.607742  0.000000  0.000000  1
  Dy  Dy1  1  0.000148  0.608166  0.000000  1
  Dy  Dy2  1  0.391983  0.391834  0.000000  1
  Er  Er3  1  0.000078  0.229567  0.500000  1
  Er  Er4  1  0.770511  0.770433  0.500000  1
  Tm  Tm5  1  0.229111  0.000000  0.500000  1
  Fe  Fe6  1  0.000643  0.000000  0.000000  1
  Bi  Bi7  1  0.333342  0.666899  0.500000  1
  Bi  Bi8  1  0.666443  0.333101  0.500000  1
