# generated using pymatgen
data_Rb4Ca(AsS4)2
_symmetry_space_group_name_H-M   'P 1'
_cell_length_a   9.38448650
_cell_length_b   9.58760008
_cell_length_c   11.64617284
_cell_angle_alpha   106.22668978
_cell_angle_beta   103.93685152
_cell_angle_gamma   93.57070085
_symmetry_Int_Tables_number   1
_chemical_formula_structural   Rb4Ca(AsS4)2
_chemical_formula_sum   'Rb8 Ca2 As4 S16'
_cell_volume   967.01283258
_cell_formula_units_Z   2
loop_
 _symmetry_equiv_pos_site_id
 _symmetry_equiv_pos_as_xyz
  1  'x, y, z'
loop_
 _atom_site_type_symbol
 _atom_site_label
 _atom_site_symmetry_multiplicity
 _atom_site_fract_x
 _atom_site_fract_y
 _atom_site_fract_z
 _atom_site_occupancy
  Rb  Rb0  1  0.942330  0.517293  0.257388  1
  Rb  Rb1  1  0.057670  0.482707  0.742612  1
  Rb  Rb2  1  0.767979  0.994505  0.469270  1
  Rb  Rb3  1  0.232021  0.005495  0.530730  1
  Rb  Rb4  1  0.600537  0.737208  0.026407  1
  Rb  Rb5  1  0.399463  0.262792  0.973593  1
  Rb  Rb6  1  0.621923  0.678434  0.615070  1
  Rb  Rb7  1  0.378077  0.321566  0.384930  1
  Ca  Ca8  1  0.850135  0.139843  0.923814  1
  Ca  Ca9  1  0.149865  0.860157  0.076186  1
  As  As10  1  0.948900  0.111297  0.232237  1
  As  As11  1  0.051100  0.888703  0.767763  1
  As  As12  1  0.373621  0.678290  0.258245  1
  As  As13  1  0.626379  0.321710  0.741755  1
  S  S14  1  0.956138  0.882995  0.232840  1
  S  S15  1  0.043862  0.117005  0.767160  1
  S  S16  1  0.579221  0.089579  0.736691  1
  S  S17  1  0.420779  0.910421  0.263309  1
  S  S18  1  0.293088  0.664423  0.415436  1
  S  S19  1  0.706912  0.335577  0.584564  1
  S  S20  1  0.801206  0.426559  0.916852  1
  S  S21  1  0.198794  0.573441  0.083148  1
  S  S22  1  0.017622  0.256122  0.420051  1
  S  S23  1  0.982378  0.743878  0.579949  1
  S  S24  1  0.105012  0.165641  0.129014  1
  S  S25  1  0.894988  0.834359  0.870986  1
  S  S26  1  0.730161  0.136182  0.126944  1
  S  S27  1  0.269839  0.863818  0.873056  1
  S  S28  1  0.571330  0.569887  0.258450  1
  S  S29  1  0.428670  0.430113  0.741550  1
