# generated using pymatgen
data_Ce3Er9Tc3Pt
_symmetry_space_group_name_H-M   'P 1'
_cell_length_a   6.39717900
_cell_length_b   7.14451817
_cell_length_c   9.43111800
_cell_angle_alpha   90.00000000
_cell_angle_beta   90.00000000
_cell_angle_gamma   90.68673001
_symmetry_Int_Tables_number   1
_chemical_formula_structural   Ce3Er9Tc3Pt
_chemical_formula_sum   'Ce3 Er9 Tc3 Pt1'
_cell_volume   431.01603898
_cell_formula_units_Z   1
loop_
 _symmetry_equiv_pos_site_id
 _symmetry_equiv_pos_as_xyz
  1  'x, y, z'
loop_
 _atom_site_type_symbol
 _atom_site_label
 _atom_site_symmetry_multiplicity
 _atom_site_fract_x
 _atom_site_fract_y
 _atom_site_fract_z
 _atom_site_occupancy
  Ce  Ce0  1  0.863908  0.558626  0.250000  1
  Ce  Ce1  1  0.629956  0.053386  0.250000  1
  Ce  Ce2  1  0.127295  0.435711  0.750000  1
  Er  Er3  1  0.326203  0.678300  0.062407  1
  Er  Er4  1  0.166475  0.177725  0.436505  1
  Er  Er5  1  0.667381  0.322362  0.558994  1
  Er  Er6  1  0.833328  0.822558  0.935296  1
  Er  Er7  1  0.667381  0.322362  0.941006  1
  Er  Er8  1  0.833328  0.822558  0.564704  1
  Er  Er9  1  0.326203  0.678300  0.437593  1
  Er  Er10  1  0.166475  0.177725  0.063495  1
  Er  Er11  1  0.376340  0.969449  0.750000  1
  Tc  Tc12  1  0.006192  0.863645  0.250000  1
  Tc  Tc13  1  0.493903  0.361301  0.250000  1
  Tc  Tc14  1  0.970577  0.141053  0.750000  1
  Pt  Pt15  1  0.545061  0.614936  0.750000  1
