# generated using pymatgen
data_TlRu3F18
_symmetry_space_group_name_H-M   'P 1'
_cell_length_a   9.48716700
_cell_length_b   9.48716757
_cell_length_c   8.65390000
_cell_angle_alpha   90.00000000
_cell_angle_beta   90.00000000
_cell_angle_gamma   120.00000150
_symmetry_Int_Tables_number   1
_chemical_formula_structural   TlRu3F18
_chemical_formula_sum   'Tl2 Ru6 F36'
_cell_volume   674.55227975
_cell_formula_units_Z   2
loop_
 _symmetry_equiv_pos_site_id
 _symmetry_equiv_pos_as_xyz
  1  'x, y, z'
loop_
 _atom_site_type_symbol
 _atom_site_label
 _atom_site_symmetry_multiplicity
 _atom_site_fract_x
 _atom_site_fract_y
 _atom_site_fract_z
 _atom_site_occupancy
  Tl  Tl0  1  0.333333  0.666667  0.577497  1
  Tl  Tl1  1  0.666667  0.333333  0.422503  1
  Ru  Ru2  1  0.980936  0.346697  0.758140  1
  Ru  Ru3  1  0.365761  0.019064  0.758140  1
  Ru  Ru4  1  0.653303  0.634239  0.758140  1
  Ru  Ru5  1  0.019064  0.653303  0.241860  1
  Ru  Ru6  1  0.634239  0.980936  0.241860  1
  Ru  Ru7  1  0.346697  0.365761  0.241860  1
  F  F8  1  0.465182  0.864006  0.400987  1
  F  F9  1  0.398823  0.534818  0.400987  1
  F  F10  1  0.135994  0.601177  0.400987  1
  F  F11  1  0.534818  0.135994  0.599013  1
  F  F12  1  0.601177  0.465182  0.599013  1
  F  F13  1  0.864006  0.398823  0.599013  1
  F  F14  1  0.102278  0.313735  0.905390  1
  F  F15  1  0.211457  0.897722  0.905390  1
  F  F16  1  0.686265  0.788543  0.905390  1
  F  F17  1  0.897722  0.686265  0.094610  1
  F  F18  1  0.788543  0.102278  0.094610  1
  F  F19  1  0.313735  0.211457  0.094610  1
  F  F20  1  0.855613  0.374410  0.906697  1
  F  F21  1  0.518798  0.144387  0.906697  1
  F  F22  1  0.625590  0.481202  0.906697  1
  F  F23  1  0.144387  0.625590  0.093303  1
  F  F24  1  0.481202  0.855613  0.093303  1
  F  F25  1  0.374410  0.518798  0.093303  1
  F  F26  1  0.230985  0.875940  0.597103  1
  F  F27  1  0.644955  0.769015  0.597103  1
  F  F28  1  0.124060  0.355045  0.597103  1
  F  F29  1  0.769015  0.124060  0.402897  1
  F  F30  1  0.355045  0.230985  0.402897  1
  F  F31  1  0.875940  0.644955  0.402897  1
  F  F32  1  0.837173  0.126061  0.737584  1
  F  F33  1  0.288889  0.162827  0.737584  1
  F  F34  1  0.873939  0.711111  0.737584  1
  F  F35  1  0.162827  0.873939  0.262416  1
  F  F36  1  0.711111  0.837173  0.262416  1
  F  F37  1  0.126061  0.288889  0.262416  1
  F  F38  1  0.134371  0.583725  0.759461  1
  F  F39  1  0.449354  0.865629  0.759461  1
  F  F40  1  0.416275  0.550646  0.759461  1
  F  F41  1  0.865629  0.416275  0.240539  1
  F  F42  1  0.550646  0.134371  0.240539  1
  F  F43  1  0.583725  0.449354  0.240539  1
