# generated using pymatgen
data_Ta12V6Rh6C3N
_symmetry_space_group_name_H-M   'P 1'
_cell_length_a   8.28131435
_cell_length_b   8.31112662
_cell_length_c   8.31112626
_cell_angle_alpha   119.84526610
_cell_angle_beta   120.29387579
_cell_angle_gamma   89.98359056
_symmetry_Int_Tables_number   1
_chemical_formula_structural   Ta12V6Rh6C3N
_chemical_formula_sum   'Ta12 V6 Rh6 C3 N1'
_cell_volume   403.68640055
_cell_formula_units_Z   1
loop_
 _symmetry_equiv_pos_site_id
 _symmetry_equiv_pos_as_xyz
  1  'x, y, z'
loop_
 _atom_site_type_symbol
 _atom_site_label
 _atom_site_symmetry_multiplicity
 _atom_site_fract_x
 _atom_site_fract_y
 _atom_site_fract_z
 _atom_site_occupancy
  Ta  Ta0  1  0.068857  0.568719  0.500138  1
  Ta  Ta1  1  0.684788  0.185994  0.498794  1
  Ta  Ta2  1  0.063595  0.180408  0.497273  1
  Ta  Ta3  1  0.682305  0.566496  0.501221  1
  Ta  Ta4  1  0.682305  0.181083  0.115808  1
  Ta  Ta5  1  0.063595  0.566322  0.883187  1
  Ta  Ta6  1  0.441567  0.441594  0.999973  1
  Ta  Ta7  1  0.816022  0.815318  0.000704  1
  Ta  Ta8  1  0.437451  0.811953  0.995665  1
  Ta  Ta9  1  0.816873  0.441332  0.004596  1
  Ta  Ta10  1  0.816873  0.812277  0.375540  1
  Ta  Ta11  1  0.437451  0.441786  0.625500  1
  V  V12  1  0.749077  0.999933  0.749145  1
  V  V13  1  0.250795  0.000226  0.250569  1
  V  V14  1  0.250908  0.500281  0.249485  1
  V  V15  1  0.250908  0.001423  0.750628  1
  V  V16  1  0.124994  0.790664  0.334329  1
  V  V17  1  0.457415  0.791246  0.666170  1
  Rh  Rh18  1  0.454913  0.118154  0.662399  1
  Rh  Rh19  1  0.454913  0.792515  0.336760  1
  Rh  Rh20  1  0.375129  0.207854  0.167275  1
  Rh  Rh21  1  0.041148  0.208471  0.832677  1
  Rh  Rh22  1  0.040923  0.868529  0.829496  1
  Rh  Rh23  1  0.040923  0.211428  0.172394  1
  C  C24  1  0.748657  0.499195  0.249461  1
  C  C25  1  0.748709  0.999050  0.250122  1
  C  C26  1  0.748709  0.498588  0.749659  1
  N  N27  1  0.250196  0.499164  0.751032  1
