# generated using pymatgen
data_Tm4Sn2As4Rh7
_symmetry_space_group_name_H-M   'P 1'
_cell_length_a   7.38155840
_cell_length_b   7.33872879
_cell_length_c   7.33872738
_cell_angle_alpha   108.96830724
_cell_angle_beta   109.60413038
_cell_angle_gamma   109.60412465
_symmetry_Int_Tables_number   1
_chemical_formula_structural   Tm4Sn2As4Rh7
_chemical_formula_sum   'Tm4 Sn2 As4 Rh7'
_cell_volume   306.91543194
_cell_formula_units_Z   1
loop_
 _symmetry_equiv_pos_site_id
 _symmetry_equiv_pos_as_xyz
  1  'x, y, z'
loop_
 _atom_site_type_symbol
 _atom_site_label
 _atom_site_symmetry_multiplicity
 _atom_site_fract_x
 _atom_site_fract_y
 _atom_site_fract_z
 _atom_site_occupancy
  Tm  Tm0  1  0.463131  0.458365  0.458365  1
  Tm  Tm1  1  0.008734  0.504367  0.004367  1
  Tm  Tm2  1  0.463131  0.004766  0.004766  1
  Tm  Tm3  1  0.008734  0.004367  0.504367  1
  Sn  Sn4  1  0.691781  0.989656  0.702124  1
  Sn  Sn5  1  0.691781  0.702124  0.989656  1
  As  As6  1  0.329970  0.335672  0.994298  1
  As  As7  1  0.988964  0.673866  0.673866  1
  As  As8  1  0.988964  0.315098  0.315098  1
  As  As9  1  0.329970  0.994298  0.335672  1
  Rh  Rh10  1  0.500223  0.750111  0.250111  1
  Rh  Rh11  1  0.749928  0.249875  0.500054  1
  Rh  Rh12  1  0.241582  0.742419  0.499162  1
  Rh  Rh13  1  0.241582  0.499162  0.742419  1
  Rh  Rh14  1  0.051376  0.025688  0.025688  1
  Rh  Rh15  1  0.500223  0.250111  0.750111  1
  Rh  Rh16  1  0.749928  0.500054  0.249875  1
