# generated using pymatgen
data_Er8Zr10Ti2Si15Sn
_symmetry_space_group_name_H-M   'P 1'
_cell_length_a   7.32467573
_cell_length_b   7.29092616
_cell_length_c   13.42172888
_cell_angle_alpha   90.00784878
_cell_angle_beta   89.81435974
_cell_angle_gamma   89.91636481
_symmetry_Int_Tables_number   1
_chemical_formula_structural   Er8Zr10Ti2Si15Sn
_chemical_formula_sum   'Er8 Zr10 Ti2 Si15 Sn1'
_cell_volume   716.76504589
_cell_formula_units_Z   1
loop_
 _symmetry_equiv_pos_site_id
 _symmetry_equiv_pos_as_xyz
  1  'x, y, z'
loop_
 _atom_site_type_symbol
 _atom_site_label
 _atom_site_symmetry_multiplicity
 _atom_site_fract_x
 _atom_site_fract_y
 _atom_site_fract_z
 _atom_site_occupancy
  Er  Er0  1  0.345389  0.000969  0.459837  1
  Er  Er1  1  0.504901  0.838362  0.716378  1
  Er  Er2  1  0.503409  0.155973  0.214914  1
  Er  Er3  1  0.845491  0.497430  0.284309  1
  Er  Er4  1  0.153990  0.508507  0.787770  1
  Er  Er5  1  0.659433  0.995389  0.967356  1
  Er  Er6  1  0.993208  0.352148  0.529887  1
  Er  Er7  1  0.998130  0.655549  0.036449  1
  Zr  Zr8  1  0.324887  0.323444  0.001729  1
  Zr  Zr9  1  0.172595  0.827361  0.249265  1
  Zr  Zr10  1  0.820516  0.172323  0.751600  1
  Zr  Zr11  1  0.674051  0.677040  0.499841  1
  Zr  Zr12  1  0.148377  0.002340  0.880412  1
  Zr  Zr13  1  0.497669  0.646632  0.125730  1
  Zr  Zr14  1  0.509911  0.358822  0.626037  1
  Zr  Zr15  1  0.651964  0.497317  0.877056  1
  Zr  Zr16  1  0.349167  0.505270  0.374609  1
  Zr  Zr17  1  0.850662  0.998557  0.374533  1
  Ti  Ti18  1  0.010132  0.149127  0.124221  1
  Ti  Ti19  1  0.978294  0.838655  0.619692  1
  Si  Si20  1  0.362521  0.705388  0.934243  1
  Si  Si21  1  0.636132  0.294227  0.431780  1
  Si  Si22  1  0.713902  0.357564  0.070507  1
  Si  Si23  1  0.286778  0.643006  0.569286  1
  Si  Si24  1  0.797628  0.869441  0.180338  1
  Si  Si25  1  0.137102  0.205396  0.312838  1
  Si  Si26  1  0.863599  0.796143  0.814180  1
  Si  Si27  1  0.294382  0.953077  0.066055  1
  Si  Si28  1  0.550811  0.796422  0.311865  1
  Si  Si29  1  0.456890  0.202936  0.817611  1
  Si  Si30  1  0.800890  0.552117  0.687244  1
  Si  Si31  1  0.201384  0.446764  0.185939  1
  Si  Si32  1  0.705115  0.048225  0.564313  1
  Si  Si33  1  0.951907  0.293941  0.940600  1
  Si  Si34  1  0.048559  0.708720  0.438285  1
  Sn  Sn35  1  0.200223  0.125421  0.673292  1
