# generated using pymatgen
data_Pr16Ho4Sn11Bi5
_symmetry_space_group_name_H-M   'P 1'
_cell_length_a   8.38691852
_cell_length_b   8.44764603
_cell_length_c   16.20133500
_cell_angle_alpha   90.09341479
_cell_angle_beta   90.34212681
_cell_angle_gamma   89.91673161
_symmetry_Int_Tables_number   1
_chemical_formula_structural   Pr16Ho4Sn11Bi5
_chemical_formula_sum   'Pr16 Ho4 Sn11 Bi5'
_cell_volume   1147.83684580
_cell_formula_units_Z   1
loop_
 _symmetry_equiv_pos_site_id
 _symmetry_equiv_pos_as_xyz
  1  'x, y, z'
loop_
 _atom_site_type_symbol
 _atom_site_label
 _atom_site_symmetry_multiplicity
 _atom_site_fract_x
 _atom_site_fract_y
 _atom_site_fract_z
 _atom_site_occupancy
  Pr  Pr0  1  0.392106  0.838675  0.880299  1
  Pr  Pr1  1  0.892160  0.660573  0.619318  1
  Pr  Pr2  1  0.607498  0.159689  0.380250  1
  Pr  Pr3  1  0.104430  0.337899  0.119110  1
  Pr  Pr4  1  0.609906  0.164753  0.119821  1
  Pr  Pr5  1  0.113722  0.336507  0.382467  1
  Pr  Pr6  1  0.384919  0.838465  0.618315  1
  Pr  Pr7  1  0.888958  0.659108  0.881469  1
  Pr  Pr8  1  0.559057  0.332823  0.891118  1
  Pr  Pr9  1  0.056303  0.174509  0.606997  1
  Pr  Pr10  1  0.444391  0.674152  0.393374  1
  Pr  Pr11  1  0.944062  0.823632  0.110038  1
  Pr  Pr12  1  0.450412  0.667765  0.109043  1
  Pr  Pr13  1  0.957995  0.827029  0.394020  1
  Pr  Pr14  1  0.541814  0.328204  0.605478  1
  Pr  Pr15  1  0.052122  0.174463  0.890966  1
  Ho  Ho16  1  0.221672  0.499884  0.745664  1
  Ho  Ho17  1  0.721977  0.002544  0.748692  1
  Ho  Ho18  1  0.778425  0.499779  0.248102  1
  Ho  Ho19  1  0.278226  0.997879  0.253788  1
  Sn  Sn20  1  0.228039  0.523527  0.547767  1
  Sn  Sn21  1  0.272228  0.022082  0.452159  1
  Sn  Sn22  1  0.768236  0.481295  0.048760  1
  Sn  Sn23  1  0.587547  0.627935  0.748972  1
  Sn  Sn24  1  0.086974  0.873941  0.751320  1
  Sn  Sn25  1  0.410826  0.372663  0.250080  1
  Sn  Sn26  1  0.912312  0.125520  0.251010  1
  Sn  Sn27  1  0.355879  0.143759  0.750829  1
  Sn  Sn28  1  0.854447  0.357442  0.748493  1
  Sn  Sn29  1  0.645946  0.856338  0.251284  1
  Sn  Sn30  1  0.145779  0.640158  0.250362  1
  Bi  Bi31  1  0.266786  0.014438  0.049517  1
  Bi  Bi32  1  0.769008  0.480611  0.451453  1
  Bi  Bi33  1  0.730668  0.981208  0.548029  1
  Bi  Bi34  1  0.232651  0.517182  0.950740  1
  Bi  Bi35  1  0.732517  0.983575  0.950895  1
