# generated using pymatgen
data_YbEr7Si8(PdPt)4
_symmetry_space_group_name_H-M   'P 1'
_cell_length_a   4.28314200
_cell_length_b   7.45659717
_cell_length_c   13.90173410
_cell_angle_alpha   89.94363751
_cell_angle_beta   90.00000000
_cell_angle_gamma   90.00000000
_symmetry_Int_Tables_number   1
_chemical_formula_structural   YbEr7Si8(PdPt)4
_chemical_formula_sum   'Yb1 Er7 Si8 Pd4 Pt4'
_cell_volume   443.98870537
_cell_formula_units_Z   1
loop_
 _symmetry_equiv_pos_site_id
 _symmetry_equiv_pos_as_xyz
  1  'x, y, z'
loop_
 _atom_site_type_symbol
 _atom_site_label
 _atom_site_symmetry_multiplicity
 _atom_site_fract_x
 _atom_site_fract_y
 _atom_site_fract_z
 _atom_site_occupancy
  Yb  Yb0  1  0.000000  0.206535  0.248893  1
  Er  Er1  1  0.000000  0.300013  0.000573  1
  Er  Er2  1  0.500000  0.699704  0.500088  1
  Er  Er3  1  0.000000  0.293265  0.499095  1
  Er  Er4  1  0.500000  0.707702  0.000497  1
  Er  Er5  1  0.500000  0.796724  0.250790  1
  Er  Er6  1  0.000000  0.206033  0.748799  1
  Er  Er7  1  0.500000  0.793139  0.750151  1
  Si  Si8  1  0.000000  0.906736  0.591921  1
  Si  Si9  1  0.500000  0.092831  0.906184  1
  Si  Si10  1  0.000000  0.904709  0.407051  1
  Si  Si11  1  0.500000  0.090071  0.090502  1
  Si  Si12  1  0.000000  0.595409  0.148273  1
  Si  Si13  1  0.500000  0.410352  0.357239  1
  Si  Si14  1  0.000000  0.594660  0.856815  1
  Si  Si15  1  0.500000  0.405172  0.641572  1
  Pd  Pd16  1  0.500000  0.078408  0.394267  1
  Pd  Pd17  1  0.500000  0.419730  0.154915  1
  Pd  Pd18  1  0.500000  0.420528  0.842736  1
  Pd  Pd19  1  0.000000  0.577983  0.659859  1
  Pt  Pt20  1  0.500000  0.073713  0.609831  1
  Pt  Pt21  1  0.000000  0.925177  0.890116  1
  Pt  Pt22  1  0.000000  0.922205  0.106654  1
  Pt  Pt23  1  0.000000  0.579201  0.343178  1
