# generated using pymatgen
data_Sm3Dy3Al24(Ru3Au)2
_symmetry_space_group_name_H-M   'P 1'
_cell_length_a   8.92378808
_cell_length_b   8.87374769
_cell_length_c   9.62581347
_cell_angle_alpha   90.00000158
_cell_angle_beta   90.07531437
_cell_angle_gamma   119.81467277
_symmetry_Int_Tables_number   1
_chemical_formula_structural   Sm3Dy3Al24(Ru3Au)2
_chemical_formula_sum   'Sm3 Dy3 Al24 Ru6 Au2'
_cell_volume   661.35084021
_cell_formula_units_Z   1
loop_
 _symmetry_equiv_pos_site_id
 _symmetry_equiv_pos_as_xyz
  1  'x, y, z'
loop_
 _atom_site_type_symbol
 _atom_site_label
 _atom_site_symmetry_multiplicity
 _atom_site_fract_x
 _atom_site_fract_y
 _atom_site_fract_z
 _atom_site_occupancy
  Sm  Sm0  1  0.190419  0.808197  0.247229  1
  Sm  Sm1  1  0.190419  0.382222  0.247229  1
  Sm  Sm2  1  0.618403  0.809201  0.252766  1
  Dy  Dy3  1  0.808538  0.194558  0.753416  1
  Dy  Dy4  1  0.808538  0.613980  0.753416  1
  Dy  Dy5  1  0.384869  0.192434  0.748246  1
  Al  Al6  1  0.565325  0.436120  0.242101  1
  Al  Al7  1  0.565325  0.129205  0.242101  1
  Al  Al8  1  0.877254  0.438627  0.250381  1
  Al  Al9  1  0.435973  0.563252  0.756791  1
  Al  Al10  1  0.435973  0.872721  0.756791  1
  Al  Al11  1  0.120504  0.560252  0.749794  1
  Al  Al12  1  0.319236  0.159617  0.418726  1
  Al  Al13  1  0.847687  0.171963  0.421491  1
  Al  Al14  1  0.847687  0.675723  0.421491  1
  Al  Al15  1  0.682254  0.841127  0.585078  1
  Al  Al16  1  0.151122  0.828551  0.582391  1
  Al  Al17  1  0.151122  0.322572  0.582391  1
  Al  Al18  1  0.673964  0.836982  0.927192  1
  Al  Al19  1  0.163702  0.836872  0.922956  1
  Al  Al20  1  0.163702  0.326830  0.922956  1
  Al  Al21  1  0.327622  0.163811  0.068618  1
  Al  Al22  1  0.835647  0.163999  0.072959  1
  Al  Al23  1  0.835647  0.671648  0.072959  1
  Al  Al24  1  0.678828  0.339413  0.530776  1
  Al  Al25  1  0.320470  0.660236  0.475804  1
  Al  Al26  1  0.333443  0.666722  0.022500  1
  Al  Al27  1  0.666473  0.333236  0.972316  1
  Al  Al28  1  0.996590  0.998295  0.249090  1
  Al  Al29  1  0.003279  0.001640  0.750998  1
  Ru  Ru30  1  0.000088  0.000044  0.500455  1
  Ru  Ru31  1  0.000044  0.000022  0.999705  1
  Ru  Ru32  1  0.998614  0.499307  0.501768  1
  Ru  Ru33  1  0.500815  0.499520  0.998123  1
  Ru  Ru34  1  0.500815  0.001295  0.998123  1
  Ru  Ru35  1  0.998783  0.499391  0.998231  1
  Au  Au36  1  0.500414  0.499168  0.501321  1
  Au  Au37  1  0.500414  0.001246  0.501321  1
