# generated using pymatgen
data_Nb4Co2Ni(SeS5)2
_symmetry_space_group_name_H-M   'P 1'
_cell_length_a   7.09656329
_cell_length_b   7.09656130
_cell_length_c   18.55787152
_cell_angle_alpha   69.73912171
_cell_angle_beta   69.73912698
_cell_angle_gamma   27.07159937
_symmetry_Int_Tables_number   1
_chemical_formula_structural   Nb4Co2Ni(SeS5)2
_chemical_formula_sum   'Nb4 Co2 Ni1 Se2 S10'
_cell_volume   397.44205805
_cell_formula_units_Z   1
loop_
 _symmetry_equiv_pos_site_id
 _symmetry_equiv_pos_as_xyz
  1  'x, y, z'
loop_
 _atom_site_type_symbol
 _atom_site_label
 _atom_site_symmetry_multiplicity
 _atom_site_fract_x
 _atom_site_fract_y
 _atom_site_fract_z
 _atom_site_occupancy
  Nb  Nb0  1  0.741066  0.741066  0.592626  1
  Nb  Nb1  1  0.259056  0.259056  0.411486  1
  Nb  Nb2  1  0.620049  0.620049  0.855720  1
  Nb  Nb3  1  0.385968  0.385968  0.144167  1
  Co  Co4  1  0.771593  0.771593  0.279431  1
  Co  Co5  1  0.227996  0.227996  0.720723  1
  Ni  Ni6  1  0.004003  0.004003  0.999494  1
  Se  Se7  1  0.192760  0.192760  0.227070  1
  Se  Se8  1  0.624706  0.624706  0.392079  1
  S  S9  1  0.864365  0.864365  0.450765  1
  S  S10  1  0.028668  0.028668  0.110397  1
  S  S11  1  0.798381  0.798381  0.768506  1
  S  S12  1  0.384822  0.384822  0.278586  1
  S  S13  1  0.172940  0.172940  0.934242  1
  S  S14  1  0.612638  0.612638  0.722356  1
  S  S15  1  0.136391  0.136391  0.549791  1
  S  S16  1  0.835667  0.835667  0.064172  1
  S  S17  1  0.361319  0.361319  0.608830  1
  S  S18  1  0.977612  0.977612  0.889558  1
