# generated using pymatgen
data_Hf6Zn23N
_symmetry_space_group_name_H-M   'P 1'
_cell_length_a   8.63528906
_cell_length_b   8.63528792
_cell_length_c   8.63528800
_cell_angle_alpha   59.99999968
_cell_angle_beta   60.00000406
_cell_angle_gamma   60.00000054
_symmetry_Int_Tables_number   1
_chemical_formula_structural   Hf6Zn23N
_chemical_formula_sum   'Hf6 Zn23 N1'
_cell_volume   455.31876052
_cell_formula_units_Z   1
loop_
 _symmetry_equiv_pos_site_id
 _symmetry_equiv_pos_as_xyz
  1  'x, y, z'
loop_
 _atom_site_type_symbol
 _atom_site_label
 _atom_site_symmetry_multiplicity
 _atom_site_fract_x
 _atom_site_fract_y
 _atom_site_fract_z
 _atom_site_occupancy
  Hf  Hf0  1  0.685929  0.314071  0.314071  1
  Hf  Hf1  1  0.314071  0.685929  0.685929  1
  Hf  Hf2  1  0.314071  0.685929  0.314071  1
  Hf  Hf3  1  0.685929  0.314071  0.685929  1
  Hf  Hf4  1  0.314071  0.314071  0.685929  1
  Hf  Hf5  1  0.685929  0.685929  0.314071  1
  Zn  Zn6  1  0.118950  0.118950  0.118950  1
  Zn  Zn7  1  0.881050  0.881050  0.881050  1
  Zn  Zn8  1  0.118950  0.118950  0.643151  1
  Zn  Zn9  1  0.118950  0.643151  0.118950  1
  Zn  Zn10  1  0.881050  0.881050  0.356849  1
  Zn  Zn11  1  0.881050  0.356849  0.881050  1
  Zn  Zn12  1  0.643151  0.118950  0.118950  1
  Zn  Zn13  1  0.356849  0.881050  0.881050  1
  Zn  Zn14  1  0.500000  0.000000  0.000000  1
  Zn  Zn15  1  0.000000  0.500000  0.500000  1
  Zn  Zn16  1  0.000000  0.500000  0.000000  1
  Zn  Zn17  1  0.500000  0.000000  0.500000  1
  Zn  Zn18  1  0.000000  0.000000  0.500000  1
  Zn  Zn19  1  0.500000  0.500000  0.000000  1
  Zn  Zn20  1  0.332376  0.332376  0.332376  1
  Zn  Zn21  1  0.667624  0.667624  0.667624  1
  Zn  Zn22  1  0.332376  0.332376  0.002874  1
  Zn  Zn23  1  0.332376  0.002874  0.332376  1
  Zn  Zn24  1  0.667624  0.667624  0.997126  1
  Zn  Zn25  1  0.667624  0.997126  0.667624  1
  Zn  Zn26  1  0.002874  0.332376  0.332376  1
  Zn  Zn27  1  0.997126  0.667624  0.667624  1
  Zn  Zn28  1  0.000000  0.000000  0.000000  1
  N  N29  1  0.500000  0.500000  0.500000  1
