# generated using pymatgen
data_Ho9Tm3InCo4Pt
_symmetry_space_group_name_H-M   'P 1'
_cell_length_a   8.25930874
_cell_length_b   8.25758964
_cell_length_c   8.25930810
_cell_angle_alpha   111.14692770
_cell_angle_beta   110.44938562
_cell_angle_gamma   106.85764165
_symmetry_Int_Tables_number   1
_chemical_formula_structural   Ho9Tm3InCo4Pt
_chemical_formula_sum   'Ho9 Tm3 In1 Co4 Pt1'
_cell_volume   432.89433395
_cell_formula_units_Z   1
loop_
 _symmetry_equiv_pos_site_id
 _symmetry_equiv_pos_as_xyz
  1  'x, y, z'
loop_
 _atom_site_type_symbol
 _atom_site_label
 _atom_site_symmetry_multiplicity
 _atom_site_fract_x
 _atom_site_fract_y
 _atom_site_fract_z
 _atom_site_occupancy
  Ho  Ho0  1  0.684611  0.989395  0.304782  1
  Ho  Ho1  1  0.187214  0.292068  0.478236  1
  Ho  Ho2  1  0.813720  0.708071  0.522406  1
  Ho  Ho3  1  0.185665  0.708071  0.894352  1
  Ho  Ho4  1  0.813832  0.292068  0.104853  1
  Ho  Ho5  1  0.413888  0.215920  0.198672  1
  Ho  Ho6  1  0.585404  0.784214  0.800445  1
  Ho  Ho7  1  0.017249  0.215920  0.802032  1
  Ho  Ho8  1  0.983769  0.784214  0.198810  1
  Tm  Tm9  1  0.315543  0.621524  0.305980  1
  Tm  Tm10  1  0.683877  0.378366  0.694490  1
  Tm  Tm11  1  0.315907  0.009998  0.694092  1
  In  In12  1  0.499716  0.499234  0.999518  1
  Co  Co13  1  0.112721  0.612638  0.499917  1
  Co  Co14  1  0.887925  0.388297  0.500372  1
  Co  Co15  1  0.379262  0.999970  0.380213  1
  Co  Co16  1  0.619756  0.999970  0.620708  1
  Pt  Pt17  1  0.999940  0.000061  0.000121  1
