# generated using pymatgen
data_Y17Er3(Bi2Ru)4
_symmetry_space_group_name_H-M   'P 1'
_cell_length_a   7.98570909
_cell_length_b   9.02118360
_cell_length_c   12.52651635
_cell_angle_alpha   90.02719598
_cell_angle_beta   90.00103220
_cell_angle_gamma   90.08280023
_symmetry_Int_Tables_number   1
_chemical_formula_structural   Y17Er3(Bi2Ru)4
_chemical_formula_sum   'Y17 Er3 Bi8 Ru4'
_cell_volume   902.41605730
_cell_formula_units_Z   1
loop_
 _symmetry_equiv_pos_site_id
 _symmetry_equiv_pos_as_xyz
  1  'x, y, z'
loop_
 _atom_site_type_symbol
 _atom_site_label
 _atom_site_symmetry_multiplicity
 _atom_site_fract_x
 _atom_site_fract_y
 _atom_site_fract_z
 _atom_site_occupancy
  Y  Y0  1  0.660652  0.750806  0.708432  1
  Y  Y1  1  0.339537  0.249221  0.291886  1
  Y  Y2  1  0.160670  0.249340  0.791404  1
  Y  Y3  1  0.839091  0.750306  0.208366  1
  Y  Y4  1  0.127156  0.750527  0.809640  1
  Y  Y5  1  0.871961  0.249294  0.190132  1
  Y  Y6  1  0.627601  0.248687  0.690101  1
  Y  Y7  1  0.372272  0.751120  0.310079  1
  Y  Y8  1  0.554077  0.751108  0.995693  1
  Y  Y9  1  0.447110  0.249226  0.004005  1
  Y  Y10  1  0.053570  0.248032  0.504285  1
  Y  Y11  1  0.946338  0.751890  0.495843  1
  Y  Y12  1  0.825528  0.458724  0.933716  1
  Y  Y13  1  0.174432  0.541292  0.066194  1
  Y  Y14  1  0.325717  0.541273  0.566054  1
  Y  Y15  1  0.174550  0.958513  0.066380  1
  Y  Y16  1  0.674465  0.458703  0.433982  1
  Er  Er17  1  0.828504  0.041644  0.934417  1
  Er  Er18  1  0.671661  0.041600  0.434474  1
  Er  Er19  1  0.328385  0.958277  0.565588  1
  Bi  Bi20  1  0.934822  0.006105  0.672896  1
  Bi  Bi21  1  0.064703  0.993880  0.327261  1
  Bi  Bi22  1  0.434403  0.993795  0.827499  1
  Bi  Bi23  1  0.065806  0.506116  0.327739  1
  Bi  Bi24  1  0.565822  0.006331  0.172920  1
  Bi  Bi25  1  0.933875  0.493653  0.672139  1
  Bi  Bi26  1  0.565595  0.493843  0.172582  1
  Bi  Bi27  1  0.434081  0.506146  0.827371  1
  Ru  Ru28  1  0.925827  0.751735  0.989629  1
  Ru  Ru29  1  0.071749  0.248898  0.009062  1
  Ru  Ru30  1  0.427550  0.247245  0.509666  1
  Ru  Ru31  1  0.572490  0.752668  0.490564  1
