# generated using pymatgen
data_LuPa(CoSb)2
_symmetry_space_group_name_H-M   'P 1'
_cell_length_a   6.32378600
_cell_length_b   4.46152100
_cell_length_c   8.90132300
_cell_angle_alpha   90.00000000
_cell_angle_beta   90.00000000
_cell_angle_gamma   90.00000000
_symmetry_Int_Tables_number   1
_chemical_formula_structural   LuPa(CoSb)2
_chemical_formula_sum   'Lu2 Pa2 Co4 Sb4'
_cell_volume   251.13929267
_cell_formula_units_Z   2
loop_
 _symmetry_equiv_pos_site_id
 _symmetry_equiv_pos_as_xyz
  1  'x, y, z'
loop_
 _atom_site_type_symbol
 _atom_site_label
 _atom_site_symmetry_multiplicity
 _atom_site_fract_x
 _atom_site_fract_y
 _atom_site_fract_z
 _atom_site_occupancy
  Lu  Lu0  1  0.007046  0.000000  0.374123  1
  Lu  Lu1  1  0.507045  0.500001  0.625877  1
  Pa  Pa2  1  0.487572  0.500001  0.127046  1
  Pa  Pa3  1  0.987572  0.000000  0.872954  1
  Co  Co4  1  0.738318  0.000000  0.115387  1
  Co  Co5  1  0.273104  0.500001  0.353872  1
  Co  Co6  1  0.773103  0.000000  0.646128  1
  Co  Co7  1  0.238319  0.500001  0.884614  1
  Sb  Sb8  1  0.988726  0.500001  0.133527  1
  Sb  Sb9  1  0.505233  0.000000  0.385081  1
  Sb  Sb10  1  0.005234  0.500001  0.614919  1
  Sb  Sb11  1  0.488726  0.000000  0.866473  1
