# generated using pymatgen
data_Nd3Y9TlZnCo4
_symmetry_space_group_name_H-M   'P 1'
_cell_length_a   8.44269963
_cell_length_b   8.44270436
_cell_length_c   8.41526918
_cell_angle_alpha   106.76369311
_cell_angle_beta   108.94513412
_cell_angle_gamma   112.88632726
_symmetry_Int_Tables_number   1
_chemical_formula_structural   Nd3Y9TlZnCo4
_chemical_formula_sum   'Nd3 Y9 Tl1 Zn1 Co4'
_cell_volume   459.69508059
_cell_formula_units_Z   1
loop_
 _symmetry_equiv_pos_site_id
 _symmetry_equiv_pos_as_xyz
  1  'x, y, z'
loop_
 _atom_site_type_symbol
 _atom_site_label
 _atom_site_symmetry_multiplicity
 _atom_site_fract_x
 _atom_site_fract_y
 _atom_site_fract_z
 _atom_site_occupancy
  Nd  Nd0  1  0.698702  0.267730  0.966432  1
  Nd  Nd1  1  0.299975  0.731502  0.031478  1
  Nd  Nd2  1  0.697709  0.733288  0.430997  1
  Y  Y3  1  0.298242  0.264206  0.562449  1
  Y  Y4  1  0.816513  0.143161  0.330378  1
  Y  Y5  1  0.811483  0.486908  0.671892  1
  Y  Y6  1  0.184983  0.860408  0.671892  1
  Y  Y7  1  0.187216  0.513864  0.330377  1
  Y  Y8  1  0.604985  0.781278  0.823280  1
  Y  Y9  1  0.960793  0.782624  0.178059  1
  Y  Y10  1  0.042002  0.218295  0.823280  1
  Y  Y11  1  0.395436  0.217266  0.178059  1
  Tl  Tl12  1  0.496832  0.002052  0.498884  1
  Zn  Zn13  1  0.495528  0.494438  0.989966  1
  Co  Co14  1  0.837184  0.500335  0.337519  1
  Co  Co15  1  0.165002  0.499567  0.664571  1
  Co  Co16  1  0.010379  0.114371  0.124750  1
  Co  Co17  1  0.997036  0.888705  0.885740  1
