# generated using pymatgen
data_HoTm3B12RhW
_symmetry_space_group_name_H-M   'P 1'
_cell_length_a   3.61556800
_cell_length_b   9.15112820
_cell_length_c   11.56290809
_cell_angle_alpha   90.44218537
_cell_angle_beta   90.00000000
_cell_angle_gamma   90.00000000
_symmetry_Int_Tables_number   1
_chemical_formula_structural   HoTm3B12RhW
_chemical_formula_sum   'Ho2 Tm6 B24 Rh2 W2'
_cell_volume   382.56506933
_cell_formula_units_Z   2
loop_
 _symmetry_equiv_pos_site_id
 _symmetry_equiv_pos_as_xyz
  1  'x, y, z'
loop_
 _atom_site_type_symbol
 _atom_site_label
 _atom_site_symmetry_multiplicity
 _atom_site_fract_x
 _atom_site_fract_y
 _atom_site_fract_z
 _atom_site_occupancy
  Ho  Ho0  1  0.500000  0.319716  0.411959  1
  Ho  Ho1  1  0.500000  0.680284  0.588041  1
  Tm  Tm2  1  0.500000  0.175325  0.916903  1
  Tm  Tm3  1  0.500000  0.824675  0.083097  1
  Tm  Tm4  1  0.500000  0.444350  0.126481  1
  Tm  Tm5  1  0.500000  0.555650  0.873519  1
  Tm  Tm6  1  0.500000  0.055324  0.627755  1
  Tm  Tm7  1  0.500000  0.944676  0.372245  1
  B  B8  1  0.000000  0.106440  0.472189  1
  B  B9  1  0.000000  0.893560  0.527811  1
  B  B10  1  0.000000  0.395026  0.970140  1
  B  B11  1  0.000000  0.604974  0.029860  1
  B  B12  1  0.000000  0.132763  0.318126  1
  B  B13  1  0.000000  0.867237  0.681874  1
  B  B14  1  0.000000  0.367455  0.816374  1
  B  B15  1  0.000000  0.632545  0.183626  1
  B  B16  1  0.000000  0.051396  0.065226  1
  B  B17  1  0.000000  0.948604  0.934774  1
  B  B18  1  0.000000  0.445900  0.565678  1
  B  B19  1  0.000000  0.554100  0.434322  1
  B  B20  1  0.000000  0.484032  0.288107  1
  B  B21  1  0.000000  0.515968  0.711893  1
  B  B22  1  0.000000  0.021252  0.786036  1
  B  B23  1  0.000000  0.978748  0.213964  1
  B  B24  1  0.000000  0.251499  0.078335  1
  B  B25  1  0.000000  0.748501  0.921665  1
  B  B26  1  0.000000  0.250599  0.579333  1
  B  B27  1  0.000000  0.749401  0.420667  1
  B  B28  1  0.000000  0.297256  0.236624  1
  B  B29  1  0.000000  0.702744  0.763376  1
  B  B30  1  0.000000  0.208461  0.734782  1
  B  B31  1  0.000000  0.791539  0.265218  1
  Rh  Rh32  1  0.500000  0.360839  0.679222  1
  Rh  Rh33  1  0.500000  0.639161  0.320778  1
  W  W34  1  0.500000  0.139372  0.180676  1
  W  W35  1  0.500000  0.860628  0.819324  1
