# generated using pymatgen
data_Th8Sc12Si15Br
_symmetry_space_group_name_H-M   'P 1'
_cell_length_a   7.35900438
_cell_length_b   7.45429559
_cell_length_c   14.18192910
_cell_angle_alpha   90.11016202
_cell_angle_beta   89.64052247
_cell_angle_gamma   89.98197355
_symmetry_Int_Tables_number   1
_chemical_formula_structural   Th8Sc12Si15Br
_chemical_formula_sum   'Th8 Sc12 Si15 Br1'
_cell_volume   777.94986140
_cell_formula_units_Z   1
loop_
 _symmetry_equiv_pos_site_id
 _symmetry_equiv_pos_as_xyz
  1  'x, y, z'
loop_
 _atom_site_type_symbol
 _atom_site_label
 _atom_site_symmetry_multiplicity
 _atom_site_fract_x
 _atom_site_fract_y
 _atom_site_fract_z
 _atom_site_occupancy
  Th  Th0  1  0.006317  0.672016  0.595974  1
  Th  Th1  1  0.987992  0.326430  0.400973  1
  Th  Th2  1  0.497395  0.183793  0.400163  1
  Th  Th3  1  0.995135  0.322971  0.096208  1
  Th  Th4  1  0.517523  0.813779  0.598178  1
  Th  Th5  1  0.004598  0.676368  0.904111  1
  Th  Th6  1  0.505465  0.821536  0.904647  1
  Th  Th7  1  0.494778  0.176470  0.095975  1
  Sc  Sc8  1  0.180800  0.996343  0.757810  1
  Sc  Sc9  1  0.819754  0.001408  0.250243  1
  Sc  Sc10  1  0.318696  0.499044  0.248975  1
  Sc  Sc11  1  0.681715  0.502799  0.751034  1
  Sc  Sc12  1  0.363100  0.341954  0.627593  1
  Sc  Sc13  1  0.642095  0.669067  0.374427  1
  Sc  Sc14  1  0.143816  0.828568  0.372367  1
  Sc  Sc15  1  0.648657  0.670096  0.124182  1
  Sc  Sc16  1  0.841000  0.169157  0.623734  1
  Sc  Sc17  1  0.351160  0.329883  0.875349  1
  Sc  Sc18  1  0.850433  0.167950  0.875006  1
  Sc  Sc19  1  0.147985  0.830338  0.124756  1
  Si  Si20  1  0.055873  0.374553  0.747535  1
  Si  Si21  1  0.942934  0.622058  0.249907  1
  Si  Si22  1  0.443899  0.878855  0.250120  1
  Si  Si23  1  0.552441  0.120111  0.748914  1
  Si  Si24  1  0.306369  0.625800  0.750558  1
  Si  Si25  1  0.693475  0.377168  0.248288  1
  Si  Si26  1  0.193705  0.123379  0.250226  1
  Si  Si27  1  0.809862  0.874890  0.749883  1
  Si  Si28  1  0.806095  0.956563  0.455186  1
  Si  Si29  1  0.310675  0.544216  0.458641  1
  Si  Si30  1  0.818754  0.957969  0.042230  1
  Si  Si31  1  0.686494  0.456384  0.541925  1
  Si  Si32  1  0.181014  0.040712  0.958082  1
  Si  Si33  1  0.681907  0.457039  0.957708  1
  Si  Si34  1  0.317830  0.541034  0.042508  1
  Br  Br35  1  0.200259  0.049299  0.546583  1
