# generated using pymatgen
data_Sr2Al10Pd
_symmetry_space_group_name_H-M   'P 1'
_cell_length_a   4.37893146
_cell_length_b   4.37894461
_cell_length_c   14.56533170
_cell_angle_alpha   98.30372928
_cell_angle_beta   98.30363374
_cell_angle_gamma   89.69447958
_symmetry_Int_Tables_number   1
_chemical_formula_structural   Sr2Al10Pd
_chemical_formula_sum   'Sr2 Al10 Pd1'
_cell_volume   273.43208455
_cell_formula_units_Z   1
loop_
 _symmetry_equiv_pos_site_id
 _symmetry_equiv_pos_as_xyz
  1  'x, y, z'
loop_
 _atom_site_type_symbol
 _atom_site_label
 _atom_site_symmetry_multiplicity
 _atom_site_fract_x
 _atom_site_fract_y
 _atom_site_fract_z
 _atom_site_occupancy
  Sr  Sr0  1  0.645813  0.645815  0.293526  1
  Sr  Sr1  1  0.354187  0.354186  0.706475  1
  Al  Al2  1  0.551710  0.046163  0.098175  1
  Al  Al3  1  0.046161  0.551708  0.098175  1
  Al  Al4  1  0.102662  0.102661  0.207507  1
  Al  Al5  1  0.194530  0.194533  0.390769  1
  Al  Al6  1  0.746485  0.253508  0.500000  1
  Al  Al7  1  0.253515  0.746487  0.500000  1
  Al  Al8  1  0.805470  0.805467  0.609231  1
  Al  Al9  1  0.897338  0.897338  0.792493  1
  Al  Al10  1  0.953838  0.448291  0.901824  1
  Al  Al11  1  0.448290  0.953838  0.901824  1
  Pd  Pd12  1  0.499999  0.500002  0.999999  1
