# generated using pymatgen
data_La2Nd3USe10
_symmetry_space_group_name_H-M   'P 1'
_cell_length_a   7.96202480
_cell_length_b   8.52179186
_cell_length_c   12.60645600
_cell_angle_alpha   90.00000000
_cell_angle_beta   90.00000000
_cell_angle_gamma   89.94863393
_symmetry_Int_Tables_number   1
_chemical_formula_structural   La2Nd3USe10
_chemical_formula_sum   'La4 Nd6 U2 Se20'
_cell_volume   855.35674854
_cell_formula_units_Z   2
loop_
 _symmetry_equiv_pos_site_id
 _symmetry_equiv_pos_as_xyz
  1  'x, y, z'
loop_
 _atom_site_type_symbol
 _atom_site_label
 _atom_site_symmetry_multiplicity
 _atom_site_fract_x
 _atom_site_fract_y
 _atom_site_fract_z
 _atom_site_occupancy
  La  La0  1  0.525974  0.501728  0.323095  1
  La  La1  1  0.974026  0.998272  0.823095  1
  La  La2  1  0.479903  0.998497  0.677051  1
  La  La3  1  0.020097  0.501503  0.177051  1
  Nd  Nd4  1  0.481497  0.503407  0.679129  1
  Nd  Nd5  1  0.018503  0.996593  0.179129  1
  Nd  Nd6  1  0.525538  0.000531  0.321325  1
  Nd  Nd7  1  0.974462  0.499469  0.821325  1
  Nd  Nd8  1  0.078700  0.749620  0.491796  1
  Nd  Nd9  1  0.421300  0.750380  0.991796  1
  U  U10  1  0.941155  0.249360  0.505670  1
  U  U11  1  0.558845  0.250640  0.005670  1
  Se  Se12  1  0.838019  0.969593  0.596381  1
  Se  Se13  1  0.661981  0.530407  0.096381  1
  Se  Se14  1  0.163515  0.447317  0.403276  1
  Se  Se15  1  0.336485  0.052683  0.903276  1
  Se  Se16  1  0.165237  0.051729  0.402226  1
  Se  Se17  1  0.334763  0.448271  0.902226  1
  Se  Se18  1  0.835787  0.529612  0.597444  1
  Se  Se19  1  0.664213  0.970388  0.097444  1
  Se  Se20  1  0.824525  0.753287  0.311258  1
  Se  Se21  1  0.675475  0.746713  0.811258  1
  Se  Se22  1  0.169097  0.252633  0.681238  1
  Se  Se23  1  0.330903  0.247367  0.181238  1
  Se  Se24  1  0.462541  0.749904  0.499320  1
  Se  Se25  1  0.037459  0.750096  0.999320  1
  Se  Se26  1  0.550453  0.250168  0.500313  1
  Se  Se27  1  0.949547  0.249832  0.000313  1
  Se  Se28  1  0.199487  0.746269  0.719796  1
  Se  Se29  1  0.300513  0.753731  0.219796  1
  Se  Se30  1  0.807378  0.246540  0.290682  1
  Se  Se31  1  0.692622  0.253460  0.790682  1
