# generated using pymatgen
data_SmTh5SCl15
_symmetry_space_group_name_H-M   'P 1'
_cell_length_a   9.60840381
_cell_length_b   9.60840298
_cell_length_c   9.60840400
_cell_angle_alpha   109.90304482
_cell_angle_beta   109.25574250
_cell_angle_gamma   109.25573895
_symmetry_Int_Tables_number   1
_chemical_formula_structural   SmTh5SCl15
_chemical_formula_sum   'Sm1 Th5 S1 Cl15'
_cell_volume   682.83111844
_cell_formula_units_Z   1
loop_
 _symmetry_equiv_pos_site_id
 _symmetry_equiv_pos_as_xyz
  1  'x, y, z'
loop_
 _atom_site_type_symbol
 _atom_site_label
 _atom_site_symmetry_multiplicity
 _atom_site_fract_x
 _atom_site_fract_y
 _atom_site_fract_z
 _atom_site_occupancy
  Sm  Sm0  1  0.000000  0.244988  0.244988  1
  Th  Th1  1  0.000000  0.752894  0.752894  1
  Th  Th2  1  0.244625  0.000565  0.245190  1
  Th  Th3  1  0.755375  0.000565  0.755941  1
  Th  Th4  1  0.244625  0.245190  0.000565  1
  Th  Th5  1  0.755375  0.755941  0.000565  1
  S  S6  1  0.000000  0.002592  0.002592  1
  Cl  Cl7  1  0.498355  0.249304  0.249304  1
  Cl  Cl8  1  0.501645  0.750948  0.750948  1
  Cl  Cl9  1  0.000000  0.249304  0.750948  1
  Cl  Cl10  1  0.000000  0.750948  0.249304  1
  Cl  Cl11  1  0.247793  0.496973  0.249181  1
  Cl  Cl12  1  0.752207  0.001387  0.249181  1
  Cl  Cl13  1  0.749879  0.499027  0.749148  1
  Cl  Cl14  1  0.250121  0.999270  0.749148  1
  Cl  Cl15  1  0.247793  0.249181  0.496973  1
  Cl  Cl16  1  0.749879  0.749148  0.499027  1
  Cl  Cl17  1  0.752207  0.249181  0.001387  1
  Cl  Cl18  1  0.250121  0.749148  0.999270  1
  Cl  Cl19  1  0.000000  0.503565  0.503565  1
  Cl  Cl20  1  0.500000  0.999941  0.499941  1
  Cl  Cl21  1  0.500000  0.499941  0.999941  1
