# generated using pymatgen
data_Hf4Mn2CuSi4Au
_symmetry_space_group_name_H-M   'P 1'
_cell_length_a   3.81687700
_cell_length_b   6.54213443
_cell_length_c   7.57926010
_cell_angle_alpha   89.29963182
_cell_angle_beta   90.00000000
_cell_angle_gamma   90.00000000
_symmetry_Int_Tables_number   1
_chemical_formula_structural   Hf4Mn2CuSi4Au
_chemical_formula_sum   'Hf4 Mn2 Cu1 Si4 Au1'
_cell_volume   189.24394495
_cell_formula_units_Z   1
loop_
 _symmetry_equiv_pos_site_id
 _symmetry_equiv_pos_as_xyz
  1  'x, y, z'
loop_
 _atom_site_type_symbol
 _atom_site_label
 _atom_site_symmetry_multiplicity
 _atom_site_fract_x
 _atom_site_fract_y
 _atom_site_fract_z
 _atom_site_occupancy
  Hf  Hf0  1  0.250000  0.973315  0.315390  1
  Hf  Hf1  1  0.250000  0.475065  0.172421  1
  Hf  Hf2  1  0.750000  0.020630  0.685098  1
  Hf  Hf3  1  0.750000  0.530333  0.832040  1
  Mn  Mn4  1  0.250000  0.858878  0.938399  1
  Mn  Mn5  1  0.750000  0.138159  0.059124  1
  Cu  Cu6  1  0.750000  0.651170  0.436190  1
  Si  Si7  1  0.250000  0.741779  0.629271  1
  Si  Si8  1  0.250000  0.224787  0.890002  1
  Si  Si9  1  0.750000  0.257324  0.358559  1
  Si  Si10  1  0.750000  0.773298  0.119587  1
  Au  Au11  1  0.250000  0.355259  0.563921  1
