# generated using pymatgen
data_Dy3HoEr4(B6Os)4
_symmetry_space_group_name_H-M   'P 1'
_cell_length_a   3.64131400
_cell_length_b   9.12738200
_cell_length_c   11.50919800
_cell_angle_alpha   89.99756252
_cell_angle_beta   90.00000000
_cell_angle_gamma   90.00000000
_symmetry_Int_Tables_number   1
_chemical_formula_structural   Dy3HoEr4(B6Os)4
_chemical_formula_sum   'Dy3 Ho1 Er4 B24 Os4'
_cell_volume   382.51583585
_cell_formula_units_Z   1
loop_
 _symmetry_equiv_pos_site_id
 _symmetry_equiv_pos_as_xyz
  1  'x, y, z'
loop_
 _atom_site_type_symbol
 _atom_site_label
 _atom_site_symmetry_multiplicity
 _atom_site_fract_x
 _atom_site_fract_y
 _atom_site_fract_z
 _atom_site_occupancy
  Dy  Dy0  1  0.000000  0.677891  0.586161  1
  Dy  Dy1  1  0.000000  0.822092  0.086185  1
  Dy  Dy2  1  0.000000  0.177910  0.913824  1
  Ho  Ho3  1  0.000000  0.322013  0.413870  1
  Er  Er4  1  0.000000  0.944326  0.373075  1
  Er  Er5  1  0.000000  0.055780  0.626882  1
  Er  Er6  1  0.000000  0.444240  0.126981  1
  Er  Er7  1  0.000000  0.555707  0.873069  1
  B  B8  1  0.500000  0.553958  0.433002  1
  B  B9  1  0.500000  0.445840  0.566882  1
  B  B10  1  0.500000  0.054131  0.067046  1
  B  B11  1  0.500000  0.945885  0.932969  1
  B  B12  1  0.500000  0.748562  0.419877  1
  B  B13  1  0.500000  0.251454  0.579933  1
  B  B14  1  0.500000  0.248601  0.080139  1
  B  B15  1  0.500000  0.751397  0.919885  1
  B  B16  1  0.500000  0.791619  0.266639  1
  B  B17  1  0.500000  0.208379  0.733328  1
  B  B18  1  0.500000  0.291708  0.233508  1
  B  B19  1  0.500000  0.708367  0.766624  1
  B  B20  1  0.500000  0.631656  0.185210  1
  B  B21  1  0.500000  0.368322  0.814799  1
  B  B22  1  0.500000  0.131821  0.314912  1
  B  B23  1  0.500000  0.868339  0.685181  1
  B  B24  1  0.500000  0.983298  0.213354  1
  B  B25  1  0.500000  0.016745  0.786658  1
  B  B26  1  0.500000  0.483075  0.286752  1
  B  B27  1  0.500000  0.516723  0.713304  1
  B  B28  1  0.500000  0.606958  0.029600  1
  B  B29  1  0.500000  0.393041  0.970404  1
  B  B30  1  0.500000  0.107249  0.470318  1
  B  B31  1  0.500000  0.893021  0.529603  1
  Os  Os32  1  0.000000  0.637693  0.321143  1
  Os  Os33  1  0.000000  0.362113  0.678801  1
  Os  Os34  1  0.000000  0.137958  0.179014  1
  Os  Os35  1  0.000000  0.862126  0.821066  1
