# generated using pymatgen
data_Ho12Co6Sb
_symmetry_space_group_name_H-M   'P 1'
_cell_length_a   8.34208296
_cell_length_b   8.34208272
_cell_length_c   8.34208400
_cell_angle_alpha   109.47122617
_cell_angle_beta   109.47122559
_cell_angle_gamma   109.47121283
_symmetry_Int_Tables_number   1
_chemical_formula_structural   Ho12Co6Sb
_chemical_formula_sum   'Ho12 Co6 Sb1'
_cell_volume   446.89104266
_cell_formula_units_Z   1
loop_
 _symmetry_equiv_pos_site_id
 _symmetry_equiv_pos_as_xyz
  1  'x, y, z'
loop_
 _atom_site_type_symbol
 _atom_site_label
 _atom_site_symmetry_multiplicity
 _atom_site_fract_x
 _atom_site_fract_y
 _atom_site_fract_z
 _atom_site_occupancy
  Ho  Ho0  1  0.804435  0.695395  0.499829  1
  Ho  Ho1  1  0.195565  0.304605  0.500171  1
  Ho  Ho2  1  0.195565  0.695395  0.890960  1
  Ho  Ho3  1  0.804435  0.304605  0.109040  1
  Ho  Ho4  1  0.695395  0.499829  0.804435  1
  Ho  Ho5  1  0.304605  0.500171  0.195565  1
  Ho  Ho6  1  0.695395  0.890960  0.195565  1
  Ho  Ho7  1  0.304605  0.109040  0.804435  1
  Ho  Ho8  1  0.499829  0.804435  0.695395  1
  Ho  Ho9  1  0.500171  0.195565  0.304605  1
  Ho  Ho10  1  0.109040  0.804435  0.304605  1
  Ho  Ho11  1  0.890960  0.195565  0.695395  1
  Co  Co12  1  0.886701  0.386701  0.500000  1
  Co  Co13  1  0.113299  0.613299  0.500000  1
  Co  Co14  1  0.386701  0.500000  0.886701  1
  Co  Co15  1  0.613299  0.500000  0.113299  1
  Co  Co16  1  0.500000  0.886701  0.386701  1
  Co  Co17  1  0.500000  0.113299  0.613299  1
  Sb  Sb18  1  0.000000  0.000000  0.000000  1
