# generated using pymatgen
data_Li4VFe3Ni6P7
_symmetry_space_group_name_H-M   'P 1'
_cell_length_a   9.10760803
_cell_length_b   9.03333957
_cell_length_c   3.53156300
_cell_angle_alpha   90.00000000
_cell_angle_beta   90.00000000
_cell_angle_gamma   120.27709561
_symmetry_Int_Tables_number   1
_chemical_formula_structural   Li4VFe3Ni6P7
_chemical_formula_sum   'Li4 V1 Fe3 Ni6 P7'
_cell_volume   250.91743286
_cell_formula_units_Z   1
loop_
 _symmetry_equiv_pos_site_id
 _symmetry_equiv_pos_as_xyz
  1  'x, y, z'
loop_
 _atom_site_type_symbol
 _atom_site_label
 _atom_site_symmetry_multiplicity
 _atom_site_fract_x
 _atom_site_fract_y
 _atom_site_fract_z
 _atom_site_occupancy
  Li  Li0  1  0.901587  0.125001  0.500000  1
  Li  Li1  1  0.220483  0.096350  0.500000  1
  Li  Li2  1  0.332253  0.665185  0.000000  1
  Li  Li3  1  0.666107  0.332972  0.500000  1
  V  V4  1  0.875445  0.782151  0.500000  1
  Fe  Fe5  1  0.562691  0.951154  0.500000  1
  Fe  Fe6  1  0.392406  0.436547  0.500000  1
  Fe  Fe7  1  0.051093  0.611195  0.500000  1
  Ni  Ni8  1  0.715375  0.881346  0.000000  1
  Ni  Ni9  1  0.160526  0.281875  0.000000  1
  Ni  Ni10  1  0.122781  0.839833  0.000000  1
  Ni  Ni11  1  0.633247  0.569712  0.000000  1
  Ni  Ni12  1  0.937725  0.368492  0.000000  1
  Ni  Ni13  1  0.428757  0.060402  0.000000  1
  P  P14  1  0.580991  0.711205  0.500000  1
  P  P15  1  0.134406  0.422020  0.500000  1
  P  P16  1  0.290980  0.868228  0.500000  1
  P  P17  1  0.996631  0.993617  0.000000  1
  P  P18  1  0.886334  0.581654  0.000000  1
  P  P19  1  0.692600  0.118392  0.000000  1
  P  P20  1  0.417583  0.302673  0.000000  1
