# generated using pymatgen
data_SmDyFe3Re14C3
_symmetry_space_group_name_H-M   'P 1'
_cell_length_a   6.93261248
_cell_length_b   6.93261269
_cell_length_c   6.93261349
_cell_angle_alpha   82.41975998
_cell_angle_beta   82.41975165
_cell_angle_gamma   82.41974618
_symmetry_Int_Tables_number   1
_chemical_formula_structural   SmDyFe3Re14C3
_chemical_formula_sum   'Sm1 Dy1 Fe3 Re14 C3'
_cell_volume   325.16027748
_cell_formula_units_Z   1
loop_
 _symmetry_equiv_pos_site_id
 _symmetry_equiv_pos_as_xyz
  1  'x, y, z'
loop_
 _atom_site_type_symbol
 _atom_site_label
 _atom_site_symmetry_multiplicity
 _atom_site_fract_x
 _atom_site_fract_y
 _atom_site_fract_z
 _atom_site_occupancy
  Sm  Sm0  1  0.351727  0.351727  0.351727  1
  Dy  Dy1  1  0.648829  0.648829  0.648829  1
  Fe  Fe2  1  0.999665  0.999665  0.500405  1
  Fe  Fe3  1  0.500405  0.999665  0.999665  1
  Fe  Fe4  1  0.999665  0.500405  0.999665  1
  Re  Re5  1  0.722170  0.277912  0.000014  1
  Re  Re6  1  0.000014  0.722170  0.277912  1
  Re  Re7  1  0.277912  0.000014  0.722170  1
  Re  Re8  1  0.000014  0.277912  0.722170  1
  Re  Re9  1  0.722170  0.000014  0.277912  1
  Re  Re10  1  0.277912  0.722170  0.000014  1
  Re  Re11  1  0.346304  0.346304  0.861166  1
  Re  Re12  1  0.861166  0.346304  0.346304  1
  Re  Re13  1  0.346304  0.861166  0.346304  1
  Re  Re14  1  0.654215  0.654215  0.137659  1
  Re  Re15  1  0.137659  0.654215  0.654215  1
  Re  Re16  1  0.654215  0.137659  0.654215  1
  Re  Re17  1  0.898005  0.898005  0.898005  1
  Re  Re18  1  0.101583  0.101583  0.101583  1
  C  C19  1  0.501772  0.501772  0.996521  1
  C  C20  1  0.996521  0.501772  0.501772  1
  C  C21  1  0.501772  0.996521  0.501772  1
