# generated using pymatgen
data_Tm4TaOs7
_symmetry_space_group_name_H-M   'P 1'
_cell_length_a   5.45894358
_cell_length_b   5.27371344
_cell_length_c   8.87425100
_cell_angle_alpha   90.00000000
_cell_angle_beta   90.00000000
_cell_angle_gamma   121.21088398
_symmetry_Int_Tables_number   1
_chemical_formula_structural   Tm4TaOs7
_chemical_formula_sum   'Tm4 Ta1 Os7'
_cell_volume   218.50328346
_cell_formula_units_Z   1
loop_
 _symmetry_equiv_pos_site_id
 _symmetry_equiv_pos_as_xyz
  1  'x, y, z'
loop_
 _atom_site_type_symbol
 _atom_site_label
 _atom_site_symmetry_multiplicity
 _atom_site_fract_x
 _atom_site_fract_y
 _atom_site_fract_z
 _atom_site_occupancy
  Tm  Tm0  1  0.670040  0.340442  0.560332  1
  Tm  Tm1  1  0.333034  0.666125  0.431305  1
  Tm  Tm2  1  0.333034  0.666125  0.068695  1
  Tm  Tm3  1  0.670040  0.340442  0.939668  1
  Ta  Ta4  1  0.164335  0.328450  0.750000  1
  Os  Os5  1  0.001217  0.002155  0.494934  1
  Os  Os6  1  0.001217  0.002155  0.005066  1
  Os  Os7  1  0.175698  0.828160  0.750000  1
  Os  Os8  1  0.652985  0.828579  0.750000  1
  Os  Os9  1  0.827790  0.655164  0.250000  1
  Os  Os10  1  0.825909  0.171089  0.250000  1
  Os  Os11  1  0.344702  0.171113  0.250000  1
