# generated using pymatgen
data_Rb4Co4Cl10O
_symmetry_space_group_name_H-M   'P 1'
_cell_length_a   11.00741251
_cell_length_b   11.00741342
_cell_length_c   9.46180518
_cell_angle_alpha   79.64494405
_cell_angle_beta   79.64494804
_cell_angle_gamma   91.17979321
_symmetry_Int_Tables_number   1
_chemical_formula_structural   Rb4Co4Cl10O
_chemical_formula_sum   'Rb8 Co8 Cl20 O2'
_cell_volume   1107.72326913
_cell_formula_units_Z   2
loop_
 _symmetry_equiv_pos_site_id
 _symmetry_equiv_pos_as_xyz
  1  'x, y, z'
loop_
 _atom_site_type_symbol
 _atom_site_label
 _atom_site_symmetry_multiplicity
 _atom_site_fract_x
 _atom_site_fract_y
 _atom_site_fract_z
 _atom_site_occupancy
  Rb  Rb0  1  0.292865  0.441999  0.138821  1
  Rb  Rb1  1  0.713465  0.967746  0.872715  1
  Rb  Rb2  1  0.967746  0.713465  0.372715  1
  Rb  Rb3  1  0.558001  0.707135  0.361179  1
  Rb  Rb4  1  0.441999  0.292865  0.638821  1
  Rb  Rb5  1  0.032254  0.286535  0.627285  1
  Rb  Rb6  1  0.707135  0.558001  0.861179  1
  Rb  Rb7  1  0.286535  0.032254  0.127285  1
  Co  Co8  1  0.943782  0.230667  0.118957  1
  Co  Co9  1  0.056218  0.769333  0.881043  1
  Co  Co10  1  0.647274  0.230305  0.129840  1
  Co  Co11  1  0.769695  0.352726  0.370160  1
  Co  Co12  1  0.230305  0.647274  0.629840  1
  Co  Co13  1  0.352726  0.769695  0.870160  1
  Co  Co14  1  0.769333  0.056218  0.381043  1
  Co  Co15  1  0.230667  0.943782  0.618957  1
  Cl  Cl16  1  0.137761  0.266954  0.963735  1
  Cl  Cl17  1  0.974372  0.025628  0.250000  1
  Cl  Cl18  1  0.733046  0.862239  0.536265  1
  Cl  Cl19  1  0.393694  0.989020  0.779075  1
  Cl  Cl20  1  0.265118  0.500147  0.482043  1
  Cl  Cl21  1  0.010980  0.606306  0.720925  1
  Cl  Cl22  1  0.824350  0.266303  0.925025  1
  Cl  Cl23  1  0.407836  0.592164  0.750000  1
  Cl  Cl24  1  0.500147  0.265118  0.982043  1
  Cl  Cl25  1  0.025628  0.974372  0.750000  1
  Cl  Cl26  1  0.266303  0.824350  0.425025  1
  Cl  Cl27  1  0.989020  0.393694  0.279075  1
  Cl  Cl28  1  0.862239  0.733046  0.036265  1
  Cl  Cl29  1  0.734882  0.499853  0.517957  1
  Cl  Cl30  1  0.606306  0.010980  0.220925  1
  Cl  Cl31  1  0.733697  0.175650  0.574975  1
  Cl  Cl32  1  0.175650  0.733697  0.074975  1
  Cl  Cl33  1  0.592164  0.407836  0.250000  1
  Cl  Cl34  1  0.266954  0.137761  0.463735  1
  Cl  Cl35  1  0.499853  0.734882  0.017957  1
  O  O36  1  0.218831  0.781169  0.750000  1
  O  O37  1  0.781169  0.218831  0.250000  1
