# generated using pymatgen
data_Y4Tm16SiBi11
_symmetry_space_group_name_H-M   'P 1'
_cell_length_a   8.12041640
_cell_length_b   9.38352300
_cell_length_c   11.89054000
_cell_angle_alpha   90.00000000
_cell_angle_beta   90.20185890
_cell_angle_gamma   90.00000000
_symmetry_Int_Tables_number   1
_chemical_formula_structural   Y4Tm16SiBi11
_chemical_formula_sum   'Y4 Tm16 Si1 Bi11'
_cell_volume   906.03109975
_cell_formula_units_Z   1
loop_
 _symmetry_equiv_pos_site_id
 _symmetry_equiv_pos_as_xyz
  1  'x, y, z'
loop_
 _atom_site_type_symbol
 _atom_site_label
 _atom_site_symmetry_multiplicity
 _atom_site_fract_x
 _atom_site_fract_y
 _atom_site_fract_z
 _atom_site_occupancy
  Y  Y0  1  0.315443  0.250000  0.218882  1
  Y  Y1  1  0.813159  0.250000  0.281295  1
  Y  Y2  1  0.667430  0.750000  0.791198  1
  Y  Y3  1  0.191314  0.750000  0.723550  1
  Tm  Tm4  1  0.354201  0.750000  0.204711  1
  Tm  Tm5  1  0.850931  0.750000  0.282719  1
  Tm  Tm6  1  0.650596  0.250000  0.782995  1
  Tm  Tm7  1  0.148044  0.250000  0.719470  1
  Tm  Tm8  1  0.681696  0.573051  0.055104  1
  Tm  Tm9  1  0.192485  0.933724  0.438212  1
  Tm  Tm10  1  0.311649  0.048045  0.940360  1
  Tm  Tm11  1  0.807954  0.434639  0.560378  1
  Tm  Tm12  1  0.311649  0.451955  0.940360  1
  Tm  Tm13  1  0.807954  0.065361  0.560378  1
  Tm  Tm14  1  0.681696  0.926949  0.055104  1
  Tm  Tm15  1  0.192485  0.566276  0.438212  1
  Tm  Tm16  1  0.477183  0.250000  0.488975  1
  Tm  Tm17  1  0.981437  0.250000  0.008726  1
  Tm  Tm18  1  0.525016  0.750000  0.511447  1
  Tm  Tm19  1  0.036849  0.750000  0.989951  1
  Si  Si20  1  0.407544  0.750000  0.965298  1
  Bi  Bi21  1  0.907002  0.750000  0.543263  1
  Bi  Bi22  1  0.595827  0.250000  0.040232  1
  Bi  Bi23  1  0.095541  0.250000  0.460082  1
  Bi  Bi24  1  0.564648  0.993790  0.325637  1
  Bi  Bi25  1  0.063861  0.504289  0.173663  1
  Bi  Bi26  1  0.434907  0.493910  0.673722  1
  Bi  Bi27  1  0.934043  0.002529  0.826528  1
  Bi  Bi28  1  0.434907  0.006090  0.673722  1
  Bi  Bi29  1  0.934043  0.497471  0.826528  1
  Bi  Bi30  1  0.564648  0.506210  0.325637  1
  Bi  Bi31  1  0.063861  0.995711  0.173663  1
