# generated using pymatgen
data_YHoNi7
_symmetry_space_group_name_H-M   'P 1'
_cell_length_a   4.96525048
_cell_length_b   4.96525125
_cell_length_c   12.38792880
_cell_angle_alpha   78.43925300
_cell_angle_beta   78.43925146
_cell_angle_gamma   60.00000255
_symmetry_Int_Tables_number   1
_chemical_formula_structural   YHoNi7
_chemical_formula_sum   'Y2 Ho2 Ni14'
_cell_volume   257.31224626
_cell_formula_units_Z   2
loop_
 _symmetry_equiv_pos_site_id
 _symmetry_equiv_pos_as_xyz
  1  'x, y, z'
loop_
 _atom_site_type_symbol
 _atom_site_label
 _atom_site_symmetry_multiplicity
 _atom_site_fract_x
 _atom_site_fract_y
 _atom_site_fract_z
 _atom_site_occupancy
  Y  Y0  1  0.949418  0.949418  0.151744  1
  Y  Y1  1  0.050582  0.050582  0.848256  1
  Ho  Ho2  1  0.852698  0.852698  0.441905  1
  Ho  Ho3  1  0.147302  0.147302  0.558095  1
  Ni  Ni4  1  0.500000  0.500000  0.500000  1
  Ni  Ni5  1  0.721979  0.721979  0.834063  1
  Ni  Ni6  1  0.278021  0.278021  0.165937  1
  Ni  Ni7  1  0.611614  0.611614  0.165157  1
  Ni  Ni8  1  0.388386  0.388386  0.834843  1
  Ni  Ni9  1  0.000000  0.500000  0.000000  1
  Ni  Ni10  1  0.500000  0.000000  0.000000  1
  Ni  Ni11  1  0.500000  0.500000  0.000000  1
  Ni  Ni12  1  0.389522  0.389522  0.330059  1
  Ni  Ni13  1  0.890898  0.389522  0.330059  1
  Ni  Ni14  1  0.389522  0.890898  0.330059  1
  Ni  Ni15  1  0.610478  0.610478  0.669941  1
  Ni  Ni16  1  0.109102  0.610478  0.669941  1
  Ni  Ni17  1  0.610478  0.109102  0.669941  1
