# generated using pymatgen
data_Y20CdCo2Ag5
_symmetry_space_group_name_H-M   'P 1'
_cell_length_a   9.55543636
_cell_length_b   9.55089674
_cell_length_c   9.65033000
_cell_angle_alpha   90.00000000
_cell_angle_beta   90.00000000
_cell_angle_gamma   119.98428060
_symmetry_Int_Tables_number   1
_chemical_formula_structural   Y20CdCo2Ag5
_chemical_formula_sum   'Y20 Cd1 Co2 Ag5'
_cell_volume   762.84488850
_cell_formula_units_Z   1
loop_
 _symmetry_equiv_pos_site_id
 _symmetry_equiv_pos_as_xyz
  1  'x, y, z'
loop_
 _atom_site_type_symbol
 _atom_site_label
 _atom_site_symmetry_multiplicity
 _atom_site_fract_x
 _atom_site_fract_y
 _atom_site_fract_z
 _atom_site_occupancy
  Y  Y0  1  0.007966  0.003983  0.493922  1
  Y  Y1  1  0.007966  0.003983  0.006078  1
  Y  Y2  1  0.541187  0.456736  0.250000  1
  Y  Y3  1  0.541187  0.084451  0.250000  1
  Y  Y4  1  0.910322  0.455160  0.250000  1
  Y  Y5  1  0.449690  0.537273  0.750000  1
  Y  Y6  1  0.449690  0.912418  0.750000  1
  Y  Y7  1  0.082467  0.541234  0.750000  1
  Y  Y8  1  0.210274  0.787371  0.436988  1
  Y  Y9  1  0.210274  0.422904  0.436988  1
  Y  Y10  1  0.579044  0.789523  0.438880  1
  Y  Y11  1  0.788076  0.208950  0.562905  1
  Y  Y12  1  0.788076  0.579125  0.562905  1
  Y  Y13  1  0.423638  0.211818  0.562579  1
  Y  Y14  1  0.788076  0.208950  0.937095  1
  Y  Y15  1  0.788076  0.579125  0.937095  1
  Y  Y16  1  0.423638  0.211818  0.937421  1
  Y  Y17  1  0.210274  0.787371  0.063012  1
  Y  Y18  1  0.210274  0.422904  0.063012  1
  Y  Y19  1  0.579044  0.789523  0.061120  1
  Cd  Cd20  1  0.772525  0.886262  0.750000  1
  Co  Co21  1  0.336031  0.668016  0.250000  1
  Co  Co22  1  0.668984  0.334492  0.750000  1
  Ag  Ag23  1  0.882667  0.117896  0.250000  1
  Ag  Ag24  1  0.882667  0.764772  0.250000  1
  Ag  Ag25  1  0.238758  0.119379  0.250000  1
  Ag  Ag26  1  0.114563  0.884702  0.750000  1
  Ag  Ag27  1  0.114563  0.229861  0.750000  1
