# generated using pymatgen
data_La5Dy(Sn6Ru)2
_symmetry_space_group_name_H-M   'P 1'
_cell_length_a   8.72972500
_cell_length_b   8.72972409
_cell_length_c   13.57874900
_cell_angle_alpha   90.00000000
_cell_angle_beta   90.00000000
_cell_angle_gamma   148.28819250
_symmetry_Int_Tables_number   1
_chemical_formula_structural   La5Dy(Sn6Ru)2
_chemical_formula_sum   'La5 Dy1 Sn12 Ru2'
_cell_volume   543.94502695
_cell_formula_units_Z   1
loop_
 _symmetry_equiv_pos_site_id
 _symmetry_equiv_pos_as_xyz
  1  'x, y, z'
loop_
 _atom_site_type_symbol
 _atom_site_label
 _atom_site_symmetry_multiplicity
 _atom_site_fract_x
 _atom_site_fract_y
 _atom_site_fract_z
 _atom_site_occupancy
  La  La0  1  0.396512  0.603488  0.750000  1
  La  La1  1  0.400373  0.599627  0.404344  1
  La  La2  1  0.600316  0.399684  0.595124  1
  La  La3  1  0.400373  0.599627  0.095656  1
  La  La4  1  0.600316  0.399684  0.904876  1
  Dy  Dy5  1  0.603961  0.396039  0.250000  1
  Sn  Sn6  1  0.927663  0.072337  0.923750  1
  Sn  Sn7  1  0.073381  0.926619  0.079129  1
  Sn  Sn8  1  0.927663  0.072337  0.576250  1
  Sn  Sn9  1  0.073381  0.926619  0.420871  1
  Sn  Sn10  1  0.960650  0.039350  0.250000  1
  Sn  Sn11  1  0.040905  0.959095  0.750000  1
  Sn  Sn12  1  0.746023  0.253978  0.432736  1
  Sn  Sn13  1  0.253048  0.746952  0.566300  1
  Sn  Sn14  1  0.746023  0.253978  0.067264  1
  Sn  Sn15  1  0.253048  0.746952  0.933700  1
  Sn  Sn16  1  0.231536  0.768464  0.250000  1
  Sn  Sn17  1  0.765963  0.234037  0.750000  1
  Ru  Ru18  1  0.799284  0.200716  0.250000  1
  Ru  Ru19  1  0.199583  0.800417  0.750000  1
