# generated using pymatgen
data_Zr3SiAsPRu3
_symmetry_space_group_name_H-M   'P 1'
_cell_length_a   6.60824400
_cell_length_b   6.60824298
_cell_length_c   3.83363800
_cell_angle_alpha   90.00000000
_cell_angle_beta   90.00000000
_cell_angle_gamma   120.00000511
_symmetry_Int_Tables_number   1
_chemical_formula_structural   Zr3SiAsPRu3
_chemical_formula_sum   'Zr3 Si1 As1 P1 Ru3'
_cell_volume   144.98189907
_cell_formula_units_Z   1
loop_
 _symmetry_equiv_pos_site_id
 _symmetry_equiv_pos_as_xyz
  1  'x, y, z'
loop_
 _atom_site_type_symbol
 _atom_site_label
 _atom_site_symmetry_multiplicity
 _atom_site_fract_x
 _atom_site_fract_y
 _atom_site_fract_z
 _atom_site_occupancy
  Zr  Zr0  1  0.412944  0.424423  0.500000  1
  Zr  Zr1  1  0.575577  0.988520  0.500000  1
  Zr  Zr2  1  0.011480  0.587056  0.500000  1
  Si  Si3  1  0.000000  0.000000  0.500000  1
  As  As4  1  0.666667  0.333333  0.000000  1
  P  P5  1  0.333333  0.666667  0.000000  1
  Ru  Ru6  1  0.752370  0.761637  0.000000  1
  Ru  Ru7  1  0.238363  0.990733  0.000000  1
  Ru  Ru8  1  0.009267  0.247630  0.000000  1
