# generated using pymatgen
data_Ho2Er2Hf3ScRh4
_symmetry_space_group_name_H-M   'P 1'
_cell_length_a   4.55873200
_cell_length_b   6.95592419
_cell_length_c   8.28684105
_cell_angle_alpha   90.16550459
_cell_angle_beta   90.00000000
_cell_angle_gamma   90.00000000
_symmetry_Int_Tables_number   1
_chemical_formula_structural   Ho2Er2Hf3ScRh4
_chemical_formula_sum   'Ho2 Er2 Hf3 Sc1 Rh4'
_cell_volume   262.77624236
_cell_formula_units_Z   1
loop_
 _symmetry_equiv_pos_site_id
 _symmetry_equiv_pos_as_xyz
  1  'x, y, z'
loop_
 _atom_site_type_symbol
 _atom_site_label
 _atom_site_symmetry_multiplicity
 _atom_site_fract_x
 _atom_site_fract_y
 _atom_site_fract_z
 _atom_site_occupancy
  Ho  Ho0  1  0.250000  0.985550  0.324137  1
  Ho  Ho1  1  0.250000  0.483280  0.174311  1
  Er  Er2  1  0.750000  0.018902  0.679729  1
  Er  Er3  1  0.750000  0.513153  0.821749  1
  Hf  Hf4  1  0.250000  0.364177  0.574112  1
  Hf  Hf5  1  0.250000  0.856501  0.927063  1
  Hf  Hf6  1  0.750000  0.644987  0.424471  1
  Sc  Sc7  1  0.750000  0.137863  0.076165  1
  Rh  Rh8  1  0.250000  0.232716  0.901418  1
  Rh  Rh9  1  0.250000  0.737646  0.589877  1
  Rh  Rh10  1  0.750000  0.755843  0.089041  1
  Rh  Rh11  1  0.750000  0.269384  0.417927  1
