# generated using pymatgen
data_Tm4GaCo4Si3
_symmetry_space_group_name_H-M   'P 1'
_cell_length_a   4.18885800
_cell_length_b   6.80390585
_cell_length_c   6.92094074
_cell_angle_alpha   89.55913813
_cell_angle_beta   90.00000000
_cell_angle_gamma   90.00000000
_symmetry_Int_Tables_number   1
_chemical_formula_structural   Tm4GaCo4Si3
_chemical_formula_sum   'Tm4 Ga1 Co4 Si3'
_cell_volume   197.24509289
_cell_formula_units_Z   1
loop_
 _symmetry_equiv_pos_site_id
 _symmetry_equiv_pos_as_xyz
  1  'x, y, z'
loop_
 _atom_site_type_symbol
 _atom_site_label
 _atom_site_symmetry_multiplicity
 _atom_site_fract_x
 _atom_site_fract_y
 _atom_site_fract_z
 _atom_site_occupancy
  Tm  Tm0  1  0.750000  0.518771  0.807474  1
  Tm  Tm1  1  0.750000  0.014651  0.690001  1
  Tm  Tm2  1  0.250000  0.488960  0.193131  1
  Tm  Tm3  1  0.250000  0.982557  0.308027  1
  Ga  Ga4  1  0.750000  0.198201  0.105563  1
  Co  Co5  1  0.750000  0.356686  0.445406  1
  Co  Co6  1  0.750000  0.834406  0.066305  1
  Co  Co7  1  0.250000  0.651304  0.564489  1
  Co  Co8  1  0.250000  0.148211  0.923566  1
  Si  Si9  1  0.750000  0.698461  0.393894  1
  Si  Si10  1  0.250000  0.803940  0.895370  1
  Si  Si11  1  0.250000  0.303852  0.606776  1
