# generated using pymatgen
data_Hf16ScSi16W3
_symmetry_space_group_name_H-M   'P 1'
_cell_length_a   6.97783487
_cell_length_b   6.98150245
_cell_length_c   12.76043271
_cell_angle_alpha   90.07856967
_cell_angle_beta   89.88838389
_cell_angle_gamma   89.91183462
_symmetry_Int_Tables_number   1
_chemical_formula_structural   Hf16ScSi16W3
_chemical_formula_sum   'Hf16 Sc1 Si16 W3'
_cell_volume   621.63181815
_cell_formula_units_Z   1
loop_
 _symmetry_equiv_pos_site_id
 _symmetry_equiv_pos_as_xyz
  1  'x, y, z'
loop_
 _atom_site_type_symbol
 _atom_site_label
 _atom_site_symmetry_multiplicity
 _atom_site_fract_x
 _atom_site_fract_y
 _atom_site_fract_z
 _atom_site_occupancy
  Hf  Hf0  1  0.175045  0.174675  0.999922  1
  Hf  Hf1  1  0.504287  0.846816  0.031398  1
  Hf  Hf2  1  0.655171  0.001548  0.282103  1
  Hf  Hf3  1  0.345747  0.996267  0.780700  1
  Hf  Hf4  1  0.846297  0.503938  0.968520  1
  Hf  Hf5  1  0.154211  0.497523  0.469828  1
  Hf  Hf6  1  0.001981  0.654547  0.718177  1
  Hf  Hf7  1  0.996571  0.346240  0.219659  1
  Hf  Hf8  1  0.497528  0.356198  0.126883  1
  Hf  Hf9  1  0.502849  0.644566  0.626105  1
  Hf  Hf10  1  0.853828  0.000682  0.873647  1
  Hf  Hf11  1  0.144789  0.995364  0.376776  1
  Hf  Hf12  1  0.645151  0.503051  0.373853  1
  Hf  Hf13  1  0.355572  0.498216  0.872918  1
  Hf  Hf14  1  0.000841  0.853890  0.126654  1
  Hf  Hf15  1  0.995966  0.144633  0.623360  1
  Sc  Sc16  1  0.496689  0.154946  0.530271  1
  Si  Si17  1  0.795631  0.146735  0.071307  1
  Si  Si18  1  0.201477  0.852644  0.571823  1
  Si  Si19  1  0.647191  0.702147  0.821601  1
  Si  Si20  1  0.351805  0.298159  0.321787  1
  Si  Si21  1  0.853092  0.202013  0.427929  1
  Si  Si22  1  0.146562  0.795599  0.928544  1
  Si  Si23  1  0.702164  0.646735  0.178409  1
  Si  Si24  1  0.297515  0.351820  0.677386  1
  Si  Si25  1  0.551115  0.199040  0.932983  1
  Si  Si26  1  0.454357  0.802486  0.434608  1
  Si  Si27  1  0.696584  0.953921  0.682826  1
  Si  Si28  1  0.304761  0.043147  0.185871  1
  Si  Si29  1  0.802097  0.454246  0.565663  1
  Si  Si30  1  0.198656  0.551205  0.066882  1
  Si  Si31  1  0.953572  0.697033  0.316956  1
  Si  Si32  1  0.043253  0.305094  0.814167  1
  W  W33  1  0.675722  0.326283  0.748663  1
  W  W34  1  0.325639  0.674830  0.251662  1
  W  W35  1  0.826282  0.823763  0.500157  1
