# generated using pymatgen
data_Ho2ThSn2Rh3Pb
_symmetry_space_group_name_H-M   'P 1'
_cell_length_a   7.62178405
_cell_length_b   7.69100797
_cell_length_c   3.91360000
_cell_angle_alpha   90.00000000
_cell_angle_beta   90.00000000
_cell_angle_gamma   120.05946906
_symmetry_Int_Tables_number   1
_chemical_formula_structural   Ho2ThSn2Rh3Pb
_chemical_formula_sum   'Ho2 Th1 Sn2 Rh3 Pb1'
_cell_volume   198.55754993
_cell_formula_units_Z   1
loop_
 _symmetry_equiv_pos_site_id
 _symmetry_equiv_pos_as_xyz
  1  'x, y, z'
loop_
 _atom_site_type_symbol
 _atom_site_label
 _atom_site_symmetry_multiplicity
 _atom_site_fract_x
 _atom_site_fract_y
 _atom_site_fract_z
 _atom_site_occupancy
  Ho  Ho0  1  0.598515  0.598495  0.000000  1
  Ho  Ho1  1  0.404353  0.993824  0.000000  1
  Th  Th2  1  0.997710  0.412627  0.000000  1
  Sn  Sn3  1  0.998846  0.753016  0.500000  1
  Sn  Sn4  1  0.728192  0.987223  0.500000  1
  Rh  Rh5  1  0.689619  0.335643  0.500000  1
  Rh  Rh6  1  0.320871  0.661930  0.500000  1
  Rh  Rh7  1  0.988684  0.997102  0.000000  1
  Pb  Pb8  1  0.273210  0.260139  0.500000  1
