# generated using pymatgen
data_CaPrNd5FeI12
_symmetry_space_group_name_H-M   'P 1'
_cell_length_a   10.03743989
_cell_length_b   9.98040355
_cell_length_c   9.96669291
_cell_angle_alpha   106.81473528
_cell_angle_beta   106.91136800
_cell_angle_gamma   107.15231758
_symmetry_Int_Tables_number   1
_chemical_formula_structural   CaPrNd5FeI12
_chemical_formula_sum   'Ca1 Pr1 Nd5 Fe1 I12'
_cell_volume   832.42230345
_cell_formula_units_Z   1
loop_
 _symmetry_equiv_pos_site_id
 _symmetry_equiv_pos_as_xyz
  1  'x, y, z'
loop_
 _atom_site_type_symbol
 _atom_site_label
 _atom_site_symmetry_multiplicity
 _atom_site_fract_x
 _atom_site_fract_y
 _atom_site_fract_z
 _atom_site_occupancy
  Ca  Ca0  1  0.999927  0.000261  0.999872  1
  Pr  Pr1  1  0.403566  0.206173  0.474796  1
  Nd  Nd2  1  0.808491  0.526349  0.601548  1
  Nd  Nd3  1  0.525765  0.595781  0.791654  1
  Nd  Nd4  1  0.191503  0.473340  0.398414  1
  Nd  Nd5  1  0.474373  0.404420  0.208013  1
  Nd  Nd6  1  0.595933  0.791540  0.524879  1
  Fe  Fe7  1  0.500156  0.499839  0.500010  1
  I  I8  1  0.727022  0.182992  0.574037  1
  I  I9  1  0.959234  0.882145  0.656200  1
  I  I10  1  0.573664  0.725666  0.183854  1
  I  I11  1  0.119002  0.343829  0.039260  1
  I  I12  1  0.657725  0.959665  0.881535  1
  I  I13  1  0.880934  0.656788  0.960877  1
  I  I14  1  0.038148  0.117731  0.342733  1
  I  I15  1  0.816325  0.426163  0.272993  1
  I  I16  1  0.341743  0.039803  0.115994  1
  I  I17  1  0.275318  0.816910  0.427082  1
  I  I18  1  0.184133  0.574561  0.727309  1
  I  I19  1  0.427036  0.276043  0.818940  1
