# generated using pymatgen
data_Ho3BeP2Ir3
_symmetry_space_group_name_H-M   'P 1'
_cell_length_a   6.67040900
_cell_length_b   6.67040869
_cell_length_c   3.89780200
_cell_angle_alpha   90.00000000
_cell_angle_beta   90.00000000
_cell_angle_gamma   120.00000650
_symmetry_Int_Tables_number   1
_chemical_formula_structural   Ho3BeP2Ir3
_chemical_formula_sum   'Ho3 Be1 P2 Ir3'
_cell_volume   150.19493408
_cell_formula_units_Z   1
loop_
 _symmetry_equiv_pos_site_id
 _symmetry_equiv_pos_as_xyz
  1  'x, y, z'
loop_
 _atom_site_type_symbol
 _atom_site_label
 _atom_site_symmetry_multiplicity
 _atom_site_fract_x
 _atom_site_fract_y
 _atom_site_fract_z
 _atom_site_occupancy
  Ho  Ho0  1  0.000000  0.408175  0.500000  1
  Ho  Ho1  1  0.591825  0.591825  0.500000  1
  Ho  Ho2  1  0.408175  0.000000  0.500000  1
  Be  Be3  1  0.000000  0.000000  0.500000  1
  P  P4  1  0.666667  0.333333  0.000000  1
  P  P5  1  0.333333  0.666667  0.000000  1
  Ir  Ir6  1  0.000000  0.765082  0.000000  1
  Ir  Ir7  1  0.234918  0.234918  0.000000  1
  Ir  Ir8  1  0.765082  0.000000  0.000000  1
