# generated using pymatgen
data_Pr8Dy11HoSi16
_symmetry_space_group_name_H-M   'P 1'
_cell_length_a   7.53734901
_cell_length_b   7.80940001
_cell_length_c   14.85057700
_cell_angle_alpha   90.00000000
_cell_angle_beta   90.00000000
_cell_angle_gamma   90.00550306
_symmetry_Int_Tables_number   1
_chemical_formula_structural   Pr8Dy11HoSi16
_chemical_formula_sum   'Pr8 Dy11 Ho1 Si16'
_cell_volume   874.13723467
_cell_formula_units_Z   1
loop_
 _symmetry_equiv_pos_site_id
 _symmetry_equiv_pos_as_xyz
  1  'x, y, z'
loop_
 _atom_site_type_symbol
 _atom_site_label
 _atom_site_symmetry_multiplicity
 _atom_site_fract_x
 _atom_site_fract_y
 _atom_site_fract_z
 _atom_site_occupancy
  Pr  Pr0  1  0.974188  0.820220  0.098418  1
  Pr  Pr1  1  0.474284  0.679843  0.401592  1
  Pr  Pr2  1  0.525765  0.320164  0.901830  1
  Pr  Pr3  1  0.025766  0.179853  0.598174  1
  Pr  Pr4  1  0.025766  0.179853  0.901826  1
  Pr  Pr5  1  0.525765  0.320164  0.598170  1
  Pr  Pr6  1  0.474284  0.679843  0.098408  1
  Pr  Pr7  1  0.974188  0.820220  0.401582  1
  Dy  Dy8  1  0.148883  0.510402  0.250000  1
  Dy  Dy9  1  0.851101  0.489420  0.750000  1
  Dy  Dy10  1  0.351136  0.010547  0.750000  1
  Dy  Dy11  1  0.681568  0.821355  0.877124  1
  Dy  Dy12  1  0.181604  0.678647  0.622897  1
  Dy  Dy13  1  0.818320  0.321330  0.122960  1
  Dy  Dy14  1  0.318461  0.178579  0.377042  1
  Dy  Dy15  1  0.318461  0.178579  0.122958  1
  Dy  Dy16  1  0.818320  0.321330  0.377040  1
  Dy  Dy17  1  0.181604  0.678647  0.877103  1
  Dy  Dy18  1  0.681568  0.821355  0.622876  1
  Ho  Ho19  1  0.648985  0.989464  0.250000  1
  Si  Si20  1  0.767031  0.620701  0.250000  1
  Si  Si21  1  0.267700  0.879965  0.250000  1
  Si  Si22  1  0.732877  0.120049  0.750000  1
  Si  Si23  1  0.232959  0.379955  0.750000  1
  Si  Si24  1  0.023307  0.111663  0.250000  1
  Si  Si25  1  0.523850  0.388082  0.250000  1
  Si  Si26  1  0.476112  0.611745  0.750000  1
  Si  Si27  1  0.976108  0.888176  0.750000  1
  Si  Si28  1  0.857191  0.530696  0.959962  1
  Si  Si29  1  0.357167  0.969318  0.540016  1
  Si  Si30  1  0.642840  0.030567  0.040281  1
  Si  Si31  1  0.142823  0.469345  0.459917  1
  Si  Si32  1  0.142823  0.469345  0.040083  1
  Si  Si33  1  0.642840  0.030567  0.459719  1
  Si  Si34  1  0.357167  0.969318  0.959984  1
  Si  Si35  1  0.857191  0.530696  0.540038  1
