# generated using pymatgen
data_AcH7Ru
_symmetry_space_group_name_H-M   'P 1'
_cell_length_a   4.90496504
_cell_length_b   4.87296225
_cell_length_c   8.43347900
_cell_angle_alpha   90.00000000
_cell_angle_beta   90.00000000
_cell_angle_gamma   62.20592165
_symmetry_Int_Tables_number   1
_chemical_formula_structural   AcH7Ru
_chemical_formula_sum   'Ac2 H14 Ru2'
_cell_volume   178.31874071
_cell_formula_units_Z   2
loop_
 _symmetry_equiv_pos_site_id
 _symmetry_equiv_pos_as_xyz
  1  'x, y, z'
loop_
 _atom_site_type_symbol
 _atom_site_label
 _atom_site_symmetry_multiplicity
 _atom_site_fract_x
 _atom_site_fract_y
 _atom_site_fract_z
 _atom_site_occupancy
  Ac  Ac0  1  0.000000  0.000000  0.000000  1
  Ac  Ac1  1  0.000000  0.000000  0.500000  1
  H  H2  1  0.812414  0.869982  0.250000  1
  H  H3  1  0.187586  0.130018  0.750000  1
  H  H4  1  0.681880  0.678368  0.446506  1
  H  H5  1  0.318120  0.321632  0.946506  1
  H  H6  1  0.318120  0.321632  0.553494  1
  H  H7  1  0.681880  0.678368  0.053494  1
  H  H8  1  0.479690  0.461029  0.343800  1
  H  H9  1  0.520310  0.538971  0.843800  1
  H  H10  1  0.520310  0.538971  0.656200  1
  H  H11  1  0.479690  0.461029  0.156200  1
  H  H12  1  0.309213  0.973121  0.250000  1
  H  H13  1  0.690787  0.026879  0.750000  1
  H  H14  1  0.993754  0.326245  0.250000  1
  H  H15  1  0.006246  0.673755  0.750000  1
  Ru  Ru16  1  0.642216  0.639028  0.250000  1
  Ru  Ru17  1  0.357784  0.360972  0.750000  1
