# generated using pymatgen
data_La2Nd2Ni3Sb8Ir3
_symmetry_space_group_name_H-M   'P 1'
_cell_length_a   4.56700600
_cell_length_b   11.17664900
_cell_length_c   16.02666200
_cell_angle_alpha   90.00000000
_cell_angle_beta   90.00000000
_cell_angle_gamma   90.00000000
_symmetry_Int_Tables_number   1
_chemical_formula_structural   La2Nd2Ni3Sb8Ir3
_chemical_formula_sum   'La4 Nd4 Ni6 Sb16 Ir6'
_cell_volume   818.06209910
_cell_formula_units_Z   2
loop_
 _symmetry_equiv_pos_site_id
 _symmetry_equiv_pos_as_xyz
  1  'x, y, z'
loop_
 _atom_site_type_symbol
 _atom_site_label
 _atom_site_symmetry_multiplicity
 _atom_site_fract_x
 _atom_site_fract_y
 _atom_site_fract_z
 _atom_site_occupancy
  La  La0  1  0.250000  0.746422  0.507197  1
  La  La1  1  0.250000  0.753578  0.007197  1
  La  La2  1  0.750000  0.251893  0.493180  1
  La  La3  1  0.750000  0.248107  0.993180  1
  Nd  Nd4  1  0.250000  0.590123  0.750886  1
  Nd  Nd5  1  0.250000  0.909877  0.250886  1
  Nd  Nd6  1  0.750000  0.407000  0.248648  1
  Nd  Nd7  1  0.750000  0.093000  0.748648  1
  Ni  Ni8  1  0.250000  0.465121  0.556968  1
  Ni  Ni9  1  0.250000  0.034879  0.056968  1
  Ni  Ni10  1  0.750000  0.530719  0.441449  1
  Ni  Ni11  1  0.750000  0.969281  0.941449  1
  Ni  Ni12  1  0.250000  0.055225  0.594580  1
  Ni  Ni13  1  0.250000  0.444775  0.094580  1
  Sb  Sb14  1  0.250000  0.269850  0.646410  1
  Sb  Sb15  1  0.250000  0.230150  0.146410  1
  Sb  Sb16  1  0.750000  0.722704  0.351176  1
  Sb  Sb17  1  0.750000  0.777296  0.851176  1
  Sb  Sb18  1  0.250000  0.888381  0.708322  1
  Sb  Sb19  1  0.250000  0.611619  0.208322  1
  Sb  Sb20  1  0.750000  0.110082  0.288954  1
  Sb  Sb21  1  0.750000  0.389918  0.788954  1
  Sb  Sb22  1  0.250000  0.068096  0.899102  1
  Sb  Sb23  1  0.250000  0.431904  0.399102  1
  Sb  Sb24  1  0.750000  0.936878  0.100791  1
  Sb  Sb25  1  0.750000  0.563122  0.600791  1
  Sb  Sb26  1  0.250000  0.446210  0.934899  1
  Sb  Sb27  1  0.250000  0.053790  0.434899  1
  Sb  Sb28  1  0.750000  0.544447  0.071832  1
  Sb  Sb29  1  0.750000  0.955553  0.571832  1
  Ir  Ir30  1  0.750000  0.942891  0.408379  1
  Ir  Ir31  1  0.750000  0.557109  0.908379  1
  Ir  Ir32  1  0.250000  0.278292  0.816242  1
  Ir  Ir33  1  0.250000  0.221708  0.316242  1
  Ir  Ir34  1  0.750000  0.724464  0.180987  1
  Ir  Ir35  1  0.750000  0.775536  0.680987  1
