# generated using pymatgen
data_Pr5CoRuO12
_symmetry_space_group_name_H-M   'P 1'
_cell_length_a   7.08668880
_cell_length_b   7.08668842
_cell_length_c   7.63942884
_cell_angle_alpha   74.46504830
_cell_angle_beta   74.46504964
_cell_angle_gamma   50.19603275
_symmetry_Int_Tables_number   1
_chemical_formula_structural   Pr5CoRuO12
_chemical_formula_sum   'Pr5 Co1 Ru1 O12'
_cell_volume   281.55815848
_cell_formula_units_Z   1
loop_
 _symmetry_equiv_pos_site_id
 _symmetry_equiv_pos_as_xyz
  1  'x, y, z'
loop_
 _atom_site_type_symbol
 _atom_site_label
 _atom_site_symmetry_multiplicity
 _atom_site_fract_x
 _atom_site_fract_y
 _atom_site_fract_z
 _atom_site_occupancy
  Pr  Pr0  1  0.315306  0.299047  0.355729  1
  Pr  Pr1  1  0.700953  0.684694  0.644271  1
  Pr  Pr2  1  0.696082  0.691004  0.163538  1
  Pr  Pr3  1  0.308996  0.303918  0.836462  1
  Pr  Pr4  1  0.997741  0.002259  0.500000  1
  Co  Co5  1  0.747951  0.252049  0.000000  1
  Ru  Ru6  1  0.236171  0.763829  0.000000  1
  O  O7  1  0.099682  0.595842  0.577355  1
  O  O8  1  0.988264  0.009956  0.168410  1
  O  O9  1  0.404158  0.900318  0.422645  1
  O  O10  1  0.503084  0.498098  0.168019  1
  O  O11  1  0.100201  0.582852  0.077942  1
  O  O12  1  0.909081  0.401394  0.421091  1
  O  O13  1  0.990044  0.011736  0.831590  1
  O  O14  1  0.598606  0.090918  0.578909  1
  O  O15  1  0.501902  0.496916  0.831981  1
  O  O16  1  0.588460  0.103829  0.075571  1
  O  O17  1  0.417148  0.899799  0.922058  1
  O  O18  1  0.896171  0.411540  0.924429  1
