# generated using pymatgen
data_Dy8V9Si16W3
_symmetry_space_group_name_H-M   'P 1'
_cell_length_a   6.82917979
_cell_length_b   6.82917875
_cell_length_c   12.70833266
_cell_angle_alpha   90.04395202
_cell_angle_beta   89.95604583
_cell_angle_gamma   90.01579272
_symmetry_Int_Tables_number   1
_chemical_formula_structural   Dy8V9Si16W3
_chemical_formula_sum   'Dy8 V9 Si16 W3'
_cell_volume   592.68690173
_cell_formula_units_Z   1
loop_
 _symmetry_equiv_pos_site_id
 _symmetry_equiv_pos_as_xyz
  1  'x, y, z'
loop_
 _atom_site_type_symbol
 _atom_site_label
 _atom_site_symmetry_multiplicity
 _atom_site_fract_x
 _atom_site_fract_y
 _atom_site_fract_z
 _atom_site_occupancy
  Dy  Dy0  1  0.998509  0.661710  0.030347  1
  Dy  Dy1  1  0.001180  0.338129  0.530175  1
  Dy  Dy2  1  0.661710  0.998509  0.969653  1
  Dy  Dy3  1  0.161689  0.502104  0.780343  1
  Dy  Dy4  1  0.838839  0.498672  0.279527  1
  Dy  Dy5  1  0.502104  0.161689  0.219657  1
  Dy  Dy6  1  0.498672  0.838839  0.720473  1
  Dy  Dy7  1  0.338129  0.001180  0.469825  1
  V  V8  1  0.340875  0.508477  0.374063  1
  V  V9  1  0.841295  0.992428  0.375305  1
  V  V10  1  0.008757  0.159647  0.124139  1
  V  V11  1  0.992428  0.841295  0.624695  1
  V  V12  1  0.508477  0.340875  0.625937  1
  V  V13  1  0.159647  0.008757  0.875861  1
  V  V14  1  0.329955  0.329955  0.000000  1
  V  V15  1  0.491916  0.658604  0.125647  1
  V  V16  1  0.658604  0.491916  0.874353  1
  Si  Si17  1  0.041408  0.711945  0.435898  1
  Si  Si18  1  0.959467  0.288102  0.936338  1
  Si  Si19  1  0.711945  0.041408  0.564102  1
  Si  Si20  1  0.212865  0.456331  0.183750  1
  Si  Si21  1  0.788201  0.542451  0.685945  1
  Si  Si22  1  0.456331  0.212865  0.816250  1
  Si  Si23  1  0.542451  0.788201  0.314055  1
  Si  Si24  1  0.288102  0.959467  0.063662  1
  Si  Si25  1  0.800625  0.876528  0.184169  1
  Si  Si26  1  0.299735  0.623499  0.565834  1
  Si  Si27  1  0.697717  0.376163  0.064210  1
  Si  Si28  1  0.623499  0.299735  0.434166  1
  Si  Si29  1  0.376163  0.697717  0.935790  1
  Si  Si30  1  0.123905  0.200052  0.315082  1
  Si  Si31  1  0.200052  0.123905  0.684918  1
  Si  Si32  1  0.876528  0.800625  0.815831  1
  W  W33  1  0.669359  0.669359  0.500000  1
  W  W34  1  0.829161  0.169698  0.749826  1
  W  W35  1  0.169698  0.829161  0.250174  1
