# generated using pymatgen
data_Dy3U(BRu)16
_symmetry_space_group_name_H-M   'P 1'
_cell_length_a   9.21468830
_cell_length_b   7.47988671
_cell_length_c   7.47988620
_cell_angle_alpha   89.91216837
_cell_angle_beta   113.98452066
_cell_angle_gamma   113.98451236
_symmetry_Int_Tables_number   1
_chemical_formula_structural   Dy3U(BRu)16
_chemical_formula_sum   'Dy3 U1 B16 Ru16'
_cell_volume   422.00719750
_cell_formula_units_Z   1
loop_
 _symmetry_equiv_pos_site_id
 _symmetry_equiv_pos_as_xyz
  1  'x, y, z'
loop_
 _atom_site_type_symbol
 _atom_site_label
 _atom_site_symmetry_multiplicity
 _atom_site_fract_x
 _atom_site_fract_y
 _atom_site_fract_z
 _atom_site_occupancy
  Dy  Dy0  1  0.749999  0.875000  0.125000  1
  Dy  Dy1  1  0.250000  0.625000  0.375000  1
  Dy  Dy2  1  0.749999  0.375000  0.625000  1
  U  U3  1  0.250000  0.125000  0.875000  1
  B  B4  1  0.913708  0.623265  0.065590  1
  B  B5  1  0.415098  0.849410  0.127213  1
  B  B6  1  0.084901  0.872787  0.150590  1
  B  B7  1  0.589505  0.434702  0.213443  1
  B  B8  1  0.417832  0.347600  0.291607  1
  B  B9  1  0.913708  0.290442  0.348118  1
  B  B10  1  0.586292  0.934410  0.376735  1
  B  B11  1  0.084901  0.212114  0.434312  1
  B  B12  1  0.910495  0.786557  0.565298  1
  B  B13  1  0.417832  0.070232  0.626226  1
  B  B14  1  0.082167  0.708393  0.652400  1
  B  B15  1  0.586292  0.651882  0.709557  1
  B  B16  1  0.415098  0.565688  0.787886  1
  B  B17  1  0.910495  0.123938  0.845197  1
  B  B18  1  0.589505  0.154803  0.876062  1
  B  B19  1  0.082167  0.373774  0.929768  1
  Ru  Ru20  1  0.875189  0.322422  0.040989  1
  Ru  Ru21  1  0.371534  0.527956  0.048722  1
  Ru  Ru22  1  0.128466  0.177188  0.156422  1
  Ru  Ru23  1  0.624148  0.165577  0.176493  1
  Ru  Ru24  1  0.369811  0.035693  0.319846  1
  Ru  Ru25  1  0.875189  0.552767  0.334200  1
  Ru  Ru26  1  0.624811  0.665800  0.447233  1
  Ru  Ru27  1  0.128466  0.951278  0.472043  1
  Ru  Ru28  1  0.875852  0.052345  0.541429  1
  Ru  Ru29  1  0.369811  0.334117  0.549965  1
  Ru  Ru30  1  0.130189  0.450035  0.665882  1
  Ru  Ru31  1  0.624811  0.959011  0.677578  1
  Ru  Ru32  1  0.371534  0.843577  0.822812  1
  Ru  Ru33  1  0.875852  0.823507  0.834423  1
  Ru  Ru34  1  0.624148  0.458571  0.947655  1
  Ru  Ru35  1  0.130189  0.680154  0.964306  1
