# generated using pymatgen
data_Ho5(Hg2Pt)2
_symmetry_space_group_name_H-M   'P 1'
_cell_length_a   3.62967100
_cell_length_b   7.92075800
_cell_length_c   18.20676600
_cell_angle_alpha   90.00000000
_cell_angle_beta   90.00000000
_cell_angle_gamma   90.00000000
_symmetry_Int_Tables_number   1
_chemical_formula_structural   Ho5(Hg2Pt)2
_chemical_formula_sum   'Ho10 Hg8 Pt4'
_cell_volume   523.43989089
_cell_formula_units_Z   2
loop_
 _symmetry_equiv_pos_site_id
 _symmetry_equiv_pos_as_xyz
  1  'x, y, z'
loop_
 _atom_site_type_symbol
 _atom_site_label
 _atom_site_symmetry_multiplicity
 _atom_site_fract_x
 _atom_site_fract_y
 _atom_site_fract_z
 _atom_site_occupancy
  Ho  Ho0  1  0.000000  0.114914  0.414512  1
  Ho  Ho1  1  0.000000  0.885086  0.585488  1
  Ho  Ho2  1  0.000000  0.385086  0.914512  1
  Ho  Ho3  1  0.000000  0.614914  0.085488  1
  Ho  Ho4  1  0.000000  0.240565  0.218196  1
  Ho  Ho5  1  0.000000  0.759435  0.781804  1
  Ho  Ho6  1  0.000000  0.259435  0.718196  1
  Ho  Ho7  1  0.000000  0.740565  0.281804  1
  Ho  Ho8  1  0.000000  0.000000  0.000000  1
  Ho  Ho9  1  0.000000  0.500000  0.500000  1
  Hg  Hg10  1  0.500000  0.424853  0.353843  1
  Hg  Hg11  1  0.500000  0.575147  0.646157  1
  Hg  Hg12  1  0.500000  0.075147  0.853843  1
  Hg  Hg13  1  0.500000  0.924853  0.146157  1
  Hg  Hg14  1  0.500000  0.288892  0.064294  1
  Hg  Hg15  1  0.500000  0.711108  0.935706  1
  Hg  Hg16  1  0.500000  0.211108  0.564294  1
  Hg  Hg17  1  0.500000  0.788892  0.435706  1
  Pt  Pt18  1  0.500000  0.027504  0.303907  1
  Pt  Pt19  1  0.500000  0.972496  0.696093  1
  Pt  Pt20  1  0.500000  0.472496  0.803907  1
  Pt  Pt21  1  0.500000  0.527504  0.196093  1
