# generated using pymatgen
data_SmEu2PaH12
_symmetry_space_group_name_H-M   'P 1'
_cell_length_a   6.71307800
_cell_length_b   6.87036600
_cell_length_c   6.71307800
_cell_angle_alpha   90.00000000
_cell_angle_beta   90.00000000
_cell_angle_gamma   90.00000000
_symmetry_Int_Tables_number   1
_chemical_formula_structural   SmEu2PaH12
_chemical_formula_sum   'Sm2 Eu4 Pa2 H24'
_cell_volume   309.61590347
_cell_formula_units_Z   2
loop_
 _symmetry_equiv_pos_site_id
 _symmetry_equiv_pos_as_xyz
  1  'x, y, z'
loop_
 _atom_site_type_symbol
 _atom_site_label
 _atom_site_symmetry_multiplicity
 _atom_site_fract_x
 _atom_site_fract_y
 _atom_site_fract_z
 _atom_site_occupancy
  Sm  Sm0  1  0.500000  0.750000  0.000000  1
  Sm  Sm1  1  0.500000  0.250000  0.000000  1
  Eu  Eu2  1  0.249132  0.000000  0.500000  1
  Eu  Eu3  1  0.750868  0.000000  0.500000  1
  Eu  Eu4  1  0.000000  0.500000  0.250868  1
  Eu  Eu5  1  0.000000  0.500000  0.749132  1
  Pa  Pa6  1  0.000000  0.000000  0.000000  1
  Pa  Pa7  1  0.500000  0.500000  0.500000  1
  H  H8  1  0.000000  0.151175  0.288624  1
  H  H9  1  0.500000  0.218452  0.657185  1
  H  H10  1  0.500000  0.781548  0.342815  1
  H  H11  1  0.788624  0.651175  0.500000  1
  H  H12  1  0.211376  0.651175  0.500000  1
  H  H13  1  0.351776  0.500000  0.801650  1
  H  H14  1  0.648224  0.500000  0.801650  1
  H  H15  1  0.301650  0.000000  0.148224  1
  H  H16  1  0.157185  0.281548  0.000000  1
  H  H17  1  0.842815  0.718452  0.000000  1
  H  H18  1  0.301650  0.000000  0.851776  1
  H  H19  1  0.842815  0.281548  0.000000  1
  H  H20  1  0.698350  0.000000  0.148224  1
  H  H21  1  0.698350  0.000000  0.851776  1
  H  H22  1  0.157185  0.718452  0.000000  1
  H  H23  1  0.000000  0.848825  0.711376  1
  H  H24  1  0.000000  0.151175  0.711376  1
  H  H25  1  0.000000  0.848825  0.288624  1
  H  H26  1  0.648224  0.500000  0.198350  1
  H  H27  1  0.351776  0.500000  0.198350  1
  H  H28  1  0.788624  0.348825  0.500000  1
  H  H29  1  0.211376  0.348825  0.500000  1
  H  H30  1  0.500000  0.781548  0.657185  1
  H  H31  1  0.500000  0.218452  0.342815  1
