# generated using pymatgen
data_Zr6Nb4Al12Ir4Ru3
_symmetry_space_group_name_H-M   'P 1'
_cell_length_a   8.84755714
_cell_length_b   8.84605258
_cell_length_c   8.84420041
_cell_angle_alpha   60.02156106
_cell_angle_beta   59.98744251
_cell_angle_gamma   59.99438234
_symmetry_Int_Tables_number   1
_chemical_formula_structural   Zr6Nb4Al12Ir4Ru3
_chemical_formula_sum   'Zr6 Nb4 Al12 Ir4 Ru3'
_cell_volume   489.47159878
_cell_formula_units_Z   1
loop_
 _symmetry_equiv_pos_site_id
 _symmetry_equiv_pos_as_xyz
  1  'x, y, z'
loop_
 _atom_site_type_symbol
 _atom_site_label
 _atom_site_symmetry_multiplicity
 _atom_site_fract_x
 _atom_site_fract_y
 _atom_site_fract_z
 _atom_site_occupancy
  Zr  Zr0  1  0.692796  0.692853  0.307403  1
  Zr  Zr1  1  0.306948  0.692853  0.307403  1
  Zr  Zr2  1  0.687352  0.312145  0.313151  1
  Zr  Zr3  1  0.307952  0.307644  0.691848  1
  Zr  Zr4  1  0.692556  0.307644  0.691848  1
  Zr  Zr5  1  0.312245  0.688156  0.687353  1
  Nb  Nb6  1  0.878307  0.882367  0.361018  1
  Nb  Nb7  1  0.880046  0.360136  0.879772  1
  Nb  Nb8  1  0.360547  0.881300  0.876916  1
  Nb  Nb9  1  0.881238  0.881300  0.876916  1
  Al  Al10  1  0.122174  0.119858  0.635793  1
  Al  Al11  1  0.120686  0.637123  0.121504  1
  Al  Al12  1  0.636439  0.119476  0.123464  1
  Al  Al13  1  0.120621  0.119476  0.123464  1
  Al  Al14  1  0.659709  0.660825  0.019756  1
  Al  Al15  1  0.661189  0.016947  0.660674  1
  Al  Al16  1  0.018565  0.661295  0.659518  1
  Al  Al17  1  0.660620  0.661295  0.659518  1
  Al  Al18  1  0.337482  0.336877  0.988161  1
  Al  Al19  1  0.336085  0.990116  0.337716  1
  Al  Al20  1  0.988801  0.335641  0.337980  1
  Al  Al21  1  0.337579  0.335641  0.337980  1
  Ir  Ir22  1  0.997950  0.501768  0.502332  1
  Ir  Ir23  1  0.502269  0.501939  0.997568  1
  Ir  Ir24  1  0.998225  0.501939  0.997568  1
  Ir  Ir25  1  0.502100  0.998334  0.997466  1
  Ru  Ru26  1  0.999943  0.001415  0.998698  1
  Ru  Ru27  1  0.996672  0.996819  0.503605  1
  Ru  Ru28  1  0.502904  0.996819  0.503605  1
