# generated using pymatgen
data_K3Al4TlI16
_symmetry_space_group_name_H-M   'P 1'
_cell_length_a   8.17480404
_cell_length_b   8.77961169
_cell_length_c   16.58421500
_cell_angle_alpha   85.62152243
_cell_angle_beta   89.74330790
_cell_angle_gamma   90.03766162
_symmetry_Int_Tables_number   1
_chemical_formula_structural   K3Al4TlI16
_chemical_formula_sum   'K3 Al4 Tl1 I16'
_cell_volume   1186.78940436
_cell_formula_units_Z   1
loop_
 _symmetry_equiv_pos_site_id
 _symmetry_equiv_pos_as_xyz
  1  'x, y, z'
loop_
 _atom_site_type_symbol
 _atom_site_label
 _atom_site_symmetry_multiplicity
 _atom_site_fract_x
 _atom_site_fract_y
 _atom_site_fract_z
 _atom_site_occupancy
  K  K0  1  0.502968  0.254988  0.638246  1
  K  K1  1  0.002828  0.745153  0.860814  1
  K  K2  1  0.496605  0.745008  0.361846  1
  Al  Al3  1  0.358895  0.246203  0.361226  1
  Al  Al4  1  0.856601  0.752978  0.139141  1
  Al  Al5  1  0.642282  0.753851  0.638986  1
  Al  Al6  1  0.142556  0.246425  0.860576  1
  Tl  Tl7  1  0.997943  0.255373  0.138617  1
  I  I8  1  0.864050  0.143706  0.911205  1
  I  I9  1  0.362897  0.857188  0.590784  1
  I  I10  1  0.135035  0.860192  0.090418  1
  I  I11  1  0.638057  0.142789  0.409931  1
  I  I12  1  0.389796  0.407397  0.225711  1
  I  I13  1  0.890383  0.590096  0.273587  1
  I  I14  1  0.609192  0.591286  0.773987  1
  I  I15  1  0.109994  0.407632  0.725303  1
  I  I16  1  0.658522  0.974673  0.160028  1
  I  I17  1  0.158399  0.027587  0.338916  1
  I  I18  1  0.342313  0.026500  0.839142  1
  I  I19  1  0.841832  0.974031  0.660203  1
  I  I20  1  0.244358  0.419155  0.466764  1
  I  I21  1  0.743950  0.578342  0.034331  1
  I  I22  1  0.755873  0.580556  0.533501  1
  I  I23  1  0.254670  0.418889  0.966736  1
