# generated using pymatgen
data_Tb7Y13(Hg3Ru)2
_symmetry_space_group_name_H-M   'P 1'
_cell_length_a   9.66620703
_cell_length_b   9.66622821
_cell_length_c   9.71979037
_cell_angle_alpha   89.94711167
_cell_angle_beta   90.05286241
_cell_angle_gamma   119.99711203
_symmetry_Int_Tables_number   1
_chemical_formula_structural   Tb7Y13(Hg3Ru)2
_chemical_formula_sum   'Tb7 Y13 Hg6 Ru2'
_cell_volume   786.52595476
_cell_formula_units_Z   1
loop_
 _symmetry_equiv_pos_site_id
 _symmetry_equiv_pos_as_xyz
  1  'x, y, z'
loop_
 _atom_site_type_symbol
 _atom_site_label
 _atom_site_symmetry_multiplicity
 _atom_site_fract_x
 _atom_site_fract_y
 _atom_site_fract_z
 _atom_site_occupancy
  Tb  Tb0  1  0.209602  0.790398  0.439223  1
  Tb  Tb1  1  0.209590  0.419214  0.439280  1
  Tb  Tb2  1  0.580785  0.790410  0.439280  1
  Tb  Tb3  1  0.790468  0.209532  0.560692  1
  Tb  Tb4  1  0.790344  0.580842  0.560633  1
  Tb  Tb5  1  0.419160  0.209657  0.560633  1
  Tb  Tb6  1  0.790283  0.209717  0.939231  1
  Y  Y7  1  0.999988  0.000012  0.500018  1
  Y  Y8  1  0.999971  0.000030  0.999920  1
  Y  Y9  1  0.790649  0.581415  0.940012  1
  Y  Y10  1  0.418586  0.209352  0.940013  1
  Y  Y11  1  0.209400  0.790601  0.060106  1
  Y  Y12  1  0.209443  0.418863  0.060132  1
  Y  Y13  1  0.581134  0.790556  0.060133  1
  Y  Y14  1  0.541177  0.458823  0.249975  1
  Y  Y15  1  0.541097  0.082335  0.249986  1
  Y  Y16  1  0.917662  0.458902  0.249986  1
  Y  Y17  1  0.458867  0.541134  0.750016  1
  Y  Y18  1  0.458828  0.917670  0.750034  1
  Y  Y19  1  0.082331  0.541172  0.750033  1
  Hg  Hg20  1  0.881348  0.118653  0.249899  1
  Hg  Hg21  1  0.881302  0.762535  0.249775  1
  Hg  Hg22  1  0.237465  0.118697  0.249775  1
  Hg  Hg23  1  0.118712  0.881288  0.750266  1
  Hg  Hg24  1  0.118711  0.237370  0.750208  1
  Hg  Hg25  1  0.762630  0.881290  0.750208  1
  Ru  Ru26  1  0.333340  0.666653  0.252030  1
  Ru  Ru27  1  0.667127  0.332878  0.748501  1
