# generated using pymatgen
data_YIrF7
_symmetry_space_group_name_H-M   'P 1'
_cell_length_a   5.60748900
_cell_length_b   8.96736776
_cell_length_c   11.98481229
_cell_angle_alpha   62.61132651
_cell_angle_beta   90.00000000
_cell_angle_gamma   90.00000000
_symmetry_Int_Tables_number   1
_chemical_formula_structural   YIrF7
_chemical_formula_sum   'Y4 Ir4 F28'
_cell_volume   535.09612506
_cell_formula_units_Z   4
loop_
 _symmetry_equiv_pos_site_id
 _symmetry_equiv_pos_as_xyz
  1  'x, y, z'
loop_
 _atom_site_type_symbol
 _atom_site_label
 _atom_site_symmetry_multiplicity
 _atom_site_fract_x
 _atom_site_fract_y
 _atom_site_fract_z
 _atom_site_occupancy
  Y  Y0  1  0.759856  0.813460  0.766445  1
  Y  Y1  1  0.259856  0.186540  0.733555  1
  Y  Y2  1  0.240144  0.186540  0.233555  1
  Y  Y3  1  0.740144  0.813460  0.266445  1
  Ir  Ir4  1  0.757552  0.273584  0.955148  1
  Ir  Ir5  1  0.257552  0.726416  0.544852  1
  Ir  Ir6  1  0.242448  0.726416  0.044852  1
  Ir  Ir7  1  0.742448  0.273584  0.455148  1
  F  F8  1  0.448759  0.705673  0.919768  1
  F  F9  1  0.948759  0.294327  0.580232  1
  F  F10  1  0.551241  0.294327  0.080232  1
  F  F11  1  0.051241  0.705673  0.419768  1
  F  F12  1  0.451382  0.282421  0.545545  1
  F  F13  1  0.951382  0.717579  0.954455  1
  F  F14  1  0.548618  0.717579  0.454455  1
  F  F15  1  0.048618  0.282421  0.045545  1
  F  F16  1  0.767729  0.517305  0.859396  1
  F  F17  1  0.267729  0.482695  0.640604  1
  F  F18  1  0.232271  0.482695  0.140604  1
  F  F19  1  0.732271  0.517305  0.359396  1
  F  F20  1  0.757367  0.029842  0.048502  1
  F  F21  1  0.257367  0.970158  0.451498  1
  F  F22  1  0.242633  0.970158  0.951498  1
  F  F23  1  0.742633  0.029842  0.548502  1
  F  F24  1  0.974868  0.729888  0.641519  1
  F  F25  1  0.474868  0.270112  0.858481  1
  F  F26  1  0.025132  0.270112  0.358481  1
  F  F27  1  0.525132  0.729888  0.141519  1
  F  F28  1  0.040237  0.745109  0.172904  1
  F  F29  1  0.540237  0.254891  0.327096  1
  F  F30  1  0.959763  0.254891  0.827096  1
  F  F31  1  0.459763  0.745109  0.672904  1
  F  F32  1  0.420942  0.972116  0.232915  1
  F  F33  1  0.920942  0.027884  0.267085  1
  F  F34  1  0.579058  0.027884  0.767085  1
  F  F35  1  0.079058  0.972116  0.732915  1
