# generated using pymatgen
data_CaHo7(B6Ru)4
_symmetry_space_group_name_H-M   'P 1'
_cell_length_a   3.65000200
_cell_length_b   9.12732483
_cell_length_c   11.51276682
_cell_angle_alpha   89.89505493
_cell_angle_beta   90.00000000
_cell_angle_gamma   90.00000000
_symmetry_Int_Tables_number   1
_chemical_formula_structural   CaHo7(B6Ru)4
_chemical_formula_sum   'Ca1 Ho7 B24 Ru4'
_cell_volume   383.54434993
_cell_formula_units_Z   1
loop_
 _symmetry_equiv_pos_site_id
 _symmetry_equiv_pos_as_xyz
  1  'x, y, z'
loop_
 _atom_site_type_symbol
 _atom_site_label
 _atom_site_symmetry_multiplicity
 _atom_site_fract_x
 _atom_site_fract_y
 _atom_site_fract_z
 _atom_site_occupancy
  Ca  Ca0  1  0.000000  0.322932  0.413826  1
  Ho  Ho1  1  0.000000  0.675753  0.584995  1
  Ho  Ho2  1  0.000000  0.822873  0.086334  1
  Ho  Ho3  1  0.000000  0.177580  0.914559  1
  Ho  Ho4  1  0.000000  0.943957  0.371193  1
  Ho  Ho5  1  0.000000  0.057647  0.628226  1
  Ho  Ho6  1  0.000000  0.443100  0.129357  1
  Ho  Ho7  1  0.000000  0.556190  0.872287  1
  B  B8  1  0.500000  0.554721  0.432670  1
  B  B9  1  0.500000  0.446283  0.567857  1
  B  B10  1  0.500000  0.053186  0.066374  1
  B  B11  1  0.500000  0.945891  0.932613  1
  B  B12  1  0.500000  0.748448  0.419369  1
  B  B13  1  0.500000  0.252050  0.581438  1
  B  B14  1  0.500000  0.247528  0.080122  1
  B  B15  1  0.500000  0.751864  0.919725  1
  B  B16  1  0.500000  0.791784  0.266051  1
  B  B17  1  0.500000  0.209352  0.734362  1
  B  B18  1  0.500000  0.289806  0.232939  1
  B  B19  1  0.500000  0.709205  0.766363  1
  B  B20  1  0.500000  0.632454  0.185637  1
  B  B21  1  0.500000  0.368282  0.815330  1
  B  B22  1  0.500000  0.130973  0.313572  1
  B  B23  1  0.500000  0.868227  0.685237  1
  B  B24  1  0.500000  0.983258  0.211743  1
  B  B25  1  0.500000  0.016403  0.787340  1
  B  B26  1  0.500000  0.484513  0.287361  1
  B  B27  1  0.500000  0.516504  0.712975  1
  B  B28  1  0.500000  0.608553  0.030171  1
  B  B29  1  0.500000  0.391682  0.970438  1
  B  B30  1  0.500000  0.104267  0.471114  1
  B  B31  1  0.500000  0.893992  0.529301  1
  Ru  Ru32  1  0.000000  0.640212  0.320201  1
  Ru  Ru33  1  0.000000  0.362027  0.680726  1
  Ru  Ru34  1  0.000000  0.136318  0.176963  1
  Ru  Ru35  1  0.000000  0.862184  0.821230  1
