# generated using pymatgen
data_Eu2BRu4C3
_symmetry_space_group_name_H-M   'P 1'
_cell_length_a   6.75456981
_cell_length_b   5.86936276
_cell_length_c   5.54502886
_cell_angle_alpha   72.50079157
_cell_angle_beta   56.45719895
_cell_angle_gamma   51.53038939
_symmetry_Int_Tables_number   1
_chemical_formula_structural   Eu2BRu4C3
_chemical_formula_sum   'Eu2 B1 Ru4 C3'
_cell_volume   143.14108660
_cell_formula_units_Z   1
loop_
 _symmetry_equiv_pos_site_id
 _symmetry_equiv_pos_as_xyz
  1  'x, y, z'
loop_
 _atom_site_type_symbol
 _atom_site_label
 _atom_site_symmetry_multiplicity
 _atom_site_fract_x
 _atom_site_fract_y
 _atom_site_fract_z
 _atom_site_occupancy
  Eu  Eu0  1  0.998945  0.001055  0.998945  1
  Eu  Eu1  1  0.250303  0.249697  0.250303  1
  B  B2  1  0.931049  0.568951  0.931049  1
  Ru  Ru3  1  0.627191  0.638724  0.375439  1
  Ru  Ru4  1  0.375439  0.358646  0.627191  1
  Ru  Ru5  1  0.606233  0.618734  0.889190  1
  Ru  Ru6  1  0.889190  0.885844  0.606233  1
  C  C7  1  0.320809  0.679191  0.320809  1
  C  C8  1  0.681055  0.318945  0.681055  1
  C  C9  1  0.569785  0.930215  0.569785  1
