# generated using pymatgen
data_TmZn2Ni2Ag
_symmetry_space_group_name_H-M   'P 1'
_cell_length_a   5.02039103
_cell_length_b   5.10257514
_cell_length_c   5.02039085
_cell_angle_alpha   59.45680353
_cell_angle_beta   61.31117668
_cell_angle_gamma   59.45680620
_symmetry_Int_Tables_number   1
_chemical_formula_structural   TmZn2Ni2Ag
_chemical_formula_sum   'Tm1 Zn2 Ni2 Ag1'
_cell_volume   91.02899811
_cell_formula_units_Z   1
loop_
 _symmetry_equiv_pos_site_id
 _symmetry_equiv_pos_as_xyz
  1  'x, y, z'
loop_
 _atom_site_type_symbol
 _atom_site_label
 _atom_site_symmetry_multiplicity
 _atom_site_fract_x
 _atom_site_fract_y
 _atom_site_fract_z
 _atom_site_occupancy
  Tm  Tm0  1  0.741320  0.758679  0.741320  1
  Zn  Zn1  1  0.127827  0.619627  0.127827  1
  Zn  Zn2  1  0.127830  0.124717  0.127830  1
  Ni  Ni3  1  0.626230  0.122775  0.128221  1
  Ni  Ni4  1  0.128221  0.122775  0.626230  1
  Ag  Ag5  1  0.498573  0.501427  0.498573  1
