# generated using pymatgen
data_Tb2Nd8B2Cl15
_symmetry_space_group_name_H-M   'P 1'
_cell_length_a   8.99295908
_cell_length_b   9.79501503
_cell_length_c   10.62767041
_cell_angle_alpha   90.94021364
_cell_angle_beta   114.53344847
_cell_angle_gamma   110.94053251
_symmetry_Int_Tables_number   1
_chemical_formula_structural   Tb2Nd8B2Cl15
_chemical_formula_sum   'Tb2 Nd8 B2 Cl15'
_cell_volume   780.27777327
_cell_formula_units_Z   1
loop_
 _symmetry_equiv_pos_site_id
 _symmetry_equiv_pos_as_xyz
  1  'x, y, z'
loop_
 _atom_site_type_symbol
 _atom_site_label
 _atom_site_symmetry_multiplicity
 _atom_site_fract_x
 _atom_site_fract_y
 _atom_site_fract_z
 _atom_site_occupancy
  Tb  Tb0  1  0.727772  0.076088  0.048123  1
  Tb  Tb1  1  0.272228  0.923912  0.951877  1
  Nd  Nd2  1  0.809819  0.418082  0.278159  1
  Nd  Nd3  1  0.190181  0.581918  0.721841  1
  Nd  Nd4  1  0.681104  0.744069  0.818919  1
  Nd  Nd5  1  0.318896  0.255931  0.181081  1
  Nd  Nd6  1  0.527794  0.699485  0.102382  1
  Nd  Nd7  1  0.472206  0.300515  0.897618  1
  Nd  Nd8  1  0.591764  0.035908  0.333266  1
  Nd  Nd9  1  0.408236  0.964092  0.666734  1
  B  B10  1  0.466861  0.822010  0.877734  1
  B  B11  1  0.533139  0.177990  0.122266  1
  Cl  Cl12  1  0.000000  0.000000  0.000000  1
  Cl  Cl13  1  0.634110  0.882091  0.585152  1
  Cl  Cl14  1  0.365890  0.117909  0.414848  1
  Cl  Cl15  1  0.882852  0.299730  0.523772  1
  Cl  Cl16  1  0.117148  0.700270  0.476228  1
  Cl  Cl17  1  0.288799  0.769350  0.172703  1
  Cl  Cl18  1  0.711201  0.230650  0.827297  1
  Cl  Cl19  1  0.043810  0.333332  0.218659  1
  Cl  Cl20  1  0.164308  0.051810  0.713328  1
  Cl  Cl21  1  0.835692  0.948190  0.286672  1
  Cl  Cl22  1  0.233129  0.410645  0.945703  1
  Cl  Cl23  1  0.766871  0.589355  0.054297  1
  Cl  Cl24  1  0.407632  0.466748  0.659311  1
  Cl  Cl25  1  0.592368  0.533252  0.340689  1
  Cl  Cl26  1  0.956190  0.666668  0.781341  1
