# generated using pymatgen
data_Tb(Th2Fe)3
_symmetry_space_group_name_H-M   'P 1'
_cell_length_a   9.68544500
_cell_length_b   9.68544439
_cell_length_c   6.20754100
_cell_angle_alpha   90.00000000
_cell_angle_beta   90.00000000
_cell_angle_gamma   119.99999867
_symmetry_Int_Tables_number   1
_chemical_formula_structural   Tb(Th2Fe)3
_chemical_formula_sum   'Tb2 Th12 Fe6'
_cell_volume   504.30046121
_cell_formula_units_Z   2
loop_
 _symmetry_equiv_pos_site_id
 _symmetry_equiv_pos_as_xyz
  1  'x, y, z'
loop_
 _atom_site_type_symbol
 _atom_site_label
 _atom_site_symmetry_multiplicity
 _atom_site_fract_x
 _atom_site_fract_y
 _atom_site_fract_z
 _atom_site_occupancy
  Tb  Tb0  1  0.333333  0.666667  0.036281  1
  Tb  Tb1  1  0.666667  0.333333  0.536281  1
  Th  Th2  1  0.125728  0.874272  0.250315  1
  Th  Th3  1  0.251457  0.125728  0.750315  1
  Th  Th4  1  0.874272  0.748543  0.750315  1
  Th  Th5  1  0.125728  0.251457  0.250315  1
  Th  Th6  1  0.748543  0.874272  0.250315  1
  Th  Th7  1  0.874272  0.125728  0.750315  1
  Th  Th8  1  0.541167  0.458833  0.067763  1
  Th  Th9  1  0.082334  0.541167  0.567763  1
  Th  Th10  1  0.458833  0.917666  0.567763  1
  Th  Th11  1  0.541167  0.082334  0.067763  1
  Th  Th12  1  0.917666  0.458833  0.067763  1
  Th  Th13  1  0.458833  0.541167  0.567763  1
  Fe  Fe14  1  0.819454  0.180546  0.279828  1
  Fe  Fe15  1  0.638906  0.819454  0.779828  1
  Fe  Fe16  1  0.180546  0.361094  0.779828  1
  Fe  Fe17  1  0.819454  0.638906  0.279828  1
  Fe  Fe18  1  0.361094  0.180546  0.279828  1
  Fe  Fe19  1  0.180546  0.819454  0.779828  1
