# generated using pymatgen
data_Er10In8IrPd2Rh
_symmetry_space_group_name_H-M   'P 1'
_cell_length_a   3.59600900
_cell_length_b   8.10006983
_cell_length_c   18.15712288
_cell_angle_alpha   90.03005714
_cell_angle_beta   90.00000000
_cell_angle_gamma   90.00000000
_symmetry_Int_Tables_number   1
_chemical_formula_structural   Er10In8IrPd2Rh
_chemical_formula_sum   'Er10 In8 Ir1 Pd2 Rh1'
_cell_volume   528.87922248
_cell_formula_units_Z   1
loop_
 _symmetry_equiv_pos_site_id
 _symmetry_equiv_pos_as_xyz
  1  'x, y, z'
loop_
 _atom_site_type_symbol
 _atom_site_label
 _atom_site_symmetry_multiplicity
 _atom_site_fract_x
 _atom_site_fract_y
 _atom_site_fract_z
 _atom_site_occupancy
  Er  Er0  1  0.000000  0.499942  0.500153  1
  Er  Er1  1  0.000000  0.999851  0.999846  1
  Er  Er2  1  0.000000  0.729749  0.278019  1
  Er  Er3  1  0.000000  0.271469  0.722332  1
  Er  Er4  1  0.000000  0.747969  0.779718  1
  Er  Er5  1  0.000000  0.251361  0.220329  1
  Er  Er6  1  0.000000  0.613627  0.086863  1
  Er  Er7  1  0.000000  0.386166  0.913317  1
  Er  Er8  1  0.000000  0.884536  0.584673  1
  Er  Er9  1  0.000000  0.115167  0.415207  1
  In  In10  1  0.500000  0.709698  0.932516  1
  In  In11  1  0.500000  0.290262  0.067861  1
  In  In12  1  0.500000  0.790504  0.432003  1
  In  In13  1  0.500000  0.209486  0.567861  1
  In  In14  1  0.500000  0.578910  0.648102  1
  In  In15  1  0.500000  0.421280  0.351567  1
  In  In16  1  0.500000  0.922365  0.149598  1
  In  In17  1  0.500000  0.077312  0.850419  1
  Ir  Ir18  1  0.500000  0.480634  0.804200  1
  Pd  Pd19  1  0.500000  0.980411  0.696083  1
  Pd  Pd20  1  0.500000  0.019415  0.303840  1
  Rh  Rh21  1  0.500000  0.519886  0.195493  1
