# generated using pymatgen
data_Ce8V3Si16Mo9
_symmetry_space_group_name_H-M   'P 1'
_cell_length_a   6.97427673
_cell_length_b   6.97427717
_cell_length_c   12.97035900
_cell_angle_alpha   90.07960628
_cell_angle_beta   89.92039371
_cell_angle_gamma   89.70994525
_symmetry_Int_Tables_number   1
_chemical_formula_structural   Ce8V3Si16Mo9
_chemical_formula_sum   'Ce8 V3 Si16 Mo9'
_cell_volume   630.87594425
_cell_formula_units_Z   1
loop_
 _symmetry_equiv_pos_site_id
 _symmetry_equiv_pos_as_xyz
  1  'x, y, z'
loop_
 _atom_site_type_symbol
 _atom_site_label
 _atom_site_symmetry_multiplicity
 _atom_site_fract_x
 _atom_site_fract_y
 _atom_site_fract_z
 _atom_site_occupancy
  Ce  Ce0  1  0.998170  0.664557  0.029917  1
  Ce  Ce1  1  0.001750  0.335469  0.529652  1
  Ce  Ce2  1  0.664557  0.998170  0.970083  1
  Ce  Ce3  1  0.165562  0.502733  0.780714  1
  Ce  Ce4  1  0.834693  0.499288  0.280821  1
  Ce  Ce5  1  0.502733  0.165562  0.219286  1
  Ce  Ce6  1  0.499288  0.834693  0.719179  1
  Ce  Ce7  1  0.335469  0.001750  0.470348  1
  V  V8  1  0.829948  0.168730  0.749397  1
  V  V9  1  0.168730  0.829948  0.250603  1
  V  V10  1  0.330738  0.330738  0.000000  1
  Si  Si11  1  0.035657  0.717134  0.434561  1
  Si  Si12  1  0.963474  0.285942  0.933566  1
  Si  Si13  1  0.717134  0.035657  0.565439  1
  Si  Si14  1  0.212955  0.463678  0.182954  1
  Si  Si15  1  0.787066  0.534892  0.684113  1
  Si  Si16  1  0.463678  0.212955  0.817046  1
  Si  Si17  1  0.534892  0.787066  0.315887  1
  Si  Si18  1  0.285942  0.963474  0.066434  1
  Si  Si19  1  0.804041  0.876903  0.187400  1
  Si  Si20  1  0.303140  0.620040  0.562490  1
  Si  Si21  1  0.696713  0.377741  0.062050  1
  Si  Si22  1  0.620040  0.303140  0.437510  1
  Si  Si23  1  0.377741  0.696713  0.937950  1
  Si  Si24  1  0.123395  0.197089  0.311496  1
  Si  Si25  1  0.197089  0.123395  0.688504  1
  Si  Si26  1  0.876903  0.804041  0.812600  1
  Mo  Mo27  1  0.330788  0.501162  0.372771  1
  Mo  Mo28  1  0.835293  0.003441  0.373483  1
  Mo  Mo29  1  0.000717  0.164540  0.123899  1
  Mo  Mo30  1  0.003441  0.835293  0.626517  1
  Mo  Mo31  1  0.501162  0.330788  0.627229  1
  Mo  Mo32  1  0.164540  0.000717  0.876101  1
  Mo  Mo33  1  0.668783  0.668783  0.500000  1
  Mo  Mo34  1  0.498446  0.665331  0.126181  1
  Mo  Mo35  1  0.665331  0.498446  0.873819  1
