# generated using pymatgen
data_CsPa(AsO4)2
_symmetry_space_group_name_H-M   'P 1'
_cell_length_a   5.55119801
_cell_length_b   5.55119776
_cell_length_c   9.34397176
_cell_angle_alpha   93.81949463
_cell_angle_beta   93.81949205
_cell_angle_gamma   63.51462480
_symmetry_Int_Tables_number   1
_chemical_formula_structural   CsPa(AsO4)2
_chemical_formula_sum   'Cs1 Pa1 As2 O8'
_cell_volume   256.92982209
_cell_formula_units_Z   1
loop_
 _symmetry_equiv_pos_site_id
 _symmetry_equiv_pos_as_xyz
  1  'x, y, z'
loop_
 _atom_site_type_symbol
 _atom_site_label
 _atom_site_symmetry_multiplicity
 _atom_site_fract_x
 _atom_site_fract_y
 _atom_site_fract_z
 _atom_site_occupancy
  Cs  Cs0  1  0.000000  0.000000  0.000000  1
  Pa  Pa1  1  0.000000  0.000000  0.499999  1
  As  As2  1  0.635280  0.635280  0.295383  1
  As  As3  1  0.364719  0.364719  0.704617  1
  O  O4  1  0.678015  0.678015  0.126493  1
  O  O5  1  0.774627  0.297805  0.339253  1
  O  O6  1  0.297805  0.774627  0.339253  1
  O  O7  1  0.779628  0.779628  0.424725  1
  O  O8  1  0.220373  0.220373  0.575275  1
  O  O9  1  0.702195  0.225373  0.660746  1
  O  O10  1  0.225373  0.702195  0.660746  1
  O  O11  1  0.321984  0.321984  0.873508  1
