# generated using pymatgen
data_LaPr(TaSe2)8
_symmetry_space_group_name_H-M   'P 1'
_cell_length_a   7.01173000
_cell_length_b   7.01172974
_cell_length_c   14.98937300
_cell_angle_alpha   90.00000000
_cell_angle_beta   90.00000000
_cell_angle_gamma   120.00000124
_symmetry_Int_Tables_number   1
_chemical_formula_structural   LaPr(TaSe2)8
_chemical_formula_sum   'La1 Pr1 Ta8 Se16'
_cell_volume   638.21123557
_cell_formula_units_Z   1
loop_
 _symmetry_equiv_pos_site_id
 _symmetry_equiv_pos_as_xyz
  1  'x, y, z'
loop_
 _atom_site_type_symbol
 _atom_site_label
 _atom_site_symmetry_multiplicity
 _atom_site_fract_x
 _atom_site_fract_y
 _atom_site_fract_z
 _atom_site_occupancy
  La  La0  1  0.000000  0.000000  0.000000  1
  Pr  Pr1  1  0.000000  0.000000  0.500000  1
  Ta  Ta2  1  0.509484  0.490516  0.750148  1
  Ta  Ta3  1  0.018966  0.509484  0.249852  1
  Ta  Ta4  1  0.490516  0.981034  0.249852  1
  Ta  Ta5  1  0.509484  0.018966  0.750148  1
  Ta  Ta6  1  0.981034  0.490516  0.750148  1
  Ta  Ta7  1  0.490516  0.509484  0.249852  1
  Ta  Ta8  1  0.000000  0.000000  0.750403  1
  Ta  Ta9  1  0.000000  0.000000  0.249597  1
  Se  Se10  1  0.829479  0.170521  0.359287  1
  Se  Se11  1  0.829479  0.658957  0.359287  1
  Se  Se12  1  0.341043  0.170521  0.359287  1
  Se  Se13  1  0.658275  0.829137  0.859341  1
  Se  Se14  1  0.170521  0.341043  0.640713  1
  Se  Se15  1  0.170863  0.829137  0.859341  1
  Se  Se16  1  0.170863  0.341725  0.859341  1
  Se  Se17  1  0.829137  0.170863  0.140659  1
  Se  Se18  1  0.341725  0.170863  0.140659  1
  Se  Se19  1  0.658957  0.829479  0.640713  1
  Se  Se20  1  0.333333  0.666667  0.132437  1
  Se  Se21  1  0.666667  0.333333  0.633305  1
  Se  Se22  1  0.666667  0.333333  0.867563  1
  Se  Se23  1  0.333333  0.666667  0.366695  1
  Se  Se24  1  0.829137  0.658275  0.140659  1
  Se  Se25  1  0.170521  0.829479  0.640713  1
