# generated using pymatgen
data_TiMn2Si12Mo17
_symmetry_space_group_name_H-M   'P 1'
_cell_length_a   7.24458247
_cell_length_b   7.24458284
_cell_length_c   13.62857100
_cell_angle_alpha   90.00000000
_cell_angle_beta   90.00000000
_cell_angle_gamma   140.63230014
_symmetry_Int_Tables_number   1
_chemical_formula_structural   TiMn2Si12Mo17
_chemical_formula_sum   'Ti1 Mn2 Si12 Mo17'
_cell_volume   453.69940259
_cell_formula_units_Z   1
loop_
 _symmetry_equiv_pos_site_id
 _symmetry_equiv_pos_as_xyz
  1  'x, y, z'
loop_
 _atom_site_type_symbol
 _atom_site_label
 _atom_site_symmetry_multiplicity
 _atom_site_fract_x
 _atom_site_fract_y
 _atom_site_fract_z
 _atom_site_occupancy
  Ti  Ti0  1  0.501048  0.501048  0.500000  1
  Mn  Mn1  1  0.500482  0.500482  0.000000  1
  Mn  Mn2  1  0.001734  0.001734  0.000000  1
  Si  Si3  1  0.249878  0.750210  0.751760  1
  Si  Si4  1  0.750210  0.249878  0.248240  1
  Si  Si5  1  0.750210  0.249878  0.751760  1
  Si  Si6  1  0.249878  0.750210  0.248240  1
  Si  Si7  1  0.250738  0.250738  0.667165  1
  Si  Si8  1  0.748978  0.748978  0.156258  1
  Si  Si9  1  0.250738  0.250738  0.332835  1
  Si  Si10  1  0.748978  0.748978  0.843742  1
  Si  Si11  1  0.583546  0.917511  0.500000  1
  Si  Si12  1  0.091263  0.406557  0.000000  1
  Si  Si13  1  0.917511  0.583546  0.500000  1
  Si  Si14  1  0.406557  0.091263  0.000000  1
  Mo  Mo15  1  0.075574  0.426972  0.399300  1
  Mo  Mo16  1  0.571314  0.927572  0.903755  1
  Mo  Mo17  1  0.426972  0.075574  0.600700  1
  Mo  Mo18  1  0.927572  0.571314  0.096245  1
  Mo  Mo19  1  0.846984  0.651510  0.679152  1
  Mo  Mo20  1  0.347719  0.151543  0.174990  1
  Mo  Mo21  1  0.651510  0.846984  0.320848  1
  Mo  Mo22  1  0.151543  0.347719  0.825010  1
  Mo  Mo23  1  0.651510  0.846984  0.679152  1
  Mo  Mo24  1  0.151543  0.347719  0.174990  1
  Mo  Mo25  1  0.846984  0.651510  0.320848  1
  Mo  Mo26  1  0.347719  0.151543  0.825010  1
  Mo  Mo27  1  0.426972  0.075574  0.399300  1
  Mo  Mo28  1  0.927572  0.571314  0.903755  1
  Mo  Mo29  1  0.075574  0.426972  0.600700  1
  Mo  Mo30  1  0.571314  0.927572  0.096245  1
  Mo  Mo31  1  0.999868  0.999868  0.500000  1
