# generated using pymatgen
data_Tb8Lu11Si16W
_symmetry_space_group_name_H-M   'P 1'
_cell_length_a   7.52603393
_cell_length_b   7.52603430
_cell_length_c   13.77034045
_cell_angle_alpha   89.71410504
_cell_angle_beta   90.28589440
_cell_angle_gamma   90.07785339
_symmetry_Int_Tables_number   1
_chemical_formula_structural   Tb8Lu11Si16W
_chemical_formula_sum   'Tb8 Lu11 Si16 W1'
_cell_volume   779.94834929
_cell_formula_units_Z   1
loop_
 _symmetry_equiv_pos_site_id
 _symmetry_equiv_pos_as_xyz
  1  'x, y, z'
loop_
 _atom_site_type_symbol
 _atom_site_label
 _atom_site_symmetry_multiplicity
 _atom_site_fract_x
 _atom_site_fract_y
 _atom_site_fract_z
 _atom_site_occupancy
  Tb  Tb0  1  0.000383  0.348687  0.207464  1
  Tb  Tb1  1  0.003615  0.647729  0.714447  1
  Tb  Tb2  1  0.146575  0.495241  0.460834  1
  Tb  Tb3  1  0.502958  0.857942  0.037083  1
  Tb  Tb4  1  0.857942  0.502958  0.962917  1
  Tb  Tb5  1  0.495241  0.146575  0.539166  1
  Tb  Tb6  1  0.348687  0.000383  0.792536  1
  Tb  Tb7  1  0.647729  0.003615  0.285553  1
  Lu  Lu8  1  0.821178  0.821178  0.500000  1
  Lu  Lu9  1  0.323555  0.678445  0.246279  1
  Lu  Lu10  1  0.678445  0.323555  0.753721  1
  Lu  Lu11  1  0.142665  0.005533  0.373189  1
  Lu  Lu12  1  0.858834  0.998302  0.880487  1
  Lu  Lu13  1  0.494108  0.645224  0.626409  1
  Lu  Lu14  1  0.350408  0.503894  0.876319  1
  Lu  Lu15  1  0.503894  0.350408  0.123681  1
  Lu  Lu16  1  0.645224  0.494108  0.373591  1
  Lu  Lu17  1  0.005533  0.142665  0.626811  1
  Lu  Lu18  1  0.998302  0.858834  0.119513  1
  Si  Si19  1  0.353030  0.294811  0.313854  1
  Si  Si20  1  0.646378  0.709559  0.817120  1
  Si  Si21  1  0.202048  0.852416  0.565870  1
  Si  Si22  1  0.150615  0.803964  0.935648  1
  Si  Si23  1  0.803964  0.150615  0.064352  1
  Si  Si24  1  0.852416  0.202048  0.434130  1
  Si  Si25  1  0.294811  0.353030  0.686146  1
  Si  Si26  1  0.709559  0.646378  0.182880  1
  Si  Si27  1  0.289808  0.058972  0.176931  1
  Si  Si28  1  0.702722  0.943079  0.690233  1
  Si  Si29  1  0.443751  0.793721  0.435463  1
  Si  Si30  1  0.205337  0.541855  0.061840  1
  Si  Si31  1  0.541855  0.205337  0.938160  1
  Si  Si32  1  0.793721  0.443751  0.564537  1
  Si  Si33  1  0.058972  0.289808  0.823069  1
  Si  Si34  1  0.943079  0.702722  0.309767  1
  W  W35  1  0.182659  0.182659  0.000000  1
