# generated using pymatgen
data_Zn3CrN4
_symmetry_space_group_name_H-M   'P 1'
_cell_length_a   6.40688200
_cell_length_b   5.54577700
_cell_length_c   5.27411900
_cell_angle_alpha   90.00000000
_cell_angle_beta   90.00000000
_cell_angle_gamma   90.00000000
_symmetry_Int_Tables_number   1
_chemical_formula_structural   Zn3CrN4
_chemical_formula_sum   'Zn6 Cr2 N8'
_cell_volume   187.39545443
_cell_formula_units_Z   2
loop_
 _symmetry_equiv_pos_site_id
 _symmetry_equiv_pos_as_xyz
  1  'x, y, z'
loop_
 _atom_site_type_symbol
 _atom_site_label
 _atom_site_symmetry_multiplicity
 _atom_site_fract_x
 _atom_site_fract_y
 _atom_site_fract_z
 _atom_site_occupancy
  Zn  Zn0  1  0.251422  0.830111  0.732782  1
  Zn  Zn1  1  0.248578  0.169889  0.232782  1
  Zn  Zn2  1  0.748578  0.830111  0.732782  1
  Zn  Zn3  1  0.751422  0.169889  0.232782  1
  Zn  Zn4  1  0.000000  0.338382  0.730444  1
  Zn  Zn5  1  0.500000  0.661618  0.230444  1
  Cr  Cr6  1  0.000000  0.671126  0.229412  1
  Cr  Cr7  1  0.500000  0.328874  0.729412  1
  N  N8  1  0.772554  0.821117  0.118218  1
  N  N9  1  0.727446  0.178883  0.618218  1
  N  N10  1  0.227446  0.821117  0.118218  1
  N  N11  1  0.272554  0.178883  0.618218  1
  N  N12  1  0.000000  0.372268  0.117738  1
  N  N13  1  0.500000  0.627732  0.617738  1
  N  N14  1  0.000000  0.673384  0.559665  1
  N  N15  1  0.500000  0.326616  0.059665  1
