# generated using pymatgen
data_Ho6TcB14Os
_symmetry_space_group_name_H-M   'P 1'
_cell_length_a   8.04422139
_cell_length_b   8.04422032
_cell_length_c   9.31010800
_cell_angle_alpha   90.00000000
_cell_angle_beta   90.00000000
_cell_angle_gamma   154.70915223
_symmetry_Int_Tables_number   1
_chemical_formula_structural   Ho6TcB14Os
_chemical_formula_sum   'Ho6 Tc1 B14 Os1'
_cell_volume   257.37573518
_cell_formula_units_Z   1
loop_
 _symmetry_equiv_pos_site_id
 _symmetry_equiv_pos_as_xyz
  1  'x, y, z'
loop_
 _atom_site_type_symbol
 _atom_site_label
 _atom_site_symmetry_multiplicity
 _atom_site_fract_x
 _atom_site_fract_y
 _atom_site_fract_z
 _atom_site_occupancy
  Ho  Ho0  1  0.105418  0.894582  0.061778  1
  Ho  Ho1  1  0.894513  0.105487  0.940375  1
  Ho  Ho2  1  0.757501  0.242499  0.250000  1
  Ho  Ho3  1  0.243453  0.756547  0.750000  1
  Ho  Ho4  1  0.105418  0.894582  0.438222  1
  Ho  Ho5  1  0.894513  0.105487  0.559625  1
  Tc  Tc6  1  0.947074  0.052926  0.250000  1
  B  B7  1  0.726988  0.273012  0.534490  1
  B  B8  1  0.272386  0.727614  0.466404  1
  B  B9  1  0.272386  0.727614  0.033596  1
  B  B10  1  0.726988  0.273012  0.965510  1
  B  B11  1  0.520600  0.479400  0.904282  1
  B  B12  1  0.479320  0.520680  0.095251  1
  B  B13  1  0.479320  0.520680  0.404749  1
  B  B14  1  0.520600  0.479400  0.595718  1
  B  B15  1  0.456649  0.543351  0.750000  1
  B  B16  1  0.543404  0.456596  0.250000  1
  B  B17  1  0.631909  0.368091  0.650788  1
  B  B18  1  0.367821  0.632179  0.349073  1
  B  B19  1  0.367821  0.632179  0.150927  1
  B  B20  1  0.631909  0.368091  0.849212  1
  Os  Os21  1  0.054012  0.945988  0.750000  1
