# generated using pymatgen
data_TmLu2Bi5O14
_symmetry_space_group_name_H-M   'P 1'
_cell_length_a   6.58553396
_cell_length_b   6.70003170
_cell_length_c   7.74317100
_cell_angle_alpha   106.77722978
_cell_angle_beta   89.49287332
_cell_angle_gamma   99.07934185
_symmetry_Int_Tables_number   1
_chemical_formula_structural   TmLu2Bi5O14
_chemical_formula_sum   'Tm1 Lu2 Bi5 O14'
_cell_volume   322.76950343
_cell_formula_units_Z   1
loop_
 _symmetry_equiv_pos_site_id
 _symmetry_equiv_pos_as_xyz
  1  'x, y, z'
loop_
 _atom_site_type_symbol
 _atom_site_label
 _atom_site_symmetry_multiplicity
 _atom_site_fract_x
 _atom_site_fract_y
 _atom_site_fract_z
 _atom_site_occupancy
  Tm  Tm0  1  0.264644  0.538426  0.885224  1
  Lu  Lu1  1  0.463603  0.003187  0.252621  1
  Lu  Lu2  1  0.536765  0.993163  0.751130  1
  Bi  Bi3  1  0.003228  0.007920  0.503097  1
  Bi  Bi4  1  0.004385  0.001620  0.999019  1
  Bi  Bi5  1  0.736660  0.473464  0.113888  1
  Bi  Bi6  1  0.721505  0.462914  0.615359  1
  Bi  Bi7  1  0.267629  0.530464  0.389352  1
  O  O8  1  0.447490  0.657896  0.164129  1
  O  O9  1  0.533247  0.337270  0.823200  1
  O  O10  1  0.306816  0.921623  0.949386  1
  O  O11  1  0.695421  0.052480  0.050969  1
  O  O12  1  0.304266  0.925209  0.516155  1
  O  O13  1  0.697588  0.077610  0.486219  1
  O  O14  1  0.530788  0.350874  0.347311  1
  O  O15  1  0.456402  0.646520  0.663285  1
  O  O16  1  0.939787  0.665720  0.953363  1
  O  O17  1  0.085129  0.329381  0.034027  1
  O  O18  1  0.093694  0.337855  0.628525  1
  O  O19  1  0.908784  0.678882  0.372674  1
  O  O20  1  0.869136  0.930242  0.732434  1
  O  O21  1  0.133033  0.077281  0.268633  1
