# generated using pymatgen
data_YTm3TcRu7
_symmetry_space_group_name_H-M   'P 1'
_cell_length_a   5.20276844
_cell_length_b   5.36565699
_cell_length_c   8.93894503
_cell_angle_alpha   89.99999750
_cell_angle_beta   89.99227219
_cell_angle_gamma   121.04118914
_symmetry_Int_Tables_number   1
_chemical_formula_structural   YTm3TcRu7
_chemical_formula_sum   'Y1 Tm3 Tc1 Ru7'
_cell_volume   213.80679965
_cell_formula_units_Z   1
loop_
 _symmetry_equiv_pos_site_id
 _symmetry_equiv_pos_as_xyz
  1  'x, y, z'
loop_
 _atom_site_type_symbol
 _atom_site_label
 _atom_site_symmetry_multiplicity
 _atom_site_fract_x
 _atom_site_fract_y
 _atom_site_fract_z
 _atom_site_occupancy
  Y  Y0  1  0.327970  0.663985  0.433061  1
  Tm  Tm1  1  0.656142  0.328071  0.567239  1
  Tm  Tm2  1  0.656427  0.328213  0.933951  1
  Tm  Tm3  1  0.328410  0.664205  0.066641  1
  Tc  Tc4  1  0.682478  0.841239  0.750734  1
  Ru  Ru5  1  0.983916  0.991958  0.499932  1
  Ru  Ru6  1  0.982209  0.991105  0.000329  1
  Ru  Ru7  1  0.834003  0.167613  0.248670  1
  Ru  Ru8  1  0.834003  0.666390  0.248670  1
  Ru  Ru9  1  0.354293  0.177147  0.248720  1
  Ru  Ru10  1  0.180073  0.826752  0.751026  1
  Ru  Ru11  1  0.180073  0.353322  0.751026  1
