# generated using pymatgen
data_Nd12Ir(RuBr4)3
_symmetry_space_group_name_H-M   'P 1'
_cell_length_a   10.46779066
_cell_length_b   10.46779187
_cell_length_c   10.43474700
_cell_angle_alpha   109.40728528
_cell_angle_beta   109.40728762
_cell_angle_gamma   109.53507829
_symmetry_Int_Tables_number   1
_chemical_formula_structural   Nd12Ir(RuBr4)3
_chemical_formula_sum   'Nd12 Ir1 Ru3 Br12'
_cell_volume   880.87079207
_cell_formula_units_Z   1
loop_
 _symmetry_equiv_pos_site_id
 _symmetry_equiv_pos_as_xyz
  1  'x, y, z'
loop_
 _atom_site_type_symbol
 _atom_site_label
 _atom_site_symmetry_multiplicity
 _atom_site_fract_x
 _atom_site_fract_y
 _atom_site_fract_z
 _atom_site_occupancy
  Nd  Nd0  1  0.264892  0.746184  0.231717  1
  Nd  Nd1  1  0.481292  0.746184  0.014467  1
  Nd  Nd2  1  0.233223  0.466447  0.483223  1
  Nd  Nd3  1  0.016401  0.032801  0.266401  1
  Nd  Nd4  1  0.233223  0.266777  0.750000  1
  Nd  Nd5  1  0.016401  0.483599  0.750000  1
  Nd  Nd6  1  0.481292  0.235108  0.466825  1
  Nd  Nd7  1  0.264892  0.018708  0.033175  1
  Nd  Nd8  1  0.753816  0.235108  0.268283  1
  Nd  Nd9  1  0.753816  0.018708  0.485533  1
  Nd  Nd10  1  0.467199  0.483599  0.233599  1
  Nd  Nd11  1  0.033553  0.266777  0.016777  1
  Ir  Ir12  1  0.500000  0.000000  0.250000  1
  Ru  Ru13  1  0.250178  0.500356  0.000178  1
  Ru  Ru14  1  0.999644  0.249822  0.499822  1
  Ru  Ru15  1  0.250178  0.249822  0.250000  1
  Br  Br16  1  0.249881  0.995543  0.504776  1
  Br  Br17  1  0.510037  0.505018  0.755018  1
  Br  Br18  1  0.249881  0.754338  0.745105  1
  Br  Br19  1  0.990796  0.745398  0.995398  1
  Br  Br20  1  0.994982  0.505018  0.250000  1
  Br  Br21  1  0.745662  0.995543  0.990767  1
  Br  Br22  1  0.754602  0.745398  0.250000  1
  Br  Br23  1  0.504457  0.754338  0.509233  1
  Br  Br24  1  0.504457  0.250119  0.995224  1
  Br  Br25  1  0.754602  0.509204  0.504602  1
  Br  Br26  1  0.745662  0.250119  0.754895  1
  Br  Br27  1  0.994982  0.989963  0.744982  1
