# generated using pymatgen
data_Y20Ag6IrRu
_symmetry_space_group_name_H-M   'P 1'
_cell_length_a   9.56959600
_cell_length_b   9.56958750
_cell_length_c   9.69564000
_cell_angle_alpha   90.00000000
_cell_angle_beta   90.00000000
_cell_angle_gamma   120.00001649
_symmetry_Int_Tables_number   1
_chemical_formula_structural   Y20Ag6IrRu
_chemical_formula_sum   'Y20 Ag6 Ir1 Ru1'
_cell_volume   768.94249497
_cell_formula_units_Z   1
loop_
 _symmetry_equiv_pos_site_id
 _symmetry_equiv_pos_as_xyz
  1  'x, y, z'
loop_
 _atom_site_type_symbol
 _atom_site_label
 _atom_site_symmetry_multiplicity
 _atom_site_fract_x
 _atom_site_fract_y
 _atom_site_fract_z
 _atom_site_occupancy
  Y  Y0  1  0.000000  0.000000  0.499252  1
  Y  Y1  1  0.000000  0.000000  0.000748  1
  Y  Y2  1  0.208163  0.791837  0.441794  1
  Y  Y3  1  0.208163  0.416326  0.441794  1
  Y  Y4  1  0.583675  0.791837  0.441794  1
  Y  Y5  1  0.791183  0.208817  0.559211  1
  Y  Y6  1  0.791182  0.582364  0.559211  1
  Y  Y7  1  0.417636  0.208817  0.559211  1
  Y  Y8  1  0.791183  0.208817  0.940789  1
  Y  Y9  1  0.791182  0.582364  0.940789  1
  Y  Y10  1  0.417636  0.208817  0.940789  1
  Y  Y11  1  0.208163  0.791837  0.058206  1
  Y  Y12  1  0.208163  0.416326  0.058206  1
  Y  Y13  1  0.583675  0.791837  0.058206  1
  Y  Y14  1  0.541629  0.458371  0.250000  1
  Y  Y15  1  0.541629  0.083258  0.250000  1
  Y  Y16  1  0.916742  0.458371  0.250000  1
  Y  Y17  1  0.458667  0.541334  0.750000  1
  Y  Y18  1  0.458667  0.917333  0.750000  1
  Y  Y19  1  0.082668  0.541333  0.750000  1
  Ag  Ag20  1  0.884066  0.115934  0.250000  1
  Ag  Ag21  1  0.884066  0.768132  0.250000  1
  Ag  Ag22  1  0.231868  0.115934  0.250000  1
  Ag  Ag23  1  0.116247  0.883753  0.750000  1
  Ag  Ag24  1  0.116247  0.232493  0.750000  1
  Ag  Ag25  1  0.767507  0.883753  0.750000  1
  Ir  Ir26  1  0.333333  0.666667  0.250000  1
  Ru  Ru27  1  0.666664  0.333331  0.750000  1
