# generated using pymatgen
data_TaCrF10
_symmetry_space_group_name_H-M   'P 1'
_cell_length_a   5.80891400
_cell_length_b   8.00277600
_cell_length_c   8.45496400
_cell_angle_alpha   90.00000000
_cell_angle_beta   90.00000000
_cell_angle_gamma   90.00000000
_symmetry_Int_Tables_number   1
_chemical_formula_structural   TaCrF10
_chemical_formula_sum   'Ta2 Cr2 F20'
_cell_volume   393.04961090
_cell_formula_units_Z   2
loop_
 _symmetry_equiv_pos_site_id
 _symmetry_equiv_pos_as_xyz
  1  'x, y, z'
loop_
 _atom_site_type_symbol
 _atom_site_label
 _atom_site_symmetry_multiplicity
 _atom_site_fract_x
 _atom_site_fract_y
 _atom_site_fract_z
 _atom_site_occupancy
  Ta  Ta0  1  0.250000  0.587181  0.743022  1
  Ta  Ta1  1  0.250000  0.087181  0.256978  1
  Cr  Cr2  1  0.750000  0.913626  0.742409  1
  Cr  Cr3  1  0.750000  0.413626  0.257591  1
  F  F4  1  0.750000  0.468750  0.455337  1
  F  F5  1  0.250000  0.222700  0.074128  1
  F  F6  1  0.250000  0.722700  0.925872  1
  F  F7  1  0.250000  0.031427  0.474270  1
  F  F8  1  0.995629  0.252666  0.329978  1
  F  F9  1  0.250000  0.531427  0.525730  1
  F  F10  1  0.750000  0.968750  0.544663  1
  F  F11  1  0.016224  0.442128  0.805338  1
  F  F12  1  0.533741  0.548953  0.197310  1
  F  F13  1  0.966259  0.548953  0.197310  1
  F  F14  1  0.483776  0.442128  0.805338  1
  F  F15  1  0.750000  0.288824  0.090403  1
  F  F16  1  0.504371  0.252666  0.329978  1
  F  F17  1  0.483776  0.942128  0.194662  1
  F  F18  1  0.750000  0.788824  0.909597  1
  F  F19  1  0.533741  0.048953  0.802690  1
  F  F20  1  0.966259  0.048953  0.802690  1
  F  F21  1  0.995629  0.752666  0.670022  1
  F  F22  1  0.504371  0.752666  0.670022  1
  F  F23  1  0.016224  0.942128  0.194662  1
