# generated using pymatgen
data_Ta3Al2BAu
_symmetry_space_group_name_H-M   'P 1'
_cell_length_a   8.49135909
_cell_length_b   8.49135903
_cell_length_c   8.49135800
_cell_angle_alpha   60.00000400
_cell_angle_beta   60.00000425
_cell_angle_gamma   60.00000483
_symmetry_Int_Tables_number   1
_chemical_formula_structural   Ta3Al2BAu
_chemical_formula_sum   'Ta12 Al8 B4 Au4'
_cell_volume   432.92892931
_cell_formula_units_Z   4
loop_
 _symmetry_equiv_pos_site_id
 _symmetry_equiv_pos_as_xyz
  1  'x, y, z'
loop_
 _atom_site_type_symbol
 _atom_site_label
 _atom_site_symmetry_multiplicity
 _atom_site_fract_x
 _atom_site_fract_y
 _atom_site_fract_z
 _atom_site_occupancy
  Ta  Ta0  1  0.566801  0.933199  0.566801  1
  Ta  Ta1  1  0.316801  0.683199  0.683199  1
  Ta  Ta2  1  0.683199  0.316801  0.316801  1
  Ta  Ta3  1  0.316801  0.683199  0.316801  1
  Ta  Ta4  1  0.683199  0.683199  0.316801  1
  Ta  Ta5  1  0.316801  0.316801  0.683199  1
  Ta  Ta6  1  0.566801  0.566801  0.933199  1
  Ta  Ta7  1  0.933199  0.566801  0.566801  1
  Ta  Ta8  1  0.566801  0.933199  0.933199  1
  Ta  Ta9  1  0.933199  0.933199  0.566801  1
  Ta  Ta10  1  0.683199  0.316801  0.683199  1
  Ta  Ta11  1  0.933199  0.566801  0.933199  1
  Al  Al12  1  0.912878  0.912878  0.912878  1
  Al  Al13  1  0.988634  0.337122  0.337122  1
  Al  Al14  1  0.337122  0.988634  0.337122  1
  Al  Al15  1  0.337122  0.337122  0.988634  1
  Al  Al16  1  0.912878  0.261366  0.912878  1
  Al  Al17  1  0.912878  0.912878  0.261366  1
  Al  Al18  1  0.261366  0.912878  0.912878  1
  Al  Al19  1  0.337122  0.337122  0.337122  1
  B  B20  1  0.625000  0.625000  0.625000  1
  B  B21  1  0.125000  0.625000  0.625000  1
  B  B22  1  0.625000  0.125000  0.625000  1
  B  B23  1  0.625000  0.625000  0.125000  1
  Au  Au24  1  0.125000  0.125000  0.125000  1
  Au  Au25  1  0.625000  0.125000  0.125000  1
  Au  Au26  1  0.125000  0.625000  0.125000  1
  Au  Au27  1  0.125000  0.125000  0.625000  1
