# generated using pymatgen
data_Dy20Cd6CoRe
_symmetry_space_group_name_H-M   'P 1'
_cell_length_a   9.55994500
_cell_length_b   9.55994678
_cell_length_c   9.90582800
_cell_angle_alpha   90.00000000
_cell_angle_beta   90.00000000
_cell_angle_gamma   119.99999729
_symmetry_Int_Tables_number   1
_chemical_formula_structural   Dy20Cd6CoRe
_chemical_formula_sum   'Dy20 Cd6 Co1 Re1'
_cell_volume   784.02930332
_cell_formula_units_Z   1
loop_
 _symmetry_equiv_pos_site_id
 _symmetry_equiv_pos_as_xyz
  1  'x, y, z'
loop_
 _atom_site_type_symbol
 _atom_site_label
 _atom_site_symmetry_multiplicity
 _atom_site_fract_x
 _atom_site_fract_y
 _atom_site_fract_z
 _atom_site_occupancy
  Dy  Dy0  1  0.000000  0.000000  0.499371  1
  Dy  Dy1  1  0.000000  0.000000  0.000629  1
  Dy  Dy2  1  0.539244  0.460756  0.250000  1
  Dy  Dy3  1  0.539244  0.078487  0.250000  1
  Dy  Dy4  1  0.921513  0.460756  0.250000  1
  Dy  Dy5  1  0.458323  0.541677  0.750000  1
  Dy  Dy6  1  0.458323  0.916648  0.750000  1
  Dy  Dy7  1  0.083352  0.541677  0.750000  1
  Dy  Dy8  1  0.208915  0.791085  0.441420  1
  Dy  Dy9  1  0.208915  0.417831  0.441420  1
  Dy  Dy10  1  0.582169  0.791085  0.441420  1
  Dy  Dy11  1  0.787596  0.212404  0.563734  1
  Dy  Dy12  1  0.787596  0.575190  0.563734  1
  Dy  Dy13  1  0.424810  0.212404  0.563734  1
  Dy  Dy14  1  0.787596  0.212404  0.936266  1
  Dy  Dy15  1  0.787596  0.575190  0.936266  1
  Dy  Dy16  1  0.424810  0.212404  0.936266  1
  Dy  Dy17  1  0.208915  0.791085  0.058580  1
  Dy  Dy18  1  0.208915  0.417831  0.058580  1
  Dy  Dy19  1  0.582169  0.791085  0.058580  1
  Cd  Cd20  1  0.885749  0.114251  0.250000  1
  Cd  Cd21  1  0.885749  0.771498  0.250000  1
  Cd  Cd22  1  0.228502  0.114251  0.250000  1
  Cd  Cd23  1  0.113524  0.886476  0.750000  1
  Cd  Cd24  1  0.113524  0.227049  0.750000  1
  Cd  Cd25  1  0.772951  0.886476  0.750000  1
  Co  Co26  1  0.666667  0.333333  0.750000  1
  Re  Re27  1  0.333333  0.666667  0.250000  1
