# generated using pymatgen
data_Ho8ErTh3Co4
_symmetry_space_group_name_H-M   'P 1'
_cell_length_a   6.28274596
_cell_length_b   6.87939404
_cell_length_c   9.51526386
_cell_angle_alpha   89.97549690
_cell_angle_beta   90.08701059
_cell_angle_gamma   91.02515651
_symmetry_Int_Tables_number   1
_chemical_formula_structural   Ho8ErTh3Co4
_chemical_formula_sum   'Ho8 Er1 Th3 Co4'
_cell_volume   411.19749905
_cell_formula_units_Z   1
loop_
 _symmetry_equiv_pos_site_id
 _symmetry_equiv_pos_as_xyz
  1  'x, y, z'
loop_
 _atom_site_type_symbol
 _atom_site_label
 _atom_site_symmetry_multiplicity
 _atom_site_fract_x
 _atom_site_fract_y
 _atom_site_fract_z
 _atom_site_occupancy
  Ho  Ho0  1  0.327503  0.671846  0.068414  1
  Ho  Ho1  1  0.171240  0.170755  0.431016  1
  Ho  Ho2  1  0.676211  0.328592  0.569294  1
  Ho  Ho3  1  0.823193  0.828427  0.928725  1
  Ho  Ho4  1  0.675699  0.329239  0.930739  1
  Ho  Ho5  1  0.823542  0.828833  0.571786  1
  Ho  Ho6  1  0.328283  0.671958  0.431933  1
  Ho  Ho7  1  0.355720  0.956743  0.750372  1
  Er  Er8  1  0.170597  0.170756  0.068456  1
  Th  Th9  1  0.845330  0.552706  0.250074  1
  Th  Th10  1  0.651903  0.053364  0.249512  1
  Th  Th11  1  0.157642  0.448981  0.750304  1
  Co  Co12  1  0.033519  0.872412  0.249201  1
  Co  Co13  1  0.463897  0.371161  0.249725  1
  Co  Co14  1  0.961760  0.132201  0.751527  1
  Co  Co15  1  0.533962  0.612027  0.748923  1
