# generated using pymatgen
data_Er3Fe2Ni7P6
_symmetry_space_group_name_H-M   'P 1'
_cell_length_a   3.71830900
_cell_length_b   10.45767900
_cell_length_c   12.21789400
_cell_angle_alpha   90.00000000
_cell_angle_beta   90.00000000
_cell_angle_gamma   90.00000000
_symmetry_Int_Tables_number   1
_chemical_formula_structural   Er3Fe2Ni7P6
_chemical_formula_sum   'Er6 Fe4 Ni14 P12'
_cell_volume   475.09136580
_cell_formula_units_Z   2
loop_
 _symmetry_equiv_pos_site_id
 _symmetry_equiv_pos_as_xyz
  1  'x, y, z'
loop_
 _atom_site_type_symbol
 _atom_site_label
 _atom_site_symmetry_multiplicity
 _atom_site_fract_x
 _atom_site_fract_y
 _atom_site_fract_z
 _atom_site_occupancy
  Er  Er0  1  0.000000  0.500000  0.522071  1
  Er  Er1  1  0.500000  0.000000  0.477929  1
  Er  Er2  1  0.500000  0.818201  0.206238  1
  Er  Er3  1  0.500000  0.181799  0.206238  1
  Er  Er4  1  0.000000  0.681799  0.793762  1
  Er  Er5  1  0.000000  0.318201  0.793762  1
  Fe  Fe6  1  0.500000  0.500000  0.154831  1
  Fe  Fe7  1  0.000000  0.000000  0.845169  1
  Fe  Fe8  1  0.000000  0.500000  0.987167  1
  Fe  Fe9  1  0.500000  0.000000  0.012833  1
  Ni  Ni10  1  0.500000  0.500000  0.702559  1
  Ni  Ni11  1  0.000000  0.000000  0.297441  1
  Ni  Ni12  1  0.500000  0.331042  0.993176  1
  Ni  Ni13  1  0.500000  0.668958  0.993176  1
  Ni  Ni14  1  0.000000  0.168958  0.006824  1
  Ni  Ni15  1  0.000000  0.831042  0.006824  1
  Ni  Ni16  1  0.500000  0.300558  0.429328  1
  Ni  Ni17  1  0.500000  0.699442  0.429328  1
  Ni  Ni18  1  0.000000  0.199442  0.570672  1
  Ni  Ni19  1  0.000000  0.800558  0.570672  1
  Ni  Ni20  1  0.500000  0.879289  0.710355  1
  Ni  Ni21  1  0.500000  0.120711  0.710355  1
  Ni  Ni22  1  0.000000  0.620711  0.289645  1
  Ni  Ni23  1  0.000000  0.379289  0.289645  1
  P  P24  1  0.500000  0.500000  0.880886  1
  P  P25  1  0.000000  0.000000  0.119114  1
  P  P26  1  0.500000  0.500000  0.344384  1
  P  P27  1  0.000000  0.000000  0.655616  1
  P  P28  1  0.500000  0.314873  0.615230  1
  P  P29  1  0.500000  0.685127  0.615230  1
  P  P30  1  0.000000  0.185127  0.384770  1
  P  P31  1  0.000000  0.814873  0.384770  1
  P  P32  1  0.500000  0.850742  0.890553  1
  P  P33  1  0.500000  0.149258  0.890553  1
  P  P34  1  0.000000  0.649258  0.109447  1
  P  P35  1  0.000000  0.350742  0.109447  1
