# generated using pymatgen
data_La9NdCuBi6As
_symmetry_space_group_name_H-M   'P 1'
_cell_length_a   9.83633736
_cell_length_b   9.83383225
_cell_length_c   6.72380070
_cell_angle_alpha   89.94762158
_cell_angle_beta   90.02618610
_cell_angle_gamma   119.99156987
_symmetry_Int_Tables_number   1
_chemical_formula_structural   La9NdCuBi6As
_chemical_formula_sum   'La9 Nd1 Cu1 Bi6 As1'
_cell_volume   563.29822064
_cell_formula_units_Z   1
loop_
 _symmetry_equiv_pos_site_id
 _symmetry_equiv_pos_as_xyz
  1  'x, y, z'
loop_
 _atom_site_type_symbol
 _atom_site_label
 _atom_site_symmetry_multiplicity
 _atom_site_fract_x
 _atom_site_fract_y
 _atom_site_fract_z
 _atom_site_occupancy
  La  La0  1  0.666766  0.333809  0.000454  1
  La  La1  1  0.333234  0.667045  0.000454  1
  La  La2  1  0.333019  0.666784  0.499597  1
  La  La3  1  0.666981  0.333764  0.499597  1
  La  La4  1  0.745960  0.745430  0.752199  1
  La  La5  1  0.254040  0.999470  0.752199  1
  La  La6  1  0.000000  0.254030  0.752389  1
  La  La7  1  0.254589  0.254473  0.247989  1
  La  La8  1  0.745411  0.999884  0.247989  1
  Nd  Nd9  1  0.000000  0.746421  0.247262  1
  Cu  Cu10  1  0.000000  0.999169  0.498831  1
  Bi  Bi11  1  0.386063  0.386092  0.748489  1
  Bi  Bi12  1  0.613937  0.000029  0.748489  1
  Bi  Bi13  1  0.000000  0.613822  0.748399  1
  Bi  Bi14  1  0.615891  0.614459  0.251518  1
  Bi  Bi15  1  0.384109  0.998568  0.251518  1
  Bi  Bi16  1  0.000000  0.387634  0.251608  1
  As  As17  1  0.000000  0.999121  0.001019  1
