# generated using pymatgen
data_Sc3GeAs2Ru2Rh
_symmetry_space_group_name_H-M   'P 1'
_cell_length_a   6.74559347
_cell_length_b   6.73071013
_cell_length_c   3.78556100
_cell_angle_alpha   90.00000000
_cell_angle_beta   90.00000000
_cell_angle_gamma   119.92703751
_symmetry_Int_Tables_number   1
_chemical_formula_structural   Sc3GeAs2Ru2Rh
_chemical_formula_sum   'Sc3 Ge1 As2 Ru2 Rh1'
_cell_volume   148.95694766
_cell_formula_units_Z   1
loop_
 _symmetry_equiv_pos_site_id
 _symmetry_equiv_pos_as_xyz
  1  'x, y, z'
loop_
 _atom_site_type_symbol
 _atom_site_label
 _atom_site_symmetry_multiplicity
 _atom_site_fract_x
 _atom_site_fract_y
 _atom_site_fract_z
 _atom_site_occupancy
  Sc  Sc0  1  0.416635  0.414573  0.500000  1
  Sc  Sc1  1  0.583365  0.997937  0.500000  1
  Sc  Sc2  1  0.000000  0.586625  0.500000  1
  Ge  Ge3  1  0.000000  0.999823  0.500000  1
  As  As4  1  0.666303  0.333624  0.000000  1
  As  As5  1  0.333697  0.667322  0.000000  1
  Ru  Ru6  1  0.755212  0.755319  0.000000  1
  Ru  Ru7  1  0.244788  0.000107  0.000000  1
  Rh  Rh8  1  0.000000  0.244670  0.000000  1
