# generated using pymatgen
data_MnTcMo3As4
_symmetry_space_group_name_H-M   'P 1'
_cell_length_a   6.95387215
_cell_length_b   6.95386800
_cell_length_c   6.94301757
_cell_angle_alpha   93.20105112
_cell_angle_beta   93.26795184
_cell_angle_gamma   152.53624491
_symmetry_Int_Tables_number   1
_chemical_formula_structural   MnTcMo3As4
_chemical_formula_sum   'Mn1 Tc1 Mo3 As4'
_cell_volume   150.40089798
_cell_formula_units_Z   1
loop_
 _symmetry_equiv_pos_site_id
 _symmetry_equiv_pos_as_xyz
  1  'x, y, z'
loop_
 _atom_site_type_symbol
 _atom_site_label
 _atom_site_symmetry_multiplicity
 _atom_site_fract_x
 _atom_site_fract_y
 _atom_site_fract_z
 _atom_site_occupancy
  Mn  Mn0  1  0.000579  0.000593  0.001093  1
  Tc  Tc1  1  0.385156  0.299478  0.684571  1
  Mo  Mo2  1  0.300640  0.615868  0.916557  1
  Mo  Mo3  1  0.697956  0.383548  0.081531  1
  Mo  Mo4  1  0.616416  0.697243  0.313671  1
  As  As5  1  0.284775  0.061915  0.346723  1
  As  As6  1  0.059227  0.716860  0.776113  1
  As  As7  1  0.939974  0.285256  0.225217  1
  As  As8  1  0.715274  0.939240  0.654526  1
