# generated using pymatgen
data_Ho20InGa8Bi3
_symmetry_space_group_name_H-M   'P 1'
_cell_length_a   8.17422900
_cell_length_b   8.17422900
_cell_length_c   12.66942600
_cell_angle_alpha   90.00000000
_cell_angle_beta   90.00000000
_cell_angle_gamma   90.00000000
_symmetry_Int_Tables_number   1
_chemical_formula_structural   Ho20InGa8Bi3
_chemical_formula_sum   'Ho20 In1 Ga8 Bi3'
_cell_volume   846.54595662
_cell_formula_units_Z   1
loop_
 _symmetry_equiv_pos_site_id
 _symmetry_equiv_pos_as_xyz
  1  'x, y, z'
loop_
 _atom_site_type_symbol
 _atom_site_label
 _atom_site_symmetry_multiplicity
 _atom_site_fract_x
 _atom_site_fract_y
 _atom_site_fract_z
 _atom_site_occupancy
  Ho  Ho0  1  0.000000  0.500000  0.743320  1
  Ho  Ho1  1  0.000000  0.500000  0.257920  1
  Ho  Ho2  1  0.500000  0.000000  0.250810  1
  Ho  Ho3  1  0.500000  0.000000  0.747882  1
  Ho  Ho4  1  0.657552  0.649294  0.608437  1
  Ho  Ho5  1  0.653585  0.348056  0.107451  1
  Ho  Ho6  1  0.850233  0.842959  0.391617  1
  Ho  Ho7  1  0.152386  0.846836  0.892584  1
  Ho  Ho8  1  0.342448  0.350706  0.608437  1
  Ho  Ho9  1  0.346415  0.651944  0.107451  1
  Ho  Ho10  1  0.149767  0.157041  0.391617  1
  Ho  Ho11  1  0.847614  0.153164  0.892584  1
  Ho  Ho12  1  0.657041  0.350233  0.391617  1
  Ho  Ho13  1  0.346836  0.347614  0.892584  1
  Ho  Ho14  1  0.149294  0.842448  0.608437  1
  Ho  Ho15  1  0.848056  0.846415  0.107451  1
  Ho  Ho16  1  0.342959  0.649767  0.391617  1
  Ho  Ho17  1  0.653164  0.652386  0.892584  1
  Ho  Ho18  1  0.850706  0.157552  0.608437  1
  Ho  Ho19  1  0.151944  0.153585  0.107451  1
  In  In20  1  0.000000  0.500000  0.500324  1
  Ga  Ga21  1  0.852546  0.853600  0.751507  1
  Ga  Ga22  1  0.852521  0.146316  0.248486  1
  Ga  Ga23  1  0.646316  0.647479  0.248486  1
  Ga  Ga24  1  0.353600  0.647454  0.751507  1
  Ga  Ga25  1  0.147454  0.146400  0.751507  1
  Ga  Ga26  1  0.147479  0.853684  0.248486  1
  Ga  Ga27  1  0.353684  0.352521  0.248486  1
  Ga  Ga28  1  0.646400  0.352546  0.751507  1
  Bi  Bi29  1  0.000000  0.500000  0.000438  1
  Bi  Bi30  1  0.500000  0.000000  0.499479  1
  Bi  Bi31  1  0.500000  0.000000  0.999498  1
