# generated using pymatgen
data_Y4SiCl6
_symmetry_space_group_name_H-M   'P 1'
_cell_length_a   3.96538600
_cell_length_b   12.78000000
_cell_length_c   13.58905900
_cell_angle_alpha   90.00000000
_cell_angle_beta   90.00000000
_cell_angle_gamma   90.00000000
_symmetry_Int_Tables_number   1
_chemical_formula_structural   Y4SiCl6
_chemical_formula_sum   'Y8 Si2 Cl12'
_cell_volume   688.66134590
_cell_formula_units_Z   2
loop_
 _symmetry_equiv_pos_site_id
 _symmetry_equiv_pos_as_xyz
  1  'x, y, z'
loop_
 _atom_site_type_symbol
 _atom_site_label
 _atom_site_symmetry_multiplicity
 _atom_site_fract_x
 _atom_site_fract_y
 _atom_site_fract_z
 _atom_site_occupancy
  Y  Y0  1  0.500000  0.121069  0.336981  1
  Y  Y1  1  0.500000  0.878931  0.663019  1
  Y  Y2  1  0.500000  0.621069  0.163019  1
  Y  Y3  1  0.500000  0.378931  0.836981  1
  Y  Y4  1  0.000000  0.123367  0.581240  1
  Y  Y5  1  0.000000  0.876633  0.418760  1
  Y  Y6  1  0.000000  0.623367  0.918760  1
  Y  Y7  1  0.000000  0.376633  0.081240  1
  Si  Si8  1  0.500000  0.000000  0.500000  1
  Si  Si9  1  0.500000  0.500000  0.000000  1
  Cl  Cl10  1  0.500000  0.244687  0.163996  1
  Cl  Cl11  1  0.500000  0.755313  0.836004  1
  Cl  Cl12  1  0.500000  0.744687  0.336004  1
  Cl  Cl13  1  0.500000  0.255313  0.663996  1
  Cl  Cl14  1  0.000000  0.250940  0.407869  1
  Cl  Cl15  1  0.000000  0.749060  0.592131  1
  Cl  Cl16  1  0.000000  0.750940  0.092131  1
  Cl  Cl17  1  0.000000  0.249060  0.907869  1
  Cl  Cl18  1  0.000000  0.005816  0.246810  1
  Cl  Cl19  1  0.000000  0.994184  0.753190  1
  Cl  Cl20  1  0.000000  0.505816  0.253190  1
  Cl  Cl21  1  0.000000  0.494184  0.746810  1
