# generated using pymatgen
data_EuYSc3Si7Pt9
_symmetry_space_group_name_H-M   'P 1'
_cell_length_a   10.08217900
_cell_length_b   10.08217950
_cell_length_c   3.99728200
_cell_angle_alpha   90.00000000
_cell_angle_beta   90.00000000
_cell_angle_gamma   119.99999509
_symmetry_Int_Tables_number   1
_chemical_formula_structural   EuYSc3Si7Pt9
_chemical_formula_sum   'Eu1 Y1 Sc3 Si7 Pt9'
_cell_volume   351.88784839
_cell_formula_units_Z   1
loop_
 _symmetry_equiv_pos_site_id
 _symmetry_equiv_pos_as_xyz
  1  'x, y, z'
loop_
 _atom_site_type_symbol
 _atom_site_label
 _atom_site_symmetry_multiplicity
 _atom_site_fract_x
 _atom_site_fract_y
 _atom_site_fract_z
 _atom_site_occupancy
  Eu  Eu0  1  0.000000  0.000000  0.000000  1
  Y  Y1  1  0.333333  0.666667  0.500000  1
  Sc  Sc2  1  0.894370  0.455618  0.500000  1
  Sc  Sc3  1  0.561248  0.105630  0.500000  1
  Sc  Sc4  1  0.544382  0.438752  0.500000  1
  Si  Si5  1  0.247005  0.196260  0.500000  1
  Si  Si6  1  0.803740  0.050746  0.500000  1
  Si  Si7  1  0.949254  0.752995  0.500000  1
  Si  Si8  1  0.556444  0.646955  0.000000  1
  Si  Si9  1  0.353045  0.909488  0.000000  1
  Si  Si10  1  0.090512  0.443556  0.000000  1
  Si  Si11  1  0.666667  0.333333  0.000000  1
  Pt  Pt12  1  0.222029  0.935350  0.500000  1
  Pt  Pt13  1  0.064650  0.286682  0.500000  1
  Pt  Pt14  1  0.713318  0.777971  0.500000  1
  Pt  Pt15  1  0.313873  0.411942  0.000000  1
  Pt  Pt16  1  0.588058  0.901931  0.000000  1
  Pt  Pt17  1  0.098069  0.686127  0.000000  1
  Pt  Pt18  1  0.385557  0.172561  0.000000  1
  Pt  Pt19  1  0.827439  0.212996  0.000000  1
  Pt  Pt20  1  0.787004  0.614443  0.000000  1
