# generated using pymatgen
data_Ac2Pr(SnPt)3
_symmetry_space_group_name_H-M   'P 1'
_cell_length_a   7.83855226
_cell_length_b   7.79392558
_cell_length_c   4.28079800
_cell_angle_alpha   90.00000000
_cell_angle_beta   90.00000000
_cell_angle_gamma   119.81184683
_symmetry_Int_Tables_number   1
_chemical_formula_structural   Ac2Pr(SnPt)3
_chemical_formula_sum   'Ac2 Pr1 Sn3 Pt3'
_cell_volume   226.91738204
_cell_formula_units_Z   1
loop_
 _symmetry_equiv_pos_site_id
 _symmetry_equiv_pos_as_xyz
  1  'x, y, z'
loop_
 _atom_site_type_symbol
 _atom_site_label
 _atom_site_symmetry_multiplicity
 _atom_site_fract_x
 _atom_site_fract_y
 _atom_site_fract_z
 _atom_site_occupancy
  Ac  Ac0  1  0.585536  0.584372  0.000000  1
  Ac  Ac1  1  0.414464  0.998836  0.000000  1
  Pr  Pr2  1  0.000000  0.410721  0.000000  1
  Sn  Sn3  1  0.000000  0.749659  0.500000  1
  Sn  Sn4  1  0.240450  0.247090  0.500000  1
  Sn  Sn5  1  0.759550  0.006640  0.500000  1
  Pt  Pt6  1  0.673306  0.336174  0.500000  1
  Pt  Pt7  1  0.000000  0.003638  0.000000  1
  Pt  Pt8  1  0.326694  0.662869  0.500000  1
