# generated using pymatgen
data_KPuCuSe3
_symmetry_space_group_name_H-M   'P 1'
_cell_length_a   7.68755544
_cell_length_b   7.68755559
_cell_length_c   10.56244400
_cell_angle_alpha   90.00000000
_cell_angle_beta   90.00000000
_cell_angle_gamma   148.63541575
_symmetry_Int_Tables_number   1
_chemical_formula_structural   KPuCuSe3
_chemical_formula_sum   'K2 Pu2 Cu2 Se6'
_cell_volume   324.89767928
_cell_formula_units_Z   2
loop_
 _symmetry_equiv_pos_site_id
 _symmetry_equiv_pos_as_xyz
  1  'x, y, z'
loop_
 _atom_site_type_symbol
 _atom_site_label
 _atom_site_symmetry_multiplicity
 _atom_site_fract_x
 _atom_site_fract_y
 _atom_site_fract_z
 _atom_site_occupancy
  K  K0  1  0.251717  0.748283  0.750000  1
  K  K1  1  0.748283  0.251717  0.250000  1
  Pu  Pu2  1  0.000000  0.000000  0.000000  1
  Pu  Pu3  1  0.000000  0.000000  0.500000  1
  Cu  Cu4  1  0.530284  0.469716  0.750000  1
  Cu  Cu5  1  0.469716  0.530284  0.250000  1
  Se  Se6  1  0.623336  0.376664  0.939502  1
  Se  Se7  1  0.066206  0.933794  0.250000  1
  Se  Se8  1  0.376664  0.623336  0.439502  1
  Se  Se9  1  0.376664  0.623336  0.060498  1
  Se  Se10  1  0.623336  0.376664  0.560498  1
  Se  Se11  1  0.933794  0.066206  0.750000  1
