# generated using pymatgen
data_Sr8Zn3Si12Rh
_symmetry_space_group_name_H-M   'P 1'
_cell_length_a   8.32236536
_cell_length_b   8.32223146
_cell_length_c   9.37468900
_cell_angle_alpha   89.99991293
_cell_angle_beta   90.00009095
_cell_angle_gamma   120.00109560
_symmetry_Int_Tables_number   1
_chemical_formula_structural   Sr8Zn3Si12Rh
_chemical_formula_sum   'Sr8 Zn3 Si12 Rh1'
_cell_volume   562.30154225
_cell_formula_units_Z   1
loop_
 _symmetry_equiv_pos_site_id
 _symmetry_equiv_pos_as_xyz
  1  'x, y, z'
loop_
 _atom_site_type_symbol
 _atom_site_label
 _atom_site_symmetry_multiplicity
 _atom_site_fract_x
 _atom_site_fract_y
 _atom_site_fract_z
 _atom_site_occupancy
  Sr  Sr0  1  0.501996  0.498001  0.743723  1
  Sr  Sr1  1  0.502336  0.497660  0.256202  1
  Sr  Sr2  1  0.996013  0.498009  0.743736  1
  Sr  Sr3  1  0.995319  0.497661  0.256188  1
  Sr  Sr4  1  0.502000  0.003998  0.743734  1
  Sr  Sr5  1  0.502345  0.004685  0.256187  1
  Sr  Sr6  1  0.999998  0.999996  0.747786  1
  Sr  Sr7  1  0.999997  0.000001  0.252243  1
  Zn  Zn8  1  0.666659  0.333331  0.997368  1
  Zn  Zn9  1  0.333339  0.666664  0.001883  1
  Zn  Zn10  1  0.333332  0.666677  0.499392  1
  Si  Si11  1  0.835046  0.164953  0.001477  1
  Si  Si12  1  0.165141  0.834854  0.998919  1
  Si  Si13  1  0.329902  0.164949  0.001479  1
  Si  Si14  1  0.161683  0.838309  0.500003  1
  Si  Si15  1  0.669723  0.834858  0.998920  1
  Si  Si16  1  0.829047  0.170956  0.499914  1
  Si  Si17  1  0.835049  0.670093  0.001478  1
  Si  Si18  1  0.676621  0.838312  0.500010  1
  Si  Si19  1  0.165140  0.330278  0.998918  1
  Si  Si20  1  0.341910  0.170957  0.499914  1
  Si  Si21  1  0.161691  0.323390  0.500000  1
  Si  Si22  1  0.829039  0.658080  0.499911  1
  Rh  Rh23  1  0.666674  0.333328  0.500617  1
