# generated using pymatgen
data_Tb4Yb6Sn5Pb3
_symmetry_space_group_name_H-M   'P 1'
_cell_length_a   7.90199200
_cell_length_b   8.48539989
_cell_length_c   16.19268962
_cell_angle_alpha   89.92348307
_cell_angle_beta   90.00000000
_cell_angle_gamma   90.00000000
_symmetry_Int_Tables_number   1
_chemical_formula_structural   Tb4Yb6Sn5Pb3
_chemical_formula_sum   'Tb8 Yb12 Sn10 Pb6'
_cell_volume   1085.74416411
_cell_formula_units_Z   2
loop_
 _symmetry_equiv_pos_site_id
 _symmetry_equiv_pos_as_xyz
  1  'x, y, z'
loop_
 _atom_site_type_symbol
 _atom_site_label
 _atom_site_symmetry_multiplicity
 _atom_site_fract_x
 _atom_site_fract_y
 _atom_site_fract_z
 _atom_site_occupancy
  Tb  Tb0  1  0.670697  0.165057  0.623155  1
  Tb  Tb1  1  0.170697  0.334943  0.876845  1
  Tb  Tb2  1  0.331138  0.834807  0.123429  1
  Tb  Tb3  1  0.831138  0.665193  0.376571  1
  Tb  Tb4  1  0.328919  0.832523  0.377436  1
  Tb  Tb5  1  0.828919  0.667477  0.122564  1
  Tb  Tb6  1  0.671368  0.164228  0.877304  1
  Tb  Tb7  1  0.171368  0.335772  0.622696  1
  Yb  Yb8  1  0.500898  0.687487  0.593807  1
  Yb  Yb9  1  0.000898  0.812513  0.906193  1
  Yb  Yb10  1  0.498734  0.310281  0.094614  1
  Yb  Yb11  1  0.998734  0.189719  0.405386  1
  Yb  Yb12  1  0.495588  0.313316  0.405535  1
  Yb  Yb13  1  0.995588  0.186684  0.094465  1
  Yb  Yb14  1  0.502915  0.689172  0.905886  1
  Yb  Yb15  1  0.002915  0.810828  0.594114  1
  Yb  Yb16  1  0.833768  0.511119  0.750072  1
  Yb  Yb17  1  0.333768  0.988881  0.749928  1
  Yb  Yb18  1  0.166427  0.488965  0.250975  1
  Yb  Yb19  1  0.666427  0.011035  0.249025  1
  Sn  Sn20  1  0.674085  0.964644  0.040954  1
  Sn  Sn21  1  0.174085  0.535356  0.459046  1
  Sn  Sn22  1  0.469282  0.376827  0.749876  1
  Sn  Sn23  1  0.969282  0.123173  0.750124  1
  Sn  Sn24  1  0.531434  0.622848  0.250060  1
  Sn  Sn25  1  0.031434  0.877152  0.249940  1
  Sn  Sn26  1  0.714146  0.872232  0.749933  1
  Sn  Sn27  1  0.214146  0.627768  0.750067  1
  Sn  Sn28  1  0.285945  0.127424  0.250097  1
  Sn  Sn29  1  0.785945  0.372576  0.249903  1
  Pb  Pb30  1  0.678131  0.964835  0.458446  1
  Pb  Pb31  1  0.178131  0.535165  0.041554  1
  Pb  Pb32  1  0.324424  0.035056  0.959030  1
  Pb  Pb33  1  0.824424  0.464944  0.540970  1
  Pb  Pb34  1  0.322103  0.035293  0.541367  1
  Pb  Pb35  1  0.822103  0.464707  0.958633  1
