# generated using pymatgen
data_PrY19(Bi2As)4
_symmetry_space_group_name_H-M   'P 1'
_cell_length_a   12.15340097
_cell_length_b   9.18818100
_cell_length_c   8.10624431
_cell_angle_alpha   90.00000000
_cell_angle_beta   90.23685391
_cell_angle_gamma   90.00000000
_symmetry_Int_Tables_number   1
_chemical_formula_structural   PrY19(Bi2As)4
_chemical_formula_sum   'Pr1 Y19 Bi8 As4'
_cell_volume   905.19750072
_cell_formula_units_Z   1
loop_
 _symmetry_equiv_pos_site_id
 _symmetry_equiv_pos_as_xyz
  1  'x, y, z'
loop_
 _atom_site_type_symbol
 _atom_site_label
 _atom_site_symmetry_multiplicity
 _atom_site_fract_x
 _atom_site_fract_y
 _atom_site_fract_z
 _atom_site_occupancy
  Pr  Pr0  1  0.714776  0.250000  0.660577  1
  Y  Y1  1  0.563405  0.053825  0.318248  1
  Y  Y2  1  0.063964  0.446397  0.182447  1
  Y  Y3  1  0.435935  0.553794  0.683470  1
  Y  Y4  1  0.936992  0.944952  0.816281  1
  Y  Y5  1  0.435935  0.946206  0.683470  1
  Y  Y6  1  0.936992  0.555048  0.816281  1
  Y  Y7  1  0.563405  0.446175  0.318248  1
  Y  Y8  1  0.063964  0.053603  0.182447  1
  Y  Y9  1  0.210973  0.250000  0.843454  1
  Y  Y10  1  0.288486  0.750000  0.343630  1
  Y  Y11  1  0.790742  0.750000  0.155137  1
  Y  Y12  1  0.499763  0.250000  0.963443  1
  Y  Y13  1  0.000286  0.250000  0.533473  1
  Y  Y14  1  0.498621  0.750000  0.038038  1
  Y  Y15  1  0.001780  0.750000  0.463401  1
  Y  Y16  1  0.795089  0.250000  0.136392  1
  Y  Y17  1  0.292412  0.250000  0.363239  1
  Y  Y18  1  0.205427  0.750000  0.866068  1
  Y  Y19  1  0.705774  0.750000  0.634276  1
  Bi  Bi20  1  0.828993  0.006139  0.421793  1
  Bi  Bi21  1  0.326563  0.490205  0.073422  1
  Bi  Bi22  1  0.173256  0.509573  0.573532  1
  Bi  Bi23  1  0.671933  0.987555  0.931612  1
  Bi  Bi24  1  0.173256  0.990427  0.573532  1
  Bi  Bi25  1  0.671933  0.512445  0.931612  1
  Bi  Bi26  1  0.828993  0.493861  0.421793  1
  Bi  Bi27  1  0.326563  0.009795  0.073422  1
  As  As28  1  0.979454  0.250000  0.913088  1
  As  As29  1  0.476388  0.250000  0.583328  1
  As  As30  1  0.019866  0.750000  0.083986  1
  As  As31  1  0.518080  0.750000  0.416858  1
