# generated using pymatgen
data_ThSi4PtRh5
_symmetry_space_group_name_H-M   'P 1'
_cell_length_a   7.05458500
_cell_length_b   7.05458531
_cell_length_c   3.81240700
_cell_angle_alpha   90.00000000
_cell_angle_beta   90.00000000
_cell_angle_gamma   119.93709530
_symmetry_Int_Tables_number   1
_chemical_formula_structural   ThSi4PtRh5
_chemical_formula_sum   'Th1 Si4 Pt1 Rh5'
_cell_volume   164.41740417
_cell_formula_units_Z   1
loop_
 _symmetry_equiv_pos_site_id
 _symmetry_equiv_pos_as_xyz
  1  'x, y, z'
loop_
 _atom_site_type_symbol
 _atom_site_label
 _atom_site_symmetry_multiplicity
 _atom_site_fract_x
 _atom_site_fract_y
 _atom_site_fract_z
 _atom_site_occupancy
  Th  Th0  1  0.004034  0.995966  0.000000  1
  Si  Si1  1  0.662535  0.337465  0.000000  1
  Si  Si2  1  0.203275  0.796725  0.500000  1
  Si  Si3  1  0.205830  0.406805  0.500000  1
  Si  Si4  1  0.593195  0.794170  0.500000  1
  Pt  Pt5  1  0.804729  0.195271  0.500000  1
  Rh  Rh6  1  0.466059  0.533941  0.000000  1
  Rh  Rh7  1  0.465798  0.935666  0.000000  1
  Rh  Rh8  1  0.064334  0.534202  0.000000  1
  Rh  Rh9  1  0.801785  0.604907  0.500000  1
  Rh  Rh10  1  0.395093  0.198215  0.500000  1
