# generated using pymatgen
data_Nd6Ga2IrRh5
_symmetry_space_group_name_H-M   'P 1'
_cell_length_a   5.73486169
_cell_length_b   5.73486201
_cell_length_c   14.03994600
_cell_angle_alpha   90.00000000
_cell_angle_beta   90.00000000
_cell_angle_gamma   137.41212801
_symmetry_Int_Tables_number   1
_chemical_formula_structural   Nd6Ga2IrRh5
_chemical_formula_sum   'Nd6 Ga2 Ir1 Rh5'
_cell_volume   312.47873056
_cell_formula_units_Z   1
loop_
 _symmetry_equiv_pos_site_id
 _symmetry_equiv_pos_as_xyz
  1  'x, y, z'
loop_
 _atom_site_type_symbol
 _atom_site_label
 _atom_site_symmetry_multiplicity
 _atom_site_fract_x
 _atom_site_fract_y
 _atom_site_fract_z
 _atom_site_occupancy
  Nd  Nd0  1  0.793172  0.206828  0.392787  1
  Nd  Nd1  1  0.207665  0.792335  0.605903  1
  Nd  Nd2  1  0.793172  0.206828  0.107213  1
  Nd  Nd3  1  0.207665  0.792335  0.894097  1
  Nd  Nd4  1  0.516073  0.483927  0.250000  1
  Nd  Nd5  1  0.482848  0.517152  0.750000  1
  Ga  Ga6  1  0.500349  0.499651  0.500168  1
  Ga  Ga7  1  0.500349  0.499651  0.999832  1
  Ir  Ir8  1  0.234793  0.765207  0.250000  1
  Rh  Rh9  1  0.077854  0.922146  0.412934  1
  Rh  Rh10  1  0.923004  0.076996  0.587691  1
  Rh  Rh11  1  0.077854  0.922146  0.087066  1
  Rh  Rh12  1  0.923004  0.076996  0.912309  1
  Rh  Rh13  1  0.762199  0.237801  0.750000  1
