# generated using pymatgen
data_Sc4Ga2B4Ir3Rh7
_symmetry_space_group_name_H-M   'P 1'
_cell_length_a   9.37931101
_cell_length_b   9.36692501
_cell_length_c   3.08226500
_cell_angle_alpha   90.00000000
_cell_angle_beta   90.00000000
_cell_angle_gamma   89.99539707
_symmetry_Int_Tables_number   1
_chemical_formula_structural   Sc4Ga2B4Ir3Rh7
_chemical_formula_sum   'Sc4 Ga2 B4 Ir3 Rh7'
_cell_volume   270.79332410
_cell_formula_units_Z   1
loop_
 _symmetry_equiv_pos_site_id
 _symmetry_equiv_pos_as_xyz
  1  'x, y, z'
loop_
 _atom_site_type_symbol
 _atom_site_label
 _atom_site_symmetry_multiplicity
 _atom_site_fract_x
 _atom_site_fract_y
 _atom_site_fract_z
 _atom_site_occupancy
  Sc  Sc0  1  0.675571  0.175671  0.000000  1
  Sc  Sc1  1  0.175236  0.324493  0.000000  1
  Sc  Sc2  1  0.824175  0.675684  0.000000  1
  Sc  Sc3  1  0.324054  0.824427  0.000000  1
  Ga  Ga4  1  0.998875  0.999551  0.000000  1
  Ga  Ga5  1  0.500058  0.500101  0.000000  1
  B  B6  1  0.375051  0.124162  0.000000  1
  B  B7  1  0.875888  0.375866  0.000000  1
  B  B8  1  0.124497  0.624206  0.000000  1
  B  B9  1  0.624254  0.875754  0.000000  1
  Ir  Ir10  1  0.500962  0.999752  0.500000  1
  Ir  Ir11  1  0.216786  0.070983  0.500000  1
  Ir  Ir12  1  0.999767  0.500446  0.500000  1
  Rh  Rh13  1  0.928876  0.216389  0.500000  1
  Rh  Rh14  1  0.429608  0.284257  0.500000  1
  Rh  Rh15  1  0.716434  0.428531  0.500000  1
  Rh  Rh16  1  0.283687  0.571156  0.500000  1
  Rh  Rh17  1  0.571311  0.716020  0.500000  1
  Rh  Rh18  1  0.071115  0.783754  0.500000  1
  Rh  Rh19  1  0.783796  0.928797  0.500000  1
