# generated using pymatgen
data_Tb8Cu3Si12Au
_symmetry_space_group_name_H-M   'P 1'
_cell_length_a   8.06709000
_cell_length_b   8.06708924
_cell_length_c   8.17374800
_cell_angle_alpha   90.00000000
_cell_angle_beta   90.00000000
_cell_angle_gamma   120.00000311
_symmetry_Int_Tables_number   1
_chemical_formula_structural   Tb8Cu3Si12Au
_chemical_formula_sum   'Tb8 Cu3 Si12 Au1'
_cell_volume   460.66543348
_cell_formula_units_Z   1
loop_
 _symmetry_equiv_pos_site_id
 _symmetry_equiv_pos_as_xyz
  1  'x, y, z'
loop_
 _atom_site_type_symbol
 _atom_site_label
 _atom_site_symmetry_multiplicity
 _atom_site_fract_x
 _atom_site_fract_y
 _atom_site_fract_z
 _atom_site_occupancy
  Tb  Tb0  1  0.501412  0.002824  0.247495  1
  Tb  Tb1  1  0.501707  0.003415  0.752525  1
  Tb  Tb2  1  0.997176  0.498588  0.247495  1
  Tb  Tb3  1  0.996585  0.498293  0.752525  1
  Tb  Tb4  1  0.501412  0.498588  0.247495  1
  Tb  Tb5  1  0.501707  0.498293  0.752525  1
  Tb  Tb6  1  0.000000  0.000000  0.247279  1
  Tb  Tb7  1  0.000000  0.000000  0.752401  1
  Cu  Cu8  1  0.333333  0.666667  0.000575  1
  Cu  Cu9  1  0.666667  0.333333  0.000756  1
  Cu  Cu10  1  0.666667  0.333333  0.498667  1
  Si  Si11  1  0.169769  0.339538  0.999210  1
  Si  Si12  1  0.831027  0.662052  0.000676  1
  Si  Si13  1  0.660462  0.830231  0.999210  1
  Si  Si14  1  0.829556  0.659111  0.500654  1
  Si  Si15  1  0.337948  0.168973  0.000676  1
  Si  Si16  1  0.162348  0.324696  0.499027  1
  Si  Si17  1  0.169769  0.830231  0.999210  1
  Si  Si18  1  0.340889  0.170444  0.500654  1
  Si  Si19  1  0.831027  0.168973  0.000676  1
  Si  Si20  1  0.675304  0.837652  0.499027  1
  Si  Si21  1  0.829556  0.170444  0.500654  1
  Si  Si22  1  0.162348  0.837652  0.499027  1
  Au  Au23  1  0.333333  0.666667  0.501558  1
