# generated using pymatgen
data_Sc5Nb3(Si4Ru3)4
_symmetry_space_group_name_H-M   'P 1'
_cell_length_a   9.82304957
_cell_length_b   9.80601549
_cell_length_c   13.23230435
_cell_angle_alpha   54.21234052
_cell_angle_beta   54.34350272
_cell_angle_gamma   31.54024678
_symmetry_Int_Tables_number   1
_chemical_formula_structural   Sc5Nb3(Si4Ru3)4
_chemical_formula_sum   'Sc5 Nb3 Si16 Ru12'
_cell_volume   530.01310638
_cell_formula_units_Z   1
loop_
 _symmetry_equiv_pos_site_id
 _symmetry_equiv_pos_as_xyz
  1  'x, y, z'
loop_
 _atom_site_type_symbol
 _atom_site_label
 _atom_site_symmetry_multiplicity
 _atom_site_fract_x
 _atom_site_fract_y
 _atom_site_fract_z
 _atom_site_occupancy
  Sc  Sc0  1  0.293863  0.557699  0.647282  1
  Sc  Sc1  1  0.439790  0.707939  0.854409  1
  Sc  Sc2  1  0.706381  0.442002  0.351093  1
  Sc  Sc3  1  0.558759  0.292263  0.147479  1
  Sc  Sc4  1  0.036983  0.289900  0.640998  1
  Nb  Nb5  1  0.714233  0.954442  0.864294  1
  Nb  Nb6  1  0.960671  0.698248  0.371055  1
  Nb  Nb7  1  0.285063  0.045893  0.135301  1
  Si  Si8  1  0.879332  0.123335  0.248732  1
  Si  Si9  1  0.123061  0.872042  0.750616  1
  Si  Si10  1  0.376744  0.621925  0.250241  1
  Si  Si11  1  0.619908  0.379847  0.749050  1
  Si  Si12  1  0.973549  0.254973  0.891327  1
  Si  Si13  1  0.746561  0.025874  0.609650  1
  Si  Si14  1  0.023523  0.746701  0.111252  1
  Si  Si15  1  0.253167  0.974410  0.389903  1
  Si  Si16  1  0.573121  0.078911  0.064337  1
  Si  Si17  1  0.916927  0.429399  0.431775  1
  Si  Si18  1  0.425996  0.922039  0.935114  1
  Si  Si19  1  0.084429  0.568826  0.566115  1
  Si  Si20  1  0.392534  0.141863  0.397012  1
  Si  Si21  1  0.854570  0.617236  0.096684  1
  Si  Si22  1  0.611560  0.859740  0.603406  1
  Si  Si23  1  0.146587  0.382868  0.901438  1
  Ru  Ru24  1  0.645411  0.834188  0.278990  1
  Ru  Ru25  1  0.163940  0.354843  0.217033  1
  Ru  Ru26  1  0.740093  0.496902  0.071643  1
  Ru  Ru27  1  0.833018  0.648325  0.782455  1
  Ru  Ru28  1  0.900272  0.145135  0.581780  1
  Ru  Ru29  1  0.858701  0.097076  0.915565  1
  Ru  Ru30  1  0.098915  0.855425  0.417036  1
  Ru  Ru31  1  0.141711  0.901507  0.084006  1
  Ru  Ru32  1  0.259664  0.503017  0.928747  1
  Ru  Ru33  1  0.490149  0.758975  0.565020  1
  Ru  Ru34  1  0.517973  0.246700  0.428518  1
  Ru  Ru35  1  0.352840  0.169531  0.720647  1
