# generated using pymatgen
data_DyHoTi6(BiO4)6
_symmetry_space_group_name_H-M   'P 1'
_cell_length_a   5.38681142
_cell_length_b   5.47100986
_cell_length_c   17.10320588
_cell_angle_alpha   81.02828596
_cell_angle_beta   89.99444612
_cell_angle_gamma   89.95494497
_symmetry_Int_Tables_number   1
_chemical_formula_structural   DyHoTi6(BiO4)6
_chemical_formula_sum   'Dy1 Ho1 Ti6 Bi6 O24'
_cell_volume   497.88665895
_cell_formula_units_Z   1
loop_
 _symmetry_equiv_pos_site_id
 _symmetry_equiv_pos_as_xyz
  1  'x, y, z'
loop_
 _atom_site_type_symbol
 _atom_site_label
 _atom_site_symmetry_multiplicity
 _atom_site_fract_x
 _atom_site_fract_y
 _atom_site_fract_z
 _atom_site_occupancy
  Dy  Dy0  1  0.265549  0.083788  0.869098  1
  Ho  Ho1  1  0.734312  0.582696  0.868929  1
  Ti  Ti2  1  0.763483  0.060427  0.986821  1
  Ti  Ti3  1  0.235985  0.560716  0.986871  1
  Ti  Ti4  1  0.760719  0.181005  0.749397  1
  Ti  Ti5  1  0.239035  0.681273  0.749347  1
  Ti  Ti6  1  0.756136  0.920556  0.258464  1
  Ti  Ti7  1  0.243606  0.420622  0.258420  1
  Bi  Bi8  1  0.272770  0.185615  0.587939  1
  Bi  Bi9  1  0.726859  0.685571  0.587968  1
  Bi  Bi10  1  0.261269  0.935670  0.132440  1
  Bi  Bi11  1  0.738506  0.435479  0.132351  1
  Bi  Bi12  1  0.233429  0.778076  0.433071  1
  Bi  Bi13  1  0.766295  0.278125  0.433084  1
  O  O14  1  0.452461  0.319001  0.959007  1
  O  O15  1  0.549226  0.817883  0.958736  1
  O  O16  1  0.506298  0.004355  0.505093  1
  O  O17  1  0.493636  0.504323  0.505135  1
  O  O18  1  0.850881  0.176430  0.876431  1
  O  O19  1  0.146936  0.675191  0.876436  1
  O  O20  1  0.676781  0.247579  0.644727  1
  O  O21  1  0.322912  0.747544  0.644642  1
  O  O22  1  0.457110  0.406441  0.787758  1
  O  O23  1  0.544648  0.905160  0.787886  1
  O  O24  1  0.939768  0.511167  0.747614  1
  O  O25  1  0.060874  0.011574  0.747367  1
  O  O26  1  0.936386  0.394232  0.003816  1
  O  O27  1  0.064592  0.894885  0.003628  1
  O  O28  1  0.993652  0.504057  0.506465  1
  O  O29  1  0.006234  0.004073  0.506520  1
  O  O30  1  0.676284  0.047066  0.099743  1
  O  O31  1  0.323568  0.547365  0.099811  1
  O  O32  1  0.796783  0.869886  0.360768  1
  O  O33  1  0.203246  0.369945  0.360687  1
  O  O34  1  0.014807  0.184140  0.219624  1
  O  O35  1  0.985069  0.684191  0.219550  1
  O  O36  1  0.528300  0.220320  0.237937  1
  O  O37  1  0.471601  0.720370  0.238017  1
