# generated using pymatgen
data_Pr4Fe(RhO4)3
_symmetry_space_group_name_H-M   'P 1'
_cell_length_a   5.50324579
_cell_length_b   5.81737212
_cell_length_c   7.90216691
_cell_angle_alpha   90.63608248
_cell_angle_beta   90.32641213
_cell_angle_gamma   90.07119808
_symmetry_Int_Tables_number   1
_chemical_formula_structural   Pr4Fe(RhO4)3
_chemical_formula_sum   'Pr4 Fe1 Rh3 O12'
_cell_volume   252.96344821
_cell_formula_units_Z   1
loop_
 _symmetry_equiv_pos_site_id
 _symmetry_equiv_pos_as_xyz
  1  'x, y, z'
loop_
 _atom_site_type_symbol
 _atom_site_label
 _atom_site_symmetry_multiplicity
 _atom_site_fract_x
 _atom_site_fract_y
 _atom_site_fract_z
 _atom_site_occupancy
  Pr  Pr0  1  0.025052  0.932989  0.751489  1
  Pr  Pr1  1  0.514466  0.567452  0.248589  1
  Pr  Pr2  1  0.485534  0.432548  0.751411  1
  Pr  Pr3  1  0.974948  0.067011  0.248511  1
  Fe  Fe4  1  0.000000  0.500000  0.000000  1
  Rh  Rh5  1  0.000000  0.500000  0.500000  1
  Rh  Rh6  1  0.500000  0.000000  0.500000  1
  Rh  Rh7  1  0.500000  0.000000  0.000000  1
  O  O8  1  0.691203  0.300239  0.442648  1
  O  O9  1  0.193545  0.200528  0.556384  1
  O  O10  1  0.802149  0.791854  0.048967  1
  O  O11  1  0.299804  0.698754  0.952397  1
  O  O12  1  0.308797  0.699761  0.557352  1
  O  O13  1  0.806455  0.799472  0.443616  1
  O  O14  1  0.197851  0.208146  0.951033  1
  O  O15  1  0.700196  0.301246  0.047603  1
  O  O16  1  0.094303  0.471574  0.246577  1
  O  O17  1  0.610943  0.033005  0.750226  1
  O  O18  1  0.389057  0.966995  0.249774  1
  O  O19  1  0.905697  0.528426  0.753423  1
