# generated using pymatgen
data_KRb(Al3Se5)2
_symmetry_space_group_name_H-M   'P 1'
_cell_length_a   13.47636300
_cell_length_b   7.56309695
_cell_length_c   11.21002827
_cell_angle_alpha   75.77419322
_cell_angle_beta   90.00000000
_cell_angle_gamma   90.00000000
_symmetry_Int_Tables_number   1
_chemical_formula_structural   KRb(Al3Se5)2
_chemical_formula_sum   'K2 Rb2 Al12 Se20'
_cell_volume   1107.52327920
_cell_formula_units_Z   2
loop_
 _symmetry_equiv_pos_site_id
 _symmetry_equiv_pos_as_xyz
  1  'x, y, z'
loop_
 _atom_site_type_symbol
 _atom_site_label
 _atom_site_symmetry_multiplicity
 _atom_site_fract_x
 _atom_site_fract_y
 _atom_site_fract_z
 _atom_site_occupancy
  K  K0  1  0.370310  0.161800  0.632807  1
  K  K1  1  0.870310  0.838200  0.867193  1
  Rb  Rb2  1  0.619116  0.839260  0.382895  1
  Rb  Rb3  1  0.119116  0.160740  0.117105  1
  Al  Al4  1  0.924852  0.797579  0.400971  1
  Al  Al5  1  0.576515  0.798424  0.898288  1
  Al  Al6  1  0.424852  0.202421  0.099029  1
  Al  Al7  1  0.398477  0.565557  0.807185  1
  Al  Al8  1  0.103862  0.564271  0.310637  1
  Al  Al9  1  0.338445  0.707245  0.125319  1
  Al  Al10  1  0.603862  0.435729  0.189363  1
  Al  Al11  1  0.076515  0.201576  0.601712  1
  Al  Al12  1  0.661780  0.294290  0.872882  1
  Al  Al13  1  0.898477  0.434443  0.692815  1
  Al  Al14  1  0.161780  0.705710  0.627118  1
  Al  Al15  1  0.838445  0.292755  0.374681  1
  Se  Se16  1  0.831244  0.716089  0.584857  1
  Se  Se17  1  0.106304  0.814979  0.413710  1
  Se  Se18  1  0.673274  0.715159  0.079353  1
  Se  Se19  1  0.394713  0.814208  0.911750  1
  Se  Se20  1  0.331244  0.283911  0.915143  1
  Se  Se21  1  0.664895  0.342863  0.394779  1
  Se  Se22  1  0.578973  0.579845  0.764703  1
  Se  Se23  1  0.606304  0.185021  0.086290  1
  Se  Se24  1  0.894713  0.185792  0.588250  1
  Se  Se25  1  0.629095  0.072725  0.757761  1
  Se  Se26  1  0.369763  0.930283  0.239219  1
  Se  Se27  1  0.173274  0.284841  0.420647  1
  Se  Se28  1  0.078973  0.420155  0.735297  1
  Se  Se29  1  0.922960  0.577074  0.268800  1
  Se  Se30  1  0.869763  0.069717  0.260781  1
  Se  Se31  1  0.129095  0.927275  0.742239  1
  Se  Se32  1  0.835422  0.342227  0.896852  1
  Se  Se33  1  0.335422  0.657773  0.603148  1
  Se  Se34  1  0.422960  0.422926  0.231200  1
  Se  Se35  1  0.164895  0.657137  0.105221  1
