# generated using pymatgen
data_ThSiCl
_symmetry_space_group_name_H-M   'P 1'
_cell_length_a   4.11852500
_cell_length_b   4.11852674
_cell_length_c   10.78691900
_cell_angle_alpha   90.00000000
_cell_angle_beta   90.00000000
_cell_angle_gamma   119.99999403
_symmetry_Int_Tables_number   1
_chemical_formula_structural   ThSiCl
_chemical_formula_sum   'Th2 Si2 Cl2'
_cell_volume   158.45708864
_cell_formula_units_Z   2
loop_
 _symmetry_equiv_pos_site_id
 _symmetry_equiv_pos_as_xyz
  1  'x, y, z'
loop_
 _atom_site_type_symbol
 _atom_site_label
 _atom_site_symmetry_multiplicity
 _atom_site_fract_x
 _atom_site_fract_y
 _atom_site_fract_z
 _atom_site_occupancy
  Th  Th0  1  0.000000  0.000000  0.174847  1
  Th  Th1  1  0.000000  0.000000  0.825153  1
  Si  Si2  1  0.666666  0.333332  0.999946  1
  Si  Si3  1  0.333334  0.666667  0.000054  1
  Cl  Cl4  1  0.333334  0.666667  0.346213  1
  Cl  Cl5  1  0.666666  0.333332  0.653787  1
