# generated using pymatgen
data_Nd6Mn2Co15NiP12
_symmetry_space_group_name_H-M   'P 1'
_cell_length_a   3.75364900
_cell_length_b   10.65321900
_cell_length_c   12.35585100
_cell_angle_alpha   90.00000000
_cell_angle_beta   90.00000000
_cell_angle_gamma   90.00000000
_symmetry_Int_Tables_number   1
_chemical_formula_structural   Nd6Mn2Co15NiP12
_chemical_formula_sum   'Nd6 Mn2 Co15 Ni1 P12'
_cell_volume   494.09126624
_cell_formula_units_Z   1
loop_
 _symmetry_equiv_pos_site_id
 _symmetry_equiv_pos_as_xyz
  1  'x, y, z'
loop_
 _atom_site_type_symbol
 _atom_site_label
 _atom_site_symmetry_multiplicity
 _atom_site_fract_x
 _atom_site_fract_y
 _atom_site_fract_z
 _atom_site_occupancy
  Nd  Nd0  1  0.000000  0.500000  0.519661  1
  Nd  Nd1  1  0.500000  0.000000  0.478445  1
  Nd  Nd2  1  0.500000  0.818357  0.205426  1
  Nd  Nd3  1  0.500000  0.181643  0.205426  1
  Nd  Nd4  1  0.000000  0.683496  0.795697  1
  Nd  Nd5  1  0.000000  0.316504  0.795697  1
  Mn  Mn6  1  0.500000  0.500000  0.155641  1
  Mn  Mn7  1  0.000000  0.000000  0.843881  1
  Co  Co8  1  0.000000  0.000000  0.296232  1
  Co  Co9  1  0.000000  0.500000  0.987960  1
  Co  Co10  1  0.500000  0.000000  0.012687  1
  Co  Co11  1  0.500000  0.332939  0.995355  1
  Co  Co12  1  0.500000  0.667061  0.995355  1
  Co  Co13  1  0.000000  0.166521  0.004650  1
  Co  Co14  1  0.000000  0.833479  0.004650  1
  Co  Co15  1  0.500000  0.296763  0.429875  1
  Co  Co16  1  0.500000  0.703237  0.429875  1
  Co  Co17  1  0.000000  0.203096  0.569959  1
  Co  Co18  1  0.000000  0.796904  0.569959  1
  Co  Co19  1  0.500000  0.881150  0.711091  1
  Co  Co20  1  0.500000  0.118850  0.711091  1
  Co  Co21  1  0.000000  0.618709  0.288901  1
  Co  Co22  1  0.000000  0.381291  0.288901  1
  Ni  Ni23  1  0.500000  0.500000  0.703347  1
  P  P24  1  0.500000  0.500000  0.888258  1
  P  P25  1  0.000000  0.000000  0.113610  1
  P  P26  1  0.500000  0.500000  0.339598  1
  P  P27  1  0.000000  0.000000  0.659974  1
  P  P28  1  0.500000  0.305358  0.613397  1
  P  P29  1  0.500000  0.694642  0.613397  1
  P  P30  1  0.000000  0.193130  0.385490  1
  P  P31  1  0.000000  0.806870  0.385490  1
  P  P32  1  0.500000  0.848773  0.895580  1
  P  P33  1  0.500000  0.151227  0.895580  1
  P  P34  1  0.000000  0.652299  0.104933  1
  P  P35  1  0.000000  0.347701  0.104933  1
