# generated using pymatgen
data_Ca16In5Hg
_symmetry_space_group_name_H-M   'P 1'
_cell_length_a   9.59847783
_cell_length_b   9.68243570
_cell_length_c   9.73306772
_cell_angle_alpha   99.11277405
_cell_angle_beta   100.98172660
_cell_angle_gamma   119.72813029
_symmetry_Int_Tables_number   1
_chemical_formula_structural   Ca16In5Hg
_chemical_formula_sum   'Ca16 In5 Hg1'
_cell_volume   736.42604793
_cell_formula_units_Z   1
loop_
 _symmetry_equiv_pos_site_id
 _symmetry_equiv_pos_as_xyz
  1  'x, y, z'
loop_
 _atom_site_type_symbol
 _atom_site_label
 _atom_site_symmetry_multiplicity
 _atom_site_fract_x
 _atom_site_fract_y
 _atom_site_fract_z
 _atom_site_occupancy
  Ca  Ca0  1  0.922570  0.768002  0.393613  1
  Ca  Ca1  1  0.705793  0.499897  0.608665  1
  Ca  Ca2  1  0.467784  0.297910  0.848282  1
  Ca  Ca3  1  0.532216  0.702090  0.151718  1
  Ca  Ca4  1  0.118843  0.597716  0.846388  1
  Ca  Ca5  1  0.294207  0.500103  0.391335  1
  Ca  Ca6  1  0.329314  0.873496  0.609529  1
  Ca  Ca7  1  0.077430  0.231998  0.606387  1
  Ca  Ca8  1  0.670686  0.126504  0.390471  1
  Ca  Ca9  1  0.881157  0.402284  0.153612  1
  Ca  Ca10  1  0.459108  0.292183  0.203901  1
  Ca  Ca11  1  0.772535  0.153776  0.799022  1
  Ca  Ca12  1  0.041452  0.939088  0.828895  1
  Ca  Ca13  1  0.958548  0.060912  0.171105  1
  Ca  Ca14  1  0.540892  0.707817  0.796099  1
  Ca  Ca15  1  0.227465  0.846224  0.200978  1
  In  In16  1  0.826626  0.661750  0.000790  1
  In  In17  1  0.675852  0.840403  0.525416  1
  In  In18  1  0.173374  0.338250  0.999210  1
  In  In19  1  0.500000  0.000000  0.000000  1
  In  In20  1  0.324148  0.159597  0.474584  1
  Hg  Hg21  1  0.000000  0.500000  0.500000  1
