# generated using pymatgen
data_Mg5Fe18P12Ir
_symmetry_space_group_name_H-M   'P 1'
_cell_length_a   11.80614500
_cell_length_b   11.80614519
_cell_length_c   3.73402100
_cell_angle_alpha   90.00000000
_cell_angle_beta   90.00000000
_cell_angle_gamma   119.99999666
_symmetry_Int_Tables_number   1
_chemical_formula_structural   Mg5Fe18P12Ir
_chemical_formula_sum   'Mg5 Fe18 P12 Ir1'
_cell_volume   450.73744132
_cell_formula_units_Z   1
loop_
 _symmetry_equiv_pos_site_id
 _symmetry_equiv_pos_as_xyz
  1  'x, y, z'
loop_
 _atom_site_type_symbol
 _atom_site_label
 _atom_site_symmetry_multiplicity
 _atom_site_fract_x
 _atom_site_fract_y
 _atom_site_fract_z
 _atom_site_occupancy
  Mg  Mg0  1  0.333333  0.666667  0.000000  1
  Mg  Mg1  1  0.666667  0.333333  0.000000  1
  Mg  Mg2  1  0.813184  0.000000  0.500000  1
  Mg  Mg3  1  0.000000  0.813184  0.500000  1
  Mg  Mg4  1  0.186816  0.186816  0.500000  1
  Fe  Fe5  1  0.444370  0.000000  0.000000  1
  Fe  Fe6  1  0.000000  0.444370  0.000000  1
  Fe  Fe7  1  0.555630  0.555630  0.000000  1
  Fe  Fe8  1  0.359451  0.482594  0.500000  1
  Fe  Fe9  1  0.517406  0.876857  0.500000  1
  Fe  Fe10  1  0.123143  0.640549  0.500000  1
  Fe  Fe11  1  0.876857  0.517406  0.500000  1
  Fe  Fe12  1  0.640549  0.123143  0.500000  1
  Fe  Fe13  1  0.482594  0.359451  0.500000  1
  Fe  Fe14  1  0.183998  0.383107  0.000000  1
  Fe  Fe15  1  0.616893  0.800892  0.000000  1
  Fe  Fe16  1  0.199108  0.816002  0.000000  1
  Fe  Fe17  1  0.800892  0.616893  0.000000  1
  Fe  Fe18  1  0.816002  0.199108  0.000000  1
  Fe  Fe19  1  0.383107  0.183998  0.000000  1
  Fe  Fe20  1  0.284901  0.000000  0.500000  1
  Fe  Fe21  1  0.000000  0.284901  0.500000  1
  Fe  Fe22  1  0.715099  0.715099  0.500000  1
  P  P23  1  0.192218  0.000000  0.000000  1
  P  P24  1  0.000000  0.192218  0.000000  1
  P  P25  1  0.807782  0.807782  0.000000  1
  P  P26  1  0.168902  0.482464  0.500000  1
  P  P27  1  0.517536  0.686438  0.500000  1
  P  P28  1  0.313562  0.831098  0.500000  1
  P  P29  1  0.686438  0.517536  0.500000  1
  P  P30  1  0.831098  0.313562  0.500000  1
  P  P31  1  0.482464  0.168902  0.500000  1
  P  P32  1  0.631108  0.000000  0.000000  1
  P  P33  1  0.000000  0.631108  0.000000  1
  P  P34  1  0.368892  0.368892  0.000000  1
  Ir  Ir35  1  0.000000  0.000000  0.000000  1
