# generated using pymatgen
data_BiSb2O6F
_symmetry_space_group_name_H-M   'P 1'
_cell_length_a   7.41060859
_cell_length_b   7.41060910
_cell_length_c   7.41060893
_cell_angle_alpha   120.05011784
_cell_angle_beta   119.57707308
_cell_angle_gamma   90.32365083
_symmetry_Int_Tables_number   1
_chemical_formula_structural   BiSb2O6F
_chemical_formula_sum   'Bi2 Sb4 O12 F2'
_cell_volume   288.57047680
_cell_formula_units_Z   2
loop_
 _symmetry_equiv_pos_site_id
 _symmetry_equiv_pos_as_xyz
  1  'x, y, z'
loop_
 _atom_site_type_symbol
 _atom_site_label
 _atom_site_symmetry_multiplicity
 _atom_site_fract_x
 _atom_site_fract_y
 _atom_site_fract_z
 _atom_site_occupancy
  Bi  Bi0  1  0.500000  0.500000  0.000000  1
  Bi  Bi1  1  0.000000  0.500000  0.500000  1
  Sb  Sb2  1  0.000000  0.000000  0.000000  1
  Sb  Sb3  1  0.500000  0.000000  0.500000  1
  Sb  Sb4  1  0.500000  0.000000  0.000000  1
  Sb  Sb5  1  0.500000  0.500000  0.500000  1
  O  O6  1  0.184754  0.934754  0.250000  1
  O  O7  1  0.576253  0.326253  0.250000  1
  O  O8  1  0.177372  0.912513  0.848602  1
  O  O9  1  0.563913  0.328770  0.651398  1
  O  O10  1  0.563913  0.912513  0.235142  1
  O  O11  1  0.177372  0.328770  0.264858  1
  O  O12  1  0.815246  0.065246  0.750000  1
  O  O13  1  0.423747  0.673747  0.750000  1
  O  O14  1  0.822628  0.087487  0.151398  1
  O  O15  1  0.436087  0.671230  0.348602  1
  O  O16  1  0.436087  0.087487  0.764858  1
  O  O17  1  0.822628  0.671230  0.735142  1
  F  F18  1  0.870026  0.620026  0.250000  1
  F  F19  1  0.129974  0.379974  0.750000  1
