# generated using pymatgen
data_VI2O7
_symmetry_space_group_name_H-M   'P 1'
_cell_length_a   6.67598062
_cell_length_b   6.67598147
_cell_length_c   7.23008200
_cell_angle_alpha   90.00000000
_cell_angle_beta   90.00000000
_cell_angle_gamma   102.54042141
_symmetry_Int_Tables_number   1
_chemical_formula_structural   VI2O7
_chemical_formula_sum   'V2 I4 O14'
_cell_volume   314.54797034
_cell_formula_units_Z   2
loop_
 _symmetry_equiv_pos_site_id
 _symmetry_equiv_pos_as_xyz
  1  'x, y, z'
loop_
 _atom_site_type_symbol
 _atom_site_label
 _atom_site_symmetry_multiplicity
 _atom_site_fract_x
 _atom_site_fract_y
 _atom_site_fract_z
 _atom_site_occupancy
  V  V0  1  0.992921  0.992921  0.940932  1
  V  V1  1  0.007079  0.007079  0.440932  1
  I  I2  1  0.557956  0.062237  0.210475  1
  I  I3  1  0.062237  0.557956  0.210475  1
  I  I4  1  0.442044  0.937763  0.710475  1
  I  I5  1  0.937763  0.442044  0.710475  1
  O  O6  1  0.936714  0.936714  0.708928  1
  O  O7  1  0.063286  0.063286  0.208928  1
  O  O8  1  0.699580  0.968009  0.405408  1
  O  O9  1  0.968009  0.699580  0.405408  1
  O  O10  1  0.300420  0.031991  0.905408  1
  O  O11  1  0.031991  0.300420  0.905408  1
  O  O12  1  0.694263  0.962987  0.014504  1
  O  O13  1  0.962987  0.694263  0.014504  1
  O  O14  1  0.305737  0.037013  0.514504  1
  O  O15  1  0.037013  0.305737  0.514504  1
  O  O16  1  0.675119  0.331439  0.208479  1
  O  O17  1  0.331439  0.675119  0.208479  1
  O  O18  1  0.324881  0.668561  0.708479  1
  O  O19  1  0.668561  0.324881  0.708479  1
