# generated using pymatgen
data_Pr3PtCl3
_symmetry_space_group_name_H-M   'P 1'
_cell_length_a   10.41121723
_cell_length_b   10.41121764
_cell_length_c   10.41121700
_cell_angle_alpha   109.47121550
_cell_angle_beta   109.47121630
_cell_angle_gamma   109.47122417
_symmetry_Int_Tables_number   1
_chemical_formula_structural   Pr3PtCl3
_chemical_formula_sum   'Pr12 Pt4 Cl12'
_cell_volume   868.72570628
_cell_formula_units_Z   4
loop_
 _symmetry_equiv_pos_site_id
 _symmetry_equiv_pos_as_xyz
  1  'x, y, z'
loop_
 _atom_site_type_symbol
 _atom_site_label
 _atom_site_symmetry_multiplicity
 _atom_site_fract_x
 _atom_site_fract_y
 _atom_site_fract_z
 _atom_site_occupancy
  Pr  Pr0  1  0.478434  0.489217  0.239217  1
  Pr  Pr1  1  0.750000  0.239217  0.260783  1
  Pr  Pr2  1  0.750000  0.010783  0.489217  1
  Pr  Pr3  1  0.239217  0.478434  0.489217  1
  Pr  Pr4  1  0.260783  0.750000  0.239217  1
  Pr  Pr5  1  0.021566  0.260783  0.010783  1
  Pr  Pr6  1  0.010783  0.021566  0.260783  1
  Pr  Pr7  1  0.489217  0.750000  0.010783  1
  Pr  Pr8  1  0.489217  0.239217  0.478434  1
  Pr  Pr9  1  0.010783  0.489217  0.750000  1
  Pr  Pr10  1  0.260783  0.010783  0.021566  1
  Pr  Pr11  1  0.239217  0.260783  0.750000  1
  Pt  Pt12  1  0.250000  0.250000  0.250000  1
  Pt  Pt13  1  0.500000  0.000000  0.250000  1
  Pt  Pt14  1  0.000000  0.250000  0.500000  1
  Pt  Pt15  1  0.250000  0.500000  0.000000  1
  Cl  Cl16  1  0.250000  0.749265  0.750735  1
  Cl  Cl17  1  0.498530  0.499265  0.749265  1
  Cl  Cl18  1  0.001470  0.750735  0.000735  1
  Cl  Cl19  1  0.750735  0.250000  0.749265  1
  Cl  Cl20  1  0.000735  0.001470  0.750735  1
  Cl  Cl21  1  0.250000  0.000735  0.499265  1
  Cl  Cl22  1  0.749265  0.498530  0.499265  1
  Cl  Cl23  1  0.499265  0.250000  0.000735  1
  Cl  Cl24  1  0.749265  0.750735  0.250000  1
  Cl  Cl25  1  0.750735  0.000735  0.001470  1
  Cl  Cl26  1  0.000735  0.499265  0.250000  1
  Cl  Cl27  1  0.499265  0.749265  0.498530  1
