# generated using pymatgen
data_Sr2ZnGa3
_symmetry_space_group_name_H-M   'P 1'
_cell_length_a   6.00482282
_cell_length_b   6.04299763
_cell_length_c   6.04299836
_cell_angle_alpha   134.10403202
_cell_angle_beta   100.09885294
_cell_angle_gamma   97.50557269
_symmetry_Int_Tables_number   1
_chemical_formula_structural   Sr2ZnGa3
_chemical_formula_sum   'Sr2 Zn1 Ga3'
_cell_volume   144.78414393
_cell_formula_units_Z   1
loop_
 _symmetry_equiv_pos_site_id
 _symmetry_equiv_pos_as_xyz
  1  'x, y, z'
loop_
 _atom_site_type_symbol
 _atom_site_label
 _atom_site_symmetry_multiplicity
 _atom_site_fract_x
 _atom_site_fract_y
 _atom_site_fract_z
 _atom_site_occupancy
  Sr  Sr0  1  0.295306  0.045990  0.249316  1
  Sr  Sr1  1  0.705732  0.954907  0.750825  1
  Zn  Zn2  1  0.898858  0.334101  0.564758  1
  Ga  Ga3  1  0.728006  0.664902  0.063104  1
  Ga  Ga4  1  0.272868  0.338033  0.934835  1
  Ga  Ga5  1  0.099230  0.662068  0.437163  1
