# generated using pymatgen
data_YHo5Tc2
_symmetry_space_group_name_H-M   'P 1'
_cell_length_a   6.23660200
_cell_length_b   7.42671500
_cell_length_c   9.12557300
_cell_angle_alpha   90.00000000
_cell_angle_beta   90.00000000
_cell_angle_gamma   90.00000000
_symmetry_Int_Tables_number   1
_chemical_formula_structural   YHo5Tc2
_chemical_formula_sum   'Y2 Ho10 Tc4'
_cell_volume   422.67341371
_cell_formula_units_Z   2
loop_
 _symmetry_equiv_pos_site_id
 _symmetry_equiv_pos_as_xyz
  1  'x, y, z'
loop_
 _atom_site_type_symbol
 _atom_site_label
 _atom_site_symmetry_multiplicity
 _atom_site_fract_x
 _atom_site_fract_y
 _atom_site_fract_z
 _atom_site_occupancy
  Y  Y0  1  0.873527  0.541005  0.250000  1
  Y  Y1  1  0.626473  0.041005  0.250000  1
  Ho  Ho2  1  0.342225  0.675554  0.061535  1
  Ho  Ho3  1  0.157775  0.175554  0.438465  1
  Ho  Ho4  1  0.657404  0.324247  0.562780  1
  Ho  Ho5  1  0.842596  0.824247  0.937220  1
  Ho  Ho6  1  0.657404  0.324247  0.937220  1
  Ho  Ho7  1  0.842596  0.824247  0.562780  1
  Ho  Ho8  1  0.342225  0.675554  0.438465  1
  Ho  Ho9  1  0.157775  0.175554  0.061535  1
  Ho  Ho10  1  0.126651  0.458317  0.750000  1
  Ho  Ho11  1  0.373349  0.958317  0.750000  1
  Tc  Tc12  1  0.047464  0.885988  0.250000  1
  Tc  Tc13  1  0.452536  0.385988  0.250000  1
  Tc  Tc14  1  0.960472  0.115091  0.750000  1
  Tc  Tc15  1  0.539528  0.615091  0.750000  1
