# generated using pymatgen
data_U4Si2Tc6As4Ru
_symmetry_space_group_name_H-M   'P 1'
_cell_length_a   7.18590624
_cell_length_b   7.18590685
_cell_length_c   7.18452887
_cell_angle_alpha   109.83188057
_cell_angle_beta   109.39258141
_cell_angle_gamma   109.19766215
_symmetry_Int_Tables_number   1
_chemical_formula_structural   U4Si2Tc6As4Ru
_chemical_formula_sum   'U4 Si2 Tc6 As4 Ru1'
_cell_volume   285.55100188
_cell_formula_units_Z   1
loop_
 _symmetry_equiv_pos_site_id
 _symmetry_equiv_pos_as_xyz
  1  'x, y, z'
loop_
 _atom_site_type_symbol
 _atom_site_label
 _atom_site_symmetry_multiplicity
 _atom_site_fract_x
 _atom_site_fract_y
 _atom_site_fract_z
 _atom_site_occupancy
  U  U0  1  0.494807  0.492091  0.499799  1
  U  U1  1  0.997212  0.499406  0.002087  1
  U  U2  1  0.502681  0.004874  0.002087  1
  U  U3  1  0.007709  0.004992  0.499799  1
  Si  Si4  1  0.000353  0.311598  0.311950  1
  Si  Si5  1  0.311457  0.998348  0.309805  1
  Tc  Tc6  1  0.746657  0.245977  0.493565  1
  Tc  Tc7  1  0.247587  0.746908  0.493565  1
  Tc  Tc8  1  0.248169  0.497526  0.745695  1
  Tc  Tc9  1  0.006453  0.005687  0.012140  1
  Tc  Tc10  1  0.497108  0.247906  0.745014  1
  Tc  Tc11  1  0.750013  0.497587  0.247600  1
  As  As12  1  0.692688  0.998873  0.691561  1
  As  As13  1  0.694186  0.696077  0.003052  1
  As  As14  1  0.306974  0.308866  0.003052  1
  As  As15  1  0.000641  0.691779  0.692420  1
  Ru  Ru16  1  0.495306  0.751505  0.246811  1
