# generated using pymatgen
data_Tb2Nd4Zn4IrPd12
_symmetry_space_group_name_H-M   'P 1'
_cell_length_a   8.33755669
_cell_length_b   8.33654993
_cell_length_c   8.33655000
_cell_angle_alpha   109.47348365
_cell_angle_beta   109.46764277
_cell_angle_gamma   109.46764029
_symmetry_Int_Tables_number   1
_chemical_formula_structural   Tb2Nd4Zn4IrPd12
_chemical_formula_sum   'Tb2 Nd4 Zn4 Ir1 Pd12'
_cell_volume   446.08318952
_cell_formula_units_Z   1
loop_
 _symmetry_equiv_pos_site_id
 _symmetry_equiv_pos_as_xyz
  1  'x, y, z'
loop_
 _atom_site_type_symbol
 _atom_site_label
 _atom_site_symmetry_multiplicity
 _atom_site_fract_x
 _atom_site_fract_y
 _atom_site_fract_z
 _atom_site_occupancy
  Tb  Tb0  1  0.702466  0.701941  0.000525  1
  Tb  Tb1  1  0.297534  0.999475  0.298059  1
  Nd  Nd2  1  0.000000  0.294475  0.295525  1
  Nd  Nd3  1  0.296319  0.295728  0.000591  1
  Nd  Nd4  1  0.703681  0.999409  0.704272  1
  Nd  Nd5  1  0.000000  0.704475  0.705525  1
  Zn  Zn6  1  0.000000  0.999999  0.497679  1
  Zn  Zn7  1  0.000000  0.502321  0.000001  1
  Zn  Zn8  1  0.500000  0.000053  0.999947  1
  Zn  Zn9  1  0.500000  0.500053  0.499947  1
  Ir  Ir10  1  0.000000  0.994923  0.005077  1
  Pd  Pd11  1  0.334155  0.333251  0.665282  1
  Pd  Pd12  1  0.665845  0.999096  0.331127  1
  Pd  Pd13  1  0.000000  0.670686  0.329314  1
  Pd  Pd14  1  0.667360  0.334980  0.000135  1
  Pd  Pd15  1  0.332640  0.667620  0.332775  1
  Pd  Pd16  1  0.000000  0.331883  0.668117  1
  Pd  Pd17  1  0.334155  0.668873  0.000904  1
  Pd  Pd18  1  0.332640  0.999865  0.665020  1
  Pd  Pd19  1  0.661319  0.330135  0.331184  1
  Pd  Pd20  1  0.667360  0.667225  0.332380  1
  Pd  Pd21  1  0.665845  0.334718  0.666749  1
  Pd  Pd22  1  0.338681  0.668816  0.669865  1
