# generated using pymatgen
data_MgZnCu2(SO4)4
_symmetry_space_group_name_H-M   'P 1'
_cell_length_a   4.96127380
_cell_length_b   6.90937502
_cell_length_c   8.51153339
_cell_angle_alpha   90.12141493
_cell_angle_beta   90.09276976
_cell_angle_gamma   83.59194458
_symmetry_Int_Tables_number   1
_chemical_formula_structural   MgZnCu2(SO4)4
_chemical_formula_sum   'Mg1 Zn1 Cu2 S4 O16'
_cell_volume   289.94557977
_cell_formula_units_Z   1
loop_
 _symmetry_equiv_pos_site_id
 _symmetry_equiv_pos_as_xyz
  1  'x, y, z'
loop_
 _atom_site_type_symbol
 _atom_site_label
 _atom_site_symmetry_multiplicity
 _atom_site_fract_x
 _atom_site_fract_y
 _atom_site_fract_z
 _atom_site_occupancy
  Mg  Mg0  1  0.000000  0.000000  0.000000  1
  Zn  Zn1  1  0.500000  0.500000  0.500000  1
  Cu  Cu2  1  0.000000  0.500000  0.000000  1
  Cu  Cu3  1  0.500000  0.000000  0.500000  1
  S  S4  1  0.956727  0.727263  0.681947  1
  S  S5  1  0.455246  0.227872  0.819196  1
  S  S6  1  0.043273  0.272737  0.318053  1
  S  S7  1  0.544754  0.772128  0.180804  1
  O  O8  1  0.179389  0.443496  0.361688  1
  O  O9  1  0.677967  0.582549  0.120931  1
  O  O10  1  0.819427  0.914900  0.621485  1
  O  O11  1  0.312618  0.061445  0.863289  1
  O  O12  1  0.820611  0.556504  0.638312  1
  O  O13  1  0.322033  0.417451  0.879069  1
  O  O14  1  0.180573  0.085100  0.378515  1
  O  O15  1  0.687382  0.938555  0.136711  1
  O  O16  1  0.260228  0.795302  0.128170  1
  O  O17  1  0.757607  0.290690  0.369853  1
  O  O18  1  0.739772  0.204698  0.871830  1
  O  O19  1  0.242393  0.709310  0.630147  1
  O  O20  1  0.555907  0.756995  0.360630  1
  O  O21  1  0.054320  0.255244  0.138681  1
  O  O22  1  0.444093  0.243005  0.639370  1
  O  O23  1  0.945680  0.744756  0.861319  1
