# generated using pymatgen
data_La7PaAl8(IrRh)4
_symmetry_space_group_name_H-M   'P 1'
_cell_length_a   4.26423200
_cell_length_b   7.27450189
_cell_length_c   16.29933628
_cell_angle_alpha   89.34858786
_cell_angle_beta   90.00000000
_cell_angle_gamma   90.00000000
_symmetry_Int_Tables_number   1
_chemical_formula_structural   La7PaAl8(IrRh)4
_chemical_formula_sum   'La7 Pa1 Al8 Ir4 Rh4'
_cell_volume   505.57540309
_cell_formula_units_Z   1
loop_
 _symmetry_equiv_pos_site_id
 _symmetry_equiv_pos_as_xyz
  1  'x, y, z'
loop_
 _atom_site_type_symbol
 _atom_site_label
 _atom_site_symmetry_multiplicity
 _atom_site_fract_x
 _atom_site_fract_y
 _atom_site_fract_z
 _atom_site_occupancy
  La  La0  1  0.750000  0.478357  0.219820  1
  La  La1  1  0.750000  0.977341  0.279926  1
  La  La2  1  0.250000  0.025718  0.721393  1
  La  La3  1  0.250000  0.652619  0.560988  1
  La  La4  1  0.750000  0.339001  0.440223  1
  La  La5  1  0.750000  0.847923  0.058780  1
  La  La6  1  0.250000  0.165105  0.937736  1
  Pa  Pa7  1  0.250000  0.527278  0.779932  1
  Al  Al8  1  0.250000  0.650280  0.353139  1
  Al  Al9  1  0.750000  0.347536  0.649523  1
  Al  Al10  1  0.750000  0.840354  0.849508  1
  Al  Al11  1  0.250000  0.149694  0.145563  1
  Al  Al12  1  0.250000  0.506004  0.059940  1
  Al  Al13  1  0.750000  0.498357  0.939776  1
  Al  Al14  1  0.750000  0.989392  0.562554  1
  Al  Al15  1  0.250000  0.998981  0.439788  1
  Ir  Ir16  1  0.750000  0.277709  0.813468  1
  Ir  Ir17  1  0.750000  0.706842  0.693610  1
  Ir  Ir18  1  0.750000  0.281754  0.071832  1
  Ir  Ir19  1  0.750000  0.780805  0.429812  1
  Rh  Rh20  1  0.250000  0.768486  0.178747  1
  Rh  Rh21  1  0.250000  0.270703  0.321147  1
  Rh  Rh22  1  0.250000  0.710703  0.920506  1
  Rh  Rh23  1  0.250000  0.209055  0.572284  1
