# generated using pymatgen
data_TcSn14Ir4Os
_symmetry_space_group_name_H-M   'P 1'
_cell_length_a   9.48924696
_cell_length_b   8.23973303
_cell_length_c   8.23430148
_cell_angle_alpha   70.51414410
_cell_angle_beta   54.85625365
_cell_angle_gamma   54.80264120
_symmetry_Int_Tables_number   1
_chemical_formula_structural   TcSn14Ir4Os
_chemical_formula_sum   'Tc1 Sn14 Ir4 Os1'
_cell_volume   430.21232680
_cell_formula_units_Z   1
loop_
 _symmetry_equiv_pos_site_id
 _symmetry_equiv_pos_as_xyz
  1  'x, y, z'
loop_
 _atom_site_type_symbol
 _atom_site_label
 _atom_site_symmetry_multiplicity
 _atom_site_fract_x
 _atom_site_fract_y
 _atom_site_fract_z
 _atom_site_occupancy
  Tc  Tc0  1  0.652384  0.000266  0.999734  1
  Sn  Sn1  1  0.675279  0.323493  0.997695  1
  Sn  Sn2  1  0.999874  0.000103  0.327398  1
  Sn  Sn3  1  0.325161  0.002094  0.672648  1
  Sn  Sn4  1  0.996733  0.676373  0.999838  1
  Sn  Sn5  1  0.327375  0.672602  0.999897  1
  Sn  Sn6  1  0.996467  0.002305  0.676507  1
  Sn  Sn7  1  0.672944  0.000162  0.323627  1
  Sn  Sn8  1  0.999903  0.327352  0.997906  1
  Sn  Sn9  1  0.249776  0.497789  0.502211  1
  Sn  Sn10  1  0.503216  0.249530  0.750470  1
  Sn  Sn11  1  0.753611  0.747536  0.752478  1
  Sn  Sn12  1  0.503632  0.750431  0.249569  1
  Sn  Sn13  1  0.750820  0.498089  0.501911  1
  Sn  Sn14  1  0.253625  0.247522  0.252464  1
  Ir  Ir15  1  0.656351  0.343941  0.343300  1
  Ir  Ir16  1  0.339441  0.000144  0.999856  1
  Ir  Ir17  1  0.999966  0.658228  0.341772  1
  Ir  Ir18  1  0.343592  0.656700  0.656059  1
  Os  Os19  1  0.999849  0.345340  0.654660  1
