# generated using pymatgen
data_Ho2TmTh(Al3Ir)6
_symmetry_space_group_name_H-M   'P 1'
_cell_length_a   7.57209008
_cell_length_b   7.58493950
_cell_length_c   9.47653500
_cell_angle_alpha   90.00000000
_cell_angle_beta   90.00000000
_cell_angle_gamma   119.52723227
_symmetry_Int_Tables_number   1
_chemical_formula_structural   Ho2TmTh(Al3Ir)6
_chemical_formula_sum   'Ho2 Tm1 Th1 Al18 Ir6'
_cell_volume   473.58440176
_cell_formula_units_Z   1
loop_
 _symmetry_equiv_pos_site_id
 _symmetry_equiv_pos_as_xyz
  1  'x, y, z'
loop_
 _atom_site_type_symbol
 _atom_site_label
 _atom_site_symmetry_multiplicity
 _atom_site_fract_x
 _atom_site_fract_y
 _atom_site_fract_z
 _atom_site_occupancy
  Ho  Ho0  1  0.004002  0.328282  0.750000  1
  Ho  Ho1  1  0.672847  0.994958  0.250000  1
  Tm  Tm2  1  0.327215  0.004645  0.750000  1
  Th  Th3  1  0.994939  0.671327  0.250000  1
  Al  Al4  1  0.132005  0.133390  0.250000  1
  Al  Al5  1  0.871461  0.873505  0.750000  1
  Al  Al6  1  0.001668  0.331158  0.072329  1
  Al  Al7  1  0.999429  0.664635  0.918106  1
  Al  Al8  1  0.999429  0.664635  0.581894  1
  Al  Al9  1  0.340274  0.005276  0.428080  1
  Al  Al10  1  0.001668  0.331158  0.427671  1
  Al  Al11  1  0.663842  0.000101  0.576275  1
  Al  Al12  1  0.663842  0.000101  0.923725  1
  Al  Al13  1  0.340274  0.005276  0.071920  1
  Al  Al14  1  0.332468  0.332102  0.555733  1
  Al  Al15  1  0.662875  0.666383  0.454463  1
  Al  Al16  1  0.662875  0.666383  0.045537  1
  Al  Al17  1  0.332468  0.332102  0.944267  1
  Al  Al18  1  0.344778  0.548979  0.250000  1
  Al  Al19  1  0.657359  0.448348  0.750000  1
  Al  Al20  1  0.544390  0.337030  0.250000  1
  Al  Al21  1  0.449544  0.660785  0.750000  1
  Ir  Ir22  1  0.673193  0.329396  0.000201  1
  Ir  Ir23  1  0.326426  0.671702  0.000270  1
  Ir  Ir24  1  0.326426  0.671702  0.499730  1
  Ir  Ir25  1  0.673193  0.329396  0.499799  1
  Ir  Ir26  1  0.000554  0.998621  0.000403  1
  Ir  Ir27  1  0.000554  0.998621  0.499597  1
