# generated using pymatgen
data_ReTe2IrF24
_symmetry_space_group_name_H-M   'P 1'
_cell_length_a   5.28123039
_cell_length_b   9.10360300
_cell_length_c   10.03106136
_cell_angle_alpha   90.00000000
_cell_angle_beta   90.46741484
_cell_angle_gamma   90.00000000
_symmetry_Int_Tables_number   1
_chemical_formula_structural   ReTe2IrF24
_chemical_formula_sum   'Re1 Te2 Ir1 F24'
_cell_volume   482.25957518
_cell_formula_units_Z   1
loop_
 _symmetry_equiv_pos_site_id
 _symmetry_equiv_pos_as_xyz
  1  'x, y, z'
loop_
 _atom_site_type_symbol
 _atom_site_label
 _atom_site_symmetry_multiplicity
 _atom_site_fract_x
 _atom_site_fract_y
 _atom_site_fract_z
 _atom_site_occupancy
  Re  Re0  1  0.594274  0.250000  0.871677  1
  Te  Te1  1  0.906695  0.250000  0.373629  1
  Te  Te2  1  0.406167  0.750000  0.127455  1
  Ir  Ir3  1  0.092943  0.750000  0.627466  1
  F  F4  1  0.243395  0.603688  0.521909  1
  F  F5  1  0.255603  0.895134  0.021786  1
  F  F6  1  0.943372  0.896441  0.733646  1
  F  F7  1  0.189732  0.250000  0.486143  1
  F  F8  1  0.738088  0.104129  0.977199  1
  F  F9  1  0.556672  0.895015  0.232612  1
  F  F10  1  0.312234  0.250000  0.983067  1
  F  F11  1  0.243395  0.896312  0.521909  1
  F  F12  1  0.756150  0.394585  0.477919  1
  F  F13  1  0.451013  0.396102  0.766865  1
  F  F14  1  0.738088  0.395871  0.977199  1
  F  F15  1  0.806839  0.750000  0.514053  1
  F  F16  1  0.687299  0.750000  0.016226  1
  F  F17  1  0.255603  0.604866  0.021786  1
  F  F18  1  0.451013  0.103898  0.766865  1
  F  F19  1  0.055265  0.394436  0.268238  1
  F  F20  1  0.623846  0.250000  0.260376  1
  F  F21  1  0.556672  0.604985  0.232612  1
  F  F22  1  0.877545  0.250000  0.761369  1
  F  F23  1  0.123470  0.750000  0.237339  1
  F  F24  1  0.055265  0.105564  0.268238  1
  F  F25  1  0.943372  0.603559  0.733646  1
  F  F26  1  0.379840  0.750000  0.740853  1
  F  F27  1  0.756150  0.105415  0.477919  1
