# generated using pymatgen
data_Dy2Tm2FeSi4Rh
_symmetry_space_group_name_H-M   'P 1'
_cell_length_a   5.62549610
_cell_length_b   5.62549557
_cell_length_c   10.00285172
_cell_angle_alpha   63.44584855
_cell_angle_beta   63.44585313
_cell_angle_gamma   43.47101262
_symmetry_Int_Tables_number   1
_chemical_formula_structural   Dy2Tm2FeSi4Rh
_chemical_formula_sum   'Dy2 Tm2 Fe1 Si4 Rh1'
_cell_volume   190.90472723
_cell_formula_units_Z   1
loop_
 _symmetry_equiv_pos_site_id
 _symmetry_equiv_pos_as_xyz
  1  'x, y, z'
loop_
 _atom_site_type_symbol
 _atom_site_label
 _atom_site_symmetry_multiplicity
 _atom_site_fract_x
 _atom_site_fract_y
 _atom_site_fract_z
 _atom_site_occupancy
  Dy  Dy0  1  0.811986  0.811986  0.108115  1
  Dy  Dy1  1  0.186912  0.186912  0.890185  1
  Tm  Tm2  1  0.001464  0.001464  0.325843  1
  Tm  Tm3  1  0.000448  0.000448  0.671693  1
  Fe  Fe4  1  0.272318  0.272318  0.378132  1
  Si  Si5  1  0.650691  0.650691  0.431064  1
  Si  Si6  1  0.361130  0.361130  0.557698  1
  Si  Si7  1  0.500540  0.500540  0.129297  1
  Si  Si8  1  0.486956  0.486956  0.880233  1
  Rh  Rh9  1  0.727555  0.727555  0.627740  1
