# generated using pymatgen
data_LiHf4ReIr2
_symmetry_space_group_name_H-M   'P 1'
_cell_length_a   6.53709100
_cell_length_b   4.63647100
_cell_length_c   9.27544900
_cell_angle_alpha   90.00000000
_cell_angle_beta   90.00000000
_cell_angle_gamma   90.00000000
_symmetry_Int_Tables_number   1
_chemical_formula_structural   LiHf4ReIr2
_chemical_formula_sum   'Li2 Hf8 Re2 Ir4'
_cell_volume   281.12988840
_cell_formula_units_Z   2
loop_
 _symmetry_equiv_pos_site_id
 _symmetry_equiv_pos_as_xyz
  1  'x, y, z'
loop_
 _atom_site_type_symbol
 _atom_site_label
 _atom_site_symmetry_multiplicity
 _atom_site_fract_x
 _atom_site_fract_y
 _atom_site_fract_z
 _atom_site_occupancy
  Li  Li0  1  0.749934  0.250000  0.125954  1
  Li  Li1  1  0.249935  0.750001  0.374047  1
  Hf  Hf2  1  0.001423  0.750001  0.122745  1
  Hf  Hf3  1  0.498458  0.750001  0.122744  1
  Hf  Hf4  1  0.998458  0.250000  0.377256  1
  Hf  Hf5  1  0.501424  0.250000  0.377256  1
  Hf  Hf6  1  0.501796  0.750001  0.626809  1
  Hf  Hf7  1  0.998332  0.750001  0.626817  1
  Hf  Hf8  1  0.498333  0.250000  0.873183  1
  Hf  Hf9  1  0.001796  0.250000  0.873191  1
  Re  Re10  1  0.750047  0.250000  0.624842  1
  Re  Re11  1  0.250046  0.750001  0.875158  1
  Ir  Ir12  1  0.249969  0.250000  0.130044  1
  Ir  Ir13  1  0.749970  0.750001  0.369955  1
  Ir  Ir14  1  0.250039  0.250000  0.618861  1
  Ir  Ir15  1  0.750039  0.750001  0.881139  1
