# generated using pymatgen
data_Nd4Ga24Pt8Rh
_symmetry_space_group_name_H-M   'P 1'
_cell_length_a   7.58049222
_cell_length_b   7.62332997
_cell_length_c   13.43727708
_cell_angle_alpha   84.83309075
_cell_angle_beta   100.59653497
_cell_angle_gamma   119.61451578
_symmetry_Int_Tables_number   1
_chemical_formula_structural   Nd4Ga24Pt8Rh
_chemical_formula_sum   'Nd4 Ga24 Pt8 Rh1'
_cell_volume   663.57130724
_cell_formula_units_Z   1
loop_
 _symmetry_equiv_pos_site_id
 _symmetry_equiv_pos_as_xyz
  1  'x, y, z'
loop_
 _atom_site_type_symbol
 _atom_site_label
 _atom_site_symmetry_multiplicity
 _atom_site_fract_x
 _atom_site_fract_y
 _atom_site_fract_z
 _atom_site_occupancy
  Nd  Nd0  1  0.437399  0.831970  0.810530  1
  Nd  Nd1  1  0.562601  0.168030  0.189470  1
  Nd  Nd2  1  0.769780  0.501533  0.810943  1
  Nd  Nd3  1  0.230220  0.498467  0.189057  1
  Ga  Ga4  1  0.477959  0.169860  0.941673  1
  Ga  Ga5  1  0.522041  0.830140  0.058327  1
  Ga  Ga6  1  0.022186  0.168071  0.559798  1
  Ga  Ga7  1  0.977814  0.831929  0.440202  1
  Ga  Ga8  1  0.354553  0.833500  0.556740  1
  Ga  Ga9  1  0.645447  0.166500  0.443260  1
  Ga  Ga10  1  0.615755  0.834922  0.326740  1
  Ga  Ga11  1  0.384245  0.165078  0.673260  1
  Ga  Ga12  1  0.057631  0.495331  0.671570  1
  Ga  Ga13  1  0.942369  0.504669  0.328430  1
  Ga  Ga14  1  0.729360  0.837154  0.670239  1
  Ga  Ga15  1  0.270640  0.162846  0.329761  1
  Ga  Ga16  1  0.148873  0.499528  0.942605  1
  Ga  Ga17  1  0.851127  0.500472  0.057395  1
  Ga  Ga18  1  0.809575  0.828100  0.949293  1
  Ga  Ga19  1  0.190425  0.171900  0.050707  1
  Ga  Ga20  1  0.314577  0.501189  0.442137  1
  Ga  Ga21  1  0.685423  0.498811  0.557863  1
  Ga  Ga22  1  0.099475  0.836106  0.182707  1
  Ga  Ga23  1  0.900525  0.163894  0.817293  1
  Ga  Ga24  1  0.307856  0.369513  0.818706  1
  Ga  Ga25  1  0.692144  0.630487  0.181294  1
  Ga  Ga26  1  0.102408  0.962138  0.816356  1
  Ga  Ga27  1  0.897592  0.037862  0.183644  1
  Pt  Pt28  1  0.384466  0.502632  0.637702  1
  Pt  Pt29  1  0.615534  0.497368  0.362298  1
  Pt  Pt30  1  0.170494  0.829882  0.999410  1
  Pt  Pt31  1  0.829506  0.170118  0.000590  1
  Pt  Pt32  1  0.291523  0.833273  0.361677  1
  Pt  Pt33  1  0.708477  0.166727  0.638323  1
  Pt  Pt34  1  0.048324  0.829119  0.636139  1
  Pt  Pt35  1  0.951676  0.170881  0.363861  1
  Rh  Rh36  1  0.500000  0.500000  0.000000  1
