# generated using pymatgen
data_NiSeBr18
_symmetry_space_group_name_H-M   'P 1'
_cell_length_a   9.17857962
_cell_length_b   9.17858035
_cell_length_c   9.17858058
_cell_angle_alpha   90.79410710
_cell_angle_beta   90.79409730
_cell_angle_gamma   90.79410889
_symmetry_Int_Tables_number   1
_chemical_formula_structural   NiSeBr18
_chemical_formula_sum   'Ni1 Se1 Br18'
_cell_volume   773.03685034
_cell_formula_units_Z   1
loop_
 _symmetry_equiv_pos_site_id
 _symmetry_equiv_pos_as_xyz
  1  'x, y, z'
loop_
 _atom_site_type_symbol
 _atom_site_label
 _atom_site_symmetry_multiplicity
 _atom_site_fract_x
 _atom_site_fract_y
 _atom_site_fract_z
 _atom_site_occupancy
  Ni  Ni0  1  0.000000  0.000000  0.000000  1
  Se  Se1  1  0.500000  0.500000  0.500000  1
  Br  Br2  1  0.727289  0.982439  0.035448  1
  Br  Br3  1  0.753007  0.126384  0.618402  1
  Br  Br4  1  0.035448  0.727289  0.982439  1
  Br  Br5  1  0.246993  0.873616  0.381598  1
  Br  Br6  1  0.126384  0.618402  0.753007  1
  Br  Br7  1  0.017561  0.964552  0.272711  1
  Br  Br8  1  0.618402  0.753007  0.126384  1
  Br  Br9  1  0.964552  0.272711  0.017561  1
  Br  Br10  1  0.873616  0.381598  0.246993  1
  Br  Br11  1  0.381598  0.246993  0.873616  1
  Br  Br12  1  0.982439  0.035448  0.727289  1
  Br  Br13  1  0.272711  0.017561  0.964552  1
  Br  Br14  1  0.785073  0.528524  0.484598  1
  Br  Br15  1  0.515402  0.214927  0.471476  1
  Br  Br16  1  0.471476  0.515402  0.214927  1
  Br  Br17  1  0.484598  0.785073  0.528524  1
  Br  Br18  1  0.528524  0.484598  0.785073  1
  Br  Br19  1  0.214927  0.471476  0.515402  1
