# generated using pymatgen
data_DyErZn2Co4(NiB)2
_symmetry_space_group_name_H-M   'P 1'
_cell_length_a   5.10270700
_cell_length_b   5.10270735
_cell_length_c   6.82457700
_cell_angle_alpha   90.00000000
_cell_angle_beta   90.00000000
_cell_angle_gamma   120.00000424
_symmetry_Int_Tables_number   1
_chemical_formula_structural   DyErZn2Co4(NiB)2
_chemical_formula_sum   'Dy1 Er1 Zn2 Co4 Ni2 B2'
_cell_volume   153.88902353
_cell_formula_units_Z   1
loop_
 _symmetry_equiv_pos_site_id
 _symmetry_equiv_pos_as_xyz
  1  'x, y, z'
loop_
 _atom_site_type_symbol
 _atom_site_label
 _atom_site_symmetry_multiplicity
 _atom_site_fract_x
 _atom_site_fract_y
 _atom_site_fract_z
 _atom_site_occupancy
  Dy  Dy0  1  0.000000  0.000000  0.000000  1
  Er  Er1  1  0.000000  0.000000  0.500000  1
  Zn  Zn2  1  0.669883  0.330117  0.000000  1
  Zn  Zn3  1  0.330117  0.669883  0.000000  1
  Co  Co4  1  0.500000  0.000000  0.701853  1
  Co  Co5  1  0.000000  0.500000  0.701853  1
  Co  Co6  1  0.500000  0.000000  0.298147  1
  Co  Co7  1  0.000000  0.500000  0.298147  1
  Ni  Ni8  1  0.500000  0.500000  0.703831  1
  Ni  Ni9  1  0.500000  0.500000  0.296169  1
  B  B10  1  0.672486  0.327514  0.500000  1
  B  B11  1  0.327514  0.672486  0.500000  1
