# generated using pymatgen
data_LiPa(TiPd6)2
_symmetry_space_group_name_H-M   'P 1'
_cell_length_a   5.66261600
_cell_length_b   5.66261573
_cell_length_c   9.15049300
_cell_angle_alpha   90.00000000
_cell_angle_beta   90.00000000
_cell_angle_gamma   120.00000156
_symmetry_Int_Tables_number   1
_chemical_formula_structural   LiPa(TiPd6)2
_chemical_formula_sum   'Li1 Pa1 Ti2 Pd12'
_cell_volume   254.10272417
_cell_formula_units_Z   1
loop_
 _symmetry_equiv_pos_site_id
 _symmetry_equiv_pos_as_xyz
  1  'x, y, z'
loop_
 _atom_site_type_symbol
 _atom_site_label
 _atom_site_symmetry_multiplicity
 _atom_site_fract_x
 _atom_site_fract_y
 _atom_site_fract_z
 _atom_site_occupancy
  Li  Li0  1  0.333333  0.666667  0.250000  1
  Pa  Pa1  1  0.666667  0.333333  0.750000  1
  Ti  Ti2  1  0.000000  0.000000  0.484606  1
  Ti  Ti3  1  0.000000  0.000000  0.015394  1
  Pd  Pd4  1  0.498768  0.501232  0.496154  1
  Pd  Pd5  1  0.498768  0.997537  0.496154  1
  Pd  Pd6  1  0.002463  0.501232  0.496154  1
  Pd  Pd7  1  0.498768  0.501232  0.003846  1
  Pd  Pd8  1  0.498768  0.997537  0.003846  1
  Pd  Pd9  1  0.002463  0.501232  0.003846  1
  Pd  Pd10  1  0.833891  0.667782  0.250000  1
  Pd  Pd11  1  0.332218  0.166109  0.250000  1
  Pd  Pd12  1  0.833891  0.166109  0.250000  1
  Pd  Pd13  1  0.166249  0.332498  0.750000  1
  Pd  Pd14  1  0.667502  0.833751  0.750000  1
  Pd  Pd15  1  0.166249  0.833751  0.750000  1
