# generated using pymatgen
data_Cr4InSe8
_symmetry_space_group_name_H-M   'P 1'
_cell_length_a   7.49806789
_cell_length_b   7.47002606
_cell_length_c   7.52098434
_cell_angle_alpha   60.79065619
_cell_angle_beta   60.79470571
_cell_angle_gamma   60.75060983
_symmetry_Int_Tables_number   1
_chemical_formula_structural   Cr4InSe8
_chemical_formula_sum   'Cr4 In1 Se8'
_cell_volume   303.10512842
_cell_formula_units_Z   1
loop_
 _symmetry_equiv_pos_site_id
 _symmetry_equiv_pos_as_xyz
  1  'x, y, z'
loop_
 _atom_site_type_symbol
 _atom_site_label
 _atom_site_symmetry_multiplicity
 _atom_site_fract_x
 _atom_site_fract_y
 _atom_site_fract_z
 _atom_site_occupancy
  Cr  Cr0  1  0.510587  0.511747  0.509516  1
  Cr  Cr1  1  0.505139  0.506236  0.979704  1
  Cr  Cr2  1  0.976338  0.508082  0.505466  1
  Cr  Cr3  1  0.508078  0.974141  0.506226  1
  In  In4  1  0.123568  0.125358  0.120798  1
  Se  Se5  1  0.739995  0.739891  0.740829  1
  Se  Se6  1  0.267407  0.266668  0.700582  1
  Se  Se7  1  0.266223  0.702774  0.267363  1
  Se  Se8  1  0.702035  0.265926  0.267672  1
  Se  Se9  1  0.741822  0.275419  0.743354  1
  Se  Se10  1  0.273712  0.741727  0.745087  1
  Se  Se11  1  0.265187  0.264029  0.266800  1
  Se  Se12  1  0.744923  0.742995  0.271587  1
