# generated using pymatgen
data_Ho3Th3(Al3Ru)8
_symmetry_space_group_name_H-M   'P 1'
_cell_length_a   8.89501700
_cell_length_b   8.89501615
_cell_length_c   9.57691400
_cell_angle_alpha   90.00000000
_cell_angle_beta   90.00000000
_cell_angle_gamma   119.99999943
_symmetry_Int_Tables_number   1
_chemical_formula_structural   Ho3Th3(Al3Ru)8
_chemical_formula_sum   'Ho3 Th3 Al24 Ru8'
_cell_volume   656.22042720
_cell_formula_units_Z   1
loop_
 _symmetry_equiv_pos_site_id
 _symmetry_equiv_pos_as_xyz
  1  'x, y, z'
loop_
 _atom_site_type_symbol
 _atom_site_label
 _atom_site_symmetry_multiplicity
 _atom_site_fract_x
 _atom_site_fract_y
 _atom_site_fract_z
 _atom_site_occupancy
  Ho  Ho0  1  0.806258  0.193742  0.750000  1
  Ho  Ho1  1  0.806258  0.612517  0.750000  1
  Ho  Ho2  1  0.387483  0.193742  0.750000  1
  Th  Th3  1  0.195664  0.804336  0.250000  1
  Th  Th4  1  0.195664  0.391327  0.250000  1
  Th  Th5  1  0.608673  0.804336  0.250000  1
  Al  Al6  1  0.565021  0.434979  0.250000  1
  Al  Al7  1  0.565021  0.130041  0.250000  1
  Al  Al8  1  0.869959  0.434979  0.250000  1
  Al  Al9  1  0.441221  0.558779  0.750000  1
  Al  Al10  1  0.441221  0.882440  0.750000  1
  Al  Al11  1  0.117560  0.558779  0.750000  1
  Al  Al12  1  0.326519  0.163259  0.426697  1
  Al  Al13  1  0.836741  0.163259  0.426697  1
  Al  Al14  1  0.836741  0.673481  0.426697  1
  Al  Al15  1  0.677183  0.838592  0.582615  1
  Al  Al16  1  0.161408  0.838592  0.582615  1
  Al  Al17  1  0.161408  0.322817  0.582615  1
  Al  Al18  1  0.677183  0.838592  0.917385  1
  Al  Al19  1  0.161408  0.838592  0.917385  1
  Al  Al20  1  0.161408  0.322817  0.917385  1
  Al  Al21  1  0.326519  0.163259  0.073303  1
  Al  Al22  1  0.836741  0.163259  0.073303  1
  Al  Al23  1  0.836741  0.673481  0.073303  1
  Al  Al24  1  0.666667  0.333333  0.519153  1
  Al  Al25  1  0.333333  0.666667  0.495531  1
  Al  Al26  1  0.333333  0.666667  0.004469  1
  Al  Al27  1  0.666667  0.333333  0.980847  1
  Al  Al28  1  0.000000  0.000000  0.250000  1
  Al  Al29  1  0.000000  0.000000  0.750000  1
  Ru  Ru30  1  0.000000  0.000000  0.501604  1
  Ru  Ru31  1  0.000000  0.000000  0.998396  1
  Ru  Ru32  1  0.499890  0.500110  0.498567  1
  Ru  Ru33  1  0.499890  0.999780  0.498567  1
  Ru  Ru34  1  0.000220  0.500110  0.498567  1
  Ru  Ru35  1  0.499890  0.500110  0.001433  1
  Ru  Ru36  1  0.499890  0.999780  0.001433  1
  Ru  Ru37  1  0.000220  0.500110  0.001433  1
