# generated using pymatgen
data_CsGd3S4
_symmetry_space_group_name_H-M   'P 1'
_cell_length_a   4.02425200
_cell_length_b   4.02425196
_cell_length_c   29.23381300
_cell_angle_alpha   90.00000000
_cell_angle_beta   90.00000000
_cell_angle_gamma   119.99998385
_symmetry_Int_Tables_number   1
_chemical_formula_structural   CsGd3S4
_chemical_formula_sum   'Cs2 Gd6 S8'
_cell_volume   410.00249570
_cell_formula_units_Z   2
loop_
 _symmetry_equiv_pos_site_id
 _symmetry_equiv_pos_as_xyz
  1  'x, y, z'
loop_
 _atom_site_type_symbol
 _atom_site_label
 _atom_site_symmetry_multiplicity
 _atom_site_fract_x
 _atom_site_fract_y
 _atom_site_fract_z
 _atom_site_occupancy
  Cs  Cs0  1  0.666667  0.333333  0.250000  1
  Cs  Cs1  1  0.333333  0.666667  0.750000  1
  Gd  Gd2  1  0.666667  0.333333  0.610785  1
  Gd  Gd3  1  0.666667  0.333333  0.889215  1
  Gd  Gd4  1  0.333333  0.666667  0.389215  1
  Gd  Gd5  1  0.333333  0.666667  0.110785  1
  Gd  Gd6  1  0.000000  0.000000  0.500000  1
  Gd  Gd7  1  0.000000  0.000000  0.000000  1
  S  S8  1  0.000000  0.000000  0.161860  1
  S  S9  1  0.666667  0.333333  0.444924  1
  S  S10  1  0.000000  0.000000  0.661860  1
  S  S11  1  0.333333  0.666667  0.944924  1
  S  S12  1  0.333333  0.666667  0.555076  1
  S  S13  1  0.000000  0.000000  0.338140  1
  S  S14  1  0.666667  0.333333  0.055076  1
  S  S15  1  0.000000  0.000000  0.838140  1
