# generated using pymatgen
data_Hf2GaRe2Mo
_symmetry_space_group_name_H-M   'P 1'
_cell_length_a   5.28310945
_cell_length_b   5.27934262
_cell_length_c   8.62820900
_cell_angle_alpha   90.00000000
_cell_angle_beta   90.00000000
_cell_angle_gamma   119.97641891
_symmetry_Int_Tables_number   1
_chemical_formula_structural   Hf2GaRe2Mo
_chemical_formula_sum   'Hf4 Ga2 Re4 Mo2'
_cell_volume   208.46055563
_cell_formula_units_Z   2
loop_
 _symmetry_equiv_pos_site_id
 _symmetry_equiv_pos_as_xyz
  1  'x, y, z'
loop_
 _atom_site_type_symbol
 _atom_site_label
 _atom_site_symmetry_multiplicity
 _atom_site_fract_x
 _atom_site_fract_y
 _atom_site_fract_z
 _atom_site_occupancy
  Hf  Hf0  1  0.333560  0.665970  0.066165  1
  Hf  Hf1  1  0.666440  0.332410  0.566165  1
  Hf  Hf2  1  0.666440  0.332410  0.933835  1
  Hf  Hf3  1  0.333560  0.665970  0.433835  1
  Ga  Ga4  1  0.000000  0.000439  0.000000  1
  Ga  Ga5  1  0.000000  0.000439  0.500000  1
  Re  Re6  1  0.656637  0.828806  0.750000  1
  Re  Re7  1  0.343363  0.172170  0.250000  1
  Re  Re8  1  0.828701  0.172270  0.250000  1
  Re  Re9  1  0.171299  0.343569  0.750000  1
  Mo  Mo10  1  0.828651  0.657099  0.250000  1
  Mo  Mo11  1  0.171349  0.828448  0.750000  1
