# generated using pymatgen
data_Sc8TaV8Si16W3
_symmetry_space_group_name_H-M   'P 1'
_cell_length_a   6.67054605
_cell_length_b   6.67054562
_cell_length_c   12.36645623
_cell_angle_alpha   90.04339208
_cell_angle_beta   89.95660992
_cell_angle_gamma   90.06284049
_symmetry_Int_Tables_number   1
_chemical_formula_structural   Sc8TaV8Si16W3
_chemical_formula_sum   'Sc8 Ta1 V8 Si16 W3'
_cell_volume   550.25943790
_cell_formula_units_Z   1
loop_
 _symmetry_equiv_pos_site_id
 _symmetry_equiv_pos_as_xyz
  1  'x, y, z'
loop_
 _atom_site_type_symbol
 _atom_site_label
 _atom_site_symmetry_multiplicity
 _atom_site_fract_x
 _atom_site_fract_y
 _atom_site_fract_z
 _atom_site_occupancy
  Sc  Sc0  1  0.003261  0.663042  0.029656  1
  Sc  Sc1  1  0.838023  0.502024  0.279003  1
  Sc  Sc2  1  0.162882  0.496464  0.779841  1
  Sc  Sc3  1  0.502024  0.838023  0.720997  1
  Sc  Sc4  1  0.496464  0.162882  0.220159  1
  Sc  Sc5  1  0.997598  0.336257  0.529971  1
  Sc  Sc6  1  0.663042  0.003261  0.970344  1
  Sc  Sc7  1  0.336257  0.997598  0.470029  1
  Ta  Ta8  1  0.667464  0.667464  0.500000  1
  V  V9  1  0.005532  0.157557  0.126755  1
  V  V10  1  0.343799  0.505149  0.376070  1
  V  V11  1  0.657619  0.492948  0.877181  1
  V  V12  1  0.505149  0.343799  0.623930  1
  V  V13  1  0.492948  0.657619  0.122819  1
  V  V14  1  0.992695  0.842200  0.626585  1
  V  V15  1  0.157557  0.005532  0.873245  1
  V  V16  1  0.842200  0.992695  0.373415  1
  Si  Si17  1  0.295021  0.960494  0.063201  1
  Si  Si18  1  0.538946  0.795489  0.312062  1
  Si  Si19  1  0.459275  0.205315  0.813588  1
  Si  Si20  1  0.795489  0.538946  0.687938  1
  Si  Si21  1  0.205315  0.459275  0.186412  1
  Si  Si22  1  0.704854  0.043478  0.564611  1
  Si  Si23  1  0.960494  0.295021  0.936799  1
  Si  Si24  1  0.043478  0.704854  0.435389  1
  Si  Si25  1  0.706477  0.371931  0.071743  1
  Si  Si26  1  0.128116  0.206119  0.321636  1
  Si  Si27  1  0.871798  0.793724  0.821473  1
  Si  Si28  1  0.206119  0.128116  0.678364  1
  Si  Si29  1  0.793724  0.871798  0.178527  1
  Si  Si30  1  0.291207  0.628559  0.571947  1
  Si  Si31  1  0.371931  0.706477  0.928257  1
  Si  Si32  1  0.628559  0.291207  0.428053  1
  W  W33  1  0.333259  0.333259  0.000000  1
  W  W34  1  0.167730  0.833692  0.248631  1
  W  W35  1  0.833692  0.167730  0.751369  1
