# generated using pymatgen
data_DyPa(CoSi2)2
_symmetry_space_group_name_H-M   'P 1'
_cell_length_a   8.36577137
_cell_length_b   8.36577180
_cell_length_c   3.97365300
_cell_angle_alpha   90.00000000
_cell_angle_beta   90.00000000
_cell_angle_gamma   152.19429056
_symmetry_Int_Tables_number   1
_chemical_formula_structural   DyPa(CoSi2)2
_chemical_formula_sum   'Dy1 Pa1 Co2 Si4'
_cell_volume   129.72692328
_cell_formula_units_Z   1
loop_
 _symmetry_equiv_pos_site_id
 _symmetry_equiv_pos_as_xyz
  1  'x, y, z'
loop_
 _atom_site_type_symbol
 _atom_site_label
 _atom_site_symmetry_multiplicity
 _atom_site_fract_x
 _atom_site_fract_y
 _atom_site_fract_z
 _atom_site_occupancy
  Dy  Dy0  1  0.894171  0.105829  0.750000  1
  Pa  Pa1  1  0.108468  0.891532  0.250000  1
  Co  Co2  1  0.319868  0.680132  0.250000  1
  Co  Co3  1  0.676230  0.323770  0.750000  1
  Si  Si4  1  0.249896  0.750104  0.750000  1
  Si  Si5  1  0.752333  0.247667  0.250000  1
  Si  Si6  1  0.540025  0.459975  0.750000  1
  Si  Si7  1  0.459009  0.540991  0.250000  1
