# generated using pymatgen
data_Na5Th3AgI18
_symmetry_space_group_name_H-M   'P 1'
_cell_length_a   8.06918018
_cell_length_b   9.02970978
_cell_length_c   20.17391000
_cell_angle_alpha   95.35020077
_cell_angle_beta   90.01214908
_cell_angle_gamma   116.62343296
_symmetry_Int_Tables_number   1
_chemical_formula_structural   Na5Th3AgI18
_chemical_formula_sum   'Na5 Th3 Ag1 I18'
_cell_volume   1306.88262391
_cell_formula_units_Z   1
loop_
 _symmetry_equiv_pos_site_id
 _symmetry_equiv_pos_as_xyz
  1  'x, y, z'
loop_
 _atom_site_type_symbol
 _atom_site_label
 _atom_site_symmetry_multiplicity
 _atom_site_fract_x
 _atom_site_fract_y
 _atom_site_fract_z
 _atom_site_occupancy
  Na  Na0  1  0.770455  0.555919  0.557563  1
  Na  Na1  1  0.903125  0.803505  0.776318  1
  Na  Na2  1  0.113834  0.226100  0.219965  1
  Na  Na3  1  0.223993  0.448112  0.444524  1
  Na  Na4  1  0.565349  0.124473  0.107589  1
  Th  Th5  1  0.022166  0.013948  0.995599  1
  Th  Th6  1  0.322284  0.670714  0.668399  1
  Th  Th7  1  0.666067  0.333886  0.333631  1
  Ag  Ag8  1  0.551718  0.101118  0.866859  1
  I  I9  1  0.647179  0.994479  0.743413  1
  I  I10  1  0.819994  0.238721  0.971493  1
  I  I11  1  0.227760  0.143066  0.863790  1
  I  I12  1  0.108520  0.570885  0.793344  1
  I  I13  1  0.546330  0.479371  0.696637  1
  I  I14  1  0.976212  0.641467  0.414517  1
  I  I15  1  0.716717  0.714542  0.915779  1
  I  I16  1  0.119509  0.880555  0.638855  1
  I  I17  1  0.537901  0.770077  0.539250  1
  I  I18  1  0.457473  0.235033  0.463656  1
  I  I19  1  0.879314  0.130603  0.357203  1
  I  I20  1  0.324432  0.325376  0.078558  1
  I  I21  1  0.020213  0.362619  0.585878  1
  I  I22  1  0.454677  0.538665  0.308667  1
  I  I23  1  0.876528  0.437332  0.204035  1
  I  I24  1  0.803323  0.914919  0.123124  1
  I  I25  1  0.241749  0.822635  0.016653  1
  I  I26  1  0.356511  0.028550  0.251364  1
