# generated using pymatgen
data_KRb(InSb)3
_symmetry_space_group_name_H-M   'P 1'
_cell_length_a   4.71195700
_cell_length_b   7.91745500
_cell_length_c   30.61386500
_cell_angle_alpha   90.00000000
_cell_angle_beta   90.00000000
_cell_angle_gamma   90.00000000
_symmetry_Int_Tables_number   1
_chemical_formula_structural   KRb(InSb)3
_chemical_formula_sum   'K4 Rb4 In12 Sb12'
_cell_volume   1142.10250729
_cell_formula_units_Z   4
loop_
 _symmetry_equiv_pos_site_id
 _symmetry_equiv_pos_as_xyz
  1  'x, y, z'
loop_
 _atom_site_type_symbol
 _atom_site_label
 _atom_site_symmetry_multiplicity
 _atom_site_fract_x
 _atom_site_fract_y
 _atom_site_fract_z
 _atom_site_occupancy
  K  K0  1  0.250000  0.244311  0.813533  1
  K  K1  1  0.750000  0.755689  0.186467  1
  K  K2  1  0.750000  0.744311  0.686467  1
  K  K3  1  0.250000  0.255689  0.313533  1
  Rb  Rb4  1  0.250000  0.223328  0.495552  1
  Rb  Rb5  1  0.750000  0.776672  0.504448  1
  Rb  Rb6  1  0.750000  0.723328  0.004448  1
  Rb  Rb7  1  0.250000  0.276672  0.995552  1
  In  In8  1  0.250000  0.555378  0.616405  1
  In  In9  1  0.750000  0.444622  0.383595  1
  In  In10  1  0.750000  0.055378  0.883595  1
  In  In11  1  0.250000  0.944622  0.116405  1
  In  In12  1  0.250000  0.088144  0.205854  1
  In  In13  1  0.750000  0.911856  0.794146  1
  In  In14  1  0.750000  0.588144  0.294146  1
  In  In15  1  0.250000  0.411856  0.705854  1
  In  In16  1  0.750000  0.391681  0.125932  1
  In  In17  1  0.250000  0.608319  0.874068  1
  In  In18  1  0.250000  0.891681  0.374068  1
  In  In19  1  0.750000  0.108319  0.625932  1
  Sb  Sb20  1  0.750000  0.193173  0.720726  1
  Sb  Sb21  1  0.250000  0.806827  0.279274  1
  Sb  Sb22  1  0.250000  0.693173  0.779274  1
  Sb  Sb23  1  0.750000  0.306827  0.220726  1
  Sb  Sb24  1  0.250000  0.918319  0.596803  1
  Sb  Sb25  1  0.750000  0.081681  0.403197  1
  Sb  Sb26  1  0.750000  0.418319  0.903197  1
  Sb  Sb27  1  0.250000  0.581681  0.096803  1
  Sb  Sb28  1  0.750000  0.412934  0.575905  1
  Sb  Sb29  1  0.250000  0.587066  0.424095  1
  Sb  Sb30  1  0.250000  0.912934  0.924095  1
  Sb  Sb31  1  0.750000  0.087066  0.075905  1
