# generated using pymatgen
data_CaCe7Si15Rh
_symmetry_space_group_name_H-M   'P 1'
_cell_length_a   8.15975700
_cell_length_b   8.17278960
_cell_length_c   8.30835100
_cell_angle_alpha   89.91524939
_cell_angle_beta   90.00000000
_cell_angle_gamma   119.94726800
_symmetry_Int_Tables_number   1
_chemical_formula_structural   CaCe7Si15Rh
_chemical_formula_sum   'Ca1 Ce7 Si15 Rh1'
_cell_volume   480.09026709
_cell_formula_units_Z   1
loop_
 _symmetry_equiv_pos_site_id
 _symmetry_equiv_pos_as_xyz
  1  'x, y, z'
loop_
 _atom_site_type_symbol
 _atom_site_label
 _atom_site_symmetry_multiplicity
 _atom_site_fract_x
 _atom_site_fract_y
 _atom_site_fract_z
 _atom_site_occupancy
  Ca  Ca0  1  0.500526  0.001051  0.251434  1
  Ce  Ce1  1  0.999837  0.999673  0.749242  1
  Ce  Ce2  1  0.000113  0.000225  0.252190  1
  Ce  Ce3  1  0.499897  0.500061  0.747743  1
  Ce  Ce4  1  0.499891  0.999781  0.749108  1
  Ce  Ce5  1  0.000162  0.500061  0.747743  1
  Ce  Ce6  1  0.500553  0.499519  0.253231  1
  Ce  Ce7  1  0.998967  0.499519  0.253231  1
  Si  Si8  1  0.667442  0.334884  0.999175  1
  Si  Si9  1  0.667055  0.334110  0.500992  1
  Si  Si10  1  0.333035  0.666070  0.499101  1
  Si  Si11  1  0.835965  0.165594  0.998276  1
  Si  Si12  1  0.835129  0.670257  0.000139  1
  Si  Si13  1  0.329628  0.165594  0.998276  1
  Si  Si14  1  0.833614  0.167503  0.500464  1
  Si  Si15  1  0.832564  0.665130  0.500348  1
  Si  Si16  1  0.333888  0.167503  0.500464  1
  Si  Si17  1  0.165262  0.833050  0.500152  1
  Si  Si18  1  0.667787  0.833050  0.500152  1
  Si  Si19  1  0.166614  0.333228  0.500020  1
  Si  Si20  1  0.167969  0.832220  0.000329  1
  Si  Si21  1  0.664251  0.832220  0.000329  1
  Si  Si22  1  0.167289  0.334575  0.001041  1
  Rh  Rh23  1  0.332564  0.665128  0.996815  1
