# generated using pymatgen
data_YbSmY2(B6Os)2
_symmetry_space_group_name_H-M   'P 1'
_cell_length_a   3.66619900
_cell_length_b   9.19461979
_cell_length_c   11.59541207
_cell_angle_alpha   89.84161093
_cell_angle_beta   90.00000000
_cell_angle_gamma   90.00000000
_symmetry_Int_Tables_number   1
_chemical_formula_structural   YbSmY2(B6Os)2
_chemical_formula_sum   'Yb2 Sm2 Y4 B24 Os4'
_cell_volume   390.87179867
_cell_formula_units_Z   2
loop_
 _symmetry_equiv_pos_site_id
 _symmetry_equiv_pos_as_xyz
  1  'x, y, z'
loop_
 _atom_site_type_symbol
 _atom_site_label
 _atom_site_symmetry_multiplicity
 _atom_site_fract_x
 _atom_site_fract_y
 _atom_site_fract_z
 _atom_site_occupancy
  Yb  Yb0  1  0.000000  0.325284  0.414838  1
  Yb  Yb1  1  0.000000  0.674716  0.585162  1
  Sm  Sm2  1  0.000000  0.822303  0.086662  1
  Sm  Sm3  1  0.000000  0.177697  0.913338  1
  Y  Y4  1  0.000000  0.942091  0.371254  1
  Y  Y5  1  0.000000  0.057909  0.628746  1
  Y  Y6  1  0.000000  0.443075  0.131053  1
  Y  Y7  1  0.000000  0.556925  0.868947  1
  B  B8  1  0.500000  0.553833  0.432960  1
  B  B9  1  0.500000  0.446167  0.567040  1
  B  B10  1  0.500000  0.054770  0.068668  1
  B  B11  1  0.500000  0.945230  0.931332  1
  B  B12  1  0.500000  0.747108  0.418774  1
  B  B13  1  0.500000  0.252892  0.581226  1
  B  B14  1  0.500000  0.248478  0.083190  1
  B  B15  1  0.500000  0.751522  0.916810  1
  B  B16  1  0.500000  0.789850  0.266796  1
  B  B17  1  0.500000  0.210150  0.733204  1
  B  B18  1  0.500000  0.290375  0.235511  1
  B  B19  1  0.500000  0.709625  0.764489  1
  B  B20  1  0.500000  0.630788  0.187226  1
  B  B21  1  0.500000  0.369212  0.812774  1
  B  B22  1  0.500000  0.131771  0.314739  1
  B  B23  1  0.500000  0.868229  0.685261  1
  B  B24  1  0.500000  0.984924  0.213101  1
  B  B25  1  0.500000  0.015076  0.786899  1
  B  B26  1  0.500000  0.484007  0.289332  1
  B  B27  1  0.500000  0.515993  0.710668  1
  B  B28  1  0.500000  0.601858  0.028169  1
  B  B29  1  0.500000  0.398142  0.971831  1
  B  B30  1  0.500000  0.101121  0.472004  1
  B  B31  1  0.500000  0.898879  0.527996  1
  Os  Os32  1  0.000000  0.638776  0.320556  1
  Os  Os33  1  0.000000  0.361224  0.679444  1
  Os  Os34  1  0.000000  0.137995  0.179467  1
  Os  Os35  1  0.000000  0.862005  0.820533  1
