# generated using pymatgen
data_Pm2Tc2MoO12
_symmetry_space_group_name_H-M   'P 1'
_cell_length_a   7.11338085
_cell_length_b   7.11346912
_cell_length_c   11.50927639
_cell_angle_alpha   79.00794100
_cell_angle_beta   79.00789756
_cell_angle_gamma   113.17970170
_symmetry_Int_Tables_number   1
_chemical_formula_structural   Pm2Tc2MoO12
_chemical_formula_sum   'Pm4 Tc4 Mo2 O24'
_cell_volume   502.24310332
_cell_formula_units_Z   2
loop_
 _symmetry_equiv_pos_site_id
 _symmetry_equiv_pos_as_xyz
  1  'x, y, z'
loop_
 _atom_site_type_symbol
 _atom_site_label
 _atom_site_symmetry_multiplicity
 _atom_site_fract_x
 _atom_site_fract_y
 _atom_site_fract_z
 _atom_site_occupancy
  Pm  Pm0  1  0.190211  0.449985  0.597479  1
  Pm  Pm1  1  0.809789  0.550015  0.402521  1
  Pm  Pm2  1  0.550016  0.809792  0.902521  1
  Pm  Pm3  1  0.449984  0.190208  0.097479  1
  Tc  Tc4  1  0.001839  0.295263  0.964327  1
  Tc  Tc5  1  0.998161  0.704737  0.035673  1
  Tc  Tc6  1  0.704748  0.998167  0.535667  1
  Tc  Tc7  1  0.295252  0.001833  0.464333  1
  Mo  Mo8  1  0.614649  0.385356  0.749998  1
  Mo  Mo9  1  0.385351  0.614644  0.250002  1
  O  O10  1  0.548498  0.471556  0.609175  1
  O  O11  1  0.451502  0.528444  0.390825  1
  O  O12  1  0.528443  0.451505  0.890824  1
  O  O13  1  0.471557  0.548495  0.109176  1
  O  O14  1  0.504494  0.103159  0.785443  1
  O  O15  1  0.495506  0.896841  0.214557  1
  O  O16  1  0.896839  0.495505  0.714559  1
  O  O17  1  0.103161  0.504495  0.285441  1
  O  O18  1  0.725905  0.123772  0.962985  1
  O  O19  1  0.274095  0.876228  0.037015  1
  O  O20  1  0.876228  0.274101  0.537014  1
  O  O21  1  0.123772  0.725899  0.462986  1
  O  O22  1  0.399234  0.828530  0.575378  1
  O  O23  1  0.600766  0.171470  0.424622  1
  O  O24  1  0.171468  0.600763  0.924623  1
  O  O25  1  0.828532  0.399237  0.075377  1
  O  O26  1  0.134589  0.306528  0.808802  1
  O  O27  1  0.865411  0.693472  0.191198  1
  O  O28  1  0.693468  0.865424  0.691193  1
  O  O29  1  0.306532  0.134576  0.308807  1
  O  O30  1  0.902232  0.831176  0.935632  1
  O  O31  1  0.097768  0.168824  0.064368  1
  O  O32  1  0.168826  0.097760  0.564367  1
  O  O33  1  0.831174  0.902240  0.435633  1
