# generated using pymatgen
data_YbPr2GaSi
_symmetry_space_group_name_H-M   'P 1'
_cell_length_a   7.90007461
_cell_length_b   7.90007461
_cell_length_c   4.38255500
_cell_angle_alpha   90.00000000
_cell_angle_beta   90.00000000
_cell_angle_gamma   88.36044444
_symmetry_Int_Tables_number   1
_chemical_formula_structural   YbPr2GaSi
_chemical_formula_sum   'Yb2 Pr4 Ga2 Si2'
_cell_volume   273.40844497
_cell_formula_units_Z   2
loop_
 _symmetry_equiv_pos_site_id
 _symmetry_equiv_pos_as_xyz
  1  'x, y, z'
loop_
 _atom_site_type_symbol
 _atom_site_label
 _atom_site_symmetry_multiplicity
 _atom_site_fract_x
 _atom_site_fract_y
 _atom_site_fract_z
 _atom_site_occupancy
  Yb  Yb0  1  0.500000  0.500000  0.000000  1
  Yb  Yb1  1  0.000000  0.000000  0.000000  1
  Pr  Pr2  1  0.671031  0.171031  0.500000  1
  Pr  Pr3  1  0.328969  0.828969  0.500000  1
  Pr  Pr4  1  0.185892  0.314108  0.500000  1
  Pr  Pr5  1  0.814108  0.685892  0.500000  1
  Ga  Ga6  1  0.114483  0.614483  0.000000  1
  Ga  Ga7  1  0.885517  0.385517  0.000000  1
  Si  Si8  1  0.610178  0.889822  0.000000  1
  Si  Si9  1  0.389822  0.110178  0.000000  1
