# generated using pymatgen
data_La7YbDyIr6
_symmetry_space_group_name_H-M   'P 1'
_cell_length_a   7.76576015
_cell_length_b   7.76576075
_cell_length_c   7.76576150
_cell_angle_alpha   69.02461534
_cell_angle_beta   69.02461574
_cell_angle_gamma   69.02460451
_symmetry_Int_Tables_number   1
_chemical_formula_structural   La7YbDyIr6
_chemical_formula_sum   'La7 Yb1 Dy1 Ir6'
_cell_volume   393.87617836
_cell_formula_units_Z   1
loop_
 _symmetry_equiv_pos_site_id
 _symmetry_equiv_pos_as_xyz
  1  'x, y, z'
loop_
 _atom_site_type_symbol
 _atom_site_label
 _atom_site_symmetry_multiplicity
 _atom_site_fract_x
 _atom_site_fract_y
 _atom_site_fract_z
 _atom_site_occupancy
  La  La0  1  0.192464  0.192464  0.192464  1
  La  La1  1  0.141916  0.393530  0.678769  1
  La  La2  1  0.678769  0.141916  0.393530  1
  La  La3  1  0.393530  0.678769  0.141916  1
  La  La4  1  0.853091  0.611864  0.321296  1
  La  La5  1  0.321296  0.853091  0.611864  1
  La  La6  1  0.611864  0.321296  0.853091  1
  Yb  Yb7  1  0.999776  0.999776  0.999776  1
  Dy  Dy8  1  0.810015  0.810015  0.810015  1
  Ir  Ir9  1  0.950902  0.173004  0.585731  1
  Ir  Ir10  1  0.585731  0.950902  0.173004  1
  Ir  Ir11  1  0.173004  0.585731  0.950902  1
  Ir  Ir12  1  0.046489  0.818067  0.423086  1
  Ir  Ir13  1  0.423086  0.046489  0.818067  1
  Ir  Ir14  1  0.818067  0.423086  0.046489  1
