# generated using pymatgen
data_CsK2Cu(AgP)2
_symmetry_space_group_name_H-M   'P 1'
_cell_length_a   7.82632613
_cell_length_b   7.74738380
_cell_length_c   7.74738430
_cell_angle_alpha   46.31238348
_cell_angle_beta   45.26448653
_cell_angle_gamma   45.26447163
_symmetry_Int_Tables_number   1
_chemical_formula_structural   CsK2Cu(AgP)2
_chemical_formula_sum   'Cs1 K2 Cu1 Ag2 P2'
_cell_volume   218.56254161
_cell_formula_units_Z   1
loop_
 _symmetry_equiv_pos_site_id
 _symmetry_equiv_pos_as_xyz
  1  'x, y, z'
loop_
 _atom_site_type_symbol
 _atom_site_label
 _atom_site_symmetry_multiplicity
 _atom_site_fract_x
 _atom_site_fract_y
 _atom_site_fract_z
 _atom_site_occupancy
  Cs  Cs0  1  0.500000  0.500000  0.500000  1
  K  K1  1  0.902718  0.909820  0.909820  1
  K  K2  1  0.097282  0.090180  0.090180  1
  Cu  Cu3  1  0.000000  0.500000  0.500000  1
  Ag  Ag4  1  0.500000  0.500000  0.000000  1
  Ag  Ag5  1  0.500000  0.000000  0.500000  1
  P  P6  1  0.228271  0.267377  0.267377  1
  P  P7  1  0.771729  0.732623  0.732623  1
