# generated using pymatgen
data_Dy3Y5(ReB6)4
_symmetry_space_group_name_H-M   'P 1'
_cell_length_a   3.68853300
_cell_length_b   9.19034400
_cell_length_c   11.57745400
_cell_angle_alpha   90.00309018
_cell_angle_beta   90.00000000
_cell_angle_gamma   90.00000000
_symmetry_Int_Tables_number   1
_chemical_formula_structural   Dy3Y5(ReB6)4
_chemical_formula_sum   'Dy3 Y5 Re4 B24'
_cell_volume   392.46280606
_cell_formula_units_Z   1
loop_
 _symmetry_equiv_pos_site_id
 _symmetry_equiv_pos_as_xyz
  1  'x, y, z'
loop_
 _atom_site_type_symbol
 _atom_site_label
 _atom_site_symmetry_multiplicity
 _atom_site_fract_x
 _atom_site_fract_y
 _atom_site_fract_z
 _atom_site_occupancy
  Dy  Dy0  1  0.000000  0.056748  0.630033  1
  Dy  Dy1  1  0.000000  0.443259  0.129950  1
  Dy  Dy2  1  0.000000  0.556756  0.870012  1
  Y  Y3  1  0.000000  0.323754  0.413844  1
  Y  Y4  1  0.000000  0.676284  0.586210  1
  Y  Y5  1  0.000000  0.823660  0.086116  1
  Y  Y6  1  0.000000  0.176366  0.913827  1
  Y  Y7  1  0.000000  0.943320  0.370185  1
  Re  Re8  1  0.000000  0.638644  0.320801  1
  Re  Re9  1  0.000000  0.361050  0.679064  1
  Re  Re10  1  0.000000  0.139018  0.179097  1
  Re  Re11  1  0.000000  0.861086  0.820879  1
  B  B12  1  0.500000  0.553293  0.432785  1
  B  B13  1  0.500000  0.446652  0.567250  1
  B  B14  1  0.500000  0.053347  0.067174  1
  B  B15  1  0.500000  0.946674  0.932761  1
  B  B16  1  0.500000  0.748797  0.418521  1
  B  B17  1  0.500000  0.251114  0.581607  1
  B  B18  1  0.500000  0.248932  0.081545  1
  B  B19  1  0.500000  0.751110  0.918429  1
  B  B20  1  0.500000  0.791971  0.265576  1
  B  B21  1  0.500000  0.207984  0.734300  1
  B  B22  1  0.500000  0.292039  0.234264  1
  B  B23  1  0.500000  0.707980  0.765742  1
  B  B24  1  0.500000  0.630987  0.185896  1
  B  B25  1  0.500000  0.368999  0.814106  1
  B  B26  1  0.500000  0.131162  0.314099  1
  B  B27  1  0.500000  0.868978  0.685959  1
  B  B28  1  0.500000  0.982687  0.211817  1
  B  B29  1  0.500000  0.017274  0.788049  1
  B  B30  1  0.500000  0.482701  0.288029  1
  B  B31  1  0.500000  0.517278  0.711980  1
  B  B32  1  0.500000  0.600234  0.028064  1
  B  B33  1  0.500000  0.399789  0.971897  1
  B  B34  1  0.500000  0.100468  0.471938  1
  B  B35  1  0.500000  0.899606  0.528193  1
