# generated using pymatgen
data_Dy4Mg3ZnRh4
_symmetry_space_group_name_H-M   'P 1'
_cell_length_a   4.10425700
_cell_length_b   7.06282005
_cell_length_c   8.42498605
_cell_angle_alpha   90.01316119
_cell_angle_beta   90.00000000
_cell_angle_gamma   90.00000000
_symmetry_Int_Tables_number   1
_chemical_formula_structural   Dy4Mg3ZnRh4
_chemical_formula_sum   'Dy4 Mg3 Zn1 Rh4'
_cell_volume   244.22036043
_cell_formula_units_Z   1
loop_
 _symmetry_equiv_pos_site_id
 _symmetry_equiv_pos_as_xyz
  1  'x, y, z'
loop_
 _atom_site_type_symbol
 _atom_site_label
 _atom_site_symmetry_multiplicity
 _atom_site_fract_x
 _atom_site_fract_y
 _atom_site_fract_z
 _atom_site_occupancy
  Dy  Dy0  1  0.250000  0.534129  0.183860  1
  Dy  Dy1  1  0.750000  0.459728  0.819320  1
  Dy  Dy2  1  0.250000  0.048639  0.328003  1
  Dy  Dy3  1  0.750000  0.962692  0.675034  1
  Mg  Mg4  1  0.250000  0.135484  0.939977  1
  Mg  Mg5  1  0.750000  0.863100  0.060018  1
  Mg  Mg6  1  0.250000  0.630807  0.555412  1
  Zn  Zn7  1  0.750000  0.366041  0.439194  1
  Rh  Rh8  1  0.750000  0.748954  0.372370  1
  Rh  Rh9  1  0.250000  0.253488  0.625244  1
  Rh  Rh10  1  0.750000  0.248632  0.131883  1
  Rh  Rh11  1  0.250000  0.748307  0.869685  1
