# generated using pymatgen
data_ErLu2Ga5Pt
_symmetry_space_group_name_H-M   'P 1'
_cell_length_a   6.85152100
_cell_length_b   6.88606271
_cell_length_c   4.24530200
_cell_angle_alpha   90.00000000
_cell_angle_beta   90.00000000
_cell_angle_gamma   119.83420924
_symmetry_Int_Tables_number   1
_chemical_formula_structural   ErLu2Ga5Pt
_chemical_formula_sum   'Er1 Lu2 Ga5 Pt1'
_cell_volume   173.74819732
_cell_formula_units_Z   1
loop_
 _symmetry_equiv_pos_site_id
 _symmetry_equiv_pos_as_xyz
  1  'x, y, z'
loop_
 _atom_site_type_symbol
 _atom_site_label
 _atom_site_symmetry_multiplicity
 _atom_site_fract_x
 _atom_site_fract_y
 _atom_site_fract_z
 _atom_site_occupancy
  Er  Er0  1  0.581997  0.000000  0.500000  1
  Lu  Lu1  1  0.415778  0.416437  0.500000  1
  Lu  Lu2  1  0.999341  0.583563  0.500000  1
  Ga  Ga3  1  0.244212  0.000000  0.000000  1
  Ga  Ga4  1  0.999895  0.243494  0.000000  1
  Ga  Ga5  1  0.667438  0.335601  0.000000  1
  Ga  Ga6  1  0.331836  0.664399  0.000000  1
  Ga  Ga7  1  0.756400  0.756506  0.000000  1
  Pt  Pt8  1  0.003103  0.000000  0.500000  1
