# generated using pymatgen
data_Ac3GeSe2
_symmetry_space_group_name_H-M   'P 1'
_cell_length_a   7.87983132
_cell_length_b   7.87983017
_cell_length_c   7.87983174
_cell_angle_alpha   146.46011475
_cell_angle_beta   132.05896112
_cell_angle_gamma   59.77504030
_symmetry_Int_Tables_number   1
_chemical_formula_structural   Ac3GeSe2
_chemical_formula_sum   'Ac3 Ge1 Se2'
_cell_volume   198.89955844
_cell_formula_units_Z   1
loop_
 _symmetry_equiv_pos_site_id
 _symmetry_equiv_pos_as_xyz
  1  'x, y, z'
loop_
 _atom_site_type_symbol
 _atom_site_label
 _atom_site_symmetry_multiplicity
 _atom_site_fract_x
 _atom_site_fract_y
 _atom_site_fract_z
 _atom_site_occupancy
  Ac  Ac0  1  0.339801  0.339801  0.000000  1
  Ac  Ac1  1  0.000000  0.000000  0.000000  1
  Ac  Ac2  1  0.660199  0.660199  0.000000  1
  Ge  Ge3  1  0.500000  0.000000  0.500000  1
  Se  Se4  1  0.167279  0.667279  0.500000  1
  Se  Se5  1  0.832721  0.332721  0.500000  1
