# generated using pymatgen
data_Ho7Tm3Rh4
_symmetry_space_group_name_H-M   'P 1'
_cell_length_a   6.36599624
_cell_length_b   7.14111058
_cell_length_c   8.56980000
_cell_angle_alpha   96.99262939
_cell_angle_beta   111.67564501
_cell_angle_gamma   89.94604395
_symmetry_Int_Tables_number   1
_chemical_formula_structural   Ho7Tm3Rh4
_chemical_formula_sum   'Ho7 Tm3 Rh4'
_cell_volume   358.93537521
_cell_formula_units_Z   1
loop_
 _symmetry_equiv_pos_site_id
 _symmetry_equiv_pos_as_xyz
  1  'x, y, z'
loop_
 _atom_site_type_symbol
 _atom_site_label
 _atom_site_symmetry_multiplicity
 _atom_site_fract_x
 _atom_site_fract_y
 _atom_site_fract_z
 _atom_site_occupancy
  Ho  Ho0  1  0.791438  0.081961  0.812795  1
  Ho  Ho1  1  0.978993  0.418639  0.187970  1
  Ho  Ho2  1  0.208292  0.917612  0.187625  1
  Ho  Ho3  1  0.021761  0.581888  0.812111  1
  Ho  Ho4  1  0.209220  0.186855  0.562907  1
  Ho  Ho5  1  0.646040  0.313451  0.437268  1
  Ho  Ho6  1  0.790903  0.812970  0.437114  1
  Tm  Tm7  1  0.354101  0.686854  0.563594  1
  Tm  Tm8  1  0.423730  0.249900  0.000088  1
  Tm  Tm9  1  0.575892  0.749739  0.999377  1
  Rh  Rh10  1  0.595748  0.426794  0.779290  1
  Rh  Rh11  1  0.816360  0.073791  0.219417  1
  Rh  Rh12  1  0.403664  0.573949  0.221029  1
  Rh  Rh13  1  0.183857  0.925598  0.779417  1
