# generated using pymatgen
data_Mn2BClO3
_symmetry_space_group_name_H-M   'P 1'
_cell_length_a   5.14702761
_cell_length_b   5.14702758
_cell_length_c   13.30824834
_cell_angle_alpha   101.18957063
_cell_angle_beta   101.18956950
_cell_angle_gamma   59.99790418
_symmetry_Int_Tables_number   1
_chemical_formula_structural   Mn2BClO3
_chemical_formula_sum   'Mn4 B2 Cl2 O6'
_cell_volume   297.55643280
_cell_formula_units_Z   2
loop_
 _symmetry_equiv_pos_site_id
 _symmetry_equiv_pos_as_xyz
  1  'x, y, z'
loop_
 _atom_site_type_symbol
 _atom_site_label
 _atom_site_symmetry_multiplicity
 _atom_site_fract_x
 _atom_site_fract_y
 _atom_site_fract_z
 _atom_site_occupancy
  Mn  Mn0  1  0.061661  0.562535  0.186454  1
  Mn  Mn1  1  0.437465  0.938338  0.313546  1
  Mn  Mn2  1  0.562535  0.061661  0.686454  1
  Mn  Mn3  1  0.938339  0.437465  0.813547  1
  B  B4  1  0.749664  0.250335  0.250000  1
  B  B5  1  0.250336  0.749665  0.750000  1
  Cl  Cl6  1  0.000000  0.500000  0.000000  1
  Cl  Cl7  1  0.500000  0.000000  0.500000  1
  O  O8  1  0.749505  0.519965  0.249916  1
  O  O9  1  0.019094  0.980906  0.250000  1
  O  O10  1  0.480036  0.250496  0.250084  1
  O  O11  1  0.519965  0.749504  0.749916  1
  O  O12  1  0.980907  0.019094  0.750000  1
  O  O13  1  0.250495  0.480035  0.750084  1
