# generated using pymatgen
data_Tb2Y5Co6Sn22Hg
_symmetry_space_group_name_H-M   'P 1'
_cell_length_a   9.69548104
_cell_length_b   9.69612972
_cell_length_c   10.03118704
_cell_angle_alpha   90.00000085
_cell_angle_beta   90.00875979
_cell_angle_gamma   120.00221784
_symmetry_Int_Tables_number   1
_chemical_formula_structural   Tb2Y5Co6Sn22Hg
_chemical_formula_sum   'Tb2 Y5 Co6 Sn22 Hg1'
_cell_volume   816.65951286
_cell_formula_units_Z   1
loop_
 _symmetry_equiv_pos_site_id
 _symmetry_equiv_pos_as_xyz
  1  'x, y, z'
loop_
 _atom_site_type_symbol
 _atom_site_label
 _atom_site_symmetry_multiplicity
 _atom_site_fract_x
 _atom_site_fract_y
 _atom_site_fract_z
 _atom_site_occupancy
  Tb  Tb0  1  0.999999  0.999999  0.999986  1
  Tb  Tb1  1  0.043901  0.521950  0.306346  1
  Y  Y2  1  0.478019  0.956047  0.306417  1
  Y  Y3  1  0.478019  0.521972  0.306417  1
  Y  Y4  1  0.956054  0.478027  0.693611  1
  Y  Y5  1  0.521974  0.043943  0.693587  1
  Y  Y6  1  0.521974  0.478031  0.693587  1
  Co  Co7  1  0.167684  0.832316  0.803258  1
  Co  Co8  1  0.664627  0.832313  0.803263  1
  Co  Co9  1  0.167684  0.335367  0.803258  1
  Co  Co10  1  0.832341  0.167757  0.196745  1
  Co  Co11  1  0.335393  0.167697  0.196731  1
  Co  Co12  1  0.832341  0.664585  0.196745  1
  Sn  Sn13  1  0.116483  0.883624  0.270352  1
  Sn  Sn14  1  0.767107  0.883555  0.270340  1
  Sn  Sn15  1  0.116483  0.232861  0.270352  1
  Sn  Sn16  1  0.883560  0.116436  0.729662  1
  Sn  Sn17  1  0.232880  0.116439  0.729656  1
  Sn  Sn18  1  0.883560  0.767122  0.729662  1
  Sn  Sn19  1  0.345849  0.000004  0.999997  1
  Sn  Sn20  1  0.654122  0.654159  0.000000  1
  Sn  Sn21  1  0.000039  0.345883  0.999996  1
  Sn  Sn22  1  0.345849  0.345845  0.999997  1
  Sn  Sn23  1  0.000039  0.654156  0.999996  1
  Sn  Sn24  1  0.654122  0.999963  0.000000  1
  Sn  Sn25  1  0.782278  0.564661  0.452136  1
  Sn  Sn26  1  0.782278  0.217616  0.452136  1
  Sn  Sn27  1  0.435326  0.217663  0.452071  1
  Sn  Sn28  1  0.217671  0.435363  0.547915  1
  Sn  Sn29  1  0.217671  0.782309  0.547915  1
  Sn  Sn30  1  0.564649  0.782325  0.547916  1
  Sn  Sn31  1  0.666664  0.333332  0.181490  1
  Sn  Sn32  1  0.333335  0.666668  0.818502  1
  Sn  Sn33  1  0.666645  0.333322  0.884205  1
  Sn  Sn34  1  0.333390  0.666695  0.115751  1
  Hg  Hg35  1  0.999994  0.999997  0.500002  1
