# generated using pymatgen
data_KCa(AuO2)4
_symmetry_space_group_name_H-M   'P 1'
_cell_length_a   6.81161554
_cell_length_b   6.81161542
_cell_length_c   6.81161452
_cell_angle_alpha   125.01710692
_cell_angle_beta   125.01710810
_cell_angle_gamma   81.50969159
_symmetry_Int_Tables_number   1
_chemical_formula_structural   KCa(AuO2)4
_chemical_formula_sum   'K1 Ca1 Au4 O8'
_cell_volume   204.06127607
_cell_formula_units_Z   1
loop_
 _symmetry_equiv_pos_site_id
 _symmetry_equiv_pos_as_xyz
  1  'x, y, z'
loop_
 _atom_site_type_symbol
 _atom_site_label
 _atom_site_symmetry_multiplicity
 _atom_site_fract_x
 _atom_site_fract_y
 _atom_site_fract_z
 _atom_site_occupancy
  K  K0  1  0.750000  0.250000  0.500000  1
  Ca  Ca1  1  0.000000  0.000000  0.000000  1
  Au  Au2  1  0.372617  0.634682  0.757406  1
  Au  Au3  1  0.365318  0.122724  0.737935  1
  Au  Au4  1  0.877276  0.615211  0.242594  1
  Au  Au5  1  0.384789  0.627383  0.262065  1
  O  O6  1  0.067184  0.417709  0.084137  1
  O  O7  1  0.729814  0.283384  0.099589  1
  O  O8  1  0.183795  0.630224  0.900411  1
  O  O9  1  0.333572  0.983048  0.915863  1
  O  O10  1  0.716616  0.816205  0.446429  1
  O  O11  1  0.016952  0.932816  0.350525  1
  O  O12  1  0.369776  0.270186  0.553571  1
  O  O13  1  0.582291  0.666428  0.649475  1
