# generated using pymatgen
data_YHo3MnI4
_symmetry_space_group_name_H-M   'P 1'
_cell_length_a   11.27484874
_cell_length_b   11.29778986
_cell_length_c   6.16053200
_cell_angle_alpha   89.65386369
_cell_angle_beta   89.69691890
_cell_angle_gamma   88.69023144
_symmetry_Int_Tables_number   1
_chemical_formula_structural   YHo3MnI4
_chemical_formula_sum   'Y2 Ho6 Mn2 I8'
_cell_volume   784.50417467
_cell_formula_units_Z   2
loop_
 _symmetry_equiv_pos_site_id
 _symmetry_equiv_pos_as_xyz
  1  'x, y, z'
loop_
 _atom_site_type_symbol
 _atom_site_label
 _atom_site_symmetry_multiplicity
 _atom_site_fract_x
 _atom_site_fract_y
 _atom_site_fract_z
 _atom_site_occupancy
  Y  Y0  1  0.198380  0.916628  0.998862  1
  Y  Y1  1  0.801620  0.083372  0.001138  1
  Ho  Ho2  1  0.081822  0.805606  0.501571  1
  Ho  Ho3  1  0.918178  0.194394  0.498429  1
  Ho  Ho4  1  0.807203  0.922520  0.503331  1
  Ho  Ho5  1  0.192797  0.077480  0.496669  1
  Ho  Ho6  1  0.077187  0.191744  0.996536  1
  Ho  Ho7  1  0.922813  0.808256  0.003464  1
  Mn  Mn8  1  0.999982  0.000000  0.250268  1
  Mn  Mn9  1  0.000018  0.000000  0.749732  1
  I  I10  1  0.356480  0.847731  0.499368  1
  I  I11  1  0.643520  0.152269  0.500632  1
  I  I12  1  0.151931  0.643512  0.000006  1
  I  I13  1  0.848069  0.356488  0.999994  1
  I  I14  1  0.352945  0.145404  0.001049  1
  I  I15  1  0.647055  0.854596  0.998951  1
  I  I16  1  0.855305  0.648175  0.499126  1
  I  I17  1  0.144695  0.351825  0.500874  1
