# generated using pymatgen
data_La16MgCd3Os3Pd
_symmetry_space_group_name_H-M   'P 1'
_cell_length_a   10.08990396
_cell_length_b   10.17988031
_cell_length_c   10.17988073
_cell_angle_alpha   59.94139389
_cell_angle_beta   59.62821153
_cell_angle_gamma   59.62820743
_symmetry_Int_Tables_number   1
_chemical_formula_structural   La16MgCd3Os3Pd
_chemical_formula_sum   'La16 Mg1 Cd3 Os3 Pd1'
_cell_volume   734.85778592
_cell_formula_units_Z   1
loop_
 _symmetry_equiv_pos_site_id
 _symmetry_equiv_pos_as_xyz
  1  'x, y, z'
loop_
 _atom_site_type_symbol
 _atom_site_label
 _atom_site_symmetry_multiplicity
 _atom_site_fract_x
 _atom_site_fract_y
 _atom_site_fract_z
 _atom_site_occupancy
  La  La0  1  0.341543  0.350172  0.350172  1
  La  La1  1  0.341232  0.349435  0.957609  1
  La  La2  1  0.341232  0.957609  0.349435  1
  La  La3  1  0.964375  0.344733  0.344733  1
  La  La4  1  0.816517  0.191519  0.191519  1
  La  La5  1  0.187767  0.812194  0.812194  1
  La  La6  1  0.189800  0.810481  0.188847  1
  La  La7  1  0.817918  0.190035  0.801732  1
  La  La8  1  0.189800  0.188847  0.810481  1
  La  La9  1  0.817918  0.801732  0.190035  1
  La  La10  1  0.941020  0.559486  0.559486  1
  La  La11  1  0.555035  0.940889  0.940889  1
  La  La12  1  0.556407  0.941026  0.564213  1
  La  La13  1  0.940451  0.558018  0.943004  1
  La  La14  1  0.556407  0.564213  0.941026  1
  La  La15  1  0.940451  0.943004  0.558018  1
  Mg  Mg16  1  0.577178  0.577508  0.577508  1
  Cd  Cd17  1  0.579668  0.580311  0.260554  1
  Cd  Cd18  1  0.579668  0.260554  0.580311  1
  Cd  Cd19  1  0.260651  0.579927  0.579927  1
  Os  Os20  1  0.142488  0.138059  0.138059  1
  Os  Os21  1  0.141955  0.137768  0.581977  1
  Os  Os22  1  0.141955  0.581977  0.137768  1
  Pd  Pd23  1  0.578563  0.140501  0.140501  1
