# generated using pymatgen
data_Ti8Tc4Os3Rh
_symmetry_space_group_name_H-M   'P 1'
_cell_length_a   6.20612200
_cell_length_b   4.37620400
_cell_length_c   8.79599900
_cell_angle_alpha   90.00000000
_cell_angle_beta   89.99996199
_cell_angle_gamma   90.00000000
_symmetry_Int_Tables_number   1
_chemical_formula_structural   Ti8Tc4Os3Rh
_chemical_formula_sum   'Ti8 Tc4 Os3 Rh1'
_cell_volume   238.89278792
_cell_formula_units_Z   1
loop_
 _symmetry_equiv_pos_site_id
 _symmetry_equiv_pos_as_xyz
  1  'x, y, z'
loop_
 _atom_site_type_symbol
 _atom_site_label
 _atom_site_symmetry_multiplicity
 _atom_site_fract_x
 _atom_site_fract_y
 _atom_site_fract_z
 _atom_site_occupancy
  Ti  Ti0  1  0.001547  0.750000  0.126691  1
  Ti  Ti1  1  0.498556  0.750000  0.126701  1
  Ti  Ti2  1  0.999925  0.249999  0.374992  1
  Ti  Ti3  1  0.500150  0.249999  0.375000  1
  Ti  Ti4  1  0.498470  0.750000  0.623303  1
  Ti  Ti5  1  0.001454  0.750000  0.623314  1
  Ti  Ti6  1  0.496975  0.249999  0.874989  1
  Ti  Ti7  1  0.002920  0.249999  0.874999  1
  Tc  Tc8  1  0.750025  0.249999  0.123812  1
  Tc  Tc9  1  0.250031  0.750000  0.374998  1
  Tc  Tc10  1  0.749973  0.249999  0.626183  1
  Tc  Tc11  1  0.249973  0.750000  0.875001  1
  Os  Os12  1  0.250038  0.249999  0.124185  1
  Os  Os13  1  0.750029  0.750000  0.374999  1
  Os  Os14  1  0.249970  0.249999  0.625820  1
  Rh  Rh15  1  0.749963  0.750000  0.875013  1
