# generated using pymatgen
data_Th2Sn5IrRh2
_symmetry_space_group_name_H-M   'P 1'
_cell_length_a   13.59662726
_cell_length_b   13.59662859
_cell_length_c   7.37859000
_cell_angle_alpha   90.00000000
_cell_angle_beta   90.00000000
_cell_angle_gamma   160.81329881
_symmetry_Int_Tables_number   1
_chemical_formula_structural   Th2Sn5IrRh2
_chemical_formula_sum   'Th4 Sn10 Ir2 Rh4'
_cell_volume   448.29723458
_cell_formula_units_Z   2
loop_
 _symmetry_equiv_pos_site_id
 _symmetry_equiv_pos_as_xyz
  1  'x, y, z'
loop_
 _atom_site_type_symbol
 _atom_site_label
 _atom_site_symmetry_multiplicity
 _atom_site_fract_x
 _atom_site_fract_y
 _atom_site_fract_z
 _atom_site_occupancy
  Th  Th0  1  0.172166  0.827834  0.756569  1
  Th  Th1  1  0.827834  0.172166  0.256569  1
  Th  Th2  1  0.474770  0.525230  0.734915  1
  Th  Th3  1  0.525230  0.474770  0.234915  1
  Sn  Sn4  1  0.877733  0.122267  0.733857  1
  Sn  Sn5  1  0.122267  0.877733  0.233857  1
  Sn  Sn6  1  0.704830  0.295170  0.050872  1
  Sn  Sn7  1  0.295170  0.704830  0.550872  1
  Sn  Sn8  1  0.597687  0.402313  0.610375  1
  Sn  Sn9  1  0.402313  0.597687  0.110375  1
  Sn  Sn10  1  0.950920  0.049080  0.395738  1
  Sn  Sn11  1  0.049080  0.950920  0.895738  1
  Sn  Sn12  1  0.289302  0.710698  0.975251  1
  Sn  Sn13  1  0.710698  0.289302  0.475251  1
  Ir  Ir14  1  0.050733  0.949267  0.514270  1
  Ir  Ir15  1  0.949267  0.050733  0.014270  1
  Rh  Rh16  1  0.776372  0.223628  0.769558  1
  Rh  Rh17  1  0.223628  0.776372  0.269558  1
  Rh  Rh18  1  0.396061  0.603939  0.486592  1
  Rh  Rh19  1  0.603939  0.396061  0.986592  1
