# generated using pymatgen
data_Nb2Ir2SeS7
_symmetry_space_group_name_H-M   'P 1'
_cell_length_a   3.51715500
_cell_length_b   11.40925300
_cell_length_c   13.04545900
_cell_angle_alpha   90.00000000
_cell_angle_beta   90.00000000
_cell_angle_gamma   90.00000000
_symmetry_Int_Tables_number   1
_chemical_formula_structural   Nb2Ir2SeS7
_chemical_formula_sum   'Nb4 Ir4 Se2 S14'
_cell_volume   523.48962987
_cell_formula_units_Z   2
loop_
 _symmetry_equiv_pos_site_id
 _symmetry_equiv_pos_as_xyz
  1  'x, y, z'
loop_
 _atom_site_type_symbol
 _atom_site_label
 _atom_site_symmetry_multiplicity
 _atom_site_fract_x
 _atom_site_fract_y
 _atom_site_fract_z
 _atom_site_occupancy
  Nb  Nb0  1  0.000000  0.044714  0.999844  1
  Nb  Nb1  1  0.500000  0.955286  0.499844  1
  Nb  Nb2  1  0.000000  0.262078  0.493004  1
  Nb  Nb3  1  0.500000  0.737922  0.993004  1
  Ir  Ir4  1  0.000000  0.528579  0.998434  1
  Ir  Ir5  1  0.500000  0.471421  0.498434  1
  Ir  Ir6  1  0.000000  0.748604  0.492401  1
  Ir  Ir7  1  0.500000  0.251396  0.992401  1
  Se  Se8  1  0.000000  0.414530  0.629973  1
  Se  Se9  1  0.500000  0.585470  0.129973  1
  S  S10  1  0.500000  0.102938  0.122999  1
  S  S11  1  0.000000  0.897062  0.622999  1
  S  S12  1  0.500000  0.155032  0.595561  1
  S  S13  1  0.000000  0.844968  0.095561  1
  S  S14  1  0.500000  0.320583  0.370107  1
  S  S15  1  0.000000  0.679417  0.870107  1
  S  S16  1  0.500000  0.436265  0.902919  1
  S  S17  1  0.000000  0.563735  0.402919  1
  S  S18  1  0.000000  0.062300  0.396756  1
  S  S19  1  0.500000  0.937700  0.896756  1
  S  S20  1  0.000000  0.193920  0.874216  1
  S  S21  1  0.500000  0.806080  0.374216  1
  S  S22  1  0.000000  0.344009  0.086845  1
  S  S23  1  0.500000  0.655991  0.586845  1
