# generated using pymatgen
data_Th3Al2GaIrPt2
_symmetry_space_group_name_H-M   'P 1'
_cell_length_a   7.30545417
_cell_length_b   7.35304920
_cell_length_c   4.14226800
_cell_angle_alpha   90.00000000
_cell_angle_beta   90.00000000
_cell_angle_gamma   120.25492646
_symmetry_Int_Tables_number   1
_chemical_formula_structural   Th3Al2GaIrPt2
_chemical_formula_sum   'Th3 Al2 Ga1 Ir1 Pt2'
_cell_volume   192.20388281
_cell_formula_units_Z   1
loop_
 _symmetry_equiv_pos_site_id
 _symmetry_equiv_pos_as_xyz
  1  'x, y, z'
loop_
 _atom_site_type_symbol
 _atom_site_label
 _atom_site_symmetry_multiplicity
 _atom_site_fract_x
 _atom_site_fract_y
 _atom_site_fract_z
 _atom_site_occupancy
  Th  Th0  1  0.413883  0.420813  0.500000  1
  Th  Th1  1  0.581375  0.997243  0.500000  1
  Th  Th2  1  0.004566  0.579094  0.500000  1
  Al  Al3  1  0.763964  0.766009  0.000000  1
  Al  Al4  1  0.233160  0.995449  0.000000  1
  Ga  Ga5  1  0.002394  0.239108  0.000000  1
  Ir  Ir6  1  0.340250  0.676852  0.000000  1
  Pt  Pt7  1  0.659974  0.336688  0.000000  1
  Pt  Pt8  1  0.000433  0.988743  0.500000  1
