# generated using pymatgen
data_Tm6Nb5Al11Os7
_symmetry_space_group_name_H-M   'P 1'
_cell_length_a   9.05902580
_cell_length_b   9.05902583
_cell_length_c   9.01658606
_cell_angle_alpha   59.84418398
_cell_angle_beta   59.84417943
_cell_angle_gamma   60.00000238
_symmetry_Int_Tables_number   1
_chemical_formula_structural   Tm6Nb5Al11Os7
_chemical_formula_sum   'Tm6 Nb5 Al11 Os7'
_cell_volume   521.99129959
_cell_formula_units_Z   1
loop_
 _symmetry_equiv_pos_site_id
 _symmetry_equiv_pos_as_xyz
  1  'x, y, z'
loop_
 _atom_site_type_symbol
 _atom_site_label
 _atom_site_symmetry_multiplicity
 _atom_site_fract_x
 _atom_site_fract_y
 _atom_site_fract_z
 _atom_site_occupancy
  Tm  Tm0  1  0.705279  0.705279  0.296923  1
  Tm  Tm1  1  0.292518  0.705279  0.296923  1
  Tm  Tm2  1  0.705279  0.292518  0.296923  1
  Tm  Tm3  1  0.297801  0.297801  0.706278  1
  Tm  Tm4  1  0.698121  0.297801  0.706278  1
  Tm  Tm5  1  0.297801  0.698121  0.706278  1
  Nb  Nb6  1  0.879985  0.879985  0.360046  1
  Nb  Nb7  1  0.876181  0.363849  0.883788  1
  Nb  Nb8  1  0.363849  0.876181  0.883788  1
  Nb  Nb9  1  0.876181  0.876181  0.883788  1
  Nb  Nb10  1  0.126025  0.126025  0.621925  1
  Al  Al11  1  0.119552  0.639687  0.121209  1
  Al  Al12  1  0.639687  0.119552  0.121209  1
  Al  Al13  1  0.119552  0.119552  0.121209  1
  Al  Al14  1  0.665037  0.665037  0.004890  1
  Al  Al15  1  0.667416  0.999340  0.665828  1
  Al  Al16  1  0.999340  0.667416  0.665828  1
  Al  Al17  1  0.667416  0.667416  0.665828  1
  Al  Al18  1  0.331613  0.331613  0.005160  1
  Al  Al19  1  0.335202  0.002242  0.327354  1
  Al  Al20  1  0.002242  0.335202  0.327354  1
  Al  Al21  1  0.335202  0.335202  0.327354  1
  Os  Os22  1  0.004507  0.004507  0.986479  1
  Os  Os23  1  0.999046  0.999046  0.506398  1
  Os  Os24  1  0.495510  0.999046  0.506398  1
  Os  Os25  1  0.999046  0.495510  0.506398  1
  Os  Os26  1  0.501509  0.501509  0.999389  1
  Os  Os27  1  0.997593  0.501509  0.999389  1
  Os  Os28  1  0.501509  0.997593  0.999389  1
