# generated using pymatgen
data_DyThMn3Fe9P7
_symmetry_space_group_name_H-M   'P 1'
_cell_length_a   9.09064000
_cell_length_b   9.09063811
_cell_length_c   3.66989600
_cell_angle_alpha   90.00000000
_cell_angle_beta   90.00000000
_cell_angle_gamma   120.00000686
_symmetry_Int_Tables_number   1
_chemical_formula_structural   DyThMn3Fe9P7
_chemical_formula_sum   'Dy1 Th1 Mn3 Fe9 P7'
_cell_volume   262.64744947
_cell_formula_units_Z   1
loop_
 _symmetry_equiv_pos_site_id
 _symmetry_equiv_pos_as_xyz
  1  'x, y, z'
loop_
 _atom_site_type_symbol
 _atom_site_label
 _atom_site_symmetry_multiplicity
 _atom_site_fract_x
 _atom_site_fract_y
 _atom_site_fract_z
 _atom_site_occupancy
  Dy  Dy0  1  0.666667  0.333333  0.000000  1
  Th  Th1  1  0.333333  0.666667  0.500000  1
  Mn  Mn2  1  0.114101  0.897512  0.500000  1
  Mn  Mn3  1  0.102488  0.216589  0.500000  1
  Mn  Mn4  1  0.783411  0.885899  0.500000  1
  Fe  Fe5  1  0.368874  0.943068  0.000000  1
  Fe  Fe6  1  0.056932  0.425806  0.000000  1
  Fe  Fe7  1  0.574194  0.631126  0.000000  1
  Fe  Fe8  1  0.876946  0.726236  0.000000  1
  Fe  Fe9  1  0.273764  0.150710  0.000000  1
  Fe  Fe10  1  0.849290  0.123054  0.000000  1
  Fe  Fe11  1  0.947335  0.565500  0.500000  1
  Fe  Fe12  1  0.434500  0.381835  0.500000  1
  Fe  Fe13  1  0.618165  0.052665  0.500000  1
  P  P14  1  0.101801  0.696226  0.000000  1
  P  P15  1  0.303774  0.405575  0.000000  1
  P  P16  1  0.594425  0.898199  0.000000  1
  P  P17  1  0.708093  0.592069  0.500000  1
  P  P18  1  0.407931  0.116024  0.500000  1
  P  P19  1  0.883976  0.291907  0.500000  1
  P  P20  1  0.000000  0.000000  0.000000  1
