# generated using pymatgen
data_ZrTi5(GaPt)6
_symmetry_space_group_name_H-M   'P 1'
_cell_length_a   7.05561472
_cell_length_b   7.09427565
_cell_length_c   6.83526400
_cell_angle_alpha   90.00000000
_cell_angle_beta   90.00000000
_cell_angle_gamma   120.32752725
_symmetry_Int_Tables_number   1
_chemical_formula_structural   ZrTi5(GaPt)6
_chemical_formula_sum   'Zr1 Ti5 Ga6 Pt6'
_cell_volume   295.31535031
_cell_formula_units_Z   1
loop_
 _symmetry_equiv_pos_site_id
 _symmetry_equiv_pos_as_xyz
  1  'x, y, z'
loop_
 _atom_site_type_symbol
 _atom_site_label
 _atom_site_symmetry_multiplicity
 _atom_site_fract_x
 _atom_site_fract_y
 _atom_site_fract_z
 _atom_site_occupancy
  Zr  Zr0  1  0.410922  0.383250  0.250000  1
  Ti  Ti1  1  0.383660  0.407293  0.750000  1
  Ti  Ti2  1  0.026764  0.618542  0.750000  1
  Ti  Ti3  1  0.593044  0.975059  0.750000  1
  Ti  Ti4  1  0.616312  0.025651  0.250000  1
  Ti  Ti5  1  0.973279  0.590239  0.250000  1
  Ga  Ga6  1  0.272463  0.997636  0.997761  1
  Ga  Ga7  1  0.727543  0.726262  0.992914  1
  Ga  Ga8  1  0.999172  0.274190  0.999525  1
  Ga  Ga9  1  0.727543  0.726262  0.507086  1
  Ga  Ga10  1  0.272463  0.997636  0.502239  1
  Ga  Ga11  1  0.999172  0.274190  0.500475  1
  Pt  Pt12  1  0.669175  0.332845  0.959481  1
  Pt  Pt13  1  0.001300  0.002528  0.750000  1
  Pt  Pt14  1  0.669175  0.332845  0.540519  1
  Pt  Pt15  1  0.332808  0.671383  0.468772  1
  Pt  Pt16  1  0.332808  0.671383  0.031228  1
  Pt  Pt17  1  0.992400  0.992811  0.250000  1
