# generated using pymatgen
data_Y3Lu5Mg2(SiB4)4
_symmetry_space_group_name_H-M   'P 1'
_cell_length_a   7.11951202
_cell_length_b   7.11978103
_cell_length_c   7.72236502
_cell_angle_alpha   89.99337614
_cell_angle_beta   89.99642555
_cell_angle_gamma   90.00808769
_symmetry_Int_Tables_number   1
_chemical_formula_structural   Y3Lu5Mg2(SiB4)4
_chemical_formula_sum   'Y3 Lu5 Mg2 Si4 B16'
_cell_volume   391.44178429
_cell_formula_units_Z   1
loop_
 _symmetry_equiv_pos_site_id
 _symmetry_equiv_pos_as_xyz
  1  'x, y, z'
loop_
 _atom_site_type_symbol
 _atom_site_label
 _atom_site_symmetry_multiplicity
 _atom_site_fract_x
 _atom_site_fract_y
 _atom_site_fract_z
 _atom_site_occupancy
  Y  Y0  1  0.682329  0.182029  0.765368  1
  Y  Y1  1  0.182248  0.317962  0.765004  1
  Y  Y2  1  0.182315  0.317811  0.234496  1
  Lu  Lu3  1  0.682123  0.181683  0.230114  1
  Lu  Lu4  1  0.318020  0.817574  0.769950  1
  Lu  Lu5  1  0.318047  0.817594  0.230029  1
  Lu  Lu6  1  0.817671  0.682575  0.229879  1
  Lu  Lu7  1  0.817731  0.682514  0.769498  1
  Mg  Mg8  1  0.999758  0.998935  0.499940  1
  Mg  Mg9  1  0.500486  0.500966  0.499499  1
  Si  Si10  1  0.114061  0.620920  0.499502  1
  Si  Si11  1  0.881885  0.389249  0.497103  1
  Si  Si12  1  0.385766  0.110269  0.497787  1
  Si  Si13  1  0.616596  0.880052  0.497816  1
  B  B14  1  0.173591  0.037409  0.000898  1
  B  B15  1  0.825747  0.959104  0.000921  1
  B  B16  1  0.959821  0.172416  0.000578  1
  B  B17  1  0.326767  0.541325  0.000587  1
  B  B18  1  0.039042  0.824888  0.000643  1
  B  B19  1  0.674349  0.462143  0.000553  1
  B  B20  1  0.539802  0.675203  0.000921  1
  B  B21  1  0.461480  0.327384  0.000973  1
  B  B22  1  0.088499  0.589103  0.000573  1
  B  B23  1  0.910844  0.411508  0.000401  1
  B  B24  1  0.411329  0.088367  0.002026  1
  B  B25  1  0.588335  0.911406  0.002039  1
  B  B26  1  0.998863  0.998138  0.166968  1
  B  B27  1  0.000432  0.997557  0.834489  1
  B  B28  1  0.500736  0.502761  0.834473  1
  B  B29  1  0.501329  0.501154  0.166972  1
