# generated using pymatgen
data_Y8Zr11Si16W
_symmetry_space_group_name_H-M   'P 1'
_cell_length_a   7.09662868
_cell_length_b   7.27720169
_cell_length_c   13.90476100
_cell_angle_alpha   90.00000000
_cell_angle_beta   90.00000000
_cell_angle_gamma   90.05017089
_symmetry_Int_Tables_number   1
_chemical_formula_structural   Y8Zr11Si16W
_chemical_formula_sum   'Y8 Zr11 Si16 W1'
_cell_volume   718.09161593
_cell_formula_units_Z   1
loop_
 _symmetry_equiv_pos_site_id
 _symmetry_equiv_pos_as_xyz
  1  'x, y, z'
loop_
 _atom_site_type_symbol
 _atom_site_label
 _atom_site_symmetry_multiplicity
 _atom_site_fract_x
 _atom_site_fract_y
 _atom_site_fract_z
 _atom_site_occupancy
  Y  Y0  1  0.522183  0.674509  0.599177  1
  Y  Y1  1  0.018079  0.821514  0.900487  1
  Y  Y2  1  0.479848  0.323236  0.096431  1
  Y  Y3  1  0.980320  0.177037  0.404083  1
  Y  Y4  1  0.479848  0.323236  0.403569  1
  Y  Y5  1  0.980320  0.177037  0.095917  1
  Y  Y6  1  0.522183  0.674509  0.900823  1
  Y  Y7  1  0.018079  0.821514  0.599513  1
  Zr  Zr8  1  0.680216  0.178487  0.625673  1
  Zr  Zr9  1  0.174751  0.325897  0.874098  1
  Zr  Zr10  1  0.323147  0.823820  0.124237  1
  Zr  Zr11  1  0.823207  0.676827  0.376639  1
  Zr  Zr12  1  0.323147  0.823820  0.375763  1
  Zr  Zr13  1  0.823207  0.676827  0.123361  1
  Zr  Zr14  1  0.680216  0.178487  0.874327  1
  Zr  Zr15  1  0.174751  0.325897  0.625902  1
  Zr  Zr16  1  0.351383  0.002867  0.750000  1
  Zr  Zr17  1  0.147600  0.501473  0.250000  1
  Zr  Zr18  1  0.648801  0.997630  0.250000  1
  Si  Si19  1  0.650195  0.969283  0.459189  1
  Si  Si20  1  0.151063  0.532420  0.040160  1
  Si  Si21  1  0.348694  0.032063  0.958230  1
  Si  Si22  1  0.850045  0.470175  0.545304  1
  Si  Si23  1  0.348694  0.032063  0.541770  1
  Si  Si24  1  0.850045  0.470175  0.954696  1
  Si  Si25  1  0.650195  0.969283  0.040811  1
  Si  Si26  1  0.151063  0.532420  0.459840  1
  Si  Si27  1  0.480656  0.387046  0.750000  1
  Si  Si28  1  0.973613  0.119074  0.750000  1
  Si  Si29  1  0.524919  0.617197  0.250000  1
  Si  Si30  1  0.025020  0.881569  0.250000  1
  Si  Si31  1  0.726880  0.867302  0.750000  1
  Si  Si32  1  0.216745  0.625638  0.750000  1
  Si  Si33  1  0.274011  0.126438  0.250000  1
  Si  Si34  1  0.773914  0.373033  0.250000  1
  W  W35  1  0.852960  0.490201  0.750000  1
