# generated using pymatgen
data_TbY4In3S
_symmetry_space_group_name_H-M   'P 1'
_cell_length_a   9.16034400
_cell_length_b   9.16139144
_cell_length_c   6.74767100
_cell_angle_alpha   90.00000000
_cell_angle_beta   90.00000000
_cell_angle_gamma   120.00378620
_symmetry_Int_Tables_number   1
_chemical_formula_structural   TbY4In3S
_chemical_formula_sum   'Tb2 Y8 In6 S2'
_cell_volume   490.38952294
_cell_formula_units_Z   2
loop_
 _symmetry_equiv_pos_site_id
 _symmetry_equiv_pos_as_xyz
  1  'x, y, z'
loop_
 _atom_site_type_symbol
 _atom_site_label
 _atom_site_symmetry_multiplicity
 _atom_site_fract_x
 _atom_site_fract_y
 _atom_site_fract_z
 _atom_site_occupancy
  Tb  Tb0  1  0.758400  0.758339  0.750000  1
  Tb  Tb1  1  0.241600  0.999939  0.750000  1
  Y  Y2  1  0.000000  0.241676  0.750000  1
  Y  Y3  1  0.241664  0.241645  0.250000  1
  Y  Y4  1  0.758336  0.999981  0.250000  1
  Y  Y5  1  0.000000  0.758266  0.250000  1
  Y  Y6  1  0.666604  0.333233  0.000112  1
  Y  Y7  1  0.333396  0.666630  0.000112  1
  Y  Y8  1  0.333396  0.666630  0.499888  1
  Y  Y9  1  0.666604  0.333233  0.499888  1
  In  In10  1  0.401482  0.401576  0.750000  1
  In  In11  1  0.598518  0.000094  0.750000  1
  In  In12  1  0.000000  0.598361  0.750000  1
  In  In13  1  0.598583  0.598678  0.250000  1
  In  In14  1  0.401417  0.000096  0.250000  1
  In  In15  1  0.000000  0.401231  0.250000  1
  S  S16  1  0.000000  0.000196  0.000283  1
  S  S17  1  0.000000  0.000196  0.499717  1
