# generated using pymatgen
data_YLu4Bi3O14
_symmetry_space_group_name_H-M   'P 1'
_cell_length_a   6.52174199
_cell_length_b   6.54373822
_cell_length_c   7.64317500
_cell_angle_alpha   106.88225651
_cell_angle_beta   89.65681586
_cell_angle_gamma   99.19679966
_symmetry_Int_Tables_number   1
_chemical_formula_structural   YLu4Bi3O14
_chemical_formula_sum   'Y1 Lu4 Bi3 O14'
_cell_volume   307.83250823
_cell_formula_units_Z   1
loop_
 _symmetry_equiv_pos_site_id
 _symmetry_equiv_pos_as_xyz
  1  'x, y, z'
loop_
 _atom_site_type_symbol
 _atom_site_label
 _atom_site_symmetry_multiplicity
 _atom_site_fract_x
 _atom_site_fract_y
 _atom_site_fract_z
 _atom_site_occupancy
  Y  Y0  1  0.741898  0.479968  0.621128  1
  Lu  Lu1  1  0.464387  0.008458  0.252372  1
  Lu  Lu2  1  0.534867  0.997128  0.751695  1
  Lu  Lu3  1  0.275689  0.535793  0.884475  1
  Lu  Lu4  1  0.733357  0.459272  0.110932  1
  Bi  Bi5  1  0.994574  0.999830  0.500391  1
  Bi  Bi6  1  0.999471  0.996688  0.997789  1
  Bi  Bi7  1  0.279163  0.530445  0.384656  1
  O  O8  1  0.458227  0.658491  0.161908  1
  O  O9  1  0.548257  0.346674  0.839751  1
  O  O10  1  0.304167  0.917885  0.949613  1
  O  O11  1  0.696911  0.079684  0.051560  1
  O  O12  1  0.302043  0.934021  0.518487  1
  O  O13  1  0.694852  0.082157  0.490174  1
  O  O14  1  0.549705  0.359475  0.337003  1
  O  O15  1  0.460137  0.641630  0.663600  1
  O  O16  1  0.925275  0.657326  0.952151  1
  O  O17  1  0.070036  0.331706  0.029203  1
  O  O18  1  0.070052  0.344711  0.634012  1
  O  O19  1  0.903810  0.659601  0.374022  1
  O  O20  1  0.862725  0.897303  0.724472  1
  O  O21  1  0.130394  0.081756  0.270609  1
