# generated using pymatgen
data_CaLa2(LuSi2)2
_symmetry_space_group_name_H-M   'P 1'
_cell_length_a   7.81840600
_cell_length_b   7.81840600
_cell_length_c   14.27265100
_cell_angle_alpha   90.00000000
_cell_angle_beta   90.00000000
_cell_angle_gamma   90.00000000
_symmetry_Int_Tables_number   1
_chemical_formula_structural   CaLa2(LuSi2)2
_chemical_formula_sum   'Ca4 La8 Lu8 Si16'
_cell_volume   872.45107980
_cell_formula_units_Z   4
loop_
 _symmetry_equiv_pos_site_id
 _symmetry_equiv_pos_as_xyz
  1  'x, y, z'
loop_
 _atom_site_type_symbol
 _atom_site_label
 _atom_site_symmetry_multiplicity
 _atom_site_fract_x
 _atom_site_fract_y
 _atom_site_fract_z
 _atom_site_occupancy
  Ca  Ca0  1  0.682155  0.682155  0.500000  1
  Ca  Ca1  1  0.817845  0.182155  0.750000  1
  Ca  Ca2  1  0.182155  0.817845  0.250000  1
  Ca  Ca3  1  0.317845  0.317845  0.000000  1
  La  La4  1  0.991418  0.643628  0.039641  1
  La  La5  1  0.008582  0.356372  0.539641  1
  La  La6  1  0.643628  0.991418  0.960359  1
  La  La7  1  0.143628  0.508582  0.789641  1
  La  La8  1  0.856372  0.491418  0.289641  1
  La  La9  1  0.508582  0.143628  0.210359  1
  La  La10  1  0.491418  0.856372  0.710359  1
  La  La11  1  0.356372  0.008582  0.460359  1
  Lu  Lu12  1  0.361085  0.493502  0.375894  1
  Lu  Lu13  1  0.861085  0.006498  0.374106  1
  Lu  Lu14  1  0.993502  0.138915  0.125894  1
  Lu  Lu15  1  0.006498  0.861085  0.625894  1
  Lu  Lu16  1  0.638915  0.506498  0.875894  1
  Lu  Lu17  1  0.493502  0.361085  0.624106  1
  Lu  Lu18  1  0.506498  0.638915  0.124106  1
  Lu  Lu19  1  0.138915  0.993502  0.874106  1
  Si  Si20  1  0.070604  0.710256  0.440456  1
  Si  Si21  1  0.929396  0.289744  0.940456  1
  Si  Si22  1  0.710256  0.070604  0.559544  1
  Si  Si23  1  0.210257  0.429396  0.190456  1
  Si  Si24  1  0.789744  0.570604  0.690456  1
  Si  Si25  1  0.429396  0.210257  0.809544  1
  Si  Si26  1  0.570604  0.789744  0.309544  1
  Si  Si27  1  0.289744  0.929396  0.059544  1
  Si  Si28  1  0.852552  0.787729  0.812796  1
  Si  Si29  1  0.147448  0.212271  0.312796  1
  Si  Si30  1  0.787729  0.852552  0.187204  1
  Si  Si31  1  0.287729  0.647448  0.562796  1
  Si  Si32  1  0.712271  0.352552  0.062796  1
  Si  Si33  1  0.647448  0.287729  0.437204  1
  Si  Si34  1  0.352552  0.712271  0.937204  1
  Si  Si35  1  0.212271  0.147448  0.687204  1
