# generated using pymatgen
data_Tb6HoTmIn8
_symmetry_space_group_name_H-M   'P 1'
_cell_length_a   6.52694107
_cell_length_b   6.52694269
_cell_length_c   10.34453400
_cell_angle_alpha   90.00000000
_cell_angle_beta   90.00000000
_cell_angle_gamma   103.68941736
_symmetry_Int_Tables_number   1
_chemical_formula_structural   Tb6HoTmIn8
_chemical_formula_sum   'Tb6 Ho1 Tm1 In8'
_cell_volume   428.16851770
_cell_formula_units_Z   1
loop_
 _symmetry_equiv_pos_site_id
 _symmetry_equiv_pos_as_xyz
  1  'x, y, z'
loop_
 _atom_site_type_symbol
 _atom_site_label
 _atom_site_symmetry_multiplicity
 _atom_site_fract_x
 _atom_site_fract_y
 _atom_site_fract_z
 _atom_site_occupancy
  Tb  Tb0  1  0.523054  0.523054  0.250000  1
  Tb  Tb1  1  0.476122  0.476122  0.750000  1
  Tb  Tb2  1  0.248290  0.751972  0.500476  1
  Tb  Tb3  1  0.248290  0.751972  0.999524  1
  Tb  Tb4  1  0.751972  0.248290  0.500476  1
  Tb  Tb5  1  0.751972  0.248290  0.999524  1
  Ho  Ho6  1  0.981854  0.981854  0.250000  1
  Tm  Tm7  1  0.017725  0.017725  0.750000  1
  In  In8  1  0.250840  0.250840  0.013266  1
  In  In9  1  0.749395  0.749395  0.985617  1
  In  In10  1  0.250840  0.250840  0.486734  1
  In  In11  1  0.749395  0.749395  0.514383  1
  In  In12  1  0.486858  0.015124  0.250000  1
  In  In13  1  0.984987  0.513282  0.750000  1
  In  In14  1  0.513282  0.984987  0.750000  1
  In  In15  1  0.015124  0.486858  0.250000  1
