# generated using pymatgen
data_Y3(FeCo3)2
_symmetry_space_group_name_H-M   'P 1'
_cell_length_a   7.62985736
_cell_length_b   7.62928523
_cell_length_c   7.63099000
_cell_angle_alpha   109.47559552
_cell_angle_beta   109.47431047
_cell_angle_gamma   109.46525260
_symmetry_Int_Tables_number   1
_chemical_formula_structural   Y3(FeCo3)2
_chemical_formula_sum   'Y6 Fe4 Co12'
_cell_volume   341.94104881
_cell_formula_units_Z   2
loop_
 _symmetry_equiv_pos_site_id
 _symmetry_equiv_pos_as_xyz
  1  'x, y, z'
loop_
 _atom_site_type_symbol
 _atom_site_label
 _atom_site_symmetry_multiplicity
 _atom_site_fract_x
 _atom_site_fract_y
 _atom_site_fract_z
 _atom_site_occupancy
  Y  Y0  1  0.716427  0.716437  0.000031  1
  Y  Y1  1  0.716427  0.999990  0.716396  1
  Y  Y2  1  0.283573  0.283563  0.999969  1
  Y  Y3  1  0.000000  0.716423  0.716381  1
  Y  Y4  1  0.283573  0.000010  0.283604  1
  Y  Y5  1  0.000000  0.283577  0.283619  1
  Fe  Fe6  1  0.500000  0.500000  0.500000  1
  Fe  Fe7  1  0.000000  0.500000  0.000000  1
  Fe  Fe8  1  0.500000  0.000000  0.000000  1
  Fe  Fe9  1  0.000000  0.000000  0.500000  1
  Co  Co10  1  0.665038  0.665030  0.330021  1
  Co  Co11  1  0.664982  0.329988  0.664973  1
  Co  Co12  1  0.335018  0.670012  0.335027  1
  Co  Co13  1  0.334962  0.999992  0.664985  1
  Co  Co14  1  0.670008  0.335004  0.335004  1
  Co  Co15  1  0.335018  0.665007  0.999992  1
  Co  Co16  1  0.000000  0.334971  0.664951  1
  Co  Co17  1  0.665038  0.000008  0.335015  1
  Co  Co18  1  0.329992  0.664996  0.664996  1
  Co  Co19  1  0.334962  0.334970  0.669979  1
  Co  Co20  1  0.000000  0.665029  0.335049  1
  Co  Co21  1  0.664982  0.334993  0.000008  1
