# generated using pymatgen
data_Nd3Sc3GaSb2
_symmetry_space_group_name_H-M   'P 1'
_cell_length_a   7.98296100
_cell_length_b   7.98295950
_cell_length_c   4.36597400
_cell_angle_alpha   90.00000000
_cell_angle_beta   90.00000000
_cell_angle_gamma   120.00001037
_symmetry_Int_Tables_number   1
_chemical_formula_structural   Nd3Sc3GaSb2
_chemical_formula_sum   'Nd3 Sc3 Ga1 Sb2'
_cell_volume   240.95706513
_cell_formula_units_Z   1
loop_
 _symmetry_equiv_pos_site_id
 _symmetry_equiv_pos_as_xyz
  1  'x, y, z'
loop_
 _atom_site_type_symbol
 _atom_site_label
 _atom_site_symmetry_multiplicity
 _atom_site_fract_x
 _atom_site_fract_y
 _atom_site_fract_z
 _atom_site_occupancy
  Nd  Nd0  1  0.602245  0.000000  0.500000  1
  Nd  Nd1  1  0.397755  0.397755  0.500000  1
  Nd  Nd2  1  0.000000  0.602245  0.500000  1
  Sc  Sc3  1  0.238130  0.000000  0.000000  1
  Sc  Sc4  1  0.761870  0.761870  0.000000  1
  Sc  Sc5  1  0.000000  0.238130  0.000000  1
  Ga  Ga6  1  0.000000  0.000000  0.500000  1
  Sb  Sb7  1  0.333333  0.666667  0.000000  1
  Sb  Sb8  1  0.666667  0.333333  0.000000  1
