# generated using pymatgen
data_Nd2P7(Rh3W)3
_symmetry_space_group_name_H-M   'P 1'
_cell_length_a   3.97668803
_cell_length_b   9.57555165
_cell_length_c   9.57531900
_cell_angle_alpha   119.99692764
_cell_angle_beta   89.99660119
_cell_angle_gamma   90.00785480
_symmetry_Int_Tables_number   1
_chemical_formula_structural   Nd2P7(Rh3W)3
_chemical_formula_sum   'Nd2 P7 Rh9 W3'
_cell_volume   315.77856696
_cell_formula_units_Z   1
loop_
 _symmetry_equiv_pos_site_id
 _symmetry_equiv_pos_as_xyz
  1  'x, y, z'
loop_
 _atom_site_type_symbol
 _atom_site_label
 _atom_site_symmetry_multiplicity
 _atom_site_fract_x
 _atom_site_fract_y
 _atom_site_fract_z
 _atom_site_occupancy
  Nd  Nd0  1  0.262087  0.666647  0.333304  1
  Nd  Nd1  1  0.762058  0.333337  0.666683  1
  P  P2  1  0.261957  0.999989  0.999974  1
  P  P3  1  0.761921  0.885039  0.595024  1
  P  P4  1  0.761919  0.404962  0.290010  1
  P  P5  1  0.761929  0.709988  0.114938  1
  P  P6  1  0.261867  0.115922  0.410729  1
  P  P7  1  0.261877  0.589293  0.705206  1
  P  P8  1  0.261866  0.294809  0.884098  1
  Rh  Rh9  1  0.261864  0.887095  0.158548  1
  Rh  Rh10  1  0.261863  0.841440  0.728491  1
  Rh  Rh11  1  0.261864  0.271463  0.112937  1
  Rh  Rh12  1  0.761885  0.614258  0.563474  1
  Rh  Rh13  1  0.761879  0.436488  0.050756  1
  Rh  Rh14  1  0.761888  0.949205  0.385730  1
  Rh  Rh15  1  0.261885  0.369383  0.435458  1
  Rh  Rh16  1  0.261886  0.564592  0.933964  1
  Rh  Rh17  1  0.261883  0.066076  0.630641  1
  W  W18  1  0.761876  0.089779  0.871542  1
  W  W19  1  0.761873  0.128482  0.218303  1
  W  W20  1  0.761871  0.781752  0.910190  1
