# generated using pymatgen
data_Yb3Er(Ga3Pd)6
_symmetry_space_group_name_H-M   'P 1'
_cell_length_a   7.68912428
_cell_length_b   7.68771397
_cell_length_c   9.54578400
_cell_angle_alpha   90.00000000
_cell_angle_beta   90.00000000
_cell_angle_gamma   119.73625130
_symmetry_Int_Tables_number   1
_chemical_formula_structural   Yb3Er(Ga3Pd)6
_chemical_formula_sum   'Yb3 Er1 Ga18 Pd6'
_cell_volume   489.96429690
_cell_formula_units_Z   1
loop_
 _symmetry_equiv_pos_site_id
 _symmetry_equiv_pos_as_xyz
  1  'x, y, z'
loop_
 _atom_site_type_symbol
 _atom_site_label
 _atom_site_symmetry_multiplicity
 _atom_site_fract_x
 _atom_site_fract_y
 _atom_site_fract_z
 _atom_site_occupancy
  Yb  Yb0  1  0.997541  0.667347  0.750000  1
  Yb  Yb1  1  0.001003  0.331773  0.250000  1
  Yb  Yb2  1  0.670309  0.999327  0.750000  1
  Er  Er3  1  0.331965  0.999793  0.250000  1
  Ga  Ga4  1  0.127176  0.127402  0.750000  1
  Ga  Ga5  1  0.874202  0.872758  0.250000  1
  Ga  Ga6  1  0.998409  0.334506  0.580065  1
  Ga  Ga7  1  0.001212  0.664711  0.418201  1
  Ga  Ga8  1  0.001212  0.664711  0.081799  1
  Ga  Ga9  1  0.334313  0.997732  0.918509  1
  Ga  Ga10  1  0.998409  0.334506  0.919935  1
  Ga  Ga11  1  0.666878  0.002529  0.081873  1
  Ga  Ga12  1  0.666878  0.002529  0.418127  1
  Ga  Ga13  1  0.334313  0.997732  0.581491  1
  Ga  Ga14  1  0.329145  0.329848  0.071457  1
  Ga  Ga15  1  0.669499  0.669655  0.932445  1
  Ga  Ga16  1  0.669499  0.669655  0.567555  1
  Ga  Ga17  1  0.329145  0.329848  0.428543  1
  Ga  Ga18  1  0.337678  0.545579  0.750000  1
  Ga  Ga19  1  0.660128  0.455882  0.250000  1
  Ga  Ga20  1  0.543462  0.338686  0.750000  1
  Ga  Ga21  1  0.458088  0.663905  0.250000  1
  Pd  Pd22  1  0.668833  0.329653  0.500035  1
  Pd  Pd23  1  0.330561  0.670623  0.499424  1
  Pd  Pd24  1  0.330561  0.670623  0.000576  1
  Pd  Pd25  1  0.668833  0.329653  0.999965  1
  Pd  Pd26  1  0.000373  0.999515  0.500091  1
  Pd  Pd27  1  0.000373  0.999515  0.999909  1
