# generated using pymatgen
data_Y6Sc8Al8Rh7
_symmetry_space_group_name_H-M   'P 1'
_cell_length_a   9.29604601
_cell_length_b   9.29604609
_cell_length_c   9.29604600
_cell_angle_alpha   60.00000031
_cell_angle_beta   60.00000003
_cell_angle_gamma   60.00000236
_symmetry_Int_Tables_number   1
_chemical_formula_structural   Y6Sc8Al8Rh7
_chemical_formula_sum   'Y6 Sc8 Al8 Rh7'
_cell_volume   568.04116284
_cell_formula_units_Z   1
loop_
 _symmetry_equiv_pos_site_id
 _symmetry_equiv_pos_as_xyz
  1  'x, y, z'
loop_
 _atom_site_type_symbol
 _atom_site_label
 _atom_site_symmetry_multiplicity
 _atom_site_fract_x
 _atom_site_fract_y
 _atom_site_fract_z
 _atom_site_occupancy
  Y  Y0  1  0.689688  0.689688  0.310312  1
  Y  Y1  1  0.310312  0.689688  0.310312  1
  Y  Y2  1  0.689688  0.310312  0.310312  1
  Y  Y3  1  0.310312  0.310312  0.689688  1
  Y  Y4  1  0.689688  0.310312  0.689688  1
  Y  Y5  1  0.310312  0.689688  0.689688  1
  Sc  Sc6  1  0.878462  0.878462  0.364612  1
  Sc  Sc7  1  0.878462  0.364612  0.878462  1
  Sc  Sc8  1  0.364612  0.878462  0.878462  1
  Sc  Sc9  1  0.878462  0.878462  0.878462  1
  Sc  Sc10  1  0.121538  0.121538  0.635388  1
  Sc  Sc11  1  0.121538  0.635388  0.121538  1
  Sc  Sc12  1  0.635388  0.121538  0.121538  1
  Sc  Sc13  1  0.121538  0.121538  0.121538  1
  Al  Al14  1  0.668446  0.668446  0.994661  1
  Al  Al15  1  0.668446  0.994661  0.668446  1
  Al  Al16  1  0.994661  0.668446  0.668446  1
  Al  Al17  1  0.668446  0.668446  0.668446  1
  Al  Al18  1  0.331554  0.331554  0.005339  1
  Al  Al19  1  0.331554  0.005339  0.331554  1
  Al  Al20  1  0.005339  0.331554  0.331554  1
  Al  Al21  1  0.331554  0.331554  0.331554  1
  Rh  Rh22  1  0.000000  0.000000  0.000000  1
  Rh  Rh23  1  0.000000  0.000000  0.500000  1
  Rh  Rh24  1  0.500000  0.000000  0.500000  1
  Rh  Rh25  1  0.000000  0.500000  0.500000  1
  Rh  Rh26  1  0.500000  0.500000  0.000000  1
  Rh  Rh27  1  0.000000  0.500000  0.000000  1
  Rh  Rh28  1  0.500000  0.000000  0.000000  1
