# generated using pymatgen
data_Zr3Ti2Pt3
_symmetry_space_group_name_H-M   'P 1'
_cell_length_a   8.16558800
_cell_length_b   8.16558867
_cell_length_c   5.16048000
_cell_angle_alpha   90.00000000
_cell_angle_beta   90.00000000
_cell_angle_gamma   119.99998917
_symmetry_Int_Tables_number   1
_chemical_formula_structural   Zr3Ti2Pt3
_chemical_formula_sum   'Zr6 Ti4 Pt6'
_cell_volume   297.98591816
_cell_formula_units_Z   2
loop_
 _symmetry_equiv_pos_site_id
 _symmetry_equiv_pos_as_xyz
  1  'x, y, z'
loop_
 _atom_site_type_symbol
 _atom_site_label
 _atom_site_symmetry_multiplicity
 _atom_site_fract_x
 _atom_site_fract_y
 _atom_site_fract_z
 _atom_site_occupancy
  Zr  Zr0  1  0.749696  0.749696  0.750000  1
  Zr  Zr1  1  0.250304  0.000000  0.750000  1
  Zr  Zr2  1  0.000000  0.250304  0.750000  1
  Zr  Zr3  1  0.250304  0.250304  0.250000  1
  Zr  Zr4  1  0.749696  0.000000  0.250000  1
  Zr  Zr5  1  0.000000  0.749696  0.250000  1
  Ti  Ti6  1  0.666667  0.333333  0.000000  1
  Ti  Ti7  1  0.333333  0.666667  0.000000  1
  Ti  Ti8  1  0.333333  0.666667  0.500000  1
  Ti  Ti9  1  0.666667  0.333333  0.500000  1
  Pt  Pt10  1  0.405992  0.405992  0.750000  1
  Pt  Pt11  1  0.594008  0.000000  0.750000  1
  Pt  Pt12  1  0.000000  0.594008  0.750000  1
  Pt  Pt13  1  0.594008  0.594008  0.250000  1
  Pt  Pt14  1  0.405992  0.000000  0.250000  1
  Pt  Pt15  1  0.000000  0.405992  0.250000  1
