# generated using pymatgen
data_Ho6Er2Nb12Si15Ge
_symmetry_space_group_name_H-M   'P 1'
_cell_length_a   6.86944544
_cell_length_b   7.06557896
_cell_length_c   13.43058811
_cell_angle_alpha   90.06278889
_cell_angle_beta   89.92994270
_cell_angle_gamma   90.02485642
_symmetry_Int_Tables_number   1
_chemical_formula_structural   Ho6Er2Nb12Si15Ge
_chemical_formula_sum   'Ho6 Er2 Nb12 Si15 Ge1'
_cell_volume   651.87426614
_cell_formula_units_Z   1
loop_
 _symmetry_equiv_pos_site_id
 _symmetry_equiv_pos_as_xyz
  1  'x, y, z'
loop_
 _atom_site_type_symbol
 _atom_site_label
 _atom_site_symmetry_multiplicity
 _atom_site_fract_x
 _atom_site_fract_y
 _atom_site_fract_z
 _atom_site_occupancy
  Ho  Ho0  1  0.500775  0.673705  0.596313  1
  Ho  Ho1  1  0.997681  0.828046  0.904751  1
  Ho  Ho2  1  0.497546  0.671560  0.904633  1
  Ho  Ho3  1  0.997450  0.829132  0.595811  1
  Ho  Ho4  1  0.502934  0.326864  0.403489  1
  Ho  Ho5  1  0.002269  0.172113  0.095411  1
  Er  Er6  1  0.502246  0.328284  0.095743  1
  Er  Er7  1  0.001169  0.171307  0.403903  1
  Nb  Nb8  1  0.664931  0.008309  0.750162  1
  Nb  Nb9  1  0.164841  0.490850  0.751869  1
  Nb  Nb10  1  0.334754  0.991884  0.249825  1
  Nb  Nb11  1  0.835012  0.508425  0.249841  1
  Nb  Nb12  1  0.836677  0.324476  0.625770  1
  Nb  Nb13  1  0.338384  0.174935  0.874846  1
  Nb  Nb14  1  0.161782  0.675024  0.125287  1
  Nb  Nb15  1  0.661387  0.825540  0.374161  1
  Nb  Nb16  1  0.160057  0.677601  0.372931  1
  Nb  Nb17  1  0.660920  0.824749  0.125308  1
  Nb  Nb18  1  0.838134  0.324825  0.874778  1
  Nb  Nb19  1  0.340655  0.171392  0.626656  1
  Si  Si20  1  0.797470  0.626902  0.750167  1
  Si  Si21  1  0.296460  0.871987  0.750542  1
  Si  Si22  1  0.202999  0.372826  0.249741  1
  Si  Si23  1  0.703141  0.127185  0.249574  1
  Si  Si24  1  0.543011  0.377048  0.750335  1
  Si  Si25  1  0.043029  0.123220  0.750101  1
  Si  Si26  1  0.456645  0.622898  0.249859  1
  Si  Si27  1  0.955992  0.877595  0.249126  1
  Si  Si28  1  0.664666  0.037407  0.539947  1
  Si  Si29  1  0.163942  0.462985  0.959765  1
  Si  Si30  1  0.335897  0.963475  0.040440  1
  Si  Si31  1  0.832254  0.537485  0.458796  1
  Si  Si32  1  0.335210  0.962855  0.459648  1
  Si  Si33  1  0.835903  0.536786  0.040645  1
  Si  Si34  1  0.663902  0.037082  0.959763  1
  Ge  Ge35  1  0.169874  0.463245  0.540059  1
