# generated using pymatgen
data_NaMoOF5
_symmetry_space_group_name_H-M   'P 1'
_cell_length_a   5.86091775
_cell_length_b   5.82047459
_cell_length_c   5.82047500
_cell_angle_alpha   60.46023506
_cell_angle_beta   59.76987996
_cell_angle_gamma   59.76986936
_symmetry_Int_Tables_number   1
_chemical_formula_structural   NaMoOF5
_chemical_formula_sum   'Na1 Mo1 O1 F5'
_cell_volume   140.38644334
_cell_formula_units_Z   1
loop_
 _symmetry_equiv_pos_site_id
 _symmetry_equiv_pos_as_xyz
  1  'x, y, z'
loop_
 _atom_site_type_symbol
 _atom_site_label
 _atom_site_symmetry_multiplicity
 _atom_site_fract_x
 _atom_site_fract_y
 _atom_site_fract_z
 _atom_site_occupancy
  Na  Na0  1  0.508235  0.491765  0.491765  1
  Mo  Mo1  1  0.015678  0.984322  0.984322  1
  O  O2  1  0.225430  0.774570  0.774570  1
  F  F3  1  0.765087  0.776071  0.234913  1
  F  F4  1  0.223929  0.776071  0.234913  1
  F  F5  1  0.772627  0.227373  0.227373  1
  F  F6  1  0.223929  0.234913  0.776071  1
  F  F7  1  0.765087  0.234913  0.776071  1
