# generated using pymatgen
data_Pr16Er4Sn9Pb7
_symmetry_space_group_name_H-M   'P 1'
_cell_length_a   8.34404312
_cell_length_b   8.43765866
_cell_length_c   16.14669345
_cell_angle_alpha   89.96707070
_cell_angle_beta   89.97053418
_cell_angle_gamma   89.99432750
_symmetry_Int_Tables_number   1
_chemical_formula_structural   Pr16Er4Sn9Pb7
_chemical_formula_sum   'Pr16 Er4 Sn9 Pb7'
_cell_volume   1136.79449341
_cell_formula_units_Z   1
loop_
 _symmetry_equiv_pos_site_id
 _symmetry_equiv_pos_as_xyz
  1  'x, y, z'
loop_
 _atom_site_type_symbol
 _atom_site_label
 _atom_site_symmetry_multiplicity
 _atom_site_fract_x
 _atom_site_fract_y
 _atom_site_fract_z
 _atom_site_occupancy
  Pr  Pr0  1  0.377803  0.839579  0.880744  1
  Pr  Pr1  1  0.878914  0.661872  0.621030  1
  Pr  Pr2  1  0.620155  0.162282  0.379401  1
  Pr  Pr3  1  0.122321  0.335664  0.120116  1
  Pr  Pr4  1  0.619597  0.162049  0.119951  1
  Pr  Pr5  1  0.120682  0.337640  0.379241  1
  Pr  Pr6  1  0.378977  0.837841  0.620698  1
  Pr  Pr7  1  0.878119  0.661542  0.879058  1
  Pr  Pr8  1  0.530874  0.319882  0.897267  1
  Pr  Pr9  1  0.032076  0.179142  0.603446  1
  Pr  Pr10  1  0.467681  0.679496  0.396477  1
  Pr  Pr11  1  0.970663  0.821943  0.102261  1
  Pr  Pr12  1  0.468283  0.681560  0.102389  1
  Pr  Pr13  1  0.968129  0.820785  0.396564  1
  Pr  Pr14  1  0.532357  0.321093  0.603600  1
  Pr  Pr15  1  0.033380  0.177836  0.898026  1
  Er  Er16  1  0.212649  0.502010  0.750170  1
  Er  Er17  1  0.712312  0.997870  0.750329  1
  Er  Er18  1  0.787691  0.497958  0.249719  1
  Er  Er19  1  0.287117  0.002236  0.247957  1
  Sn  Sn20  1  0.281994  0.028488  0.046077  1
  Sn  Sn21  1  0.577020  0.618682  0.750396  1
  Sn  Sn22  1  0.077623  0.881642  0.750219  1
  Sn  Sn23  1  0.422319  0.382240  0.249895  1
  Sn  Sn24  1  0.921424  0.118670  0.249980  1
  Sn  Sn25  1  0.337396  0.145339  0.750113  1
  Sn  Sn26  1  0.837636  0.353849  0.750631  1
  Sn  Sn27  1  0.663443  0.855025  0.249584  1
  Sn  Sn28  1  0.162668  0.644803  0.249507  1
  Pb  Pb29  1  0.780383  0.471269  0.455312  1
  Pb  Pb30  1  0.719382  0.970761  0.544627  1
  Pb  Pb31  1  0.218361  0.529932  0.955422  1
  Pb  Pb32  1  0.719427  0.970081  0.955415  1
  Pb  Pb33  1  0.219330  0.529248  0.544609  1
  Pb  Pb34  1  0.280469  0.028825  0.455104  1
  Pb  Pb35  1  0.781342  0.470866  0.044666  1
