# generated using pymatgen
data_Th4Si(PdRh)6
_symmetry_space_group_name_H-M   'P 1'
_cell_length_a   7.36618423
_cell_length_b   7.36618386
_cell_length_c   7.36618500
_cell_angle_alpha   109.47122376
_cell_angle_beta   109.47122276
_cell_angle_gamma   109.47121562
_symmetry_Int_Tables_number   1
_chemical_formula_structural   Th4Si(PdRh)6
_chemical_formula_sum   'Th4 Si1 Pd6 Rh6'
_cell_volume   307.68467165
_cell_formula_units_Z   1
loop_
 _symmetry_equiv_pos_site_id
 _symmetry_equiv_pos_as_xyz
  1  'x, y, z'
loop_
 _atom_site_type_symbol
 _atom_site_label
 _atom_site_symmetry_multiplicity
 _atom_site_fract_x
 _atom_site_fract_y
 _atom_site_fract_z
 _atom_site_occupancy
  Th  Th0  1  0.000000  0.000000  0.500000  1
  Th  Th1  1  0.000000  0.500000  0.000000  1
  Th  Th2  1  0.500000  0.000000  0.000000  1
  Th  Th3  1  0.500000  0.500000  0.500000  1
  Si  Si4  1  0.000000  0.000000  0.000000  1
  Pd  Pd5  1  0.750000  0.250000  0.500000  1
  Pd  Pd6  1  0.750000  0.500000  0.250000  1
  Pd  Pd7  1  0.500000  0.250000  0.750000  1
  Pd  Pd8  1  0.250000  0.500000  0.750000  1
  Pd  Pd9  1  0.250000  0.750000  0.500000  1
  Pd  Pd10  1  0.500000  0.750000  0.250000  1
  Rh  Rh11  1  0.728025  0.728025  0.000000  1
  Rh  Rh12  1  0.271975  0.000000  0.271975  1
  Rh  Rh13  1  0.000000  0.271975  0.271975  1
  Rh  Rh14  1  0.271975  0.271975  0.000000  1
  Rh  Rh15  1  0.728025  0.000000  0.728025  1
  Rh  Rh16  1  0.000000  0.728025  0.728025  1
