# generated using pymatgen
data_Tb2Th2MgZn3Rh4
_symmetry_space_group_name_H-M   'P 1'
_cell_length_a   3.98428200
_cell_length_b   7.18273582
_cell_length_c   8.51035139
_cell_angle_alpha   91.76888704
_cell_angle_beta   90.00000000
_cell_angle_gamma   90.00000000
_symmetry_Int_Tables_number   1
_chemical_formula_structural   Tb2Th2MgZn3Rh4
_chemical_formula_sum   'Tb2 Th2 Mg1 Zn3 Rh4'
_cell_volume   243.43356077
_cell_formula_units_Z   1
loop_
 _symmetry_equiv_pos_site_id
 _symmetry_equiv_pos_as_xyz
  1  'x, y, z'
loop_
 _atom_site_type_symbol
 _atom_site_label
 _atom_site_symmetry_multiplicity
 _atom_site_fract_x
 _atom_site_fract_y
 _atom_site_fract_z
 _atom_site_occupancy
  Tb  Tb0  1  0.250000  0.049530  0.322951  1
  Tb  Tb1  1  0.750000  0.946240  0.673068  1
  Th  Th2  1  0.250000  0.545814  0.192946  1
  Th  Th3  1  0.750000  0.462073  0.803373  1
  Mg  Mg4  1  0.250000  0.118197  0.940831  1
  Zn  Zn5  1  0.750000  0.874393  0.066305  1
  Zn  Zn6  1  0.250000  0.636837  0.557404  1
  Zn  Zn7  1  0.750000  0.362948  0.440501  1
  Rh  Rh8  1  0.750000  0.747693  0.367829  1
  Rh  Rh9  1  0.250000  0.253052  0.631803  1
  Rh  Rh10  1  0.750000  0.268471  0.126512  1
  Rh  Rh11  1  0.250000  0.734752  0.876477  1
