# generated using pymatgen
data_Tb2Y2Ga16Rh3
_symmetry_space_group_name_H-M   'P 1'
_cell_length_a   6.15275100
_cell_length_b   6.15275100
_cell_length_c   11.25823500
_cell_angle_alpha   90.00000000
_cell_angle_beta   90.00000000
_cell_angle_gamma   90.00000000
_symmetry_Int_Tables_number   1
_chemical_formula_structural   Tb2Y2Ga16Rh3
_chemical_formula_sum   'Tb2 Y2 Ga16 Rh3'
_cell_volume   426.19562676
_cell_formula_units_Z   1
loop_
 _symmetry_equiv_pos_site_id
 _symmetry_equiv_pos_as_xyz
  1  'x, y, z'
loop_
 _atom_site_type_symbol
 _atom_site_label
 _atom_site_symmetry_multiplicity
 _atom_site_fract_x
 _atom_site_fract_y
 _atom_site_fract_z
 _atom_site_occupancy
  Tb  Tb0  1  0.500000  0.000000  0.193794  1
  Tb  Tb1  1  0.000000  0.500000  0.193794  1
  Y  Y2  1  0.500000  0.000000  0.806021  1
  Y  Y3  1  0.000000  0.500000  0.806021  1
  Ga  Ga4  1  0.249278  0.249278  0.619118  1
  Ga  Ga5  1  0.750722  0.750722  0.619118  1
  Ga  Ga6  1  0.750722  0.249278  0.619118  1
  Ga  Ga7  1  0.249278  0.750722  0.619118  1
  Ga  Ga8  1  0.750590  0.750590  0.380908  1
  Ga  Ga9  1  0.249410  0.249410  0.380908  1
  Ga  Ga10  1  0.249410  0.750590  0.380908  1
  Ga  Ga11  1  0.750590  0.249410  0.380908  1
  Ga  Ga12  1  0.286884  0.286884  0.999933  1
  Ga  Ga13  1  0.713116  0.713116  0.999933  1
  Ga  Ga14  1  0.713116  0.286884  0.999933  1
  Ga  Ga15  1  0.286884  0.713116  0.999933  1
  Ga  Ga16  1  0.500000  0.500000  0.805614  1
  Ga  Ga17  1  0.500000  0.500000  0.194494  1
  Ga  Ga18  1  0.000000  0.000000  0.776952  1
  Ga  Ga19  1  0.000000  0.000000  0.223262  1
  Rh  Rh20  1  0.500000  0.000000  0.500049  1
  Rh  Rh21  1  0.000000  0.500000  0.500049  1
  Rh  Rh22  1  0.000000  0.000000  0.000115  1
