# generated using pymatgen
data_Pr8CdInOs2
_symmetry_space_group_name_H-M   'P 1'
_cell_length_a   10.02088338
_cell_length_b   10.02088328
_cell_length_c   10.08043800
_cell_angle_alpha   59.80320961
_cell_angle_beta   59.80320997
_cell_angle_gamma   59.66556662
_symmetry_Int_Tables_number   1
_chemical_formula_structural   Pr8CdInOs2
_chemical_formula_sum   'Pr16 Cd2 In2 Os4'
_cell_volume   711.82792837
_cell_formula_units_Z   2
loop_
 _symmetry_equiv_pos_site_id
 _symmetry_equiv_pos_as_xyz
  1  'x, y, z'
loop_
 _atom_site_type_symbol
 _atom_site_label
 _atom_site_symmetry_multiplicity
 _atom_site_fract_x
 _atom_site_fract_y
 _atom_site_fract_z
 _atom_site_occupancy
  Pr  Pr0  1  0.346363  0.346363  0.346750  1
  Pr  Pr1  1  0.346363  0.346363  0.960523  1
  Pr  Pr2  1  0.347012  0.959689  0.346649  1
  Pr  Pr3  1  0.959689  0.347012  0.346649  1
  Pr  Pr4  1  0.807902  0.191829  0.191880  1
  Pr  Pr5  1  0.191829  0.807902  0.808389  1
  Pr  Pr6  1  0.191829  0.807902  0.191880  1
  Pr  Pr7  1  0.807902  0.191829  0.808389  1
  Pr  Pr8  1  0.190408  0.190408  0.809592  1
  Pr  Pr9  1  0.807066  0.807066  0.192934  1
  Pr  Pr10  1  0.942740  0.558728  0.558057  1
  Pr  Pr11  1  0.558728  0.942740  0.940475  1
  Pr  Pr12  1  0.558728  0.942740  0.558057  1
  Pr  Pr13  1  0.942740  0.558728  0.940475  1
  Pr  Pr14  1  0.559187  0.559187  0.940813  1
  Pr  Pr15  1  0.943348  0.943348  0.556652  1
  Cd  Cd16  1  0.577993  0.261563  0.580221  1
  Cd  Cd17  1  0.261563  0.577993  0.580221  1
  In  In18  1  0.579592  0.579592  0.580481  1
  In  In19  1  0.579592  0.579592  0.260333  1
  Os  Os20  1  0.138003  0.138003  0.138916  1
  Os  Os21  1  0.138003  0.138003  0.585078  1
  Os  Os22  1  0.138723  0.584695  0.138291  1
  Os  Os23  1  0.584695  0.138723  0.138291  1
