# generated using pymatgen
data_ErCuNi2PtAu
_symmetry_space_group_name_H-M   'P 1'
_cell_length_a   5.12873656
_cell_length_b   5.12873764
_cell_length_c   5.11245895
_cell_angle_alpha   58.48868259
_cell_angle_beta   58.48868168
_cell_angle_gamma   58.17844030
_symmetry_Int_Tables_number   1
_chemical_formula_structural   ErCuNi2PtAu
_chemical_formula_sum   'Er1 Cu1 Ni2 Pt1 Au1'
_cell_volume   91.57358298
_cell_formula_units_Z   1
loop_
 _symmetry_equiv_pos_site_id
 _symmetry_equiv_pos_as_xyz
  1  'x, y, z'
loop_
 _atom_site_type_symbol
 _atom_site_label
 _atom_site_symmetry_multiplicity
 _atom_site_fract_x
 _atom_site_fract_y
 _atom_site_fract_z
 _atom_site_occupancy
  Er  Er0  1  0.249356  0.249356  0.252480  1
  Cu  Cu1  1  0.623461  0.623461  0.121090  1
  Ni  Ni2  1  0.624234  0.120551  0.622422  1
  Ni  Ni3  1  0.120551  0.624234  0.622422  1
  Pt  Pt4  1  0.622489  0.622489  0.622480  1
  Au  Au5  1  0.009911  0.009911  0.009108  1
