# generated using pymatgen
data_La2Al16NiPt8
_symmetry_space_group_name_H-M   'P 1'
_cell_length_a   11.16548173
_cell_length_b   11.16548311
_cell_length_c   11.16548264
_cell_angle_alpha   158.48563920
_cell_angle_beta   114.91245991
_cell_angle_gamma   69.41731342
_symmetry_Int_Tables_number   1
_chemical_formula_structural   La2Al16NiPt8
_chemical_formula_sum   'La2 Al16 Ni1 Pt8'
_cell_volume   459.57160472
_cell_formula_units_Z   1
loop_
 _symmetry_equiv_pos_site_id
 _symmetry_equiv_pos_as_xyz
  1  'x, y, z'
loop_
 _atom_site_type_symbol
 _atom_site_label
 _atom_site_symmetry_multiplicity
 _atom_site_fract_x
 _atom_site_fract_y
 _atom_site_fract_z
 _atom_site_occupancy
  La  La0  1  0.227939  0.228100  0.999839  1
  La  La1  1  0.771738  0.771900  0.999839  1
  Al  Al2  1  0.274555  0.392332  0.882222  1
  Al  Al3  1  0.093803  0.921207  0.172596  1
  Al  Al4  1  0.511305  0.204672  0.306633  1
  Al  Al5  1  0.251389  0.078793  0.172596  1
  Al  Al6  1  0.914191  0.415081  0.499109  1
  Al  Al7  1  0.723364  0.602875  0.120490  1
  Al  Al8  1  0.896663  0.203126  0.693537  1
  Al  Al9  1  0.490412  0.796874  0.693537  1
  Al  Al10  1  0.386888  0.000000  0.386888  1
  Al  Al11  1  0.617887  0.000000  0.617887  1
  Al  Al12  1  0.489890  0.607668  0.882222  1
  Al  Al13  1  0.101960  0.795328  0.306633  1
  Al  Al14  1  0.900308  0.076678  0.823630  1
  Al  Al15  1  0.746951  0.923322  0.823630  1
  Al  Al16  1  0.517615  0.397125  0.120490  1
  Al  Al17  1  0.084028  0.584919  0.499109  1
  Ni  Ni18  1  0.748082  0.500000  0.248082  1
  Pt  Pt19  1  0.027403  0.339973  0.687430  1
  Pt  Pt20  1  0.624684  0.124119  0.500566  1
  Pt  Pt21  1  0.252329  0.500000  0.752329  1
  Pt  Pt22  1  0.376447  0.875881  0.500566  1
  Pt  Pt23  1  0.998890  0.000000  0.998890  1
  Pt  Pt24  1  0.654414  0.342504  0.311910  1
  Pt  Pt25  1  0.347457  0.660027  0.687430  1
  Pt  Pt26  1  0.969405  0.657496  0.311910  1
