# generated using pymatgen
data_Ho3Fe2Co7P6
_symmetry_space_group_name_H-M   'P 1'
_cell_length_a   3.69165500
_cell_length_b   10.53532000
_cell_length_c   12.07838600
_cell_angle_alpha   90.00000000
_cell_angle_beta   90.00000000
_cell_angle_gamma   90.00000000
_symmetry_Int_Tables_number   1
_chemical_formula_structural   Ho3Fe2Co7P6
_chemical_formula_sum   'Ho6 Fe4 Co14 P12'
_cell_volume   469.76184947
_cell_formula_units_Z   2
loop_
 _symmetry_equiv_pos_site_id
 _symmetry_equiv_pos_as_xyz
  1  'x, y, z'
loop_
 _atom_site_type_symbol
 _atom_site_label
 _atom_site_symmetry_multiplicity
 _atom_site_fract_x
 _atom_site_fract_y
 _atom_site_fract_z
 _atom_site_occupancy
  Ho  Ho0  1  0.000000  0.500000  0.523001  1
  Ho  Ho1  1  0.500000  0.000000  0.476999  1
  Ho  Ho2  1  0.500000  0.818838  0.204309  1
  Ho  Ho3  1  0.500000  0.181162  0.204309  1
  Ho  Ho4  1  0.000000  0.681162  0.795691  1
  Ho  Ho5  1  0.000000  0.318838  0.795691  1
  Fe  Fe6  1  0.000000  0.500000  0.988229  1
  Fe  Fe7  1  0.500000  0.000000  0.011771  1
  Fe  Fe8  1  0.500000  0.500000  0.156086  1
  Fe  Fe9  1  0.000000  0.000000  0.843914  1
  Co  Co10  1  0.500000  0.296861  0.430531  1
  Co  Co11  1  0.500000  0.703139  0.430531  1
  Co  Co12  1  0.000000  0.203139  0.569469  1
  Co  Co13  1  0.000000  0.796861  0.569469  1
  Co  Co14  1  0.500000  0.878990  0.708871  1
  Co  Co15  1  0.500000  0.121010  0.708871  1
  Co  Co16  1  0.000000  0.621010  0.291129  1
  Co  Co17  1  0.000000  0.378990  0.291129  1
  Co  Co18  1  0.500000  0.331732  0.994348  1
  Co  Co19  1  0.500000  0.668268  0.994348  1
  Co  Co20  1  0.000000  0.168268  0.005652  1
  Co  Co21  1  0.000000  0.831732  0.005652  1
  Co  Co22  1  0.500000  0.500000  0.701067  1
  Co  Co23  1  0.000000  0.000000  0.298933  1
  P  P24  1  0.500000  0.310309  0.616699  1
  P  P25  1  0.500000  0.689691  0.616699  1
  P  P26  1  0.000000  0.189691  0.383301  1
  P  P27  1  0.000000  0.810309  0.383301  1
  P  P28  1  0.500000  0.500000  0.884012  1
  P  P29  1  0.000000  0.000000  0.115988  1
  P  P30  1  0.500000  0.847623  0.893122  1
  P  P31  1  0.500000  0.152377  0.893122  1
  P  P32  1  0.000000  0.652377  0.106878  1
  P  P33  1  0.000000  0.347623  0.106878  1
  P  P34  1  0.500000  0.500000  0.342574  1
  P  P35  1  0.000000  0.000000  0.657426  1
