# generated using pymatgen
data_Er4Al18(NiOs)3
_symmetry_space_group_name_H-M   'P 1'
_cell_length_a   7.44384367
_cell_length_b   7.44384379
_cell_length_c   9.37056347
_cell_angle_alpha   90.06223386
_cell_angle_beta   90.06222282
_cell_angle_gamma   118.57856122
_symmetry_Int_Tables_number   1
_chemical_formula_structural   Er4Al18(NiOs)3
_chemical_formula_sum   'Er4 Al18 Ni3 Os3'
_cell_volume   455.96748420
_cell_formula_units_Z   1
loop_
 _symmetry_equiv_pos_site_id
 _symmetry_equiv_pos_as_xyz
  1  'x, y, z'
loop_
 _atom_site_type_symbol
 _atom_site_label
 _atom_site_symmetry_multiplicity
 _atom_site_fract_x
 _atom_site_fract_y
 _atom_site_fract_z
 _atom_site_occupancy
  Er  Er0  1  0.990945  0.679043  0.248642  1
  Er  Er1  1  0.003115  0.316856  0.751317  1
  Er  Er2  1  0.683144  0.996885  0.248683  1
  Er  Er3  1  0.320957  0.009055  0.751358  1
  Al  Al4  1  0.135542  0.135846  0.251035  1
  Al  Al5  1  0.864154  0.864458  0.748965  1
  Al  Al6  1  0.005562  0.340308  0.075326  1
  Al  Al7  1  0.002608  0.660600  0.925328  1
  Al  Al8  1  0.001864  0.661796  0.574652  1
  Al  Al9  1  0.338204  0.998136  0.425348  1
  Al  Al10  1  0.999228  0.341121  0.426460  1
  Al  Al11  1  0.658879  0.000772  0.573540  1
  Al  Al12  1  0.659692  0.994438  0.924674  1
  Al  Al13  1  0.339400  0.997392  0.074672  1
  Al  Al14  1  0.333177  0.334923  0.546983  1
  Al  Al15  1  0.665077  0.666823  0.453017  1
  Al  Al16  1  0.666894  0.665542  0.044947  1
  Al  Al17  1  0.334458  0.333106  0.955053  1
  Al  Al18  1  0.342702  0.561301  0.250589  1
  Al  Al19  1  0.657405  0.445030  0.746804  1
  Al  Al20  1  0.554970  0.342595  0.253196  1
  Al  Al21  1  0.438699  0.657298  0.749411  1
  Ni  Ni22  1  0.330354  0.669646  0.000000  1
  Ni  Ni23  1  0.328865  0.671135  0.500000  1
  Ni  Ni24  1  0.670485  0.329515  0.500000  1
  Os  Os25  1  0.672952  0.327048  0.000000  1
  Os  Os26  1  0.001243  0.998757  0.000000  1
  Os  Os27  1  0.999425  0.000575  0.500000  1
