# generated using pymatgen
data_Co8Cu3NiSe16
_symmetry_space_group_name_H-M   'P 1'
_cell_length_a   12.22004448
_cell_length_b   12.22004481
_cell_length_c   12.22004442
_cell_angle_alpha   33.74509037
_cell_angle_beta   33.74508841
_cell_angle_gamma   33.74509008
_symmetry_Int_Tables_number   1
_chemical_formula_structural   Co8Cu3NiSe16
_chemical_formula_sum   'Co8 Cu3 Ni1 Se16'
_cell_volume   501.72099393
_cell_formula_units_Z   1
loop_
 _symmetry_equiv_pos_site_id
 _symmetry_equiv_pos_as_xyz
  1  'x, y, z'
loop_
 _atom_site_type_symbol
 _atom_site_label
 _atom_site_symmetry_multiplicity
 _atom_site_fract_x
 _atom_site_fract_y
 _atom_site_fract_z
 _atom_site_occupancy
  Co  Co0  1  0.250209  0.250209  0.250209  1
  Co  Co1  1  0.749871  0.749871  0.749871  1
  Co  Co2  1  0.000293  0.000293  0.500906  1
  Co  Co3  1  0.499805  0.499805  0.998816  1
  Co  Co4  1  0.000293  0.500906  0.000293  1
  Co  Co5  1  0.499805  0.998816  0.499805  1
  Co  Co6  1  0.998816  0.499805  0.499805  1
  Co  Co7  1  0.500906  0.000293  0.000293  1
  Cu  Cu8  1  0.437492  0.437492  0.437492  1
  Cu  Cu9  1  0.562350  0.562350  0.562350  1
  Cu  Cu10  1  0.062327  0.062327  0.062327  1
  Ni  Ni11  1  0.937691  0.937691  0.937691  1
  Se  Se12  1  0.870528  0.870528  0.870528  1
  Se  Se13  1  0.367987  0.367987  0.367987  1
  Se  Se14  1  0.139193  0.139193  0.601067  1
  Se  Se15  1  0.644509  0.644509  0.092982  1
  Se  Se16  1  0.139193  0.601067  0.139193  1
  Se  Se17  1  0.644509  0.092982  0.644509  1
  Se  Se18  1  0.601067  0.139193  0.139193  1
  Se  Se19  1  0.092982  0.644509  0.644509  1
  Se  Se20  1  0.631296  0.631296  0.631296  1
  Se  Se21  1  0.131557  0.131557  0.131557  1
  Se  Se22  1  0.356180  0.356180  0.906767  1
  Se  Se23  1  0.855736  0.855736  0.406723  1
  Se  Se24  1  0.356180  0.906767  0.356180  1
  Se  Se25  1  0.855736  0.406723  0.855736  1
  Se  Se26  1  0.906767  0.356180  0.356180  1
  Se  Se27  1  0.406723  0.855736  0.855736  1
