# generated using pymatgen
data_Hf6Zr4AlSiSn6
_symmetry_space_group_name_H-M   'P 1'
_cell_length_a   8.67526544
_cell_length_b   8.68003939
_cell_length_c   5.85804401
_cell_angle_alpha   89.99311461
_cell_angle_beta   90.00344588
_cell_angle_gamma   120.01819681
_symmetry_Int_Tables_number   1
_chemical_formula_structural   Hf6Zr4AlSiSn6
_chemical_formula_sum   'Hf6 Zr4 Al1 Si1 Sn6'
_cell_volume   381.95136277
_cell_formula_units_Z   1
loop_
 _symmetry_equiv_pos_site_id
 _symmetry_equiv_pos_as_xyz
  1  'x, y, z'
loop_
 _atom_site_type_symbol
 _atom_site_label
 _atom_site_symmetry_multiplicity
 _atom_site_fract_x
 _atom_site_fract_y
 _atom_site_fract_z
 _atom_site_occupancy
  Hf  Hf0  1  0.666700  0.333440  0.999041  1
  Hf  Hf1  1  0.333300  0.666740  0.999041  1
  Hf  Hf2  1  0.333577  0.667156  0.500943  1
  Hf  Hf3  1  0.666423  0.333578  0.500943  1
  Hf  Hf4  1  0.732025  0.732942  0.739850  1
  Hf  Hf5  1  0.267975  0.000917  0.739850  1
  Zr  Zr6  1  0.000000  0.266864  0.741713  1
  Zr  Zr7  1  0.263452  0.262775  0.259017  1
  Zr  Zr8  1  0.736548  0.999323  0.259017  1
  Zr  Zr9  1  0.000000  0.736763  0.259452  1
  Al  Al10  1  0.000000  0.999347  0.995811  1
  Si  Si11  1  0.000000  0.999318  0.505544  1
  Sn  Sn12  1  0.390285  0.389918  0.754414  1
  Sn  Sn13  1  0.609715  0.999633  0.754414  1
  Sn  Sn14  1  0.000000  0.611736  0.754439  1
  Sn  Sn15  1  0.608554  0.608529  0.245416  1
  Sn  Sn16  1  0.391446  0.999975  0.245416  1
  Sn  Sn17  1  0.000000  0.391045  0.245680  1
