# generated using pymatgen
data_Sc6CdPd7
_symmetry_space_group_name_H-M   'P 1'
_cell_length_a   7.39252880
_cell_length_b   7.39252755
_cell_length_c   7.39252800
_cell_angle_alpha   113.60077597
_cell_angle_beta   113.60077177
_cell_angle_gamma   113.60075128
_symmetry_Int_Tables_number   1
_chemical_formula_structural   Sc6CdPd7
_chemical_formula_sum   'Sc6 Cd1 Pd7'
_cell_volume   252.55042277
_cell_formula_units_Z   1
loop_
 _symmetry_equiv_pos_site_id
 _symmetry_equiv_pos_as_xyz
  1  'x, y, z'
loop_
 _atom_site_type_symbol
 _atom_site_label
 _atom_site_symmetry_multiplicity
 _atom_site_fract_x
 _atom_site_fract_y
 _atom_site_fract_z
 _atom_site_occupancy
  Sc  Sc0  1  0.954677  0.233839  0.371406  1
  Sc  Sc1  1  0.233839  0.371406  0.954677  1
  Sc  Sc2  1  0.371406  0.954677  0.233839  1
  Sc  Sc3  1  0.045323  0.766161  0.628594  1
  Sc  Sc4  1  0.766161  0.628594  0.045323  1
  Sc  Sc5  1  0.628594  0.045323  0.766161  1
  Cd  Cd6  1  0.500000  0.500000  0.500000  1
  Pd  Pd7  1  0.000000  0.000000  0.000000  1
  Pd  Pd8  1  0.108266  0.559538  0.259635  1
  Pd  Pd9  1  0.559538  0.259635  0.108266  1
  Pd  Pd10  1  0.259635  0.108266  0.559538  1
  Pd  Pd11  1  0.891734  0.440462  0.740365  1
  Pd  Pd12  1  0.440462  0.740365  0.891734  1
  Pd  Pd13  1  0.740365  0.891734  0.440462  1
