# generated using pymatgen
data_LiZr(Ni2As)4
_symmetry_space_group_name_H-M   'P 1'
_cell_length_a   7.09377268
_cell_length_b   7.09377268
_cell_length_c   3.74774900
_cell_angle_alpha   90.00000000
_cell_angle_beta   90.00000000
_cell_angle_gamma   89.80111401
_symmetry_Int_Tables_number   1
_chemical_formula_structural   LiZr(Ni2As)4
_chemical_formula_sum   'Li1 Zr1 Ni8 As4'
_cell_volume   188.59163071
_cell_formula_units_Z   1
loop_
 _symmetry_equiv_pos_site_id
 _symmetry_equiv_pos_as_xyz
  1  'x, y, z'
loop_
 _atom_site_type_symbol
 _atom_site_label
 _atom_site_symmetry_multiplicity
 _atom_site_fract_x
 _atom_site_fract_y
 _atom_site_fract_z
 _atom_site_occupancy
  Li  Li0  1  0.500000  0.500000  0.000000  1
  Zr  Zr1  1  0.000000  0.000000  0.500000  1
  Ni  Ni2  1  0.589737  0.154232  0.500000  1
  Ni  Ni3  1  0.410263  0.845768  0.500000  1
  Ni  Ni4  1  0.090843  0.344395  0.000000  1
  Ni  Ni5  1  0.909157  0.655605  0.000000  1
  Ni  Ni6  1  0.154232  0.589737  0.500000  1
  Ni  Ni7  1  0.845768  0.410263  0.500000  1
  Ni  Ni8  1  0.344395  0.090843  0.000000  1
  Ni  Ni9  1  0.655605  0.909157  0.000000  1
  As  As10  1  0.714918  0.714918  0.500000  1
  As  As11  1  0.285082  0.285082  0.500000  1
  As  As12  1  0.218542  0.781458  0.000000  1
  As  As13  1  0.781458  0.218542  0.000000  1
