# generated using pymatgen
data_La2DyUO7
_symmetry_space_group_name_H-M   'P 1'
_cell_length_a   7.86996034
_cell_length_b   7.86996135
_cell_length_c   7.81299500
_cell_angle_alpha   60.23915445
_cell_angle_beta   60.23915023
_cell_angle_gamma   60.94030160
_symmetry_Int_Tables_number   1
_chemical_formula_structural   La2DyUO7
_chemical_formula_sum   'La4 Dy2 U2 O14'
_cell_volume   345.79773364
_cell_formula_units_Z   2
loop_
 _symmetry_equiv_pos_site_id
 _symmetry_equiv_pos_as_xyz
  1  'x, y, z'
loop_
 _atom_site_type_symbol
 _atom_site_label
 _atom_site_symmetry_multiplicity
 _atom_site_fract_x
 _atom_site_fract_y
 _atom_site_fract_z
 _atom_site_occupancy
  La  La0  1  0.625000  0.125000  0.125000  1
  La  La1  1  0.125000  0.125000  0.125000  1
  La  La2  1  0.125000  0.625000  0.125000  1
  La  La3  1  0.125000  0.125000  0.625000  1
  Dy  Dy4  1  0.625000  0.625000  0.125000  1
  Dy  Dy5  1  0.625000  0.625000  0.625000  1
  U  U6  1  0.625000  0.125000  0.625000  1
  U  U7  1  0.125000  0.625000  0.625000  1
  O  O8  1  0.723521  0.276270  0.294904  1
  O  O9  1  0.729652  0.729652  0.270348  1
  O  O10  1  0.276270  0.723521  0.294904  1
  O  O11  1  0.004338  0.004338  0.995662  1
  O  O12  1  0.723521  0.276270  0.705305  1
  O  O13  1  0.973730  0.526479  0.544695  1
  O  O14  1  0.276270  0.723521  0.705305  1
  O  O15  1  0.526479  0.973730  0.544695  1
  O  O16  1  0.245662  0.245662  0.254338  1
  O  O17  1  0.973730  0.526479  0.955096  1
  O  O18  1  0.520348  0.520348  0.979652  1
  O  O19  1  0.954885  0.954885  0.545115  1
  O  O20  1  0.526479  0.973730  0.955096  1
  O  O21  1  0.295115  0.295115  0.704885  1
