# generated using pymatgen
data_Er3Mg2Hg3C
_symmetry_space_group_name_H-M   'P 1'
_cell_length_a   8.65829900
_cell_length_b   8.65829935
_cell_length_c   5.87311200
_cell_angle_alpha   90.00000000
_cell_angle_beta   90.00000000
_cell_angle_gamma   120.00000249
_symmetry_Int_Tables_number   1
_chemical_formula_structural   Er3Mg2Hg3C
_chemical_formula_sum   'Er6 Mg4 Hg6 C2'
_cell_volume   381.29760716
_cell_formula_units_Z   2
loop_
 _symmetry_equiv_pos_site_id
 _symmetry_equiv_pos_as_xyz
  1  'x, y, z'
loop_
 _atom_site_type_symbol
 _atom_site_label
 _atom_site_symmetry_multiplicity
 _atom_site_fract_x
 _atom_site_fract_y
 _atom_site_fract_z
 _atom_site_occupancy
  Er  Er0  1  0.780326  0.780326  0.750000  1
  Er  Er1  1  0.219674  0.000000  0.750000  1
  Er  Er2  1  0.000000  0.219674  0.750000  1
  Er  Er3  1  0.219674  0.219674  0.250000  1
  Er  Er4  1  0.780326  0.000000  0.250000  1
  Er  Er5  1  0.000000  0.780326  0.250000  1
  Mg  Mg6  1  0.666667  0.333333  0.000000  1
  Mg  Mg7  1  0.333333  0.666667  0.000000  1
  Mg  Mg8  1  0.333333  0.666667  0.500000  1
  Mg  Mg9  1  0.666667  0.333333  0.500000  1
  Hg  Hg10  1  0.407209  0.407209  0.750000  1
  Hg  Hg11  1  0.592791  0.000000  0.750000  1
  Hg  Hg12  1  0.000000  0.592791  0.750000  1
  Hg  Hg13  1  0.592791  0.592791  0.250000  1
  Hg  Hg14  1  0.407209  0.000000  0.250000  1
  Hg  Hg15  1  0.000000  0.407209  0.250000  1
  C  C16  1  0.000000  0.000000  0.000000  1
  C  C17  1  0.000000  0.000000  0.500000  1
