# generated using pymatgen
data_Dy15Y5(Bi2Pt)4
_symmetry_space_group_name_H-M   'P 1'
_cell_length_a   8.08031358
_cell_length_b   9.03548900
_cell_length_c   12.45855289
_cell_angle_alpha   90.00000000
_cell_angle_beta   90.04326306
_cell_angle_gamma   90.00000000
_symmetry_Int_Tables_number   1
_chemical_formula_structural   Dy15Y5(Bi2Pt)4
_chemical_formula_sum   'Dy15 Y5 Bi8 Pt4'
_cell_volume   909.59350966
_cell_formula_units_Z   1
loop_
 _symmetry_equiv_pos_site_id
 _symmetry_equiv_pos_as_xyz
  1  'x, y, z'
loop_
 _atom_site_type_symbol
 _atom_site_label
 _atom_site_symmetry_multiplicity
 _atom_site_fract_x
 _atom_site_fract_y
 _atom_site_fract_z
 _atom_site_occupancy
  Dy  Dy0  1  0.628708  0.250000  0.302732  1
  Dy  Dy1  1  0.871329  0.250000  0.802742  1
  Dy  Dy2  1  0.128649  0.750000  0.197267  1
  Dy  Dy3  1  0.949827  0.750000  0.499973  1
  Dy  Dy4  1  0.050122  0.250000  0.499937  1
  Dy  Dy5  1  0.449808  0.250000  0.000020  1
  Dy  Dy6  1  0.550098  0.750000  0.000012  1
  Dy  Dy7  1  0.679288  0.045669  0.566754  1
  Dy  Dy8  1  0.320778  0.954280  0.433215  1
  Dy  Dy9  1  0.179253  0.954294  0.933262  1
  Dy  Dy10  1  0.320778  0.545720  0.433215  1
  Dy  Dy11  1  0.820707  0.045750  0.066770  1
  Dy  Dy12  1  0.679288  0.454331  0.566754  1
  Dy  Dy13  1  0.820707  0.454250  0.066770  1
  Dy  Dy14  1  0.179253  0.545706  0.933262  1
  Y  Y15  1  0.838507  0.750000  0.789946  1
  Y  Y16  1  0.161629  0.250000  0.210078  1
  Y  Y17  1  0.338421  0.250000  0.710030  1
  Y  Y18  1  0.661641  0.750000  0.289900  1
  Y  Y19  1  0.370831  0.750000  0.697751  1
  Bi  Bi20  1  0.568881  0.491098  0.827397  1
  Bi  Bi21  1  0.431166  0.508836  0.172613  1
  Bi  Bi22  1  0.068771  0.508784  0.672656  1
  Bi  Bi23  1  0.431166  0.991164  0.172613  1
  Bi  Bi24  1  0.931169  0.491146  0.327364  1
  Bi  Bi25  1  0.568881  0.008902  0.827397  1
  Bi  Bi26  1  0.931169  0.008854  0.327364  1
  Bi  Bi27  1  0.068771  0.991216  0.672656  1
  Pt  Pt28  1  0.575156  0.750000  0.511535  1
  Pt  Pt29  1  0.425255  0.250000  0.487999  1
  Pt  Pt30  1  0.074738  0.250000  0.988009  1
  Pt  Pt31  1  0.925256  0.750000  0.012003  1
