# generated using pymatgen
data_La3Si2Ni3
_symmetry_space_group_name_H-M   'P 1'
_cell_length_a   6.24036600
_cell_length_b   7.52148800
_cell_length_c   13.85937300
_cell_angle_alpha   90.00000000
_cell_angle_beta   90.00000000
_cell_angle_gamma   90.00000000
_symmetry_Int_Tables_number   1
_chemical_formula_structural   La3Si2Ni3
_chemical_formula_sum   'La12 Si8 Ni12'
_cell_volume   650.51514507
_cell_formula_units_Z   4
loop_
 _symmetry_equiv_pos_site_id
 _symmetry_equiv_pos_as_xyz
  1  'x, y, z'
loop_
 _atom_site_type_symbol
 _atom_site_label
 _atom_site_symmetry_multiplicity
 _atom_site_fract_x
 _atom_site_fract_y
 _atom_site_fract_z
 _atom_site_occupancy
  La  La0  1  0.136067  0.525527  0.893608  1
  La  La1  1  0.363933  0.025527  0.893608  1
  La  La2  1  0.615901  0.388301  0.750000  1
  La  La3  1  0.384099  0.611699  0.250000  1
  La  La4  1  0.636067  0.974473  0.393608  1
  La  La5  1  0.863933  0.474473  0.106392  1
  La  La6  1  0.863933  0.474473  0.393608  1
  La  La7  1  0.363933  0.025527  0.606392  1
  La  La8  1  0.884099  0.888301  0.750000  1
  La  La9  1  0.136067  0.525527  0.606392  1
  La  La10  1  0.636067  0.974473  0.106392  1
  La  La11  1  0.115901  0.111699  0.250000  1
  Si  Si12  1  0.372491  0.321280  0.085041  1
  Si  Si13  1  0.627509  0.678720  0.914959  1
  Si  Si14  1  0.872491  0.178720  0.914959  1
  Si  Si15  1  0.372491  0.321280  0.414959  1
  Si  Si16  1  0.872491  0.178720  0.585041  1
  Si  Si17  1  0.627509  0.678720  0.585041  1
  Si  Si18  1  0.127509  0.821280  0.414959  1
  Si  Si19  1  0.127509  0.821280  0.085041  1
  Ni  Ni20  1  0.609459  0.379637  0.957228  1
  Ni  Ni21  1  0.390541  0.620363  0.042772  1
  Ni  Ni22  1  0.543422  0.272958  0.250000  1
  Ni  Ni23  1  0.390541  0.620363  0.457228  1
  Ni  Ni24  1  0.043422  0.227042  0.750000  1
  Ni  Ni25  1  0.109459  0.120363  0.457228  1
  Ni  Ni26  1  0.456578  0.727042  0.750000  1
  Ni  Ni27  1  0.956578  0.772958  0.250000  1
  Ni  Ni28  1  0.109459  0.120363  0.042772  1
  Ni  Ni29  1  0.609459  0.379637  0.542772  1
  Ni  Ni30  1  0.890541  0.879637  0.542772  1
  Ni  Ni31  1  0.890541  0.879637  0.957228  1
