# generated using pymatgen
data_Yb3Cr3(PO4)4
_symmetry_space_group_name_H-M   'P 1'
_cell_length_a   8.95693189
_cell_length_b   8.96373793
_cell_length_c   9.82471700
_cell_angle_alpha   104.81360759
_cell_angle_beta   106.09198094
_cell_angle_gamma   110.35749219
_symmetry_Int_Tables_number   1
_chemical_formula_structural   Yb3Cr3(PO4)4
_chemical_formula_sum   'Yb6 Cr6 P8 O32'
_cell_volume   654.02954798
_cell_formula_units_Z   2
loop_
 _symmetry_equiv_pos_site_id
 _symmetry_equiv_pos_as_xyz
  1  'x, y, z'
loop_
 _atom_site_type_symbol
 _atom_site_label
 _atom_site_symmetry_multiplicity
 _atom_site_fract_x
 _atom_site_fract_y
 _atom_site_fract_z
 _atom_site_occupancy
  Yb  Yb0  1  0.475261  0.004384  0.195303  1
  Yb  Yb1  1  0.679382  0.648929  0.211881  1
  Yb  Yb2  1  0.274711  0.286224  0.293284  1
  Yb  Yb3  1  0.725290  0.713776  0.706714  1
  Yb  Yb4  1  0.320619  0.351074  0.788121  1
  Yb  Yb5  1  0.524742  0.995613  0.804698  1
  Cr  Cr6  1  0.051926  0.808069  0.122169  1
  Cr  Cr7  1  0.052065  0.514895  0.270922  1
  Cr  Cr8  1  0.944462  0.190315  0.418584  1
  Cr  Cr9  1  0.055543  0.809695  0.581416  1
  Cr  Cr10  1  0.947924  0.485095  0.729075  1
  Cr  Cr11  1  0.948074  0.191926  0.877832  1
  P  P12  1  0.246094  0.561567  0.056805  1
  P  P13  1  0.812033  0.991083  0.075497  1
  P  P14  1  0.729637  0.418638  0.388012  1
  P  P15  1  0.273294  0.067014  0.487304  1
  P  P16  1  0.726710  0.932996  0.512699  1
  P  P17  1  0.270362  0.581362  0.611987  1
  P  P18  1  0.187971  0.008916  0.924503  1
  P  P19  1  0.753900  0.438424  0.943191  1
  O  O20  1  0.412339  0.577611  0.037332  1
  O  O21  1  0.630834  0.971769  0.052618  1
  O  O22  1  0.176699  0.026245  0.084334  1
  O  O23  1  0.242244  0.737974  0.104743  1
  O  O24  1  0.908701  0.563269  0.105055  1
  O  O25  1  0.838666  0.844470  0.120154  1
  O  O26  1  0.211758  0.470911  0.167523  1
  O  O27  1  0.960212  0.169126  0.202857  1
  O  O28  1  0.554105  0.404780  0.290341  1
  O  O29  1  0.620915  0.883843  0.340692  1
  O  O30  1  0.734056  0.242980  0.349937  1
  O  O31  1  0.876926  0.545207  0.358905  1
  O  O32  1  0.377857  0.102532  0.388405  1
  O  O33  1  0.129456  0.874799  0.409970  1
  O  O34  1  0.230940  0.500543  0.439011  1
  O  O35  1  0.184062  0.191337  0.488726  1
  O  O36  1  0.815946  0.808675  0.511274  1
  O  O37  1  0.769052  0.499454  0.560987  1
  O  O38  1  0.870547  0.125211  0.590031  1
  O  O39  1  0.622150  0.897477  0.611600  1
  O  O40  1  0.123069  0.454797  0.641094  1
  O  O41  1  0.265947  0.757021  0.650061  1
  O  O42  1  0.379083  0.116156  0.659310  1
  O  O43  1  0.445897  0.595228  0.709661  1
  O  O44  1  0.039791  0.830877  0.797145  1
  O  O45  1  0.788232  0.529080  0.832471  1
  O  O46  1  0.161339  0.155532  0.879850  1
  O  O47  1  0.091295  0.436724  0.894939  1
  O  O48  1  0.757751  0.262016  0.895254  1
  O  O49  1  0.823301  0.973749  0.915666  1
  O  O50  1  0.369170  0.028230  0.947383  1
  O  O51  1  0.587661  0.422383  0.962670  1
