# generated using pymatgen
data_Dy4Ho2InGa2
_symmetry_space_group_name_H-M   'P 1'
_cell_length_a   8.64779495
_cell_length_b   8.64779557
_cell_length_c   8.64779557
_cell_angle_alpha   112.54989123
_cell_angle_beta   112.13925327
_cell_angle_gamma   103.86608053
_symmetry_Int_Tables_number   1
_chemical_formula_structural   Dy4Ho2InGa2
_chemical_formula_sum   'Dy8 Ho4 In2 Ga4'
_cell_volume   494.31190186
_cell_formula_units_Z   2
loop_
 _symmetry_equiv_pos_site_id
 _symmetry_equiv_pos_as_xyz
  1  'x, y, z'
loop_
 _atom_site_type_symbol
 _atom_site_label
 _atom_site_symmetry_multiplicity
 _atom_site_fract_x
 _atom_site_fract_y
 _atom_site_fract_z
 _atom_site_occupancy
  Dy  Dy0  1  0.187279  0.281615  0.468892  1
  Dy  Dy1  1  0.812721  0.718385  0.531108  1
  Dy  Dy2  1  0.187279  0.718385  0.905664  1
  Dy  Dy3  1  0.812721  0.281615  0.094336  1
  Dy  Dy4  1  0.320485  0.616220  0.295734  1
  Dy  Dy5  1  0.679515  0.383780  0.704266  1
  Dy  Dy6  1  0.320485  0.024751  0.704266  1
  Dy  Dy7  1  0.679515  0.975249  0.295734  1
  Ho  Ho8  1  0.439806  0.236835  0.202972  1
  Ho  Ho9  1  0.560194  0.763165  0.797028  1
  Ho  Ho10  1  0.033863  0.236835  0.797028  1
  Ho  Ho11  1  0.966137  0.763165  0.202972  1
  In  In12  1  0.500000  0.500000  0.000000  1
  In  In13  1  0.000000  0.000000  0.000000  1
  Ga  Ga14  1  0.354240  0.000000  0.354240  1
  Ga  Ga15  1  0.645760  0.000000  0.645760  1
  Ga  Ga16  1  0.120690  0.620690  0.500000  1
  Ga  Ga17  1  0.879310  0.379310  0.500000  1
