# generated using pymatgen
data_Y2Ho6Co3Si12Rh
_symmetry_space_group_name_H-M   'P 1'
_cell_length_a   8.02553600
_cell_length_b   8.02553645
_cell_length_c   7.89126200
_cell_angle_alpha   90.00000000
_cell_angle_beta   90.00000000
_cell_angle_gamma   120.00000638
_symmetry_Int_Tables_number   1
_chemical_formula_structural   Y2Ho6Co3Si12Rh
_chemical_formula_sum   'Y2 Ho6 Co3 Si12 Rh1'
_cell_volume   440.17480995
_cell_formula_units_Z   1
loop_
 _symmetry_equiv_pos_site_id
 _symmetry_equiv_pos_as_xyz
  1  'x, y, z'
loop_
 _atom_site_type_symbol
 _atom_site_label
 _atom_site_symmetry_multiplicity
 _atom_site_fract_x
 _atom_site_fract_y
 _atom_site_fract_z
 _atom_site_occupancy
  Y  Y0  1  0.000000  0.000000  0.251080  1
  Y  Y1  1  0.000000  0.000000  0.748613  1
  Ho  Ho2  1  0.507910  0.492090  0.251522  1
  Ho  Ho3  1  0.507910  0.015820  0.251522  1
  Ho  Ho4  1  0.984180  0.492090  0.251522  1
  Ho  Ho5  1  0.494733  0.505267  0.749843  1
  Ho  Ho6  1  0.494733  0.989467  0.749843  1
  Ho  Ho7  1  0.010533  0.505267  0.749843  1
  Co  Co8  1  0.333333  0.666667  0.466749  1
  Co  Co9  1  0.666667  0.333333  0.532509  1
  Co  Co10  1  0.666667  0.333333  0.967237  1
  Si  Si11  1  0.172136  0.827864  0.499033  1
  Si  Si12  1  0.172136  0.344271  0.499033  1
  Si  Si13  1  0.655729  0.827864  0.499033  1
  Si  Si14  1  0.828559  0.171441  0.501394  1
  Si  Si15  1  0.828559  0.657120  0.501394  1
  Si  Si16  1  0.342880  0.171441  0.501394  1
  Si  Si17  1  0.827803  0.172197  0.998949  1
  Si  Si18  1  0.827803  0.655606  0.998949  1
  Si  Si19  1  0.344394  0.172197  0.998949  1
  Si  Si20  1  0.166508  0.833492  0.999391  1
  Si  Si21  1  0.166508  0.333015  0.999391  1
  Si  Si22  1  0.666985  0.833492  0.999391  1
  Rh  Rh23  1  0.333333  0.666667  0.033414  1
