# generated using pymatgen
data_Nd17Dy(TmSn8)2
_symmetry_space_group_name_H-M   'P 1'
_cell_length_a   8.24631800
_cell_length_b   8.40137949
_cell_length_c   15.94342000
_cell_angle_alpha   90.00000000
_cell_angle_beta   90.00000000
_cell_angle_gamma   89.96707647
_symmetry_Int_Tables_number   1
_chemical_formula_structural   Nd17Dy(TmSn8)2
_chemical_formula_sum   'Nd17 Dy1 Tm2 Sn16'
_cell_volume   1104.56708133
_cell_formula_units_Z   1
loop_
 _symmetry_equiv_pos_site_id
 _symmetry_equiv_pos_as_xyz
  1  'x, y, z'
loop_
 _atom_site_type_symbol
 _atom_site_label
 _atom_site_symmetry_multiplicity
 _atom_site_fract_x
 _atom_site_fract_y
 _atom_site_fract_z
 _atom_site_occupancy
  Nd  Nd0  1  0.017819  0.180922  0.401432  1
  Nd  Nd1  1  0.367408  0.837948  0.120789  1
  Nd  Nd2  1  0.133471  0.336930  0.620659  1
  Nd  Nd3  1  0.481355  0.681719  0.902003  1
  Nd  Nd4  1  0.866778  0.662349  0.121978  1
  Nd  Nd5  1  0.133471  0.336930  0.879341  1
  Nd  Nd6  1  0.481355  0.681719  0.597997  1
  Nd  Nd7  1  0.631903  0.162270  0.620143  1
  Nd  Nd8  1  0.803376  0.498066  0.750000  1
  Nd  Nd9  1  0.866778  0.662349  0.378022  1
  Nd  Nd10  1  0.017819  0.180922  0.098568  1
  Nd  Nd11  1  0.982367  0.819758  0.901889  1
  Nd  Nd12  1  0.631903  0.162270  0.879857  1
  Nd  Nd13  1  0.518352  0.318990  0.099105  1
  Nd  Nd14  1  0.367408  0.837948  0.379211  1
  Nd  Nd15  1  0.982367  0.819758  0.598111  1
  Nd  Nd16  1  0.518352  0.318990  0.400895  1
  Dy  Dy17  1  0.198690  0.502228  0.250000  1
  Tm  Tm18  1  0.699333  0.997889  0.250000  1
  Tm  Tm19  1  0.301184  0.002824  0.750000  1
  Sn  Sn20  1  0.792191  0.463560  0.541452  1
  Sn  Sn21  1  0.708079  0.964942  0.455439  1
  Sn  Sn22  1  0.674215  0.858024  0.750000  1
  Sn  Sn23  1  0.207536  0.534501  0.455664  1
  Sn  Sn24  1  0.292217  0.034740  0.955891  1
  Sn  Sn25  1  0.824739  0.351815  0.250000  1
  Sn  Sn26  1  0.792191  0.463560  0.958548  1
  Sn  Sn27  1  0.563578  0.617046  0.250000  1
  Sn  Sn28  1  0.207536  0.534501  0.044336  1
  Sn  Sn29  1  0.432199  0.382099  0.750000  1
  Sn  Sn30  1  0.178223  0.648695  0.750000  1
  Sn  Sn31  1  0.937366  0.114205  0.750000  1
  Sn  Sn32  1  0.292217  0.034740  0.544109  1
  Sn  Sn33  1  0.708079  0.964942  0.044561  1
  Sn  Sn34  1  0.324279  0.146449  0.250000  1
  Sn  Sn35  1  0.063871  0.883400  0.250000  1
