# generated using pymatgen
data_Ti8Al15Ir5Pt2
_symmetry_space_group_name_H-M   'P 1'
_cell_length_a   8.67710139
_cell_length_b   8.66028604
_cell_length_c   8.67710114
_cell_angle_alpha   120.01884811
_cell_angle_beta   119.96453812
_cell_angle_gamma   90.07008125
_symmetry_Int_Tables_number   1
_chemical_formula_structural   Ti8Al15Ir5Pt2
_chemical_formula_sum   'Ti8 Al15 Ir5 Pt2'
_cell_volume   460.90280002
_cell_formula_units_Z   1
loop_
 _symmetry_equiv_pos_site_id
 _symmetry_equiv_pos_as_xyz
  1  'x, y, z'
loop_
 _atom_site_type_symbol
 _atom_site_label
 _atom_site_symmetry_multiplicity
 _atom_site_fract_x
 _atom_site_fract_y
 _atom_site_fract_z
 _atom_site_occupancy
  Ti  Ti0  1  0.790538  0.290887  0.075371  1
  Ti  Ti1  1  0.215515  0.290887  0.500348  1
  Ti  Ti2  1  0.209493  0.708919  0.499426  1
  Ti  Ti3  1  0.212812  0.713730  0.922348  1
  Ti  Ti4  1  0.791383  0.713730  0.500917  1
  Ti  Ti5  1  0.784804  0.285987  0.501183  1
  Ti  Ti6  1  0.382443  0.127099  0.744656  1
  Ti  Ti7  1  0.378814  0.634818  0.256004  1
  Al  Al8  1  0.997819  0.497151  0.499332  1
  Al  Al9  1  0.153704  0.344917  0.191213  1
  Al  Al10  1  0.154222  0.965151  0.810929  1
  Al  Al11  1  0.150910  0.347379  0.806021  1
  Al  Al12  1  0.541357  0.347379  0.196468  1
  Al  Al13  1  0.844791  0.652707  0.807917  1
  Al  Al14  1  0.846722  0.038339  0.191617  1
  Al  Al15  1  0.842385  0.652639  0.186106  1
  Al  Al16  1  0.466532  0.652639  0.810253  1
  Al  Al17  1  0.377147  0.124013  0.260919  1
  Al  Al18  1  0.863097  0.124013  0.746867  1
  Al  Al19  1  0.619002  0.874860  0.255857  1
  Al  Al20  1  0.622101  0.365465  0.743363  1
  Al  Al21  1  0.623275  0.875954  0.740275  1
  Al  Al22  1  0.135677  0.875954  0.252678  1
  Ir  Ir23  1  0.497160  0.497767  0.000607  1
  Ir  Ir24  1  0.498024  0.499915  0.498096  1
  Ir  Ir25  1  0.001819  0.499915  0.001890  1
  Ir  Ir26  1  0.000115  0.999848  0.999733  1
  Ir  Ir27  1  0.498988  0.999515  0.500527  1
  Pt  Pt28  1  0.000049  0.999213  0.499916  1
  Pt  Pt29  1  0.499296  0.999213  0.999163  1
