# generated using pymatgen
data_Ho16CdIn3Rh4
_symmetry_space_group_name_H-M   'P 1'
_cell_length_a   9.61739578
_cell_length_b   9.59623320
_cell_length_c   9.61739500
_cell_angle_alpha   59.92702163
_cell_angle_beta   59.99999924
_cell_angle_gamma   59.92702786
_symmetry_Int_Tables_number   1
_chemical_formula_structural   Ho16CdIn3Rh4
_chemical_formula_sum   'Ho16 Cd1 In3 Rh4'
_cell_volume   626.93254856
_cell_formula_units_Z   1
loop_
 _symmetry_equiv_pos_site_id
 _symmetry_equiv_pos_as_xyz
  1  'x, y, z'
loop_
 _atom_site_type_symbol
 _atom_site_label
 _atom_site_symmetry_multiplicity
 _atom_site_fract_x
 _atom_site_fract_y
 _atom_site_fract_z
 _atom_site_occupancy
  Ho  Ho0  1  0.937369  0.936257  0.563187  1
  Ho  Ho1  1  0.564883  0.562062  0.936527  1
  Ho  Ho2  1  0.688890  0.689075  0.311018  1
  Ho  Ho3  1  0.149833  0.550501  0.149833  1
  Ho  Ho4  1  0.688188  0.311760  0.688188  1
  Ho  Ho5  1  0.149848  0.149541  0.149848  1
  Ho  Ho6  1  0.550761  0.149541  0.149848  1
  Ho  Ho7  1  0.688188  0.311760  0.311863  1
  Ho  Ho8  1  0.149848  0.149541  0.550761  1
  Ho  Ho9  1  0.311018  0.689075  0.311018  1
  Ho  Ho10  1  0.311018  0.689075  0.688890  1
  Ho  Ho11  1  0.936527  0.562062  0.564883  1
  Ho  Ho12  1  0.936527  0.562062  0.936527  1
  Ho  Ho13  1  0.563187  0.936257  0.563187  1
  Ho  Ho14  1  0.563187  0.936257  0.937369  1
  Ho  Ho15  1  0.311863  0.311760  0.688188  1
  Cd  Cd16  1  0.917696  0.246912  0.917696  1
  In  In17  1  0.916562  0.918326  0.248551  1
  In  In18  1  0.248551  0.918326  0.916562  1
  In  In19  1  0.916562  0.918326  0.916562  1
  Rh  Rh20  1  0.357386  0.357275  0.927953  1
  Rh  Rh21  1  0.356769  0.929693  0.356769  1
  Rh  Rh22  1  0.927953  0.357275  0.357386  1
  Rh  Rh23  1  0.357386  0.357275  0.357386  1
