# generated using pymatgen
data_LaCe7Pr3O20
_symmetry_space_group_name_H-M   'P 1'
_cell_length_a   6.78859834
_cell_length_b   6.82042437
_cell_length_c   10.39582271
_cell_angle_alpha   96.38926210
_cell_angle_beta   90.02825078
_cell_angle_gamma   99.81618436
_symmetry_Int_Tables_number   1
_chemical_formula_structural   LaCe7Pr3O20
_chemical_formula_sum   'La1 Ce7 Pr3 O20'
_cell_volume   471.25229846
_cell_formula_units_Z   1
loop_
 _symmetry_equiv_pos_site_id
 _symmetry_equiv_pos_as_xyz
  1  'x, y, z'
loop_
 _atom_site_type_symbol
 _atom_site_label
 _atom_site_symmetry_multiplicity
 _atom_site_fract_x
 _atom_site_fract_y
 _atom_site_fract_z
 _atom_site_occupancy
  La  La0  1  0.997771  0.001503  0.999918  1
  Ce  Ce1  1  0.879853  0.446259  0.827040  1
  Ce  Ce2  1  0.272048  0.640260  0.526435  1
  Ce  Ce3  1  0.730238  0.358894  0.474704  1
  Ce  Ce4  1  0.357365  0.146675  0.723945  1
  Ce  Ce5  1  0.643984  0.855488  0.275698  1
  Ce  Ce6  1  0.469466  0.733820  0.916941  1
  Ce  Ce7  1  0.526869  0.264215  0.081172  1
  Pr  Pr8  1  0.178501  0.103191  0.365035  1
  Pr  Pr9  1  0.819116  0.895783  0.635867  1
  Pr  Pr10  1  0.122833  0.554988  0.172953  1
  O  O11  1  0.140791  0.651056  0.949458  1
  O  O12  1  0.853151  0.340712  0.030597  1
  O  O13  1  0.041521  0.173310  0.794095  1
  O  O14  1  0.952660  0.842332  0.206913  1
  O  O15  1  0.043424  0.436779  0.380717  1
  O  O16  1  0.956630  0.560324  0.632509  1
  O  O17  1  0.163068  0.938351  0.567354  1
  O  O18  1  0.833985  0.059902  0.437295  1
  O  O19  1  0.351326  0.036193  0.923348  1
  O  O20  1  0.643099  0.964367  0.072714  1
  O  O21  1  0.213462  0.225181  0.152581  1
  O  O22  1  0.787810  0.762493  0.847495  1
  O  O23  1  0.322960  0.796446  0.338830  1
  O  O24  1  0.683164  0.208883  0.668139  1
  O  O25  1  0.366167  0.338475  0.547684  1
  O  O26  1  0.637734  0.659027  0.455118  1
  O  O27  1  0.452157  0.811696  0.700855  1
  O  O28  1  0.554115  0.192462  0.298277  1
  O  O29  1  0.476799  0.591198  0.123263  1
  O  O30  1  0.527933  0.409736  0.873049  1
