# generated using pymatgen
data_Dy3PuB16
_symmetry_space_group_name_H-M   'P 1'
_cell_length_a   7.10871031
_cell_length_b   7.10871031
_cell_length_c   4.02086300
_cell_angle_alpha   90.00000000
_cell_angle_beta   90.00000000
_cell_angle_gamma   90.20438407
_symmetry_Int_Tables_number   1
_chemical_formula_structural   Dy3PuB16
_chemical_formula_sum   'Dy3 Pu1 B16'
_cell_volume   203.18804204
_cell_formula_units_Z   1
loop_
 _symmetry_equiv_pos_site_id
 _symmetry_equiv_pos_as_xyz
  1  'x, y, z'
loop_
 _atom_site_type_symbol
 _atom_site_label
 _atom_site_symmetry_multiplicity
 _atom_site_fract_x
 _atom_site_fract_y
 _atom_site_fract_z
 _atom_site_occupancy
  Dy  Dy0  1  0.682473  0.816915  0.000000  1
  Dy  Dy1  1  0.316915  0.182473  0.000000  1
  Dy  Dy2  1  0.817184  0.317184  0.000000  1
  Pu  Pu3  1  0.185180  0.685180  0.000000  1
  B  B4  1  0.322961  0.462045  0.500000  1
  B  B5  1  0.676345  0.538135  0.500000  1
  B  B6  1  0.539129  0.323847  0.500000  1
  B  B7  1  0.460865  0.676201  0.500000  1
  B  B8  1  0.999335  0.000488  0.202208  1
  B  B9  1  0.500488  0.499335  0.797792  1
  B  B10  1  0.999335  0.000488  0.797792  1
  B  B11  1  0.500488  0.499335  0.202208  1
  B  B12  1  0.587259  0.087259  0.500000  1
  B  B13  1  0.086087  0.413404  0.500000  1
  B  B14  1  0.913404  0.586087  0.500000  1
  B  B15  1  0.412324  0.912324  0.500000  1
  B  B16  1  0.038135  0.176345  0.500000  1
  B  B17  1  0.176201  0.960865  0.500000  1
  B  B18  1  0.823847  0.039129  0.500000  1
  B  B19  1  0.962045  0.822961  0.500000  1
