# generated using pymatgen
data_Cs4Nb2O7
_symmetry_space_group_name_H-M   'P 1'
_cell_length_a   6.78542649
_cell_length_b   6.78542632
_cell_length_c   8.18271600
_cell_angle_alpha   79.84470551
_cell_angle_beta   79.84470837
_cell_angle_gamma   62.39124901
_symmetry_Int_Tables_number   1
_chemical_formula_structural   Cs4Nb2O7
_chemical_formula_sum   'Cs4 Nb2 O7'
_cell_volume   326.68047261
_cell_formula_units_Z   1
loop_
 _symmetry_equiv_pos_site_id
 _symmetry_equiv_pos_as_xyz
  1  'x, y, z'
loop_
 _atom_site_type_symbol
 _atom_site_label
 _atom_site_symmetry_multiplicity
 _atom_site_fract_x
 _atom_site_fract_y
 _atom_site_fract_z
 _atom_site_occupancy
  Cs  Cs0  1  0.679805  0.679805  0.305966  1
  Cs  Cs1  1  0.320195  0.320195  0.694034  1
  Cs  Cs2  1  0.000000  0.000000  0.500000  1
  Cs  Cs3  1  0.000000  0.000000  0.000000  1
  Nb  Nb4  1  0.633856  0.633856  0.804153  1
  Nb  Nb5  1  0.366144  0.366144  0.195847  1
  O  O6  1  0.780144  0.780144  0.860142  1
  O  O7  1  0.404691  0.834140  0.678123  1
  O  O8  1  0.219856  0.219856  0.139858  1
  O  O9  1  0.165860  0.595309  0.321877  1
  O  O10  1  0.834140  0.404691  0.678123  1
  O  O11  1  0.500000  0.500000  0.000000  1
  O  O12  1  0.595309  0.165860  0.321877  1
