# generated using pymatgen
data_Y5(SnSb)2
_symmetry_space_group_name_H-M   'P 1'
_cell_length_a   8.11004900
_cell_length_b   8.16948900
_cell_length_c   15.47728400
_cell_angle_alpha   90.00000000
_cell_angle_beta   90.00000000
_cell_angle_gamma   90.00000000
_symmetry_Int_Tables_number   1
_chemical_formula_structural   Y5(SnSb)2
_chemical_formula_sum   'Y20 Sn8 Sb8'
_cell_volume   1025.44677189
_cell_formula_units_Z   4
loop_
 _symmetry_equiv_pos_site_id
 _symmetry_equiv_pos_as_xyz
  1  'x, y, z'
loop_
 _atom_site_type_symbol
 _atom_site_label
 _atom_site_symmetry_multiplicity
 _atom_site_fract_x
 _atom_site_fract_y
 _atom_site_fract_z
 _atom_site_occupancy
  Y  Y0  1  0.390464  0.838967  0.881005  1
  Y  Y1  1  0.890464  0.661033  0.618995  1
  Y  Y2  1  0.609536  0.161033  0.381005  1
  Y  Y3  1  0.109536  0.338967  0.118995  1
  Y  Y4  1  0.609536  0.161033  0.118995  1
  Y  Y5  1  0.109536  0.338967  0.381005  1
  Y  Y6  1  0.390464  0.838967  0.618995  1
  Y  Y7  1  0.890464  0.661033  0.881005  1
  Y  Y8  1  0.556872  0.329687  0.892043  1
  Y  Y9  1  0.056872  0.170313  0.607957  1
  Y  Y10  1  0.443128  0.670313  0.392043  1
  Y  Y11  1  0.943128  0.829687  0.107957  1
  Y  Y12  1  0.443128  0.670313  0.107957  1
  Y  Y13  1  0.943128  0.829687  0.392043  1
  Y  Y14  1  0.556872  0.329687  0.607957  1
  Y  Y15  1  0.056872  0.170313  0.892043  1
  Y  Y16  1  0.222341  0.499403  0.750000  1
  Y  Y17  1  0.722341  0.000597  0.750000  1
  Y  Y18  1  0.777659  0.500597  0.250000  1
  Y  Y19  1  0.277659  0.999403  0.250000  1
  Sn  Sn20  1  0.587366  0.627681  0.750000  1
  Sn  Sn21  1  0.087366  0.872319  0.750000  1
  Sn  Sn22  1  0.412634  0.372319  0.250000  1
  Sn  Sn23  1  0.912634  0.127681  0.250000  1
  Sn  Sn24  1  0.359522  0.142602  0.750000  1
  Sn  Sn25  1  0.859522  0.357398  0.750000  1
  Sn  Sn26  1  0.640478  0.857398  0.250000  1
  Sn  Sn27  1  0.140478  0.642602  0.250000  1
  Sb  Sb28  1  0.267079  0.017492  0.046758  1
  Sb  Sb29  1  0.767079  0.482508  0.453242  1
  Sb  Sb30  1  0.732921  0.982508  0.546758  1
  Sb  Sb31  1  0.232921  0.517492  0.953242  1
  Sb  Sb32  1  0.732921  0.982508  0.953242  1
  Sb  Sb33  1  0.232921  0.517492  0.546758  1
  Sb  Sb34  1  0.267079  0.017492  0.453242  1
  Sb  Sb35  1  0.767079  0.482508  0.046758  1
