# generated using pymatgen
data_Ti12As7
_symmetry_space_group_name_H-M   'P 1'
_cell_length_a   3.52947800
_cell_length_b   10.05665537
_cell_length_c   10.05665600
_cell_angle_alpha   119.99998892
_cell_angle_beta   90.00000000
_cell_angle_gamma   90.00000000
_symmetry_Int_Tables_number   1
_chemical_formula_structural   Ti12As7
_chemical_formula_sum   'Ti12 As7'
_cell_volume   309.13510215
_cell_formula_units_Z   1
loop_
 _symmetry_equiv_pos_site_id
 _symmetry_equiv_pos_as_xyz
  1  'x, y, z'
loop_
 _atom_site_type_symbol
 _atom_site_label
 _atom_site_symmetry_multiplicity
 _atom_site_fract_x
 _atom_site_fract_y
 _atom_site_fract_z
 _atom_site_occupancy
  Ti  Ti0  1  0.743914  0.988072  0.736640  1
  Ti  Ti1  1  0.743914  0.263360  0.251434  1
  Ti  Ti2  1  0.743914  0.748566  0.011928  1
  Ti  Ti3  1  0.243045  0.008718  0.211031  1
  Ti  Ti4  1  0.243045  0.788969  0.797686  1
  Ti  Ti5  1  0.243045  0.202314  0.991282  1
  Ti  Ti6  1  0.744323  0.505332  0.127312  1
  Ti  Ti7  1  0.744323  0.872688  0.378020  1
  Ti  Ti8  1  0.744323  0.621980  0.494668  1
  Ti  Ti9  1  0.244126  0.487754  0.872530  1
  Ti  Ti10  1  0.244126  0.127470  0.615226  1
  Ti  Ti11  1  0.244126  0.384774  0.512246  1
  As  As12  1  0.742550  0.000000  0.000000  1
  As  As13  1  0.743887  0.280624  0.838446  1
  As  As14  1  0.743887  0.161554  0.442178  1
  As  As15  1  0.743887  0.557822  0.719376  1
  As  As16  1  0.244189  0.715391  0.172065  1
  As  As17  1  0.244189  0.827935  0.543326  1
  As  As18  1  0.244189  0.456674  0.284609  1
