# generated using pymatgen
data_TbHo3ReB12Ru
_symmetry_space_group_name_H-M   'P 1'
_cell_length_a   3.66732700
_cell_length_b   9.14727475
_cell_length_c   11.53466330
_cell_angle_alpha   90.19388711
_cell_angle_beta   90.00000000
_cell_angle_gamma   90.00000000
_symmetry_Int_Tables_number   1
_chemical_formula_structural   TbHo3ReB12Ru
_chemical_formula_sum   'Tb2 Ho6 Re2 B24 Ru2'
_cell_volume   386.94014931
_cell_formula_units_Z   2
loop_
 _symmetry_equiv_pos_site_id
 _symmetry_equiv_pos_as_xyz
  1  'x, y, z'
loop_
 _atom_site_type_symbol
 _atom_site_label
 _atom_site_symmetry_multiplicity
 _atom_site_fract_x
 _atom_site_fract_y
 _atom_site_fract_z
 _atom_site_occupancy
  Tb  Tb0  1  0.000000  0.321098  0.412643  1
  Tb  Tb1  1  0.000000  0.678902  0.587357  1
  Ho  Ho2  1  0.000000  0.824619  0.084263  1
  Ho  Ho3  1  0.000000  0.175381  0.915737  1
  Ho  Ho4  1  0.000000  0.942608  0.370009  1
  Ho  Ho5  1  0.000000  0.057392  0.629991  1
  Ho  Ho6  1  0.000000  0.442658  0.129143  1
  Ho  Ho7  1  0.000000  0.557342  0.870857  1
  Re  Re8  1  0.000000  0.138144  0.179329  1
  Re  Re9  1  0.000000  0.861856  0.820671  1
  B  B10  1  0.500000  0.554246  0.432470  1
  B  B11  1  0.500000  0.445754  0.567530  1
  B  B12  1  0.500000  0.053066  0.066590  1
  B  B13  1  0.500000  0.946934  0.933410  1
  B  B14  1  0.500000  0.748997  0.418033  1
  B  B15  1  0.500000  0.251003  0.581967  1
  B  B16  1  0.500000  0.248914  0.080903  1
  B  B17  1  0.500000  0.751086  0.919097  1
  B  B18  1  0.500000  0.790727  0.265189  1
  B  B19  1  0.500000  0.209273  0.734811  1
  B  B20  1  0.500000  0.291412  0.234377  1
  B  B21  1  0.500000  0.708588  0.765623  1
  B  B22  1  0.500000  0.630881  0.185424  1
  B  B23  1  0.500000  0.369119  0.814576  1
  B  B24  1  0.500000  0.130736  0.314561  1
  B  B25  1  0.500000  0.869264  0.685439  1
  B  B26  1  0.500000  0.982212  0.211910  1
  B  B27  1  0.500000  0.017788  0.788090  1
  B  B28  1  0.500000  0.483509  0.287636  1
  B  B29  1  0.500000  0.516491  0.712364  1
  B  B30  1  0.500000  0.602880  0.028565  1
  B  B31  1  0.500000  0.397120  0.971435  1
  B  B32  1  0.500000  0.102198  0.471881  1
  B  B33  1  0.500000  0.897802  0.528119  1
  Ru  Ru34  1  0.000000  0.638182  0.320815  1
  Ru  Ru35  1  0.000000  0.361818  0.679185  1
