# generated using pymatgen
data_CeNb(PO4)3
_symmetry_space_group_name_H-M   'P 1'
_cell_length_a   9.08632706
_cell_length_b   9.08677786
_cell_length_c   9.36127138
_cell_angle_alpha   90.10671995
_cell_angle_beta   118.91379841
_cell_angle_gamma   119.97632116
_symmetry_Int_Tables_number   1
_chemical_formula_structural   CeNb(PO4)3
_chemical_formula_sum   'Ce2 Nb2 P6 O24'
_cell_volume   555.04339923
_cell_formula_units_Z   2
loop_
 _symmetry_equiv_pos_site_id
 _symmetry_equiv_pos_as_xyz
  1  'x, y, z'
loop_
 _atom_site_type_symbol
 _atom_site_label
 _atom_site_symmetry_multiplicity
 _atom_site_fract_x
 _atom_site_fract_y
 _atom_site_fract_z
 _atom_site_occupancy
  Ce  Ce0  1  0.215515  0.859297  0.074229  1
  Ce  Ce1  1  0.784992  0.641187  0.426603  1
  Nb  Nb2  1  0.212979  0.357376  0.569631  1
  Nb  Nb3  1  0.785940  0.142044  0.928385  1
  P  P4  1  0.997259  0.977729  0.248421  1
  P  P5  1  0.270544  0.520409  0.250692  1
  P  P6  1  0.296409  0.751164  0.747620  1
  P  P7  1  0.729299  0.249431  0.251715  1
  P  P8  1  0.704405  0.453463  0.749166  1
  P  P9  1  0.001823  0.047584  0.752179  1
  O  O10  1  0.283022  0.692545  0.231775  1
  O  O11  1  0.876083  0.009633  0.080171  1
  O  O12  1  0.856197  0.874678  0.599700  1
  O  O13  1  0.842305  0.816816  0.267774  1
  O  O14  1  0.143927  0.947658  0.238945  1
  O  O15  1  0.452941  0.529504  0.271607  1
  O  O16  1  0.119647  0.740838  0.588382  1
  O  O17  1  0.882142  0.621809  0.906667  1
  O  O18  1  0.286578  0.768066  0.904963  1
  O  O19  1  0.504335  0.916655  0.786772  1
  O  O20  1  0.720426  0.471576  0.593794  1
  O  O21  1  0.734189  0.420059  0.263565  1
  O  O22  1  0.290665  0.579272  0.711168  1
  O  O23  1  0.266270  0.492059  0.412728  1
  O  O24  1  0.542257  0.090162  0.238530  1
  O  O25  1  0.724534  0.203538  0.088634  1
  O  O26  1  0.071489  0.360324  0.086920  1
  O  O27  1  0.923725  0.282802  0.416387  1
  O  O28  1  0.497372  0.419171  0.703967  1
  O  O29  1  0.872342  0.090111  0.786416  1
  O  O30  1  0.131089  0.208808  0.707524  1
  O  O31  1  0.128354  0.145656  0.407166  1
  O  O32  1  0.148430  0.032214  0.915071  1
  O  O33  1  0.702516  0.286365  0.792731  1
