# generated using pymatgen
data_Tb8Hg2RuRh
_symmetry_space_group_name_H-M   'P 1'
_cell_length_a   9.63303954
_cell_length_b   9.67764513
_cell_length_c   9.63303890
_cell_angle_alpha   59.84670899
_cell_angle_beta   59.82361268
_cell_angle_gamma   59.84670880
_symmetry_Int_Tables_number   1
_chemical_formula_structural   Tb8Hg2RuRh
_chemical_formula_sum   'Tb16 Hg4 Ru2 Rh2'
_cell_volume   632.69092811
_cell_formula_units_Z   2
loop_
 _symmetry_equiv_pos_site_id
 _symmetry_equiv_pos_as_xyz
  1  'x, y, z'
loop_
 _atom_site_type_symbol
 _atom_site_label
 _atom_site_symmetry_multiplicity
 _atom_site_fract_x
 _atom_site_fract_y
 _atom_site_fract_z
 _atom_site_occupancy
  Tb  Tb0  1  0.811418  0.809617  0.188077  1
  Tb  Tb1  1  0.811216  0.188784  0.811216  1
  Tb  Tb2  1  0.188077  0.190888  0.811418  1
  Tb  Tb3  1  0.650262  0.049591  0.650262  1
  Tb  Tb4  1  0.062382  0.061376  0.440349  1
  Tb  Tb5  1  0.440349  0.435893  0.062382  1
  Tb  Tb6  1  0.650262  0.649885  0.650262  1
  Tb  Tb7  1  0.811418  0.190888  0.188077  1
  Tb  Tb8  1  0.188077  0.809617  0.811418  1
  Tb  Tb9  1  0.046567  0.650819  0.651795  1
  Tb  Tb10  1  0.440349  0.061376  0.062382  1
  Tb  Tb11  1  0.436880  0.063120  0.436880  1
  Tb  Tb12  1  0.061292  0.438708  0.061292  1
  Tb  Tb13  1  0.651795  0.650819  0.046567  1
  Tb  Tb14  1  0.190625  0.809375  0.190625  1
  Tb  Tb15  1  0.062382  0.435893  0.440349  1
  Hg  Hg16  1  0.416109  0.415284  0.416109  1
  Hg  Hg17  1  0.416019  0.415369  0.753240  1
  Hg  Hg18  1  0.416109  0.752499  0.416109  1
  Hg  Hg19  1  0.753240  0.415369  0.416019  1
  Ru  Ru20  1  0.857581  0.421887  0.857581  1
  Ru  Ru21  1  0.857581  0.862951  0.857581  1
  Rh  Rh22  1  0.855918  0.859996  0.424089  1
  Rh  Rh23  1  0.424089  0.859996  0.855918  1
