# generated using pymatgen
data_Ho8TaNb11Si16
_symmetry_space_group_name_H-M   'P 1'
_cell_length_a   7.06425762
_cell_length_b   7.06425787
_cell_length_c   13.03066300
_cell_angle_alpha   89.97306774
_cell_angle_beta   90.02693260
_cell_angle_gamma   90.03354764
_symmetry_Int_Tables_number   1
_chemical_formula_structural   Ho8TaNb11Si16
_chemical_formula_sum   'Ho8 Ta1 Nb11 Si16'
_cell_volume   650.27853033
_cell_formula_units_Z   1
loop_
 _symmetry_equiv_pos_site_id
 _symmetry_equiv_pos_as_xyz
  1  'x, y, z'
loop_
 _atom_site_type_symbol
 _atom_site_label
 _atom_site_symmetry_multiplicity
 _atom_site_fract_x
 _atom_site_fract_y
 _atom_site_fract_z
 _atom_site_occupancy
  Ho  Ho0  1  0.342578  0.002632  0.467445  1
  Ho  Ho1  1  0.497459  0.842897  0.717559  1
  Ho  Ho2  1  0.502167  0.157075  0.217768  1
  Ho  Ho3  1  0.842897  0.497459  0.282441  1
  Ho  Ho4  1  0.157075  0.502167  0.782232  1
  Ho  Ho5  1  0.657309  0.997706  0.967521  1
  Ho  Ho6  1  0.002632  0.342578  0.532555  1
  Ho  Ho7  1  0.997706  0.657309  0.032479  1
  Ta  Ta8  1  0.672182  0.672182  0.500000  1
  Nb  Nb9  1  0.327977  0.327977  0.000000  1
  Nb  Nb10  1  0.172217  0.827719  0.250217  1
  Nb  Nb11  1  0.827719  0.172217  0.749783  1
  Nb  Nb12  1  0.152328  0.006892  0.873982  1
  Nb  Nb13  1  0.493285  0.652372  0.124065  1
  Nb  Nb14  1  0.507000  0.347455  0.623784  1
  Nb  Nb15  1  0.652372  0.493285  0.875935  1
  Nb  Nb16  1  0.347455  0.507000  0.376216  1
  Nb  Nb17  1  0.847283  0.993156  0.374110  1
  Nb  Nb18  1  0.006892  0.152328  0.126018  1
  Nb  Nb19  1  0.993156  0.847283  0.625890  1
  Si  Si20  1  0.203941  0.134153  0.682119  1
  Si  Si21  1  0.365642  0.703842  0.932164  1
  Si  Si22  1  0.634681  0.297242  0.432434  1
  Si  Si23  1  0.703842  0.365642  0.067836  1
  Si  Si24  1  0.297242  0.634681  0.567566  1
  Si  Si25  1  0.796021  0.865741  0.182281  1
  Si  Si26  1  0.134153  0.203941  0.317881  1
  Si  Si27  1  0.865741  0.796021  0.817719  1
  Si  Si28  1  0.293440  0.953101  0.063746  1
  Si  Si29  1  0.547127  0.793193  0.314177  1
  Si  Si30  1  0.453250  0.206573  0.813578  1
  Si  Si31  1  0.793193  0.547127  0.685823  1
  Si  Si32  1  0.206573  0.453250  0.186422  1
  Si  Si33  1  0.706389  0.045975  0.563454  1
  Si  Si34  1  0.953101  0.293440  0.936254  1
  Si  Si35  1  0.045975  0.706389  0.436546  1
