# generated using pymatgen
data_Y3ErLu6(In2Pt)4
_symmetry_space_group_name_H-M   'P 1'
_cell_length_a   3.57378500
_cell_length_b   8.12386517
_cell_length_c   18.10183980
_cell_angle_alpha   89.75266571
_cell_angle_beta   90.00000000
_cell_angle_gamma   90.00000000
_symmetry_Int_Tables_number   1
_chemical_formula_structural   Y3ErLu6(In2Pt)4
_chemical_formula_sum   'Y3 Er1 Lu6 In8 Pt4'
_cell_volume   525.54486744
_cell_formula_units_Z   1
loop_
 _symmetry_equiv_pos_site_id
 _symmetry_equiv_pos_as_xyz
  1  'x, y, z'
loop_
 _atom_site_type_symbol
 _atom_site_label
 _atom_site_symmetry_multiplicity
 _atom_site_fract_x
 _atom_site_fract_y
 _atom_site_fract_z
 _atom_site_occupancy
  Y  Y0  1  0.000000  0.259201  0.719035  1
  Y  Y1  1  0.000000  0.000440  0.000209  1
  Y  Y2  1  0.000000  0.499342  0.500113  1
  Er  Er3  1  0.000000  0.741843  0.280010  1
  Lu  Lu4  1  0.000000  0.116613  0.413737  1
  Lu  Lu5  1  0.000000  0.881998  0.585544  1
  Lu  Lu6  1  0.000000  0.383821  0.914284  1
  Lu  Lu7  1  0.000000  0.616773  0.086201  1
  Lu  Lu8  1  0.000000  0.242545  0.220555  1
  Lu  Lu9  1  0.000000  0.758122  0.780007  1
  In  In10  1  0.500000  0.420181  0.350716  1
  In  In11  1  0.500000  0.581875  0.649558  1
  In  In12  1  0.500000  0.077749  0.850631  1
  In  In13  1  0.500000  0.922580  0.149379  1
  In  In14  1  0.500000  0.294997  0.066285  1
  In  In15  1  0.500000  0.705777  0.934284  1
  In  In16  1  0.500000  0.201878  0.564715  1
  In  In17  1  0.500000  0.795396  0.434159  1
  Pt  Pt18  1  0.500000  0.027550  0.303614  1
  Pt  Pt19  1  0.500000  0.968487  0.695884  1
  Pt  Pt20  1  0.500000  0.480377  0.805397  1
  Pt  Pt21  1  0.500000  0.522450  0.195682  1
