# generated using pymatgen
data_Nd7Tm12ThSn16
_symmetry_space_group_name_H-M   'P 1'
_cell_length_a   8.07425631
_cell_length_b   8.23133030
_cell_length_c   15.49181288
_cell_angle_alpha   90.05630437
_cell_angle_beta   90.00037070
_cell_angle_gamma   89.96853533
_symmetry_Int_Tables_number   1
_chemical_formula_structural   Nd7Tm12ThSn16
_chemical_formula_sum   'Nd7 Tm12 Th1 Sn16'
_cell_volume   1029.61420992
_cell_formula_units_Z   1
loop_
 _symmetry_equiv_pos_site_id
 _symmetry_equiv_pos_as_xyz
  1  'x, y, z'
loop_
 _atom_site_type_symbol
 _atom_site_label
 _atom_site_symmetry_multiplicity
 _atom_site_fract_x
 _atom_site_fract_y
 _atom_site_fract_z
 _atom_site_occupancy
  Nd  Nd0  1  0.518309  0.321234  0.903584  1
  Nd  Nd1  1  0.018099  0.178770  0.596945  1
  Nd  Nd2  1  0.482426  0.678615  0.403353  1
  Nd  Nd3  1  0.982677  0.821950  0.096755  1
  Nd  Nd4  1  0.482912  0.678458  0.096703  1
  Nd  Nd5  1  0.982528  0.821339  0.403386  1
  Nd  Nd6  1  0.517579  0.322015  0.596420  1
  Tm  Tm7  1  0.360949  0.836971  0.876261  1
  Tm  Tm8  1  0.861422  0.662987  0.623892  1
  Tm  Tm9  1  0.638465  0.163005  0.376280  1
  Tm  Tm10  1  0.138315  0.336972  0.123601  1
  Tm  Tm11  1  0.638890  0.162738  0.123593  1
  Tm  Tm12  1  0.138750  0.337373  0.376347  1
  Tm  Tm13  1  0.361449  0.837038  0.623892  1
  Tm  Tm14  1  0.861248  0.662736  0.876280  1
  Tm  Tm15  1  0.192859  0.502030  0.750033  1
  Tm  Tm16  1  0.693108  0.996373  0.749820  1
  Tm  Tm17  1  0.806406  0.496945  0.250329  1
  Tm  Tm18  1  0.306520  0.002847  0.249820  1
  Th  Th19  1  0.016919  0.178824  0.903381  1
  Sn  Sn20  1  0.300445  0.041525  0.041657  1
  Sn  Sn21  1  0.801990  0.459003  0.457691  1
  Sn  Sn22  1  0.698221  0.959434  0.542578  1
  Sn  Sn23  1  0.197972  0.539097  0.956884  1
  Sn  Sn24  1  0.699351  0.959951  0.957334  1
  Sn  Sn25  1  0.197806  0.541213  0.542571  1
  Sn  Sn26  1  0.302124  0.041079  0.457788  1
  Sn  Sn27  1  0.802601  0.457915  0.041821  1
  Sn  Sn28  1  0.558094  0.625072  0.750038  1
  Sn  Sn29  1  0.058084  0.875691  0.750900  1
  Sn  Sn30  1  0.441411  0.375070  0.249936  1
  Sn  Sn31  1  0.941350  0.124646  0.250110  1
  Sn  Sn32  1  0.326180  0.144502  0.750220  1
  Sn  Sn33  1  0.825794  0.356783  0.749982  1
  Sn  Sn34  1  0.674315  0.856277  0.249922  1
  Sn  Sn35  1  0.174429  0.643520  0.249895  1
