# generated using pymatgen
data_Hf8Ti12Si15Sn
_symmetry_space_group_name_H-M   'P 1'
_cell_length_a   6.86621654
_cell_length_b   6.83823566
_cell_length_c   12.53506904
_cell_angle_alpha   90.00070124
_cell_angle_beta   89.74017327
_cell_angle_gamma   89.92880574
_symmetry_Int_Tables_number   1
_chemical_formula_structural   Hf8Ti12Si15Sn
_chemical_formula_sum   'Hf8 Ti12 Si15 Sn1'
_cell_volume   588.55016904
_cell_formula_units_Z   1
loop_
 _symmetry_equiv_pos_site_id
 _symmetry_equiv_pos_as_xyz
  1  'x, y, z'
loop_
 _atom_site_type_symbol
 _atom_site_label
 _atom_site_symmetry_multiplicity
 _atom_site_fract_x
 _atom_site_fract_y
 _atom_site_fract_z
 _atom_site_occupancy
  Hf  Hf0  1  0.347500  0.994683  0.460762  1
  Hf  Hf1  1  0.509579  0.836536  0.720370  1
  Hf  Hf2  1  0.499928  0.156291  0.218182  1
  Hf  Hf3  1  0.843167  0.500247  0.281063  1
  Hf  Hf4  1  0.156568  0.509335  0.785926  1
  Hf  Hf5  1  0.659290  0.999118  0.970033  1
  Hf  Hf6  1  0.986692  0.352552  0.524712  1
  Hf  Hf7  1  0.001227  0.656743  0.032577  1
  Ti  Ti8  1  0.328756  0.329563  0.001101  1
  Ti  Ti9  1  0.171867  0.829386  0.249696  1
  Ti  Ti10  1  0.820104  0.170297  0.751991  1
  Ti  Ti11  1  0.670709  0.670431  0.499653  1
  Ti  Ti12  1  0.152288  0.002632  0.880044  1
  Ti  Ti13  1  0.497965  0.651526  0.123563  1
  Ti  Ti14  1  0.512718  0.355077  0.624265  1
  Ti  Ti15  1  0.654120  0.497859  0.878970  1
  Ti  Ti16  1  0.346413  0.504165  0.375523  1
  Ti  Ti17  1  0.845319  0.997012  0.372333  1
  Ti  Ti18  1  0.004254  0.152519  0.126237  1
  Ti  Ti19  1  0.982882  0.834170  0.622475  1
  Si  Si20  1  0.366889  0.706771  0.929264  1
  Si  Si21  1  0.632469  0.295068  0.425987  1
  Si  Si22  1  0.706588  0.363530  0.073459  1
  Si  Si23  1  0.294098  0.636918  0.572402  1
  Si  Si24  1  0.795640  0.864257  0.177369  1
  Si  Si25  1  0.134596  0.205682  0.321797  1
  Si  Si26  1  0.866275  0.796300  0.823177  1
  Si  Si27  1  0.296673  0.955020  0.066357  1
  Si  Si28  1  0.547573  0.791673  0.312558  1
  Si  Si29  1  0.461144  0.205714  0.819576  1
  Si  Si30  1  0.797264  0.541617  0.688357  1
  Si  Si31  1  0.205779  0.455351  0.185731  1
  Si  Si32  1  0.702143  0.046011  0.563671  1
  Si  Si33  1  0.955216  0.295636  0.935729  1
  Si  Si34  1  0.045161  0.707468  0.433070  1
  Sn  Sn35  1  0.201146  0.132839  0.672018  1
