# generated using pymatgen
data_DyEr2Lu3Co2
_symmetry_space_group_name_H-M   'P 1'
_cell_length_a   6.12228184
_cell_length_b   6.87282600
_cell_length_c   9.17274382
_cell_angle_alpha   90.00000000
_cell_angle_beta   90.29978091
_cell_angle_gamma   90.00000000
_symmetry_Int_Tables_number   1
_chemical_formula_structural   DyEr2Lu3Co2
_chemical_formula_sum   'Dy2 Er4 Lu6 Co4'
_cell_volume   385.95972389
_cell_formula_units_Z   2
loop_
 _symmetry_equiv_pos_site_id
 _symmetry_equiv_pos_as_xyz
  1  'x, y, z'
loop_
 _atom_site_type_symbol
 _atom_site_label
 _atom_site_symmetry_multiplicity
 _atom_site_fract_x
 _atom_site_fract_y
 _atom_site_fract_z
 _atom_site_occupancy
  Dy  Dy0  1  0.134326  0.459763  0.749876  1
  Dy  Dy1  1  0.365674  0.959763  0.750124  1
  Er  Er2  1  0.322129  0.675365  0.067538  1
  Er  Er3  1  0.177871  0.175365  0.432462  1
  Er  Er4  1  0.861309  0.540688  0.250918  1
  Er  Er5  1  0.638691  0.040688  0.249082  1
  Lu  Lu6  1  0.675891  0.324609  0.566964  1
  Lu  Lu7  1  0.824109  0.824609  0.933036  1
  Lu  Lu8  1  0.674767  0.325181  0.933435  1
  Lu  Lu9  1  0.825233  0.825181  0.566565  1
  Lu  Lu10  1  0.325824  0.674681  0.433952  1
  Lu  Lu11  1  0.174176  0.174681  0.066048  1
  Co  Co12  1  0.047512  0.886311  0.250500  1
  Co  Co13  1  0.452488  0.386311  0.249500  1
  Co  Co14  1  0.950189  0.113400  0.753494  1
  Co  Co15  1  0.549811  0.613400  0.746506  1
