# generated using pymatgen
data_TbCu2AgPd2
_symmetry_space_group_name_H-M   'P 1'
_cell_length_a   5.05407222
_cell_length_b   5.19380775
_cell_length_c   5.19380691
_cell_angle_alpha   63.71114878
_cell_angle_beta   60.88606465
_cell_angle_gamma   60.88606937
_symmetry_Int_Tables_number   1
_chemical_formula_structural   TbCu2AgPd2
_chemical_formula_sum   'Tb1 Cu2 Ag1 Pd2'
_cell_volume   100.19388920
_cell_formula_units_Z   1
loop_
 _symmetry_equiv_pos_site_id
 _symmetry_equiv_pos_as_xyz
  1  'x, y, z'
loop_
 _atom_site_type_symbol
 _atom_site_label
 _atom_site_symmetry_multiplicity
 _atom_site_fract_x
 _atom_site_fract_y
 _atom_site_fract_z
 _atom_site_occupancy
  Tb  Tb0  1  0.997496  0.002504  0.002504  1
  Cu  Cu1  1  0.128732  0.620401  0.620401  1
  Cu  Cu2  1  0.630466  0.620401  0.620401  1
  Ag  Ag3  1  0.240971  0.259029  0.259029  1
  Pd  Pd4  1  0.626168  0.623836  0.123829  1
  Pd  Pd5  1  0.626168  0.123829  0.623836  1
