# generated using pymatgen
data_Sr4V6O19
_symmetry_space_group_name_H-M   'P 1'
_cell_length_a   7.48730347
_cell_length_b   10.01510549
_cell_length_c   14.01128600
_cell_angle_alpha   109.47828089
_cell_angle_beta   99.89904182
_cell_angle_gamma   91.87270845
_symmetry_Int_Tables_number   1
_chemical_formula_structural   Sr4V6O19
_chemical_formula_sum   'Sr8 V12 O38'
_cell_volume   971.18171229
_cell_formula_units_Z   2
loop_
 _symmetry_equiv_pos_site_id
 _symmetry_equiv_pos_as_xyz
  1  'x, y, z'
loop_
 _atom_site_type_symbol
 _atom_site_label
 _atom_site_symmetry_multiplicity
 _atom_site_fract_x
 _atom_site_fract_y
 _atom_site_fract_z
 _atom_site_occupancy
  Sr  Sr0  1  0.360205  0.883153  0.124598  1
  Sr  Sr1  1  0.022181  0.180049  0.143576  1
  Sr  Sr2  1  0.087636  0.649285  0.334877  1
  Sr  Sr3  1  0.812023  0.988278  0.365174  1
  Sr  Sr4  1  0.187976  0.011723  0.634826  1
  Sr  Sr5  1  0.912364  0.350714  0.665123  1
  Sr  Sr6  1  0.977820  0.819951  0.856424  1
  Sr  Sr7  1  0.639794  0.116847  0.875402  1
  V  V8  1  0.293272  0.468354  0.101729  1
  V  V9  1  0.873509  0.815248  0.119047  1
  V  V10  1  0.544436  0.239900  0.154645  1
  V  V11  1  0.280098  0.041913  0.374982  1
  V  V12  1  0.806662  0.358015  0.383577  1
  V  V13  1  0.617528  0.665000  0.416098  1
  V  V14  1  0.382472  0.335000  0.583901  1
  V  V15  1  0.193337  0.641985  0.616424  1
  V  V16  1  0.719902  0.958088  0.625019  1
  V  V17  1  0.455564  0.760099  0.845354  1
  V  V18  1  0.126492  0.184754  0.880954  1
  V  V19  1  0.706728  0.531645  0.898270  1
  O  O20  1  0.755670  0.646506  0.029925  1
  O  O21  1  0.013443  0.893789  0.060818  1
  O  O22  1  0.688655  0.177402  0.072524  1
  O  O23  1  0.314493  0.636014  0.105696  1
  O  O24  1  0.344177  0.135720  0.114027  1
  O  O25  1  0.509640  0.415078  0.157843  1
  O  O26  1  0.122957  0.438958  0.160117  1
  O  O27  1  0.713295  0.925182  0.166743  1
  O  O28  1  0.001457  0.786819  0.221086  1
  O  O29  1  0.637681  0.233606  0.281293  1
  O  O30  1  0.124504  0.088133  0.289539  1
  O  O31  1  0.440506  0.945965  0.315259  1
  O  O32  1  0.968568  0.398801  0.324764  1
  O  O33  1  0.412851  0.616151  0.339014  1
  O  O34  1  0.767564  0.732116  0.361425  1
  O  O35  1  0.161665  0.954773  0.436913  1
  O  O36  1  0.707510  0.513904  0.448394  1
  O  O37  1  0.884879  0.270357  0.464402  1
  O  O38  1  0.414461  0.201785  0.468686  1
  O  O39  1  0.585538  0.798215  0.531314  1
  O  O40  1  0.115121  0.729642  0.535597  1
  O  O41  1  0.292491  0.486096  0.551606  1
  O  O42  1  0.838335  0.045227  0.563087  1
  O  O43  1  0.232437  0.267884  0.638575  1
  O  O44  1  0.587148  0.383849  0.660985  1
  O  O45  1  0.031432  0.601199  0.675236  1
  O  O46  1  0.559495  0.054035  0.684740  1
  O  O47  1  0.875496  0.911867  0.710460  1
  O  O48  1  0.362320  0.766394  0.718707  1
  O  O49  1  0.998543  0.213180  0.778913  1
  O  O50  1  0.286705  0.074818  0.833257  1
  O  O51  1  0.877044  0.561042  0.839883  1
  O  O52  1  0.490360  0.584922  0.842158  1
  O  O53  1  0.655823  0.864280  0.885973  1
  O  O54  1  0.685506  0.363985  0.894304  1
  O  O55  1  0.311344  0.822598  0.927476  1
  O  O56  1  0.986558  0.106211  0.939183  1
  O  O57  1  0.244329  0.353494  0.970075  1
