# generated using pymatgen
data_Y3ErMgP12Ru19
_symmetry_space_group_name_H-M   'P 1'
_cell_length_a   12.47222119
_cell_length_b   12.49643943
_cell_length_c   3.99043100
_cell_angle_alpha   90.00000000
_cell_angle_beta   90.00000000
_cell_angle_gamma   120.03994199
_symmetry_Int_Tables_number   1
_chemical_formula_structural   Y3ErMgP12Ru19
_chemical_formula_sum   'Y3 Er1 Mg1 P12 Ru19'
_cell_volume   538.40067254
_cell_formula_units_Z   1
loop_
 _symmetry_equiv_pos_site_id
 _symmetry_equiv_pos_as_xyz
  1  'x, y, z'
loop_
 _atom_site_type_symbol
 _atom_site_label
 _atom_site_symmetry_multiplicity
 _atom_site_fract_x
 _atom_site_fract_y
 _atom_site_fract_z
 _atom_site_occupancy
  Y  Y0  1  0.183550  0.999519  0.500000  1
  Y  Y1  1  0.672837  0.332809  0.000000  1
  Y  Y2  1  0.326951  0.659702  0.000000  1
  Er  Er3  1  0.816632  0.816058  0.500000  1
  Mg  Mg4  1  0.000045  0.189791  0.500000  1
  P  P5  1  0.999366  0.826920  0.000000  1
  P  P6  1  0.193868  0.181093  0.000000  1
  P  P7  1  0.805696  0.986450  0.000000  1
  P  P8  1  0.698654  0.169451  0.500000  1
  P  P9  1  0.830817  0.525025  0.500000  1
  P  P10  1  0.481143  0.306760  0.500000  1
  P  P11  1  0.169171  0.694276  0.500000  1
  P  P12  1  0.519166  0.825737  0.500000  1
  P  P13  1  0.301522  0.470941  0.500000  1
  P  P14  1  0.000022  0.381001  0.000000  1
  P  P15  1  0.625489  0.626310  0.000000  1
  P  P16  1  0.374735  0.000700  0.000000  1
  Ru  Ru17  1  0.000019  0.560478  0.000000  1
  Ru  Ru18  1  0.439814  0.445930  0.000000  1
  Ru  Ru19  1  0.560151  0.005993  0.000000  1
  Ru  Ru20  1  0.999741  0.721849  0.500000  1
  Ru  Ru21  1  0.283629  0.279843  0.500000  1
  Ru  Ru22  1  0.717013  0.996092  0.500000  1
  Ru  Ru23  1  0.825110  0.182553  0.000000  1
  Ru  Ru24  1  0.815371  0.628069  0.000000  1
  Ru  Ru25  1  0.384345  0.194786  0.000000  1
  Ru  Ru26  1  0.184410  0.811952  0.000000  1
  Ru  Ru27  1  0.615783  0.810379  0.000000  1
  Ru  Ru28  1  0.174737  0.357399  0.000000  1
  Ru  Ru29  1  0.874249  0.364656  0.500000  1
  Ru  Ru30  1  0.633805  0.508848  0.500000  1
  Ru  Ru31  1  0.496780  0.126912  0.500000  1
  Ru  Ru32  1  0.366509  0.875141  0.500000  1
  Ru  Ru33  1  0.503660  0.630478  0.500000  1
  Ru  Ru34  1  0.125787  0.490693  0.500000  1
  Ru  Ru35  1  0.999421  0.015401  0.000000  1
