# generated using pymatgen
data_Nd7ErSc12Si15Sn
_symmetry_space_group_name_H-M   'P 1'
_cell_length_a   7.24880030
_cell_length_b   7.52435490
_cell_length_c   14.26747785
_cell_angle_alpha   89.88190584
_cell_angle_beta   89.72261986
_cell_angle_gamma   90.17576032
_symmetry_Int_Tables_number   1
_chemical_formula_structural   Nd7ErSc12Si15Sn
_chemical_formula_sum   'Nd7 Er1 Sc12 Si15 Sn1'
_cell_volume   778.17010967
_cell_formula_units_Z   1
loop_
 _symmetry_equiv_pos_site_id
 _symmetry_equiv_pos_as_xyz
  1  'x, y, z'
loop_
 _atom_site_type_symbol
 _atom_site_label
 _atom_site_symmetry_multiplicity
 _atom_site_fract_x
 _atom_site_fract_y
 _atom_site_fract_z
 _atom_site_occupancy
  Nd  Nd0  1  0.010344  0.173443  0.096981  1
  Nd  Nd1  1  0.989242  0.826902  0.902304  1
  Nd  Nd2  1  0.489841  0.672634  0.904239  1
  Nd  Nd3  1  0.989827  0.831256  0.599287  1
  Nd  Nd4  1  0.509729  0.327055  0.097223  1
  Nd  Nd5  1  0.006947  0.167236  0.400225  1
  Nd  Nd6  1  0.512223  0.323361  0.399876  1
  Er  Er7  1  0.502456  0.684431  0.602426  1
  Sc  Sc8  1  0.163377  0.500922  0.754617  1
  Sc  Sc9  1  0.836629  0.501036  0.248712  1
  Sc  Sc10  1  0.336954  0.999171  0.249251  1
  Sc  Sc11  1  0.664393  0.000166  0.751091  1
  Sc  Sc12  1  0.343803  0.163209  0.630857  1
  Sc  Sc13  1  0.662560  0.823338  0.372989  1
  Sc  Sc14  1  0.164106  0.681444  0.369838  1
  Sc  Sc15  1  0.667265  0.824082  0.124300  1
  Sc  Sc16  1  0.822158  0.325792  0.626200  1
  Sc  Sc17  1  0.331513  0.174885  0.874097  1
  Sc  Sc18  1  0.831349  0.324638  0.874611  1
  Sc  Sc19  1  0.167304  0.675750  0.125033  1
  Si  Si20  1  0.035870  0.126588  0.750491  1
  Si  Si21  1  0.960820  0.877486  0.247641  1
  Si  Si22  1  0.462312  0.622684  0.248784  1
  Si  Si23  1  0.534646  0.381607  0.750831  1
  Si  Si24  1  0.292506  0.874184  0.750610  1
  Si  Si25  1  0.709261  0.117471  0.247870  1
  Si  Si26  1  0.208868  0.380930  0.249396  1
  Si  Si27  1  0.789004  0.621632  0.749529  1
  Si  Si28  1  0.833880  0.541837  0.459337  1
  Si  Si29  1  0.345394  0.958538  0.462153  1
  Si  Si30  1  0.846275  0.536771  0.039320  1
  Si  Si31  1  0.654701  0.034553  0.539342  1
  Si  Si32  1  0.152199  0.462972  0.960642  1
  Si  Si33  1  0.652900  0.037429  0.960521  1
  Si  Si34  1  0.345961  0.963677  0.039131  1
  Sn  Sn35  1  0.173384  0.460889  0.540244  1
