# generated using pymatgen
data_CdHg(Pt2Se3)2
_symmetry_space_group_name_H-M   'P 1'
_cell_length_a   7.54176000
_cell_length_b   7.54175985
_cell_length_c   5.43831900
_cell_angle_alpha   90.00000000
_cell_angle_beta   90.00000000
_cell_angle_gamma   120.00000943
_symmetry_Int_Tables_number   1
_chemical_formula_structural   CdHg(Pt2Se3)2
_chemical_formula_sum   'Cd1 Hg1 Pt4 Se6'
_cell_volume   267.88023810
_cell_formula_units_Z   1
loop_
 _symmetry_equiv_pos_site_id
 _symmetry_equiv_pos_as_xyz
  1  'x, y, z'
loop_
 _atom_site_type_symbol
 _atom_site_label
 _atom_site_symmetry_multiplicity
 _atom_site_fract_x
 _atom_site_fract_y
 _atom_site_fract_z
 _atom_site_occupancy
  Cd  Cd0  1  0.333333  0.666667  0.656697  1
  Hg  Hg1  1  0.666667  0.333333  0.355177  1
  Pt  Pt2  1  0.000000  0.000000  0.012591  1
  Pt  Pt3  1  0.500172  0.499828  0.992561  1
  Pt  Pt4  1  0.999655  0.499828  0.992561  1
  Pt  Pt5  1  0.500172  0.000345  0.992561  1
  Se  Se6  1  0.831961  0.663922  0.767714  1
  Se  Se7  1  0.831961  0.168039  0.767714  1
  Se  Se8  1  0.336078  0.168039  0.767714  1
  Se  Se9  1  0.176072  0.352143  0.231570  1
  Se  Se10  1  0.176072  0.823928  0.231570  1
  Se  Se11  1  0.647857  0.823928  0.231570  1
