# generated using pymatgen
data_KRb3CaCl6
_symmetry_space_group_name_H-M   'P 1'
_cell_length_a   9.04234380
_cell_length_b   9.04234320
_cell_length_c   9.04234374
_cell_angle_alpha   90.88033293
_cell_angle_beta   90.88033288
_cell_angle_gamma   90.88032568
_symmetry_Int_Tables_number   1
_chemical_formula_structural   KRb3CaCl6
_chemical_formula_sum   'K2 Rb6 Ca2 Cl12'
_cell_volume   739.07346201
_cell_formula_units_Z   2
loop_
 _symmetry_equiv_pos_site_id
 _symmetry_equiv_pos_as_xyz
  1  'x, y, z'
loop_
 _atom_site_type_symbol
 _atom_site_label
 _atom_site_symmetry_multiplicity
 _atom_site_fract_x
 _atom_site_fract_y
 _atom_site_fract_z
 _atom_site_occupancy
  K  K0  1  0.250000  0.250000  0.250000  1
  K  K1  1  0.750000  0.750000  0.750000  1
  Rb  Rb2  1  0.374854  0.125146  0.750000  1
  Rb  Rb3  1  0.125146  0.750000  0.374854  1
  Rb  Rb4  1  0.750000  0.374854  0.125146  1
  Rb  Rb5  1  0.625146  0.874854  0.250000  1
  Rb  Rb6  1  0.250000  0.625146  0.874854  1
  Rb  Rb7  1  0.874854  0.250000  0.625146  1
  Ca  Ca8  1  0.000000  0.000000  0.000000  1
  Ca  Ca9  1  0.500000  0.500000  0.500000  1
  Cl  Cl10  1  0.947754  0.075893  0.289319  1
  Cl  Cl11  1  0.075893  0.289319  0.947754  1
  Cl  Cl12  1  0.289319  0.947754  0.075893  1
  Cl  Cl13  1  0.575893  0.447754  0.789319  1
  Cl  Cl14  1  0.789319  0.575893  0.447754  1
  Cl  Cl15  1  0.447754  0.789319  0.575893  1
  Cl  Cl16  1  0.210681  0.424107  0.552246  1
  Cl  Cl17  1  0.424107  0.552246  0.210681  1
  Cl  Cl18  1  0.552246  0.210681  0.424107  1
  Cl  Cl19  1  0.924107  0.710681  0.052246  1
  Cl  Cl20  1  0.052246  0.924107  0.710681  1
  Cl  Cl21  1  0.710681  0.052246  0.924107  1
