# generated using pymatgen
data_Nb4VSi2Ge
_symmetry_space_group_name_H-M   'P 1'
_cell_length_a   7.55989220
_cell_length_b   7.55989188
_cell_length_c   7.55989298
_cell_angle_alpha   128.91797577
_cell_angle_beta   128.91796983
_cell_angle_gamma   75.14259433
_symmetry_Int_Tables_number   1
_chemical_formula_structural   Nb4VSi2Ge
_chemical_formula_sum   'Nb8 V2 Si4 Ge2'
_cell_volume   254.64157003
_cell_formula_units_Z   2
loop_
 _symmetry_equiv_pos_site_id
 _symmetry_equiv_pos_as_xyz
  1  'x, y, z'
loop_
 _atom_site_type_symbol
 _atom_site_label
 _atom_site_symmetry_multiplicity
 _atom_site_fract_x
 _atom_site_fract_y
 _atom_site_fract_z
 _atom_site_occupancy
  Nb  Nb0  1  0.018722  0.518722  0.832209  1
  Nb  Nb1  1  0.686512  0.186512  0.167791  1
  Nb  Nb2  1  0.518722  0.686512  0.500000  1
  Nb  Nb3  1  0.186512  0.018722  0.500000  1
  Nb  Nb4  1  0.981278  0.481278  0.167791  1
  Nb  Nb5  1  0.313488  0.813488  0.832209  1
  Nb  Nb6  1  0.481278  0.313488  0.500000  1
  Nb  Nb7  1  0.813488  0.981278  0.500000  1
  V  V8  1  0.000000  0.000000  0.000000  1
  V  V9  1  0.500000  0.500000  0.000000  1
  Si  Si10  1  0.632122  0.132122  0.764242  1
  Si  Si11  1  0.367878  0.867878  0.235758  1
  Si  Si12  1  0.132122  0.367878  0.500000  1
  Si  Si13  1  0.867878  0.632122  0.500000  1
  Ge  Ge14  1  0.750000  0.750000  0.000000  1
  Ge  Ge15  1  0.250000  0.250000  0.000000  1
