# generated using pymatgen
data_Pr16Ho(TmGa4)3
_symmetry_space_group_name_H-M   'P 1'
_cell_length_a   7.84308900
_cell_length_b   7.84308900
_cell_length_c   14.71692800
_cell_angle_alpha   90.00000000
_cell_angle_beta   90.00000000
_cell_angle_gamma   90.00000000
_symmetry_Int_Tables_number   1
_chemical_formula_structural   Pr16Ho(TmGa4)3
_chemical_formula_sum   'Pr16 Ho1 Tm3 Ga12'
_cell_volume   905.29777217
_cell_formula_units_Z   1
loop_
 _symmetry_equiv_pos_site_id
 _symmetry_equiv_pos_as_xyz
  1  'x, y, z'
loop_
 _atom_site_type_symbol
 _atom_site_label
 _atom_site_symmetry_multiplicity
 _atom_site_fract_x
 _atom_site_fract_y
 _atom_site_fract_z
 _atom_site_occupancy
  Pr  Pr0  1  0.815594  0.839556  0.603755  1
  Pr  Pr1  1  0.184341  0.839449  0.103766  1
  Pr  Pr2  1  0.160534  0.815661  0.396239  1
  Pr  Pr3  1  0.839466  0.184339  0.396239  1
  Pr  Pr4  1  0.684339  0.660534  0.396239  1
  Pr  Pr5  1  0.660444  0.315594  0.603755  1
  Pr  Pr6  1  0.339556  0.684406  0.603755  1
  Pr  Pr7  1  0.660551  0.684341  0.103766  1
  Pr  Pr8  1  0.684331  0.339442  0.896249  1
  Pr  Pr9  1  0.839442  0.815669  0.896249  1
  Pr  Pr10  1  0.315661  0.339466  0.396239  1
  Pr  Pr11  1  0.184406  0.160444  0.603755  1
  Pr  Pr12  1  0.815659  0.160551  0.103766  1
  Pr  Pr13  1  0.315669  0.660558  0.896249  1
  Pr  Pr14  1  0.339449  0.315659  0.103766  1
  Pr  Pr15  1  0.160558  0.184331  0.896249  1
  Ho  Ho16  1  0.000000  0.500000  0.722744  1
  Tm  Tm17  1  0.000000  0.500000  0.222892  1
  Tm  Tm18  1  0.500000  0.000000  0.277098  1
  Tm  Tm19  1  0.500000  0.000000  0.777118  1
  Ga  Ga20  1  0.621746  0.378253  0.250004  1
  Ga  Ga21  1  0.121797  0.878423  0.750042  1
  Ga  Ga22  1  0.378423  0.378203  0.750042  1
  Ga  Ga23  1  0.378254  0.621747  0.250004  1
  Ga  Ga24  1  0.878253  0.878254  0.250004  1
  Ga  Ga25  1  0.621577  0.621797  0.750042  1
  Ga  Ga26  1  0.000000  0.500000  0.512163  1
  Ga  Ga27  1  0.878203  0.121577  0.750042  1
  Ga  Ga28  1  0.500000  0.000000  0.487700  1
  Ga  Ga29  1  0.500000  0.000000  0.987710  1
  Ga  Ga30  1  0.121747  0.121746  0.250004  1
  Ga  Ga31  1  0.000000  0.500000  0.012355  1
