# generated using pymatgen
data_Sr5Yb6Y9Pb16
_symmetry_space_group_name_H-M   'P 1'
_cell_length_a   8.18277476
_cell_length_b   8.66023169
_cell_length_c   16.35256400
_cell_angle_alpha   90.08381106
_cell_angle_beta   90.09713878
_cell_angle_gamma   89.71983653
_symmetry_Int_Tables_number   1
_chemical_formula_structural   Sr5Yb6Y9Pb16
_chemical_formula_sum   'Sr5 Yb6 Y9 Pb16'
_cell_volume   1158.80321126
_cell_formula_units_Z   1
loop_
 _symmetry_equiv_pos_site_id
 _symmetry_equiv_pos_as_xyz
  1  'x, y, z'
loop_
 _atom_site_type_symbol
 _atom_site_label
 _atom_site_symmetry_multiplicity
 _atom_site_fract_x
 _atom_site_fract_y
 _atom_site_fract_z
 _atom_site_occupancy
  Sr  Sr0  1  0.500305  0.682161  0.593697  1
  Sr  Sr1  1  0.002803  0.820881  0.909257  1
  Sr  Sr2  1  0.497664  0.317717  0.090991  1
  Sr  Sr3  1  0.997177  0.180575  0.409422  1
  Sr  Sr4  1  0.495752  0.317178  0.407391  1
  Yb  Yb5  1  0.996396  0.188114  0.092064  1
  Yb  Yb6  1  0.504467  0.688115  0.904318  1
  Yb  Yb7  1  0.002155  0.813686  0.594303  1
  Yb  Yb8  1  0.336786  0.991829  0.749904  1
  Yb  Yb9  1  0.164933  0.492796  0.249266  1
  Yb  Yb10  1  0.663762  0.006149  0.248970  1
  Y  Y11  1  0.674097  0.160364  0.623461  1
  Y  Y12  1  0.174296  0.337147  0.877339  1
  Y  Y13  1  0.327400  0.834680  0.120761  1
  Y  Y14  1  0.829287  0.664621  0.378143  1
  Y  Y15  1  0.326091  0.835762  0.377085  1
  Y  Y16  1  0.827531  0.661886  0.121696  1
  Y  Y17  1  0.674271  0.159733  0.876613  1
  Y  Y18  1  0.173787  0.337844  0.624499  1
  Y  Y19  1  0.836695  0.506636  0.750522  1
  Pb  Pb20  1  0.669946  0.957988  0.459631  1
  Pb  Pb21  1  0.170005  0.537188  0.041092  1
  Pb  Pb22  1  0.331652  0.038167  0.957353  1
  Pb  Pb23  1  0.829864  0.463755  0.545592  1
  Pb  Pb24  1  0.323357  0.037661  0.543723  1
  Pb  Pb25  1  0.823862  0.462507  0.954991  1
  Pb  Pb26  1  0.676149  0.960536  0.041996  1
  Pb  Pb27  1  0.169426  0.544000  0.460367  1
  Pb  Pb28  1  0.476611  0.376493  0.751429  1
  Pb  Pb29  1  0.974590  0.132979  0.749904  1
  Pb  Pb30  1  0.527679  0.627679  0.249752  1
  Pb  Pb31  1  0.025575  0.870210  0.248551  1
  Pb  Pb32  1  0.714372  0.860600  0.749831  1
  Pb  Pb33  1  0.201865  0.635101  0.750126  1
  Pb  Pb34  1  0.285213  0.127933  0.247613  1
  Pb  Pb35  1  0.794175  0.369330  0.248346  1
