# generated using pymatgen
data_Ba2NiSb4Ir
_symmetry_space_group_name_H-M   'P 1'
_cell_length_a   9.57964898
_cell_length_b   9.57964892
_cell_length_c   4.87100100
_cell_angle_alpha   90.00000000
_cell_angle_beta   90.00000000
_cell_angle_gamma   150.55997602
_symmetry_Int_Tables_number   1
_chemical_formula_structural   Ba2NiSb4Ir
_chemical_formula_sum   'Ba2 Ni1 Sb4 Ir1'
_cell_volume   219.71096318
_cell_formula_units_Z   1
loop_
 _symmetry_equiv_pos_site_id
 _symmetry_equiv_pos_as_xyz
  1  'x, y, z'
loop_
 _atom_site_type_symbol
 _atom_site_label
 _atom_site_symmetry_multiplicity
 _atom_site_fract_x
 _atom_site_fract_y
 _atom_site_fract_z
 _atom_site_occupancy
  Ba  Ba0  1  0.393385  0.606615  0.750000  1
  Ba  Ba1  1  0.606348  0.393652  0.250000  1
  Ni  Ni2  1  0.810891  0.189109  0.250000  1
  Sb  Sb3  1  0.047746  0.952254  0.750000  1
  Sb  Sb4  1  0.948400  0.051600  0.250000  1
  Sb  Sb5  1  0.251626  0.748374  0.250000  1
  Sb  Sb6  1  0.752187  0.247813  0.750000  1
  Ir  Ir7  1  0.189419  0.810581  0.750000  1
