# generated using pymatgen
data_SmY11Fe2Br17
_symmetry_space_group_name_H-M   'P 1'
_cell_length_a   9.21674182
_cell_length_b   11.13521992
_cell_length_c   11.11650208
_cell_angle_alpha   93.53602121
_cell_angle_beta   104.58540238
_cell_angle_gamma   114.19866570
_symmetry_Int_Tables_number   1
_chemical_formula_structural   SmY11Fe2Br17
_chemical_formula_sum   'Sm1 Y11 Fe2 Br17'
_cell_volume   989.37676803
_cell_formula_units_Z   1
loop_
 _symmetry_equiv_pos_site_id
 _symmetry_equiv_pos_as_xyz
  1  'x, y, z'
loop_
 _atom_site_type_symbol
 _atom_site_label
 _atom_site_symmetry_multiplicity
 _atom_site_fract_x
 _atom_site_fract_y
 _atom_site_fract_z
 _atom_site_occupancy
  Sm  Sm0  1  0.846210  0.711808  0.848573  1
  Y  Y1  1  0.058667  0.511679  0.323427  1
  Y  Y2  1  0.983885  0.811627  0.575765  1
  Y  Y3  1  0.643326  0.239841  0.286420  1
  Y  Y4  1  0.014111  0.189866  0.419912  1
  Y  Y5  1  0.226090  0.670101  0.994370  1
  Y  Y6  1  0.259899  0.990716  0.892201  1
  Y  Y7  1  0.350264  0.759678  0.715644  1
  Y  Y8  1  0.939236  0.483306  0.675726  1
  Y  Y9  1  0.743116  0.013612  0.109016  1
  Y  Y10  1  0.155895  0.288926  0.151264  1
  Y  Y11  1  0.776428  0.329111  0.009767  1
  Fe  Fe12  1  0.100822  0.737650  0.785508  1
  Fe  Fe13  1  0.896878  0.262011  0.214946  1
  Br  Br14  1  0.787008  0.527342  0.420293  1
  Br  Br15  1  0.647896  0.415957  0.761135  1
  Br  Br16  1  0.847300  0.899870  0.327392  1
  Br  Br17  1  0.328061  0.215202  0.366182  1
  Br  Br18  1  0.154371  0.099925  0.671751  1
  Br  Br19  1  0.582891  0.050117  0.846170  1
  Br  Br20  1  0.760269  0.188847  0.538116  1
  Br  Br21  1  0.545646  0.712610  0.952523  1
  Br  Br22  1  0.354407  0.579416  0.237967  1
  Br  Br23  1  0.213028  0.474002  0.582501  1
  Br  Br24  1  0.058619  0.372214  0.899009  1
  Br  Br25  1  0.449891  0.288259  0.046662  1
  Br  Br26  1  0.002402  0.001788  0.999608  1
  Br  Br27  1  0.239245  0.810190  0.463795  1
  Br  Br28  1  0.413884  0.947306  0.152730  1
  Br  Br29  1  0.673692  0.787870  0.629190  1
  Br  Br30  1  0.946559  0.629154  0.102440  1
