# generated using pymatgen
data_Lu4ScP12IrRu18
_symmetry_space_group_name_H-M   'P 1'
_cell_length_a   12.46917293
_cell_length_b   12.46917352
_cell_length_c   3.95612400
_cell_angle_alpha   90.00000000
_cell_angle_beta   90.00000000
_cell_angle_gamma   119.93617422
_symmetry_Int_Tables_number   1
_chemical_formula_structural   Lu4ScP12IrRu18
_chemical_formula_sum   'Lu4 Sc1 P12 Ir1 Ru18'
_cell_volume   533.03386509
_cell_formula_units_Z   1
loop_
 _symmetry_equiv_pos_site_id
 _symmetry_equiv_pos_as_xyz
  1  'x, y, z'
loop_
 _atom_site_type_symbol
 _atom_site_label
 _atom_site_symmetry_multiplicity
 _atom_site_fract_x
 _atom_site_fract_y
 _atom_site_fract_z
 _atom_site_occupancy
  Lu  Lu0  1  0.333089  0.666308  0.000000  1
  Lu  Lu1  1  0.666308  0.333089  0.000000  1
  Lu  Lu2  1  0.814909  0.000059  0.500000  1
  Lu  Lu3  1  0.000059  0.814909  0.500000  1
  Sc  Sc4  1  0.186154  0.186154  0.500000  1
  P  P5  1  0.184291  0.000732  0.000000  1
  P  P6  1  0.000732  0.184291  0.000000  1
  P  P7  1  0.816308  0.816308  0.000000  1
  P  P8  1  0.170701  0.477763  0.500000  1
  P  P9  1  0.521575  0.692270  0.500000  1
  P  P10  1  0.307302  0.829687  0.500000  1
  P  P11  1  0.692270  0.521575  0.500000  1
  P  P12  1  0.829687  0.307302  0.500000  1
  P  P13  1  0.477763  0.170701  0.500000  1
  P  P14  1  0.628006  0.000071  0.000000  1
  P  P15  1  0.000071  0.628006  0.000000  1
  P  P16  1  0.371598  0.371598  0.000000  1
  Ir  Ir17  1  0.000935  0.000935  0.000000  1
  Ru  Ru18  1  0.445175  0.000371  0.000000  1
  Ru  Ru19  1  0.000371  0.445175  0.000000  1
  Ru  Ru20  1  0.554579  0.554579  0.000000  1
  Ru  Ru21  1  0.364652  0.491687  0.500000  1
  Ru  Ru22  1  0.507783  0.872844  0.500000  1
  Ru  Ru23  1  0.127234  0.635047  0.500000  1
  Ru  Ru24  1  0.872844  0.507783  0.500000  1
  Ru  Ru25  1  0.635047  0.127234  0.500000  1
  Ru  Ru26  1  0.491687  0.364652  0.500000  1
  Ru  Ru27  1  0.185159  0.374697  0.000000  1
  Ru  Ru28  1  0.623706  0.808802  0.000000  1
  Ru  Ru29  1  0.191213  0.815078  0.000000  1
  Ru  Ru30  1  0.808802  0.623706  0.000000  1
  Ru  Ru31  1  0.815078  0.191213  0.000000  1
  Ru  Ru32  1  0.374697  0.185159  0.000000  1
  Ru  Ru33  1  0.280282  0.000738  0.500000  1
  Ru  Ru34  1  0.000738  0.280282  0.500000  1
  Ru  Ru35  1  0.719194  0.719194  0.500000  1
