# generated using pymatgen
data_CaIr2ClF11
_symmetry_space_group_name_H-M   'P 1'
_cell_length_a   11.77433502
_cell_length_b   5.88094490
_cell_length_c   5.91782041
_cell_angle_alpha   57.41394731
_cell_angle_beta   57.30387668
_cell_angle_gamma   56.70916643
_symmetry_Int_Tables_number   1
_chemical_formula_structural   CaIr2ClF11
_chemical_formula_sum   'Ca1 Ir2 Cl1 F11'
_cell_volume   270.64997991
_cell_formula_units_Z   1
loop_
 _symmetry_equiv_pos_site_id
 _symmetry_equiv_pos_as_xyz
  1  'x, y, z'
loop_
 _atom_site_type_symbol
 _atom_site_label
 _atom_site_symmetry_multiplicity
 _atom_site_fract_x
 _atom_site_fract_y
 _atom_site_fract_z
 _atom_site_occupancy
  Ca  Ca0  1  0.749083  0.500634  0.500453  1
  Ir  Ir1  1  0.004978  0.989902  0.000360  1
  Ir  Ir2  1  0.494713  0.007293  0.000969  1
  Cl  Cl3  1  0.187952  0.142185  0.741211  1
  F  F4  1  0.662150  0.129567  0.775222  1
  F  F5  1  0.058267  0.773739  0.328815  1
  F  F6  1  0.563818  0.777258  0.324519  1
  F  F7  1  0.109474  0.666546  0.883113  1
  F  F8  1  0.613899  0.673409  0.871946  1
  F  F9  1  0.435554  0.223195  0.679816  1
  F  F10  1  0.931397  0.220000  0.682254  1
  F  F11  1  0.337622  0.879743  0.222003  1
  F  F12  1  0.833205  0.866409  0.231191  1
  F  F13  1  0.386400  0.327836  0.124662  1
  F  F14  1  0.881486  0.322281  0.133465  1
