# generated using pymatgen
data_Y4Sc4Co(B8Ir)3
_symmetry_space_group_name_H-M   'P 1'
_cell_length_a   3.53512700
_cell_length_b   8.99848157
_cell_length_c   11.37150397
_cell_angle_alpha   89.93243422
_cell_angle_beta   90.00000000
_cell_angle_gamma   90.00000000
_symmetry_Int_Tables_number   1
_chemical_formula_structural   Y4Sc4Co(B8Ir)3
_chemical_formula_sum   'Y4 Sc4 Co1 B24 Ir3'
_cell_volume   361.73610445
_cell_formula_units_Z   1
loop_
 _symmetry_equiv_pos_site_id
 _symmetry_equiv_pos_as_xyz
  1  'x, y, z'
loop_
 _atom_site_type_symbol
 _atom_site_label
 _atom_site_symmetry_multiplicity
 _atom_site_fract_x
 _atom_site_fract_y
 _atom_site_fract_z
 _atom_site_occupancy
  Y  Y0  1  0.500000  0.317476  0.411266  1
  Y  Y1  1  0.500000  0.680533  0.585558  1
  Y  Y2  1  0.500000  0.179408  0.917783  1
  Y  Y3  1  0.500000  0.823686  0.087168  1
  Sc  Sc4  1  0.500000  0.440702  0.125657  1
  Sc  Sc5  1  0.500000  0.554982  0.876437  1
  Sc  Sc6  1  0.500000  0.054946  0.623846  1
  Sc  Sc7  1  0.500000  0.947957  0.372278  1
  Co  Co8  1  0.500000  0.141819  0.182434  1
  B  B9  1  0.000000  0.100212  0.472193  1
  B  B10  1  0.000000  0.900631  0.526118  1
  B  B11  1  0.000000  0.398921  0.973814  1
  B  B12  1  0.000000  0.599772  0.027380  1
  B  B13  1  0.000000  0.130129  0.315976  1
  B  B14  1  0.000000  0.870132  0.681014  1
  B  B15  1  0.000000  0.370244  0.819300  1
  B  B16  1  0.000000  0.629534  0.181836  1
  B  B17  1  0.000000  0.055685  0.068274  1
  B  B18  1  0.000000  0.945713  0.934624  1
  B  B19  1  0.000000  0.444780  0.565901  1
  B  B20  1  0.000000  0.554514  0.433184  1
  B  B21  1  0.000000  0.480966  0.284665  1
  B  B22  1  0.000000  0.518126  0.715535  1
  B  B23  1  0.000000  0.018301  0.785416  1
  B  B24  1  0.000000  0.985063  0.213655  1
  B  B25  1  0.000000  0.251680  0.083010  1
  B  B26  1  0.000000  0.746230  0.920074  1
  B  B27  1  0.000000  0.245460  0.580151  1
  B  B28  1  0.000000  0.755447  0.418445  1
  B  B29  1  0.000000  0.293086  0.234435  1
  B  B30  1  0.000000  0.704480  0.764524  1
  B  B31  1  0.000000  0.204421  0.735501  1
  B  B32  1  0.000000  0.796747  0.264466  1
  Ir  Ir33  1  0.500000  0.858349  0.817703  1
  Ir  Ir34  1  0.500000  0.358742  0.681476  1
  Ir  Ir35  1  0.500000  0.641128  0.318902  1
