# generated using pymatgen
data_La4Yb5TmSn8
_symmetry_space_group_name_H-M   'P 1'
_cell_length_a   8.25132300
_cell_length_b   8.40528757
_cell_length_c   15.96275300
_cell_angle_alpha   90.02109749
_cell_angle_beta   90.00000000
_cell_angle_gamma   90.00000000
_symmetry_Int_Tables_number   1
_chemical_formula_structural   La4Yb5TmSn8
_chemical_formula_sum   'La8 Yb10 Tm2 Sn16'
_cell_volume   1107.09255119
_cell_formula_units_Z   2
loop_
 _symmetry_equiv_pos_site_id
 _symmetry_equiv_pos_as_xyz
  1  'x, y, z'
loop_
 _atom_site_type_symbol
 _atom_site_label
 _atom_site_symmetry_multiplicity
 _atom_site_fract_x
 _atom_site_fract_y
 _atom_site_fract_z
 _atom_site_occupancy
  La  La0  1  0.496144  0.321579  0.903625  1
  La  La1  1  0.996144  0.178421  0.596375  1
  La  La2  1  0.502888  0.682735  0.403358  1
  La  La3  1  0.002888  0.817265  0.096642  1
  La  La4  1  0.504549  0.681275  0.096305  1
  La  La5  1  0.004549  0.818725  0.403695  1
  La  La6  1  0.495658  0.318446  0.595965  1
  La  La7  1  0.995658  0.181554  0.904035  1
  Yb  Yb8  1  0.662903  0.170792  0.376947  1
  Yb  Yb9  1  0.162903  0.329208  0.123053  1
  Yb  Yb10  1  0.663210  0.170683  0.123044  1
  Yb  Yb11  1  0.163210  0.329317  0.376956  1
  Yb  Yb12  1  0.336455  0.828811  0.623542  1
  Yb  Yb13  1  0.836455  0.671189  0.876458  1
  Yb  Yb14  1  0.170568  0.500589  0.750056  1
  Yb  Yb15  1  0.670568  0.999411  0.749944  1
  Yb  Yb16  1  0.831726  0.495733  0.250673  1
  Yb  Yb17  1  0.331726  0.004267  0.249327  1
  Tm  Tm18  1  0.336551  0.828972  0.874458  1
  Tm  Tm19  1  0.836551  0.671028  0.625542  1
  Sn  Sn20  1  0.328769  0.033834  0.036218  1
  Sn  Sn21  1  0.828769  0.466166  0.463782  1
  Sn  Sn22  1  0.673323  0.959524  0.540635  1
  Sn  Sn23  1  0.173323  0.540476  0.959365  1
  Sn  Sn24  1  0.661252  0.961605  0.958048  1
  Sn  Sn25  1  0.161252  0.538395  0.541952  1
  Sn  Sn26  1  0.332499  0.036670  0.461380  1
  Sn  Sn27  1  0.832499  0.463330  0.038620  1
  Sn  Sn28  1  0.539601  0.616457  0.748000  1
  Sn  Sn29  1  0.039601  0.883543  0.752000  1
  Sn  Sn30  1  0.461122  0.390256  0.249750  1
  Sn  Sn31  1  0.961122  0.109744  0.250250  1
  Sn  Sn32  1  0.294903  0.131710  0.751644  1
  Sn  Sn33  1  0.794903  0.368290  0.748356  1
  Sn  Sn34  1  0.707878  0.864520  0.249916  1
  Sn  Sn35  1  0.207878  0.635480  0.250084  1
