# generated using pymatgen
data_Tb6Al17Ga(Re3Os4)2
_symmetry_space_group_name_H-M   'P 1'
_cell_length_a   8.86875900
_cell_length_b   8.86875962
_cell_length_c   9.59454600
_cell_angle_alpha   90.00000000
_cell_angle_beta   90.00000000
_cell_angle_gamma   120.00329000
_symmetry_Int_Tables_number   1
_chemical_formula_structural   Tb6Al17Ga(Re3Os4)2
_chemical_formula_sum   'Tb6 Al17 Ga1 Re6 Os8'
_cell_volume   653.53131132
_cell_formula_units_Z   1
loop_
 _symmetry_equiv_pos_site_id
 _symmetry_equiv_pos_as_xyz
  1  'x, y, z'
loop_
 _atom_site_type_symbol
 _atom_site_label
 _atom_site_symmetry_multiplicity
 _atom_site_fract_x
 _atom_site_fract_y
 _atom_site_fract_z
 _atom_site_occupancy
  Tb  Tb0  1  0.196336  0.392692  0.250000  1
  Tb  Tb1  1  0.802900  0.605779  0.750000  1
  Tb  Tb2  1  0.607308  0.803664  0.250000  1
  Tb  Tb3  1  0.394221  0.197100  0.750000  1
  Tb  Tb4  1  0.196342  0.803658  0.250000  1
  Tb  Tb5  1  0.802892  0.197108  0.750000  1
  Al  Al6  1  0.333322  0.666678  0.009521  1
  Al  Al7  1  0.666678  0.333322  0.990678  1
  Al  Al8  1  0.666678  0.333322  0.509322  1
  Al  Al9  1  0.333322  0.666678  0.490479  1
  Al  Al10  1  0.165076  0.330186  0.576516  1
  Al  Al11  1  0.834452  0.668868  0.424118  1
  Al  Al12  1  0.669814  0.834924  0.576516  1
  Al  Al13  1  0.834452  0.668868  0.075882  1
  Al  Al14  1  0.331132  0.165548  0.424118  1
  Al  Al15  1  0.165076  0.330186  0.923484  1
  Al  Al16  1  0.165106  0.834894  0.576519  1
  Al  Al17  1  0.331132  0.165548  0.075882  1
  Al  Al18  1  0.834423  0.165577  0.424115  1
  Al  Al19  1  0.669814  0.834924  0.923484  1
  Al  Al20  1  0.834423  0.165577  0.075885  1
  Al  Al21  1  0.165106  0.834894  0.923481  1
  Al  Al22  1  0.000000  0.000000  0.750000  1
  Ga  Ga23  1  0.999999  0.000001  0.250000  1
  Re  Re24  1  0.571274  0.142520  0.250000  1
  Re  Re25  1  0.428501  0.857032  0.750000  1
  Re  Re26  1  0.857480  0.428726  0.250000  1
  Re  Re27  1  0.142968  0.571499  0.750000  1
  Re  Re28  1  0.571234  0.428766  0.250000  1
  Re  Re29  1  0.428539  0.571461  0.750000  1
  Os  Os30  1  0.500014  0.000028  0.999942  1
  Os  Os31  1  0.999972  0.499986  0.999942  1
  Os  Os32  1  0.500014  0.000028  0.500058  1
  Os  Os33  1  0.500014  0.499986  0.999941  1
  Os  Os34  1  0.999972  0.499986  0.500058  1
  Os  Os35  1  0.500014  0.499986  0.500059  1
  Os  Os36  1  0.000000  0.000000  0.998735  1
  Os  Os37  1  0.000000  0.000000  0.501265  1
