# generated using pymatgen
data_TaMn5(InRh2)6
_symmetry_space_group_name_H-M   'P 1'
_cell_length_a   4.49401200
_cell_length_b   6.29828100
_cell_length_c   13.42426101
_cell_angle_alpha   90.00000000
_cell_angle_beta   89.99999199
_cell_angle_gamma   90.00000000
_symmetry_Int_Tables_number   1
_chemical_formula_structural   TaMn5(InRh2)6
_chemical_formula_sum   'Ta1 Mn5 In6 Rh12'
_cell_volume   379.96767237
_cell_formula_units_Z   1
loop_
 _symmetry_equiv_pos_site_id
 _symmetry_equiv_pos_as_xyz
  1  'x, y, z'
loop_
 _atom_site_type_symbol
 _atom_site_label
 _atom_site_symmetry_multiplicity
 _atom_site_fract_x
 _atom_site_fract_y
 _atom_site_fract_z
 _atom_site_occupancy
  Ta  Ta0  1  0.000001  0.000000  0.000005  1
  Mn  Mn1  1  0.500020  0.500001  0.169151  1
  Mn  Mn2  1  0.000013  0.000000  0.334674  1
  Mn  Mn3  1  0.500000  0.500001  0.499999  1
  Mn  Mn4  1  0.999988  0.000000  0.665331  1
  Mn  Mn5  1  0.499982  0.500001  0.830860  1
  In  In6  1  0.000000  0.500001  0.999999  1
  In  In7  1  0.499998  0.000000  0.170881  1
  In  In8  1  0.000035  0.500001  0.334995  1
  In  In9  1  0.500000  0.000000  0.499999  1
  In  In10  1  0.999969  0.500001  0.664998  1
  In  In11  1  0.500001  0.000000  0.829125  1
  Rh  Rh12  1  0.500001  0.247042  0.000004  1
  Rh  Rh13  1  0.500001  0.752959  0.000004  1
  Rh  Rh14  1  0.000016  0.247319  0.163730  1
  Rh  Rh15  1  0.000016  0.752680  0.163730  1
  Rh  Rh16  1  0.500014  0.251609  0.333104  1
  Rh  Rh17  1  0.500014  0.748390  0.333104  1
  Rh  Rh18  1  0.000000  0.248896  0.499998  1
  Rh  Rh19  1  0.000000  0.751103  0.499998  1
  Rh  Rh20  1  0.499986  0.251600  0.666893  1
  Rh  Rh21  1  0.499986  0.748399  0.666893  1
  Rh  Rh22  1  0.999983  0.247349  0.836262  1
  Rh  Rh23  1  0.999983  0.752650  0.836262  1
