# generated using pymatgen
data_Ac2Tm(InPd)3
_symmetry_space_group_name_H-M   'P 1'
_cell_length_a   7.85416900
_cell_length_b   7.89375847
_cell_length_c   4.16851100
_cell_angle_alpha   90.00000000
_cell_angle_beta   90.00000000
_cell_angle_gamma   119.83422965
_symmetry_Int_Tables_number   1
_chemical_formula_structural   Ac2Tm(InPd)3
_chemical_formula_sum   'Ac2 Tm1 In3 Pd3'
_cell_volume   224.19126581
_cell_formula_units_Z   1
loop_
 _symmetry_equiv_pos_site_id
 _symmetry_equiv_pos_as_xyz
  1  'x, y, z'
loop_
 _atom_site_type_symbol
 _atom_site_label
 _atom_site_symmetry_multiplicity
 _atom_site_fract_x
 _atom_site_fract_y
 _atom_site_fract_z
 _atom_site_occupancy
  Ac  Ac0  1  0.001802  0.412248  0.500000  1
  Ac  Ac1  1  0.589553  0.587752  0.500000  1
  Tm  Tm2  1  0.407783  0.000000  0.500000  1
  In  In3  1  0.015291  0.766197  0.000000  1
  In  In4  1  0.249094  0.233803  0.000000  1
  In  In5  1  0.740501  0.000000  0.000000  1
  Pd  Pd6  1  0.339169  0.687614  0.000000  1
  Pd  Pd7  1  0.651555  0.312386  0.000000  1
  Pd  Pd8  1  0.005250  0.000000  0.500000  1
