# generated using pymatgen
data_Sm2AlFe(WO6)2
_symmetry_space_group_name_H-M   'P 1'
_cell_length_a   5.30545709
_cell_length_b   7.44804113
_cell_length_c   10.97330500
_cell_angle_alpha   90.00000000
_cell_angle_beta   90.00000000
_cell_angle_gamma   89.97877103
_symmetry_Int_Tables_number   1
_chemical_formula_structural   Sm2AlFe(WO6)2
_chemical_formula_sum   'Sm4 Al2 Fe2 W4 O24'
_cell_volume   433.61299908
_cell_formula_units_Z   2
loop_
 _symmetry_equiv_pos_site_id
 _symmetry_equiv_pos_as_xyz
  1  'x, y, z'
loop_
 _atom_site_type_symbol
 _atom_site_label
 _atom_site_symmetry_multiplicity
 _atom_site_fract_x
 _atom_site_fract_y
 _atom_site_fract_z
 _atom_site_occupancy
  Sm  Sm0  1  0.547494  0.250745  0.050370  1
  Sm  Sm1  1  0.047495  0.750745  0.449630  1
  Sm  Sm2  1  0.956626  0.252398  0.539064  1
  Sm  Sm3  1  0.456625  0.752398  0.960936  1
  Al  Al4  1  0.045739  0.997365  0.136987  1
  Al  Al5  1  0.545739  0.497365  0.363013  1
  Fe  Fe6  1  0.456641  0.997103  0.638952  1
  Fe  Fe7  1  0.956639  0.497103  0.861047  1
  W  W8  1  0.053051  0.505675  0.146123  1
  W  W9  1  0.553051  0.005676  0.353877  1
  W  W10  1  0.449170  0.506670  0.641051  1
  W  W11  1  0.949168  0.006671  0.858950  1
  O  O12  1  0.769757  0.963973  0.026642  1
  O  O13  1  0.766107  0.540711  0.030989  1
  O  O14  1  0.153918  0.753402  0.124320  1
  O  O15  1  0.957308  0.252539  0.144139  1
  O  O16  1  0.371817  0.446370  0.217631  1
  O  O17  1  0.366217  0.056390  0.212064  1
  O  O18  1  0.866217  0.556389  0.287937  1
  O  O19  1  0.871815  0.946370  0.282370  1
  O  O20  1  0.457307  0.752539  0.355861  1
  O  O21  1  0.653918  0.253402  0.375680  1
  O  O22  1  0.266109  0.040711  0.469011  1
  O  O23  1  0.269756  0.463973  0.473358  1
  O  O24  1  0.741004  0.964149  0.517355  1
  O  O25  1  0.729417  0.541915  0.521594  1
  O  O26  1  0.331054  0.749320  0.618494  1
  O  O27  1  0.560876  0.258071  0.643725  1
  O  O28  1  0.128252  0.437345  0.705061  1
  O  O29  1  0.115551  0.066059  0.713807  1
  O  O30  1  0.615551  0.566058  0.786193  1
  O  O31  1  0.628252  0.937345  0.794939  1
  O  O32  1  0.060875  0.758071  0.856275  1
  O  O33  1  0.831055  0.249320  0.881506  1
  O  O34  1  0.229417  0.041915  0.978406  1
  O  O35  1  0.241005  0.464149  0.982645  1
