# generated using pymatgen
data_Lu3ZnGa4Cu
_symmetry_space_group_name_H-M   'P 1'
_cell_length_a   6.79366800
_cell_length_b   6.77083035
_cell_length_c   4.24193100
_cell_angle_alpha   90.00000000
_cell_angle_beta   90.00000000
_cell_angle_gamma   120.11164885
_symmetry_Int_Tables_number   1
_chemical_formula_structural   Lu3ZnGa4Cu
_chemical_formula_sum   'Lu3 Zn1 Ga4 Cu1'
_cell_volume   168.79158090
_cell_formula_units_Z   1
loop_
 _symmetry_equiv_pos_site_id
 _symmetry_equiv_pos_as_xyz
  1  'x, y, z'
loop_
 _atom_site_type_symbol
 _atom_site_label
 _atom_site_symmetry_multiplicity
 _atom_site_fract_x
 _atom_site_fract_y
 _atom_site_fract_z
 _atom_site_occupancy
  Lu  Lu0  1  0.583677  0.000000  0.500000  1
  Lu  Lu1  1  0.415824  0.415371  0.500000  1
  Lu  Lu2  1  0.000451  0.584629  0.500000  1
  Zn  Zn3  1  0.241013  0.000000  0.000000  1
  Ga  Ga4  1  0.002009  0.239305  0.000000  1
  Ga  Ga5  1  0.664770  0.331403  0.000000  1
  Ga  Ga6  1  0.333365  0.668597  0.000000  1
  Ga  Ga7  1  0.762704  0.760695  0.000000  1
  Cu  Cu8  1  0.996187  0.000000  0.500000  1
