# generated using pymatgen
data_DyHo3Al2(ZnRh2)2
_symmetry_space_group_name_H-M   'P 1'
_cell_length_a   4.05886500
_cell_length_b   6.95898888
_cell_length_c   8.10410816
_cell_angle_alpha   90.13386570
_cell_angle_beta   90.00000000
_cell_angle_gamma   90.00000000
_symmetry_Int_Tables_number   1
_chemical_formula_structural   DyHo3Al2(ZnRh2)2
_chemical_formula_sum   'Dy1 Ho3 Al2 Zn2 Rh4'
_cell_volume   228.90474359
_cell_formula_units_Z   1
loop_
 _symmetry_equiv_pos_site_id
 _symmetry_equiv_pos_as_xyz
  1  'x, y, z'
loop_
 _atom_site_type_symbol
 _atom_site_label
 _atom_site_symmetry_multiplicity
 _atom_site_fract_x
 _atom_site_fract_y
 _atom_site_fract_z
 _atom_site_occupancy
  Dy  Dy0  1  0.250000  0.540227  0.185759  1
  Ho  Ho1  1  0.750000  0.459571  0.814089  1
  Ho  Ho2  1  0.250000  0.040498  0.321125  1
  Ho  Ho3  1  0.750000  0.959514  0.678956  1
  Al  Al4  1  0.250000  0.136217  0.938833  1
  Al  Al5  1  0.750000  0.863922  0.061071  1
  Zn  Zn6  1  0.250000  0.636545  0.563626  1
  Zn  Zn7  1  0.750000  0.363398  0.436587  1
  Rh  Rh8  1  0.750000  0.748151  0.369703  1
  Rh  Rh9  1  0.250000  0.252065  0.630450  1
  Rh  Rh10  1  0.750000  0.235137  0.113023  1
  Rh  Rh11  1  0.250000  0.764756  0.886778  1
