# generated using pymatgen
data_Ta4Ti9NbP8
_symmetry_space_group_name_H-M   'P 1'
_cell_length_a   7.59963502
_cell_length_b   7.59963511
_cell_length_c   13.71831944
_cell_angle_alpha   75.88199449
_cell_angle_beta   75.88199392
_cell_angle_gamma   25.84709629
_symmetry_Int_Tables_number   1
_chemical_formula_structural   Ta4Ti9NbP8
_chemical_formula_sum   'Ta4 Ti9 Nb1 P8'
_cell_volume   334.42567611
_cell_formula_units_Z   1
loop_
 _symmetry_equiv_pos_site_id
 _symmetry_equiv_pos_as_xyz
  1  'x, y, z'
loop_
 _atom_site_type_symbol
 _atom_site_label
 _atom_site_symmetry_multiplicity
 _atom_site_fract_x
 _atom_site_fract_y
 _atom_site_fract_z
 _atom_site_occupancy
  Ta  Ta0  1  0.999297  0.999297  0.000846  1
  Ta  Ta1  1  0.499875  0.499875  0.499493  1
  Ta  Ta2  1  0.571699  0.571699  0.828393  1
  Ta  Ta3  1  0.197636  0.197636  0.689200  1
  Ti  Ti4  1  0.802590  0.802590  0.309510  1
  Ti  Ti5  1  0.207230  0.207230  0.205877  1
  Ti  Ti6  1  0.792834  0.792834  0.794964  1
  Ti  Ti7  1  0.339234  0.339234  0.969293  1
  Ti  Ti8  1  0.660546  0.660546  0.031409  1
  Ti  Ti9  1  0.003763  0.003763  0.336364  1
  Ti  Ti10  1  0.996407  0.996407  0.664304  1
  Ti  Ti11  1  0.177005  0.177005  0.458077  1
  Ti  Ti12  1  0.824236  0.824236  0.540326  1
  Nb  Nb13  1  0.427196  0.427196  0.174085  1
  P  P14  1  0.180310  0.180310  0.891750  1
  P  P15  1  0.818867  0.818867  0.110028  1
  P  P16  1  0.373200  0.373200  0.394009  1
  P  P17  1  0.625596  0.625596  0.600865  1
  P  P18  1  0.371112  0.371112  0.660947  1
  P  P19  1  0.631389  0.631389  0.339230  1
  P  P20  1  0.064443  0.064443  0.153234  1
  P  P21  1  0.935536  0.935536  0.847799  1
