# generated using pymatgen
data_LiTa2Os4W
_symmetry_space_group_name_H-M   'P 1'
_cell_length_a   6.17960300
_cell_length_b   6.17964001
_cell_length_c   6.25906400
_cell_angle_alpha   90.00039868
_cell_angle_beta   89.99983311
_cell_angle_gamma   89.99726485
_symmetry_Int_Tables_number   1
_chemical_formula_structural   LiTa2Os4W
_chemical_formula_sum   'Li2 Ta4 Os8 W2'
_cell_volume   239.01939528
_cell_formula_units_Z   2
loop_
 _symmetry_equiv_pos_site_id
 _symmetry_equiv_pos_as_xyz
  1  'x, y, z'
loop_
 _atom_site_type_symbol
 _atom_site_label
 _atom_site_symmetry_multiplicity
 _atom_site_fract_x
 _atom_site_fract_y
 _atom_site_fract_z
 _atom_site_occupancy
  Li  Li0  1  0.249943  0.750015  0.500007  1
  Li  Li1  1  0.750058  0.249990  0.500015  1
  Ta  Ta2  1  0.250014  0.249992  0.999996  1
  Ta  Ta3  1  0.749986  0.750007  0.999996  1
  Ta  Ta4  1  0.750031  0.750001  0.499996  1
  Ta  Ta5  1  0.249968  0.249998  0.499996  1
  Os  Os6  1  0.000006  0.500006  0.253405  1
  Os  Os7  1  0.999995  0.000005  0.253391  1
  Os  Os8  1  0.500001  0.499998  0.253426  1
  Os  Os9  1  0.500011  0.000011  0.253442  1
  Os  Os10  1  0.500002  0.499998  0.746571  1
  Os  Os11  1  0.499992  0.999991  0.746555  1
  Os  Os12  1  0.999990  0.499989  0.746594  1
  Os  Os13  1  0.999998  0.000002  0.746606  1
  W  W14  1  0.749981  0.250000  0.999999  1
  W  W15  1  0.250020  0.749998  0.000000  1
