# generated using pymatgen
data_Rb3NbSe3O
_symmetry_space_group_name_H-M   'P 1'
_cell_length_a   6.86743000
_cell_length_b   11.12163600
_cell_length_c   13.64472100
_cell_angle_alpha   90.00000000
_cell_angle_beta   90.00000000
_cell_angle_gamma   90.00000000
_symmetry_Int_Tables_number   1
_chemical_formula_structural   Rb3NbSe3O
_chemical_formula_sum   'Rb12 Nb4 Se12 O4'
_cell_volume   1042.14362968
_cell_formula_units_Z   4
loop_
 _symmetry_equiv_pos_site_id
 _symmetry_equiv_pos_as_xyz
  1  'x, y, z'
loop_
 _atom_site_type_symbol
 _atom_site_label
 _atom_site_symmetry_multiplicity
 _atom_site_fract_x
 _atom_site_fract_y
 _atom_site_fract_z
 _atom_site_occupancy
  Rb  Rb0  1  0.252372  0.452483  0.131033  1
  Rb  Rb1  1  0.236106  0.750000  0.366767  1
  Rb  Rb2  1  0.247628  0.952483  0.631033  1
  Rb  Rb3  1  0.752372  0.047517  0.368967  1
  Rb  Rb4  1  0.263894  0.250000  0.866767  1
  Rb  Rb5  1  0.252372  0.047517  0.131033  1
  Rb  Rb6  1  0.247628  0.547517  0.631033  1
  Rb  Rb7  1  0.736106  0.750000  0.133233  1
  Rb  Rb8  1  0.752372  0.452483  0.368967  1
  Rb  Rb9  1  0.747628  0.952483  0.868967  1
  Rb  Rb10  1  0.763894  0.250000  0.633233  1
  Rb  Rb11  1  0.747628  0.547517  0.868967  1
  Nb  Nb12  1  0.339435  0.250000  0.453770  1
  Nb  Nb13  1  0.160565  0.750000  0.953770  1
  Nb  Nb14  1  0.660565  0.750000  0.546230  1
  Nb  Nb15  1  0.839435  0.250000  0.046230  1
  Se  Se16  1  0.245443  0.750000  0.127220  1
  Se  Se17  1  0.237252  0.062690  0.377636  1
  Se  Se18  1  0.254557  0.250000  0.627221  1
  Se  Se19  1  0.237252  0.437310  0.377636  1
  Se  Se20  1  0.754557  0.250000  0.872779  1
  Se  Se21  1  0.737252  0.437310  0.122364  1
  Se  Se22  1  0.762748  0.562690  0.622364  1
  Se  Se23  1  0.737252  0.062690  0.122364  1
  Se  Se24  1  0.762748  0.937310  0.622364  1
  Se  Se25  1  0.262748  0.937310  0.877636  1
  Se  Se26  1  0.262748  0.562690  0.877636  1
  Se  Se27  1  0.745443  0.750000  0.372780  1
  O  O28  1  0.602302  0.250000  0.450354  1
  O  O29  1  0.397698  0.750000  0.549646  1
  O  O30  1  0.897698  0.750000  0.950354  1
  O  O31  1  0.102302  0.250000  0.049646  1
