# generated using pymatgen
data_Nb6Ga3OsN2
_symmetry_space_group_name_H-M   'P 1'
_cell_length_a   7.07976297
_cell_length_b   7.04259091
_cell_length_c   7.03184700
_cell_angle_alpha   90.00000000
_cell_angle_beta   90.00000000
_cell_angle_gamma   90.60677641
_symmetry_Int_Tables_number   1
_chemical_formula_structural   Nb6Ga3OsN2
_chemical_formula_sum   'Nb12 Ga6 Os2 N4'
_cell_volume   350.58734672
_cell_formula_units_Z   2
loop_
 _symmetry_equiv_pos_site_id
 _symmetry_equiv_pos_as_xyz
  1  'x, y, z'
loop_
 _atom_site_type_symbol
 _atom_site_label
 _atom_site_symmetry_multiplicity
 _atom_site_fract_x
 _atom_site_fract_y
 _atom_site_fract_z
 _atom_site_occupancy
  Nb  Nb0  1  0.796518  0.957748  0.372254  1
  Nb  Nb1  1  0.703482  0.042252  0.872254  1
  Nb  Nb2  1  0.211490  0.455076  0.121409  1
  Nb  Nb3  1  0.288510  0.544924  0.621409  1
  Nb  Nb4  1  0.958157  0.376890  0.794067  1
  Nb  Nb5  1  0.048388  0.880695  0.706263  1
  Nb  Nb6  1  0.451612  0.119305  0.206263  1
  Nb  Nb7  1  0.541843  0.623110  0.294067  1
  Nb  Nb8  1  0.371483  0.798207  0.960167  1
  Nb  Nb9  1  0.876661  0.708253  0.047496  1
  Nb  Nb10  1  0.128517  0.201793  0.460167  1
  Nb  Nb11  1  0.623339  0.291747  0.547496  1
  Ga  Ga12  1  0.821244  0.319468  0.177563  1
  Ga  Ga13  1  0.678756  0.680532  0.677563  1
  Ga  Ga14  1  0.564194  0.428776  0.929634  1
  Ga  Ga15  1  0.427270  0.931365  0.569690  1
  Ga  Ga16  1  0.935806  0.571224  0.429634  1
  Ga  Ga17  1  0.072730  0.068635  0.069690  1
  Os  Os18  1  0.179500  0.822788  0.321619  1
  Os  Os19  1  0.320500  0.177212  0.821619  1
  N  N20  1  0.876331  0.125159  0.625130  1
  N  N21  1  0.623669  0.874841  0.125130  1
  N  N22  1  0.125497  0.629238  0.874707  1
  N  N23  1  0.374503  0.370762  0.374707  1
