# generated using pymatgen
data_Er10InSb5
_symmetry_space_group_name_H-M   'P 1'
_cell_length_a   8.89200200
_cell_length_b   8.89389033
_cell_length_c   6.33827300
_cell_angle_alpha   90.00000000
_cell_angle_beta   90.00000000
_cell_angle_gamma   119.99297684
_symmetry_Int_Tables_number   1
_chemical_formula_structural   Er10InSb5
_chemical_formula_sum   'Er10 In1 Sb5'
_cell_volume   434.13382530
_cell_formula_units_Z   1
loop_
 _symmetry_equiv_pos_site_id
 _symmetry_equiv_pos_as_xyz
  1  'x, y, z'
loop_
 _atom_site_type_symbol
 _atom_site_label
 _atom_site_symmetry_multiplicity
 _atom_site_fract_x
 _atom_site_fract_y
 _atom_site_fract_z
 _atom_site_occupancy
  Er  Er0  1  0.003926  0.758893  0.750000  1
  Er  Er1  1  0.998115  0.243409  0.250000  1
  Er  Er2  1  0.754706  0.756591  0.250000  1
  Er  Er3  1  0.756418  0.000000  0.750000  1
  Er  Er4  1  0.245033  0.241107  0.750000  1
  Er  Er5  1  0.242804  0.000000  0.250000  1
  Er  Er6  1  0.333805  0.669001  0.499108  1
  Er  Er7  1  0.664805  0.330999  0.000892  1
  Er  Er8  1  0.664805  0.330999  0.499108  1
  Er  Er9  1  0.333805  0.669001  0.000892  1
  In  In10  1  0.393744  0.000000  0.750000  1
  Sb  Sb11  1  0.389045  0.390325  0.250000  1
  Sb  Sb12  1  0.998719  0.609675  0.250000  1
  Sb  Sb13  1  0.000566  0.389893  0.750000  1
  Sb  Sb14  1  0.610673  0.610107  0.750000  1
  Sb  Sb15  1  0.609029  0.000000  0.250000  1
