# generated using pymatgen
data_Pr12Ga(GeBr4)3
_symmetry_space_group_name_H-M   'P 1'
_cell_length_a   10.56636786
_cell_length_b   10.56636700
_cell_length_c   10.56636693
_cell_angle_alpha   109.49346017
_cell_angle_beta   109.49344885
_cell_angle_gamma   109.49344841
_symmetry_Int_Tables_number   1
_chemical_formula_structural   Pr12Ga(GeBr4)3
_chemical_formula_sum   'Pr12 Ga1 Ge3 Br12'
_cell_volume   907.39676331
_cell_formula_units_Z   1
loop_
 _symmetry_equiv_pos_site_id
 _symmetry_equiv_pos_as_xyz
  1  'x, y, z'
loop_
 _atom_site_type_symbol
 _atom_site_label
 _atom_site_symmetry_multiplicity
 _atom_site_fract_x
 _atom_site_fract_y
 _atom_site_fract_z
 _atom_site_occupancy
  Pr  Pr0  1  0.481079  0.490873  0.240016  1
  Pr  Pr1  1  0.750000  0.239544  0.260456  1
  Pr  Pr2  1  0.750000  0.010617  0.489383  1
  Pr  Pr3  1  0.240016  0.481079  0.490873  1
  Pr  Pr4  1  0.260456  0.750000  0.239544  1
  Pr  Pr5  1  0.018921  0.259984  0.009127  1
  Pr  Pr6  1  0.009127  0.018921  0.259984  1
  Pr  Pr7  1  0.489383  0.750000  0.010617  1
  Pr  Pr8  1  0.490873  0.240016  0.481079  1
  Pr  Pr9  1  0.010617  0.489383  0.750000  1
  Pr  Pr10  1  0.259984  0.009127  0.018921  1
  Pr  Pr11  1  0.239544  0.260456  0.750000  1
  Ga  Ga12  1  0.250000  0.250000  0.250000  1
  Ge  Ge13  1  0.499469  0.000531  0.250000  1
  Ge  Ge14  1  0.000531  0.250000  0.499469  1
  Ge  Ge15  1  0.250000  0.499469  0.000531  1
  Br  Br16  1  0.250000  0.753427  0.746573  1
  Br  Br17  1  0.507381  0.503912  0.754209  1
  Br  Br18  1  0.992619  0.745791  0.996088  1
  Br  Br19  1  0.746573  0.250000  0.753427  1
  Br  Br20  1  0.996088  0.992619  0.745791  1
  Br  Br21  1  0.250000  0.995833  0.504167  1
  Br  Br22  1  0.754209  0.507381  0.503912  1
  Br  Br23  1  0.504167  0.250000  0.995833  1
  Br  Br24  1  0.753427  0.746573  0.250000  1
  Br  Br25  1  0.745791  0.996088  0.992619  1
  Br  Br26  1  0.995833  0.504167  0.250000  1
  Br  Br27  1  0.503912  0.754209  0.507381  1
