# generated using pymatgen
data_Nd4U4Re3TcB24
_symmetry_space_group_name_H-M   'P 1'
_cell_length_a   3.69530800
_cell_length_b   9.39469321
_cell_length_c   11.53173000
_cell_angle_alpha   90.03073489
_cell_angle_beta   90.00000000
_cell_angle_gamma   90.00000000
_symmetry_Int_Tables_number   1
_chemical_formula_structural   Nd4U4Re3TcB24
_chemical_formula_sum   'Nd4 U4 Re3 Tc1 B24'
_cell_volume   400.33876746
_cell_formula_units_Z   1
loop_
 _symmetry_equiv_pos_site_id
 _symmetry_equiv_pos_as_xyz
  1  'x, y, z'
loop_
 _atom_site_type_symbol
 _atom_site_label
 _atom_site_symmetry_multiplicity
 _atom_site_fract_x
 _atom_site_fract_y
 _atom_site_fract_z
 _atom_site_occupancy
  Nd  Nd0  1  0.000000  0.337420  0.408539  1
  Nd  Nd1  1  0.000000  0.662875  0.591355  1
  Nd  Nd2  1  0.000000  0.837211  0.091796  1
  Nd  Nd3  1  0.000000  0.162776  0.908244  1
  U  U4  1  0.000000  0.957484  0.396713  1
  U  U5  1  0.000000  0.042501  0.603342  1
  U  U6  1  0.000000  0.457162  0.103892  1
  U  U7  1  0.000000  0.542592  0.896551  1
  Re  Re8  1  0.000000  0.351756  0.683398  1
  Re  Re9  1  0.000000  0.148031  0.183441  1
  Re  Re10  1  0.000000  0.851911  0.816574  1
  Tc  Tc11  1  0.000000  0.648080  0.316637  1
  B  B12  1  0.500000  0.556097  0.427771  1
  B  B13  1  0.500000  0.444177  0.571978  1
  B  B14  1  0.500000  0.055677  0.071983  1
  B  B15  1  0.500000  0.944203  0.928071  1
  B  B16  1  0.500000  0.745659  0.420621  1
  B  B17  1  0.500000  0.254269  0.579142  1
  B  B18  1  0.500000  0.245483  0.079229  1
  B  B19  1  0.500000  0.754530  0.920836  1
  B  B20  1  0.500000  0.802687  0.275195  1
  B  B21  1  0.500000  0.197214  0.724769  1
  B  B22  1  0.500000  0.302393  0.224910  1
  B  B23  1  0.500000  0.697633  0.775080  1
  B  B24  1  0.500000  0.644304  0.187969  1
  B  B25  1  0.500000  0.355646  0.812082  1
  B  B26  1  0.500000  0.144169  0.312129  1
  B  B27  1  0.500000  0.855876  0.687728  1
  B  B28  1  0.500000  0.992626  0.220939  1
  B  B29  1  0.500000  0.007271  0.778935  1
  B  B30  1  0.500000  0.493101  0.279107  1
  B  B31  1  0.500000  0.507098  0.720776  1
  B  B32  1  0.500000  0.636114  0.037242  1
  B  B33  1  0.500000  0.364109  0.963128  1
  B  B34  1  0.500000  0.136012  0.462927  1
  B  B35  1  0.500000  0.863850  0.536970  1
