# generated using pymatgen
data_TbGa2(Fe3Tc2)2
_symmetry_space_group_name_H-M   'P 1'
_cell_length_a   4.77206730
_cell_length_b   6.59394055
_cell_length_c   6.59394014
_cell_angle_alpha   81.57532128
_cell_angle_beta   68.78598729
_cell_angle_gamma   68.78599580
_symmetry_Int_Tables_number   1
_chemical_formula_structural   TbGa2(Fe3Tc2)2
_chemical_formula_sum   'Tb1 Ga2 Fe6 Tc4'
_cell_volume   180.29264178
_cell_formula_units_Z   1
loop_
 _symmetry_equiv_pos_site_id
 _symmetry_equiv_pos_as_xyz
  1  'x, y, z'
loop_
 _atom_site_type_symbol
 _atom_site_label
 _atom_site_symmetry_multiplicity
 _atom_site_fract_x
 _atom_site_fract_y
 _atom_site_fract_z
 _atom_site_occupancy
  Tb  Tb0  1  0.000000  0.000000  0.000000  1
  Ga  Ga1  1  0.500000  0.792190  0.207810  1
  Ga  Ga2  1  0.500000  0.207810  0.792190  1
  Fe  Fe3  1  0.000000  0.000000  0.500000  1
  Fe  Fe4  1  0.500000  0.000000  0.500000  1
  Fe  Fe5  1  0.500000  0.500000  0.000000  1
  Fe  Fe6  1  0.000000  0.500000  0.000000  1
  Fe  Fe7  1  0.726869  0.773131  0.773131  1
  Fe  Fe8  1  0.273131  0.226869  0.226869  1
  Tc  Tc9  1  0.000000  0.359832  0.640168  1
  Tc  Tc10  1  0.000000  0.640168  0.359832  1
  Tc  Tc11  1  0.639107  0.360893  0.360893  1
  Tc  Tc12  1  0.360893  0.639107  0.639107  1
