# generated using pymatgen
data_NaSrCa2(CrN3)2
_symmetry_space_group_name_H-M   'P 1'
_cell_length_a   5.98048735
_cell_length_b   5.98048296
_cell_length_c   11.83983061
_cell_angle_alpha   89.03750532
_cell_angle_beta   90.96256228
_cell_angle_gamma   124.55810035
_symmetry_Int_Tables_number   1
_chemical_formula_structural   NaSrCa2(CrN3)2
_chemical_formula_sum   'Na2 Sr2 Ca4 Cr4 N12'
_cell_volume   348.68304029
_cell_formula_units_Z   2
loop_
 _symmetry_equiv_pos_site_id
 _symmetry_equiv_pos_as_xyz
  1  'x, y, z'
loop_
 _atom_site_type_symbol
 _atom_site_label
 _atom_site_symmetry_multiplicity
 _atom_site_fract_x
 _atom_site_fract_y
 _atom_site_fract_z
 _atom_site_occupancy
  Na  Na0  1  0.550542  0.449457  0.632512  1
  Na  Na1  1  0.449458  0.550543  0.367488  1
  Sr  Sr2  1  0.954635  0.045364  0.151836  1
  Sr  Sr3  1  0.045365  0.954636  0.848164  1
  Ca  Ca4  1  0.855386  0.144613  0.581197  1
  Ca  Ca5  1  0.144614  0.855387  0.418803  1
  Ca  Ca6  1  0.644721  0.355277  0.080938  1
  Ca  Ca7  1  0.355279  0.644723  0.919062  1
  Cr  Cr8  1  0.736841  0.263160  0.839429  1
  Cr  Cr9  1  0.263159  0.736840  0.160571  1
  Cr  Cr10  1  0.758887  0.241114  0.339720  1
  Cr  Cr11  1  0.241113  0.758886  0.660280  1
  N  N12  1  0.834927  0.165073  0.960357  1
  N  N13  1  0.165073  0.834927  0.039643  1
  N  N14  1  0.666709  0.333290  0.455350  1
  N  N15  1  0.333291  0.666710  0.544650  1
  N  N16  1  0.579837  0.420163  0.874172  1
  N  N17  1  0.420163  0.579837  0.125828  1
  N  N18  1  0.915978  0.084021  0.375997  1
  N  N19  1  0.084022  0.915979  0.624003  1
  N  N20  1  0.529705  0.971582  0.753478  1
  N  N21  1  0.971582  0.529705  0.246522  1
  N  N22  1  0.470295  0.028418  0.246522  1
  N  N23  1  0.028418  0.470295  0.753478  1
