# generated using pymatgen
data_Na2TbTm(InBr3)4
_symmetry_space_group_name_H-M   'P 1'
_cell_length_a   8.19027220
_cell_length_b   7.64882255
_cell_length_c   13.26547823
_cell_angle_alpha   56.30249834
_cell_angle_beta   90.01646668
_cell_angle_gamma   89.99303545
_symmetry_Int_Tables_number   1
_chemical_formula_structural   Na2TbTm(InBr3)4
_chemical_formula_sum   'Na2 Tb1 Tm1 In4 Br12'
_cell_volume   691.39748699
_cell_formula_units_Z   1
loop_
 _symmetry_equiv_pos_site_id
 _symmetry_equiv_pos_as_xyz
  1  'x, y, z'
loop_
 _atom_site_type_symbol
 _atom_site_label
 _atom_site_symmetry_multiplicity
 _atom_site_fract_x
 _atom_site_fract_y
 _atom_site_fract_z
 _atom_site_occupancy
  Na  Na0  1  0.500000  0.500000  0.000000  1
  Na  Na1  1  0.000000  0.500000  0.500000  1
  Tb  Tb2  1  0.500000  0.000000  0.500000  1
  Tm  Tm3  1  0.000000  0.000000  0.000000  1
  In  In4  1  0.075918  0.713292  0.759885  1
  In  In5  1  0.924082  0.286708  0.240115  1
  In  In6  1  0.576447  0.285801  0.740831  1
  In  In7  1  0.423553  0.714199  0.259169  1
  Br  Br8  1  0.786902  0.754681  0.560726  1
  Br  Br9  1  0.213098  0.245319  0.439274  1
  Br  Br10  1  0.282051  0.241084  0.940297  1
  Br  Br11  1  0.717949  0.758916  0.059703  1
  Br  Br12  1  0.462517  0.867763  0.744729  1
  Br  Br13  1  0.537483  0.132237  0.255271  1
  Br  Br14  1  0.963015  0.129803  0.759610  1
  Br  Br15  1  0.036985  0.870197  0.240390  1
  Br  Br16  1  0.312768  0.652602  0.545316  1
  Br  Br17  1  0.687232  0.347398  0.454684  1
  Br  Br18  1  0.815976  0.341608  0.955314  1
  Br  Br19  1  0.184024  0.658392  0.044686  1
