# generated using pymatgen
data_Hf10ReSb5
_symmetry_space_group_name_H-M   'P 1'
_cell_length_a   5.63167320
_cell_length_b   8.30057674
_cell_length_c   8.30057587
_cell_angle_alpha   96.60821450
_cell_angle_beta   109.83020742
_cell_angle_gamma   70.16980177
_symmetry_Int_Tables_number   1
_chemical_formula_structural   Hf10ReSb5
_chemical_formula_sum   'Hf10 Re1 Sb5'
_cell_volume   343.36667477
_cell_formula_units_Z   1
loop_
 _symmetry_equiv_pos_site_id
 _symmetry_equiv_pos_as_xyz
  1  'x, y, z'
loop_
 _atom_site_type_symbol
 _atom_site_label
 _atom_site_symmetry_multiplicity
 _atom_site_fract_x
 _atom_site_fract_y
 _atom_site_fract_z
 _atom_site_occupancy
  Hf  Hf0  1  0.933031  0.858871  0.709323  1
  Hf  Hf1  1  0.082577  0.141129  0.290677  1
  Hf  Hf2  1  0.417423  0.290677  0.141129  1
  Hf  Hf3  1  0.566969  0.709323  0.858871  1
  Hf  Hf4  1  0.223707  0.709323  0.141129  1
  Hf  Hf5  1  0.791901  0.290677  0.858871  1
  Hf  Hf6  1  0.276293  0.141129  0.709323  1
  Hf  Hf7  1  0.708099  0.858871  0.290677  1
  Hf  Hf8  1  0.250000  0.500000  0.500000  1
  Hf  Hf9  1  0.750000  0.500000  0.500000  1
  Re  Re10  1  0.250000  0.000000  0.000000  1
  Sb  Sb11  1  0.335620  0.828760  0.500000  1
  Sb  Sb12  1  0.664380  0.171240  0.500000  1
  Sb  Sb13  1  0.835620  0.500000  0.171240  1
  Sb  Sb14  1  0.164380  0.500000  0.828760  1
  Sb  Sb15  1  0.750000  0.000000  0.000000  1
