# generated using pymatgen
data_Dy3Y17(CoBi2)4
_symmetry_space_group_name_H-M   'P 1'
_cell_length_a   8.03620002
_cell_length_b   8.89087070
_cell_length_c   12.42778798
_cell_angle_alpha   89.95502746
_cell_angle_beta   89.99347656
_cell_angle_gamma   89.99451562
_symmetry_Int_Tables_number   1
_chemical_formula_structural   Dy3Y17(CoBi2)4
_chemical_formula_sum   'Dy3 Y17 Co4 Bi8'
_cell_volume   887.95044412
_cell_formula_units_Z   1
loop_
 _symmetry_equiv_pos_site_id
 _symmetry_equiv_pos_as_xyz
  1  'x, y, z'
loop_
 _atom_site_type_symbol
 _atom_site_label
 _atom_site_symmetry_multiplicity
 _atom_site_fract_x
 _atom_site_fract_y
 _atom_site_fract_z
 _atom_site_occupancy
  Dy  Dy0  1  0.674777  0.465194  0.563529  1
  Dy  Dy1  1  0.825291  0.465637  0.063418  1
  Dy  Dy2  1  0.174649  0.534896  0.936543  1
  Y  Y3  1  0.846235  0.749715  0.800560  1
  Y  Y4  1  0.153940  0.250276  0.199722  1
  Y  Y5  1  0.346224  0.250323  0.699418  1
  Y  Y6  1  0.653952  0.749890  0.300348  1
  Y  Y7  1  0.378006  0.749748  0.689856  1
  Y  Y8  1  0.621870  0.250161  0.310355  1
  Y  Y9  1  0.877890  0.250265  0.810054  1
  Y  Y10  1  0.121879  0.749820  0.189609  1
  Y  Y11  1  0.952679  0.749570  0.502520  1
  Y  Y12  1  0.046696  0.250323  0.497677  1
  Y  Y13  1  0.453091  0.250705  0.997573  1
  Y  Y14  1  0.547080  0.749280  0.002437  1
  Y  Y15  1  0.676060  0.035222  0.564176  1
  Y  Y16  1  0.324088  0.965093  0.435814  1
  Y  Y17  1  0.176015  0.964561  0.935820  1
  Y  Y18  1  0.324107  0.534716  0.435861  1
  Y  Y19  1  0.823935  0.034982  0.064187  1
  Co  Co20  1  0.561762  0.748902  0.508298  1
  Co  Co21  1  0.439274  0.250589  0.492082  1
  Co  Co22  1  0.061091  0.251653  0.991909  1
  Co  Co23  1  0.938858  0.748340  0.008158  1
  Bi  Bi24  1  0.569143  0.492372  0.826013  1
  Bi  Bi25  1  0.430965  0.507668  0.174034  1
  Bi  Bi26  1  0.069220  0.507661  0.673948  1
  Bi  Bi27  1  0.431180  0.992417  0.173803  1
  Bi  Bi28  1  0.931127  0.492376  0.326096  1
  Bi  Bi29  1  0.568866  0.007626  0.826195  1
  Bi  Bi30  1  0.931197  0.007645  0.326157  1
  Bi  Bi31  1  0.068854  0.992375  0.673830  1
