# generated using pymatgen
data_CsYb3(NO3)8
_symmetry_space_group_name_H-M   'P 1'
_cell_length_a   8.06903645
_cell_length_b   8.06903666
_cell_length_c   8.06903600
_cell_angle_alpha   93.19222137
_cell_angle_beta   93.19222145
_cell_angle_gamma   93.19222376
_symmetry_Int_Tables_number   1
_chemical_formula_structural   CsYb3(NO3)8
_chemical_formula_sum   'Cs1 Yb3 N8 O24'
_cell_volume   522.82913457
_cell_formula_units_Z   1
loop_
 _symmetry_equiv_pos_site_id
 _symmetry_equiv_pos_as_xyz
  1  'x, y, z'
loop_
 _atom_site_type_symbol
 _atom_site_label
 _atom_site_symmetry_multiplicity
 _atom_site_fract_x
 _atom_site_fract_y
 _atom_site_fract_z
 _atom_site_occupancy
  Cs  Cs0  1  0.500000  0.500000  0.500000  1
  Yb  Yb1  1  0.500000  0.000000  0.000000  1
  Yb  Yb2  1  0.000000  0.000000  0.500000  1
  Yb  Yb3  1  0.000000  0.500000  0.000000  1
  N  N4  1  0.661653  0.887868  0.307680  1
  N  N5  1  0.338347  0.112132  0.692320  1
  N  N6  1  0.168621  0.168621  0.168621  1
  N  N7  1  0.887868  0.307680  0.661653  1
  N  N8  1  0.307680  0.661653  0.887868  1
  N  N9  1  0.831379  0.831379  0.831379  1
  N  N10  1  0.112132  0.692320  0.338347  1
  N  N11  1  0.692320  0.338347  0.112132  1
  O  O12  1  0.056662  0.177530  0.271334  1
  O  O13  1  0.847663  0.447031  0.720924  1
  O  O14  1  0.230932  0.737966  0.998839  1
  O  O15  1  0.943338  0.822470  0.728666  1
  O  O16  1  0.152337  0.552969  0.279076  1
  O  O17  1  0.769068  0.262034  0.001161  1
  O  O18  1  0.271334  0.056662  0.177530  1
  O  O19  1  0.819916  0.242296  0.526707  1
  O  O20  1  0.447031  0.720924  0.847663  1
  O  O21  1  0.728666  0.943338  0.822470  1
  O  O22  1  0.180084  0.757704  0.473293  1
  O  O23  1  0.552969  0.279076  0.152337  1
  O  O24  1  0.177530  0.271334  0.056662  1
  O  O25  1  0.998839  0.230932  0.737966  1
  O  O26  1  0.242296  0.526707  0.819916  1
  O  O27  1  0.822470  0.728666  0.943338  1
  O  O28  1  0.001161  0.769068  0.262034  1
  O  O29  1  0.757704  0.473293  0.180084  1
  O  O30  1  0.737966  0.998839  0.230932  1
  O  O31  1  0.720924  0.847663  0.447031  1
  O  O32  1  0.526707  0.819916  0.242296  1
  O  O33  1  0.262034  0.001161  0.769068  1
  O  O34  1  0.279076  0.152337  0.552969  1
  O  O35  1  0.473293  0.180084  0.757704  1
