# generated using pymatgen
data_Zr10Ga2CuSb5
_symmetry_space_group_name_H-M   'P 1'
_cell_length_a   8.63531523
_cell_length_b   8.63531533
_cell_length_c   5.82733450
_cell_angle_alpha   90.02364504
_cell_angle_beta   90.02364529
_cell_angle_gamma   120.10110389
_symmetry_Int_Tables_number   1
_chemical_formula_structural   Zr10Ga2CuSb5
_chemical_formula_sum   'Zr10 Ga2 Cu1 Sb5'
_cell_volume   375.93561539
_cell_formula_units_Z   1
loop_
 _symmetry_equiv_pos_site_id
 _symmetry_equiv_pos_as_xyz
  1  'x, y, z'
loop_
 _atom_site_type_symbol
 _atom_site_label
 _atom_site_symmetry_multiplicity
 _atom_site_fract_x
 _atom_site_fract_y
 _atom_site_fract_z
 _atom_site_occupancy
  Zr  Zr0  1  0.274297  0.274297  0.749042  1
  Zr  Zr1  1  0.734482  0.734482  0.252018  1
  Zr  Zr2  1  0.727303  0.990184  0.748775  1
  Zr  Zr3  1  0.000683  0.266549  0.250569  1
  Zr  Zr4  1  0.336159  0.666209  0.502513  1
  Zr  Zr5  1  0.666209  0.336159  0.502513  1
  Zr  Zr6  1  0.990184  0.727303  0.748775  1
  Zr  Zr7  1  0.335884  0.666239  0.997539  1
  Zr  Zr8  1  0.266549  0.000683  0.250569  1
  Zr  Zr9  1  0.666239  0.335884  0.997539  1
  Ga  Ga10  1  0.615023  0.615023  0.749014  1
  Ga  Ga11  1  0.000829  0.000829  0.994582  1
  Cu  Cu12  1  0.000292  0.000292  0.506561  1
  Sb  Sb13  1  0.382536  0.998733  0.749245  1
  Sb  Sb14  1  0.613984  0.000292  0.250254  1
  Sb  Sb15  1  0.390322  0.390322  0.250996  1
  Sb  Sb16  1  0.998733  0.382536  0.749245  1
  Sb  Sb17  1  0.000292  0.613984  0.250254  1
