# generated using pymatgen
data_Pr3Mg2CdAu3
_symmetry_space_group_name_H-M   'P 1'
_cell_length_a   7.88017436
_cell_length_b   7.88017449
_cell_length_c   4.14585500
_cell_angle_alpha   90.00000000
_cell_angle_beta   90.00000000
_cell_angle_gamma   119.18285245
_symmetry_Int_Tables_number   1
_chemical_formula_structural   Pr3Mg2CdAu3
_chemical_formula_sum   'Pr3 Mg2 Cd1 Au3'
_cell_volume   224.76768003
_cell_formula_units_Z   1
loop_
 _symmetry_equiv_pos_site_id
 _symmetry_equiv_pos_as_xyz
  1  'x, y, z'
loop_
 _atom_site_type_symbol
 _atom_site_label
 _atom_site_symmetry_multiplicity
 _atom_site_fract_x
 _atom_site_fract_y
 _atom_site_fract_z
 _atom_site_occupancy
  Pr  Pr0  1  0.589407  0.992321  0.000000  1
  Pr  Pr1  1  0.992321  0.589407  0.000000  1
  Pr  Pr2  1  0.418992  0.418992  0.000000  1
  Mg  Mg3  1  0.246144  0.001308  0.500000  1
  Mg  Mg4  1  0.001308  0.246144  0.500000  1
  Cd  Cd5  1  0.750667  0.750667  0.500000  1
  Au  Au6  1  0.321101  0.663357  0.500000  1
  Au  Au7  1  0.663357  0.321101  0.500000  1
  Au  Au8  1  0.016703  0.016703  0.000000  1
