# generated using pymatgen
data_BeNi20SnGeB6
_symmetry_space_group_name_H-M   'P 1'
_cell_length_a   7.42671537
_cell_length_b   7.42671575
_cell_length_c   7.42671600
_cell_angle_alpha   59.99999888
_cell_angle_beta   59.99999721
_cell_angle_gamma   59.99999981
_symmetry_Int_Tables_number   1
_chemical_formula_structural   BeNi20SnGeB6
_chemical_formula_sum   'Be1 Ni20 Sn1 Ge1 B6'
_cell_volume   289.65123697
_cell_formula_units_Z   1
loop_
 _symmetry_equiv_pos_site_id
 _symmetry_equiv_pos_as_xyz
  1  'x, y, z'
loop_
 _atom_site_type_symbol
 _atom_site_label
 _atom_site_symmetry_multiplicity
 _atom_site_fract_x
 _atom_site_fract_y
 _atom_site_fract_z
 _atom_site_occupancy
  Be  Be0  1  0.000000  0.000000  0.000000  1
  Ni  Ni1  1  0.333122  0.999891  0.999891  1
  Ni  Ni2  1  0.667096  0.999891  0.999891  1
  Ni  Ni3  1  0.999891  0.333122  0.667096  1
  Ni  Ni4  1  0.999891  0.667096  0.333122  1
  Ni  Ni5  1  0.999891  0.333122  0.999891  1
  Ni  Ni6  1  0.667096  0.999891  0.333122  1
  Ni  Ni7  1  0.999891  0.667096  0.999891  1
  Ni  Ni8  1  0.333122  0.999891  0.667096  1
  Ni  Ni9  1  0.999891  0.999891  0.333122  1
  Ni  Ni10  1  0.999891  0.999891  0.667096  1
  Ni  Ni11  1  0.667096  0.333122  0.999891  1
  Ni  Ni12  1  0.333122  0.667096  0.999891  1
  Ni  Ni13  1  0.388045  0.388045  0.388045  1
  Ni  Ni14  1  0.621531  0.621531  0.621531  1
  Ni  Ni15  1  0.388045  0.388045  0.835863  1
  Ni  Ni16  1  0.388045  0.835863  0.388045  1
  Ni  Ni17  1  0.621531  0.621531  0.135408  1
  Ni  Ni18  1  0.621531  0.135408  0.621531  1
  Ni  Ni19  1  0.835863  0.388045  0.388045  1
  Ni  Ni20  1  0.135408  0.621531  0.621531  1
  Sn  Sn21  1  0.250000  0.250000  0.250000  1
  Ge  Ge22  1  0.750000  0.750000  0.750000  1
  B  B23  1  0.726870  0.273130  0.273130  1
  B  B24  1  0.273130  0.726870  0.726870  1
  B  B25  1  0.273130  0.726870  0.273130  1
  B  B26  1  0.726870  0.273130  0.726870  1
  B  B27  1  0.273130  0.273130  0.726870  1
  B  B28  1  0.726870  0.726870  0.273130  1
