# generated using pymatgen
data_La6P13IrRh19
_symmetry_space_group_name_H-M   'P 1'
_cell_length_a   13.54538100
_cell_length_b   13.54538021
_cell_length_c   4.00066800
_cell_angle_alpha   90.00000000
_cell_angle_beta   90.00000000
_cell_angle_gamma   119.99999461
_symmetry_Int_Tables_number   1
_chemical_formula_structural   La6P13IrRh19
_chemical_formula_sum   'La6 P13 Ir1 Rh19'
_cell_volume   635.69031198
_cell_formula_units_Z   1
loop_
 _symmetry_equiv_pos_site_id
 _symmetry_equiv_pos_as_xyz
  1  'x, y, z'
loop_
 _atom_site_type_symbol
 _atom_site_label
 _atom_site_symmetry_multiplicity
 _atom_site_fract_x
 _atom_site_fract_y
 _atom_site_fract_z
 _atom_site_occupancy
  La  La0  1  0.529986  0.718127  0.246577  1
  La  La1  1  0.281873  0.811858  0.246577  1
  La  La2  1  0.188142  0.470014  0.246577  1
  La  La3  1  0.470659  0.281903  0.753536  1
  La  La4  1  0.718097  0.188756  0.753536  1
  La  La5  1  0.811244  0.529341  0.753536  1
  P  P6  1  0.519359  0.132111  0.250837  1
  P  P7  1  0.867889  0.387249  0.250837  1
  P  P8  1  0.612751  0.480641  0.250837  1
  P  P9  1  0.948619  0.721073  0.255370  1
  P  P10  1  0.278927  0.227546  0.255370  1
  P  P11  1  0.772454  0.051381  0.255370  1
  P  P12  1  0.386220  0.520388  0.748770  1
  P  P13  1  0.479612  0.865832  0.748770  1
  P  P14  1  0.134168  0.613780  0.748770  1
  P  P15  1  0.721600  0.773120  0.744490  1
  P  P16  1  0.226880  0.948480  0.744490  1
  P  P17  1  0.051520  0.278400  0.744490  1
  P  P18  1  0.000000  0.000000  0.001756  1
  Ir  Ir19  1  0.333333  0.666667  0.750425  1
  Rh  Rh20  1  0.924669  0.248893  0.257853  1
  Rh  Rh21  1  0.751107  0.675777  0.257853  1
  Rh  Rh22  1  0.324223  0.075331  0.257853  1
  Rh  Rh23  1  0.439488  0.024449  0.752047  1
  Rh  Rh24  1  0.975551  0.415040  0.752047  1
  Rh  Rh25  1  0.584960  0.560512  0.752047  1
  Rh  Rh26  1  0.666667  0.333333  0.249068  1
  Rh  Rh27  1  0.092611  0.184722  0.244415  1
  Rh  Rh28  1  0.815278  0.907890  0.244415  1
  Rh  Rh29  1  0.092110  0.907389  0.244415  1
  Rh  Rh30  1  0.024729  0.584989  0.247706  1
  Rh  Rh31  1  0.415011  0.439740  0.247706  1
  Rh  Rh32  1  0.560260  0.975271  0.247706  1
  Rh  Rh33  1  0.675636  0.925141  0.742140  1
  Rh  Rh34  1  0.074859  0.750495  0.742140  1
  Rh  Rh35  1  0.249505  0.324364  0.742140  1
  Rh  Rh36  1  0.907786  0.815809  0.755842  1
  Rh  Rh37  1  0.184191  0.091976  0.755842  1
  Rh  Rh38  1  0.908024  0.092214  0.755842  1
