# generated using pymatgen
data_Na4Si2SnS6
_symmetry_space_group_name_H-M   'P 1'
_cell_length_a   6.76196287
_cell_length_b   6.76196335
_cell_length_c   7.71671680
_cell_angle_alpha   81.52404638
_cell_angle_beta   81.52404065
_cell_angle_gamma   119.86898408
_symmetry_Int_Tables_number   1
_chemical_formula_structural   Na4Si2SnS6
_chemical_formula_sum   'Na4 Si2 Sn1 S6'
_cell_volume   292.42956218
_cell_formula_units_Z   1
loop_
 _symmetry_equiv_pos_site_id
 _symmetry_equiv_pos_as_xyz
  1  'x, y, z'
loop_
 _atom_site_type_symbol
 _atom_site_label
 _atom_site_symmetry_multiplicity
 _atom_site_fract_x
 _atom_site_fract_y
 _atom_site_fract_z
 _atom_site_occupancy
  Na  Na0  1  0.499530  0.500470  0.000000  1
  Na  Na1  1  0.824258  0.175742  0.000000  1
  Na  Na2  1  0.176193  0.823807  0.000000  1
  Na  Na3  1  0.665457  0.334543  0.500000  1
  Si  Si4  1  0.051474  0.051352  0.341955  1
  Si  Si5  1  0.948648  0.948526  0.658045  1
  Sn  Sn6  1  0.335361  0.664639  0.500000  1
  S  S7  1  0.778202  0.779238  0.253455  1
  S  S8  1  0.220762  0.221798  0.746545  1
  S  S9  1  0.081926  0.385566  0.253768  1
  S  S10  1  0.384961  0.081206  0.252673  1
  S  S11  1  0.918794  0.615039  0.747327  1
  S  S12  1  0.614434  0.918074  0.746232  1
