# generated using pymatgen
data_Eu2ZnSi2O7
_symmetry_space_group_name_H-M   'P 1'
_cell_length_a   8.07981700
_cell_length_b   8.07981700
_cell_length_c   5.21910900
_cell_angle_alpha   90.00000000
_cell_angle_beta   90.00000000
_cell_angle_gamma   90.00000000
_symmetry_Int_Tables_number   1
_chemical_formula_structural   Eu2ZnSi2O7
_chemical_formula_sum   'Eu4 Zn2 Si4 O14'
_cell_volume   340.72140363
_cell_formula_units_Z   2
loop_
 _symmetry_equiv_pos_site_id
 _symmetry_equiv_pos_as_xyz
  1  'x, y, z'
loop_
 _atom_site_type_symbol
 _atom_site_label
 _atom_site_symmetry_multiplicity
 _atom_site_fract_x
 _atom_site_fract_y
 _atom_site_fract_z
 _atom_site_occupancy
  Eu  Eu0  1  0.166275  0.333725  0.493413  1
  Eu  Eu1  1  0.333725  0.833725  0.506587  1
  Eu  Eu2  1  0.666275  0.166275  0.506587  1
  Eu  Eu3  1  0.833725  0.666275  0.493413  1
  Zn  Zn4  1  0.000000  0.000000  0.000000  1
  Zn  Zn5  1  0.500000  0.500000  0.000000  1
  Si  Si6  1  0.139004  0.639004  0.945728  1
  Si  Si7  1  0.360996  0.139004  0.054272  1
  Si  Si8  1  0.860996  0.360996  0.945728  1
  Si  Si9  1  0.639004  0.860996  0.054272  1
  O  O10  1  0.690379  0.419902  0.797327  1
  O  O11  1  0.309621  0.580098  0.797327  1
  O  O12  1  0.419902  0.309621  0.202673  1
  O  O13  1  0.580098  0.690379  0.202673  1
  O  O14  1  0.919902  0.190379  0.797327  1
  O  O15  1  0.809621  0.919902  0.202673  1
  O  O16  1  0.190379  0.080098  0.202673  1
  O  O17  1  0.080098  0.809621  0.797327  1
  O  O18  1  0.859217  0.359217  0.255635  1
  O  O19  1  0.640783  0.859217  0.744365  1
  O  O20  1  0.500000  0.000000  0.162124  1
  O  O21  1  0.000000  0.500000  0.837876  1
  O  O22  1  0.140783  0.640783  0.255635  1
  O  O23  1  0.359217  0.140783  0.744365  1
