# generated using pymatgen
data_Y6Ni2Ir15Rh
_symmetry_space_group_name_H-M   'P 1'
_cell_length_a   5.31167900
_cell_length_b   5.31167966
_cell_length_c   17.20327300
_cell_angle_alpha   90.00000000
_cell_angle_beta   90.00000000
_cell_angle_gamma   119.99998967
_symmetry_Int_Tables_number   1
_chemical_formula_structural   Y6Ni2Ir15Rh
_chemical_formula_sum   'Y6 Ni2 Ir15 Rh1'
_cell_volume   420.34458297
_cell_formula_units_Z   1
loop_
 _symmetry_equiv_pos_site_id
 _symmetry_equiv_pos_as_xyz
  1  'x, y, z'
loop_
 _atom_site_type_symbol
 _atom_site_label
 _atom_site_symmetry_multiplicity
 _atom_site_fract_x
 _atom_site_fract_y
 _atom_site_fract_z
 _atom_site_occupancy
  Y  Y0  1  0.333333  0.666667  0.958522  1
  Y  Y1  1  0.666667  0.333333  0.041095  1
  Y  Y2  1  0.666667  0.333333  0.458905  1
  Y  Y3  1  0.333333  0.666667  0.541478  1
  Y  Y4  1  0.333333  0.666667  0.750000  1
  Y  Y5  1  0.666667  0.333333  0.250000  1
  Ni  Ni6  1  0.333333  0.666667  0.250000  1
  Ni  Ni7  1  0.666667  0.333333  0.750000  1
  Ir  Ir8  1  0.168912  0.831088  0.372643  1
  Ir  Ir9  1  0.168912  0.337826  0.372643  1
  Ir  Ir10  1  0.662174  0.831088  0.372643  1
  Ir  Ir11  1  0.830977  0.169023  0.627144  1
  Ir  Ir12  1  0.830977  0.661952  0.627144  1
  Ir  Ir13  1  0.338048  0.169023  0.627144  1
  Ir  Ir14  1  0.830977  0.169023  0.872856  1
  Ir  Ir15  1  0.830977  0.661952  0.872856  1
  Ir  Ir16  1  0.338048  0.169023  0.872856  1
  Ir  Ir17  1  0.168912  0.831088  0.127357  1
  Ir  Ir18  1  0.168912  0.337826  0.127357  1
  Ir  Ir19  1  0.662174  0.831088  0.127357  1
  Ir  Ir20  1  0.000000  0.000000  0.250000  1
  Ir  Ir21  1  0.000000  0.000000  0.500277  1
  Ir  Ir22  1  0.000000  0.000000  0.999723  1
  Rh  Rh23  1  0.000000  0.000000  0.750000  1
