# generated using pymatgen
data_NaLa4(PRu)10
_symmetry_space_group_name_H-M   'P 1'
_cell_length_a   9.05681300
_cell_length_b   8.37274697
_cell_length_c   9.05681300
_cell_angle_alpha   57.25843199
_cell_angle_beta   90.00000000
_cell_angle_gamma   57.25842386
_symmetry_Int_Tables_number   1
_chemical_formula_structural   NaLa4(PRu)10
_chemical_formula_sum   'Na1 La4 P10 Ru10'
_cell_volume   442.40738745
_cell_formula_units_Z   1
loop_
 _symmetry_equiv_pos_site_id
 _symmetry_equiv_pos_as_xyz
  1  'x, y, z'
loop_
 _atom_site_type_symbol
 _atom_site_label
 _atom_site_symmetry_multiplicity
 _atom_site_fract_x
 _atom_site_fract_y
 _atom_site_fract_z
 _atom_site_occupancy
  Na  Na0  1  0.000000  0.000000  0.000000  1
  La  La1  1  0.197450  0.000000  0.604106  1
  La  La2  1  0.395894  0.000000  0.197450  1
  La  La3  1  0.604106  0.000000  0.802550  1
  La  La4  1  0.802550  0.000000  0.395894  1
  P  P5  1  0.157710  0.286375  0.755537  1
  P  P6  1  0.358888  0.282222  0.358888  1
  P  P7  1  0.555914  0.286375  0.958087  1
  P  P8  1  0.755537  0.286375  0.555914  1
  P  P9  1  0.958087  0.286375  0.157710  1
  P  P10  1  0.641112  0.717778  0.641112  1
  P  P11  1  0.842290  0.713625  0.244463  1
  P  P12  1  0.041912  0.713625  0.842290  1
  P  P13  1  0.244463  0.713625  0.444086  1
  P  P14  1  0.444086  0.713625  0.041912  1
  Ru  Ru15  1  0.949330  0.499752  0.849272  1
  Ru  Ru16  1  0.150728  0.500248  0.449082  1
  Ru  Ru17  1  0.349024  0.500248  0.050670  1
  Ru  Ru18  1  0.550918  0.499752  0.650976  1
  Ru  Ru19  1  0.750000  0.500000  0.250000  1
  Ru  Ru20  1  0.849272  0.499752  0.550918  1
  Ru  Ru21  1  0.050670  0.500248  0.150728  1
  Ru  Ru22  1  0.250000  0.500000  0.750000  1
  Ru  Ru23  1  0.449082  0.500248  0.349024  1
  Ru  Ru24  1  0.650976  0.499752  0.949330  1
