# generated using pymatgen
data_YbHo4Hf3(Co4P3)4
_symmetry_space_group_name_H-M   'P 1'
_cell_length_a   12.27411200
_cell_length_b   12.27411044
_cell_length_c   3.70608400
_cell_angle_alpha   90.00000000
_cell_angle_beta   90.00000000
_cell_angle_gamma   120.00000420
_symmetry_Int_Tables_number   1
_chemical_formula_structural   YbHo4Hf3(Co4P3)4
_chemical_formula_sum   'Yb1 Ho4 Hf3 Co16 P12'
_cell_volume   483.53284567
_cell_formula_units_Z   1
loop_
 _symmetry_equiv_pos_site_id
 _symmetry_equiv_pos_as_xyz
  1  'x, y, z'
loop_
 _atom_site_type_symbol
 _atom_site_label
 _atom_site_symmetry_multiplicity
 _atom_site_fract_x
 _atom_site_fract_y
 _atom_site_fract_z
 _atom_site_occupancy
  Yb  Yb0  1  0.666667  0.333333  0.000000  1
  Ho  Ho1  1  0.333333  0.666667  0.000000  1
  Ho  Ho2  1  0.817387  0.817500  0.500000  1
  Ho  Ho3  1  0.182500  0.999888  0.500000  1
  Ho  Ho4  1  0.000112  0.182613  0.500000  1
  Hf  Hf5  1  0.441022  0.441061  0.000000  1
  Hf  Hf6  1  0.558939  0.999961  0.000000  1
  Hf  Hf7  1  0.000039  0.558978  0.000000  1
  Co  Co8  1  0.876906  0.355651  0.500000  1
  Co  Co9  1  0.644349  0.521255  0.500000  1
  Co  Co10  1  0.478745  0.123094  0.500000  1
  Co  Co11  1  0.355910  0.875071  0.500000  1
  Co  Co12  1  0.519160  0.644090  0.500000  1
  Co  Co13  1  0.124929  0.480840  0.500000  1
  Co  Co14  1  0.804646  0.177565  0.000000  1
  Co  Co15  1  0.822435  0.627079  0.000000  1
  Co  Co16  1  0.372921  0.195354  0.000000  1
  Co  Co17  1  0.178361  0.804803  0.000000  1
  Co  Co18  1  0.626441  0.821639  0.000000  1
  Co  Co19  1  0.195197  0.373559  0.000000  1
  Co  Co20  1  0.278163  0.278447  0.500000  1
  Co  Co21  1  0.721553  0.999716  0.500000  1
  Co  Co22  1  0.000284  0.721837  0.500000  1
  Co  Co23  1  0.000000  0.000000  0.000000  1
  P  P24  1  0.692608  0.171861  0.500000  1
  P  P25  1  0.828139  0.520748  0.500000  1
  P  P26  1  0.479252  0.307392  0.500000  1
  P  P27  1  0.171504  0.692523  0.500000  1
  P  P28  1  0.521019  0.828496  0.500000  1
  P  P29  1  0.307477  0.478981  0.500000  1
  P  P30  1  0.177947  0.178132  0.000000  1
  P  P31  1  0.821868  0.999814  0.000000  1
  P  P32  1  0.000186  0.822053  0.000000  1
  P  P33  1  0.648137  0.647722  0.000000  1
  P  P34  1  0.352278  0.000415  0.000000  1
  P  P35  1  0.999585  0.351863  0.000000  1
