# generated using pymatgen
data_Ta3Nb(CuPt2)4
_symmetry_space_group_name_H-M   'P 1'
_cell_length_a   5.55088700
_cell_length_b   4.76656487
_cell_length_c   9.27479284
_cell_angle_alpha   81.50748269
_cell_angle_beta   90.00000000
_cell_angle_gamma   90.00000000
_symmetry_Int_Tables_number   1
_chemical_formula_structural   Ta3Nb(CuPt2)4
_chemical_formula_sum   'Ta3 Nb1 Cu4 Pt8'
_cell_volume   242.70786076
_cell_formula_units_Z   1
loop_
 _symmetry_equiv_pos_site_id
 _symmetry_equiv_pos_as_xyz
  1  'x, y, z'
loop_
 _atom_site_type_symbol
 _atom_site_label
 _atom_site_symmetry_multiplicity
 _atom_site_fract_x
 _atom_site_fract_y
 _atom_site_fract_z
 _atom_site_occupancy
  Ta  Ta0  1  0.750000  0.624930  0.122528  1
  Ta  Ta1  1  0.250000  0.210735  0.375150  1
  Ta  Ta2  1  0.750000  0.787751  0.625472  1
  Nb  Nb3  1  0.250000  0.376975  0.876618  1
  Cu  Cu4  1  0.250000  0.630014  0.127669  1
  Cu  Cu5  1  0.750000  0.369685  0.871944  1
  Cu  Cu6  1  0.250000  0.793716  0.623775  1
  Cu  Cu7  1  0.750000  0.207182  0.375787  1
  Pt  Pt8  1  0.501894  0.861678  0.874258  1
  Pt  Pt9  1  0.001137  0.139814  0.127201  1
  Pt  Pt10  1  0.498863  0.139814  0.127201  1
  Pt  Pt11  1  0.998106  0.861678  0.874258  1
  Pt  Pt12  1  0.501570  0.710465  0.375501  1
  Pt  Pt13  1  0.001303  0.287549  0.623570  1
  Pt  Pt14  1  0.498697  0.287549  0.623570  1
  Pt  Pt15  1  0.998430  0.710465  0.375501  1
