# generated using pymatgen
data_Dy4TmPa(Al3Os)8
_symmetry_space_group_name_H-M   'P 1'
_cell_length_a   8.80079538
_cell_length_b   8.82835711
_cell_length_c   9.56603100
_cell_angle_alpha   90.00000000
_cell_angle_beta   90.00000000
_cell_angle_gamma   119.75879860
_symmetry_Int_Tables_number   1
_chemical_formula_structural   Dy4TmPa(Al3Os)8
_chemical_formula_sum   'Dy4 Tm1 Pa1 Al24 Os8'
_cell_volume   645.23016582
_cell_formula_units_Z   1
loop_
 _symmetry_equiv_pos_site_id
 _symmetry_equiv_pos_as_xyz
  1  'x, y, z'
loop_
 _atom_site_type_symbol
 _atom_site_label
 _atom_site_symmetry_multiplicity
 _atom_site_fract_x
 _atom_site_fract_y
 _atom_site_fract_z
 _atom_site_occupancy
  Dy  Dy0  1  0.809045  0.616527  0.750000  1
  Dy  Dy1  1  0.612326  0.804269  0.250000  1
  Dy  Dy2  1  0.386857  0.190656  0.750000  1
  Dy  Dy3  1  0.804971  0.192259  0.750000  1
  Tm  Tm4  1  0.194057  0.801734  0.250000  1
  Pa  Pa5  1  0.194416  0.393639  0.250000  1
  Al  Al6  1  0.336433  0.672946  0.019597  1
  Al  Al7  1  0.668127  0.335528  0.979463  1
  Al  Al8  1  0.668127  0.335528  0.520537  1
  Al  Al9  1  0.336433  0.672946  0.480403  1
  Al  Al10  1  0.163628  0.326638  0.577246  1
  Al  Al11  1  0.836368  0.673119  0.424744  1
  Al  Al12  1  0.671979  0.834860  0.575035  1
  Al  Al13  1  0.836368  0.673119  0.075256  1
  Al  Al14  1  0.326380  0.162427  0.423505  1
  Al  Al15  1  0.163628  0.326638  0.922754  1
  Al  Al16  1  0.163303  0.835428  0.573703  1
  Al  Al17  1  0.326380  0.162427  0.076495  1
  Al  Al18  1  0.834983  0.162059  0.423971  1
  Al  Al19  1  0.671979  0.834860  0.924965  1
  Al  Al20  1  0.834983  0.162059  0.076029  1
  Al  Al21  1  0.163303  0.835428  0.926297  1
  Al  Al22  1  0.559611  0.119984  0.250000  1
  Al  Al23  1  0.437753  0.874858  0.750000  1
  Al  Al24  1  0.873007  0.437989  0.250000  1
  Al  Al25  1  0.120674  0.559757  0.750000  1
  Al  Al26  1  0.564625  0.437214  0.250000  1
  Al  Al27  1  0.439169  0.560136  0.750000  1
  Al  Al28  1  0.002076  0.002076  0.250000  1
  Al  Al29  1  0.001081  0.000756  0.750000  1
  Os  Os30  1  0.500643  0.002901  0.998464  1
  Os  Os31  1  0.003783  0.500170  0.005346  1
  Os  Os32  1  0.500643  0.002901  0.501536  1
  Os  Os33  1  0.495645  0.499308  0.005109  1
  Os  Os34  1  0.003783  0.500170  0.494654  1
  Os  Os35  1  0.495645  0.499308  0.494891  1
  Os  Os36  1  0.998896  0.998691  0.999309  1
  Os  Os37  1  0.998896  0.998691  0.500691  1
