# generated using pymatgen
data_La2Pr2HgRh
_symmetry_space_group_name_H-M   'P 1'
_cell_length_a   10.03897625
_cell_length_b   10.03897597
_cell_length_c   10.08161200
_cell_angle_alpha   59.85940240
_cell_angle_beta   59.85940331
_cell_angle_gamma   60.28118484
_symmetry_Int_Tables_number   1
_chemical_formula_structural   La2Pr2HgRh
_chemical_formula_sum   'La8 Pr8 Hg4 Rh4'
_cell_volume   718.41940863
_cell_formula_units_Z   4
loop_
 _symmetry_equiv_pos_site_id
 _symmetry_equiv_pos_as_xyz
  1  'x, y, z'
loop_
 _atom_site_type_symbol
 _atom_site_label
 _atom_site_symmetry_multiplicity
 _atom_site_fract_x
 _atom_site_fract_y
 _atom_site_fract_z
 _atom_site_occupancy
  La  La0  1  0.348108  0.348108  0.350612  1
  La  La1  1  0.348108  0.348108  0.953171  1
  La  La2  1  0.350612  0.953171  0.348108  1
  La  La3  1  0.953171  0.350612  0.348108  1
  La  La4  1  0.809504  0.190496  0.190496  1
  La  La5  1  0.190496  0.809505  0.809504  1
  La  La6  1  0.190496  0.809504  0.190495  1
  La  La7  1  0.809504  0.190496  0.809504  1
  Pr  Pr8  1  0.193886  0.193886  0.806114  1
  Pr  Pr9  1  0.806115  0.806115  0.193885  1
  Pr  Pr10  1  0.935960  0.564040  0.564040  1
  Pr  Pr11  1  0.564040  0.935960  0.935960  1
  Pr  Pr12  1  0.564040  0.935960  0.564040  1
  Pr  Pr13  1  0.935960  0.564040  0.935960  1
  Pr  Pr14  1  0.563285  0.563285  0.936715  1
  Pr  Pr15  1  0.936715  0.936715  0.563285  1
  Hg  Hg16  1  0.585300  0.585300  0.584007  1
  Hg  Hg17  1  0.585300  0.585300  0.245394  1
  Hg  Hg18  1  0.584007  0.245394  0.585300  1
  Hg  Hg19  1  0.245394  0.584007  0.585300  1
  Rh  Rh20  1  0.138170  0.138170  0.147280  1
  Rh  Rh21  1  0.138170  0.138170  0.576381  1
  Rh  Rh22  1  0.147280  0.576381  0.138170  1
  Rh  Rh23  1  0.576381  0.147280  0.138170  1
