# generated using pymatgen
data_Cs2Pr10Rh2Br17
_symmetry_space_group_name_H-M   'P 1'
_cell_length_a   9.65493136
_cell_length_b   11.29577587
_cell_length_c   11.29592098
_cell_angle_alpha   108.06405119
_cell_angle_beta   93.49208519
_cell_angle_gamma   93.49586574
_symmetry_Int_Tables_number   1
_chemical_formula_structural   Cs2Pr10Rh2Br17
_chemical_formula_sum   'Cs2 Pr10 Rh2 Br17'
_cell_volume   1164.88892898
_cell_formula_units_Z   1
loop_
 _symmetry_equiv_pos_site_id
 _symmetry_equiv_pos_as_xyz
  1  'x, y, z'
loop_
 _atom_site_type_symbol
 _atom_site_label
 _atom_site_symmetry_multiplicity
 _atom_site_fract_x
 _atom_site_fract_y
 _atom_site_fract_z
 _atom_site_occupancy
  Cs  Cs0  1  0.999238  0.820111  0.178987  1
  Cs  Cs1  1  0.999237  0.178986  0.820118  1
  Pr  Pr2  1  0.436171  0.164106  0.164099  1
  Pr  Pr3  1  0.574718  0.514016  0.199878  1
  Pr  Pr4  1  0.830075  0.290462  0.290478  1
  Pr  Pr5  1  0.308750  0.435157  0.435159  1
  Pr  Pr6  1  0.425524  0.801174  0.486051  1
  Pr  Pr7  1  0.574663  0.199860  0.513995  1
  Pr  Pr8  1  0.691522  0.565947  0.565940  1
  Pr  Pr9  1  0.169933  0.708884  0.708897  1
  Pr  Pr10  1  0.425552  0.486052  0.801177  1
  Pr  Pr11  1  0.564113  0.836107  0.836096  1
  Rh  Rh12  1  0.570729  0.358558  0.358559  1
  Rh  Rh13  1  0.429735  0.642116  0.642119  1
  Br  Br14  1  0.580615  0.686461  0.020908  1
  Br  Br15  1  0.711895  0.067230  0.067227  1
  Br  Br16  1  0.856889  0.449492  0.120800  1
  Br  Br17  1  0.132190  0.207078  0.207039  1
  Br  Br18  1  0.284765  0.604364  0.255327  1
  Br  Br19  1  0.419355  0.979908  0.312014  1
  Br  Br20  1  0.715458  0.745401  0.396221  1
  Br  Br21  1  0.856852  0.120785  0.449516  1
  Br  Br22  1  0.999439  0.500012  0.500094  1
  Br  Br23  1  0.143051  0.879171  0.549689  1
  Br  Br24  1  0.284732  0.255336  0.604384  1
  Br  Br25  1  0.580564  0.020915  0.686430  1
  Br  Br26  1  0.715443  0.396211  0.745374  1
  Br  Br27  1  0.868253  0.792834  0.792734  1
  Br  Br28  1  0.143061  0.549671  0.879198  1
  Br  Br29  1  0.288130  0.931504  0.931529  1
  Br  Br30  1  0.419354  0.312088  0.979965  1
