# generated using pymatgen
data_DyEr3HgIr
_symmetry_space_group_name_H-M   'P 1'
_cell_length_a   9.55034938
_cell_length_b   9.54815689
_cell_length_c   9.54815625
_cell_angle_alpha   60.01519561
_cell_angle_beta   59.99240153
_cell_angle_gamma   59.99239915
_symmetry_Int_Tables_number   1
_chemical_formula_structural   DyEr3HgIr
_chemical_formula_sum   'Dy4 Er12 Hg4 Ir4'
_cell_volume   615.66330295
_cell_formula_units_Z   4
loop_
 _symmetry_equiv_pos_site_id
 _symmetry_equiv_pos_as_xyz
  1  'x, y, z'
loop_
 _atom_site_type_symbol
 _atom_site_label
 _atom_site_symmetry_multiplicity
 _atom_site_fract_x
 _atom_site_fract_y
 _atom_site_fract_z
 _atom_site_occupancy
  Dy  Dy0  1  0.811680  0.188320  0.811680  1
  Dy  Dy1  1  0.188320  0.811680  0.188320  1
  Dy  Dy2  1  0.811680  0.811680  0.188320  1
  Dy  Dy3  1  0.188320  0.188320  0.811680  1
  Er  Er4  1  0.600589  0.600623  0.600623  1
  Er  Er5  1  0.600623  0.600589  0.198164  1
  Er  Er6  1  0.600623  0.198164  0.600589  1
  Er  Er7  1  0.198164  0.600623  0.600623  1
  Er  Er8  1  0.060276  0.439724  0.439724  1
  Er  Er9  1  0.439724  0.060276  0.060276  1
  Er  Er10  1  0.439847  0.060153  0.439847  1
  Er  Er11  1  0.060153  0.439847  0.060153  1
  Er  Er12  1  0.439847  0.439847  0.060153  1
  Er  Er13  1  0.060153  0.060153  0.439847  1
  Er  Er14  1  0.188923  0.811077  0.811077  1
  Er  Er15  1  0.811077  0.188923  0.188923  1
  Hg  Hg16  1  0.835043  0.834536  0.834536  1
  Hg  Hg17  1  0.834536  0.835043  0.495885  1
  Hg  Hg18  1  0.834536  0.495885  0.835043  1
  Hg  Hg19  1  0.495885  0.834536  0.834536  1
  Ir  Ir20  1  0.392295  0.391843  0.391843  1
  Ir  Ir21  1  0.391843  0.392295  0.824021  1
  Ir  Ir22  1  0.391843  0.824021  0.392295  1
  Ir  Ir23  1  0.824021  0.391843  0.391843  1
