# generated using pymatgen
data_Tb10(RuAu)3
_symmetry_space_group_name_H-M   'P 1'
_cell_length_a   11.23079271
_cell_length_b   11.16684100
_cell_length_c   6.44878988
_cell_angle_alpha   90.00000000
_cell_angle_beta   90.27759516
_cell_angle_gamma   90.00000000
_symmetry_Int_Tables_number   1
_chemical_formula_structural   Tb10(RuAu)3
_chemical_formula_sum   'Tb20 Ru6 Au6'
_cell_volume   808.74921748
_cell_formula_units_Z   2
loop_
 _symmetry_equiv_pos_site_id
 _symmetry_equiv_pos_as_xyz
  1  'x, y, z'
loop_
 _atom_site_type_symbol
 _atom_site_label
 _atom_site_symmetry_multiplicity
 _atom_site_fract_x
 _atom_site_fract_y
 _atom_site_fract_z
 _atom_site_occupancy
  Tb  Tb0  1  0.304094  0.084390  0.367209  1
  Tb  Tb1  1  0.304094  0.915610  0.867209  1
  Tb  Tb2  1  0.712445  0.082016  0.871546  1
  Tb  Tb3  1  0.712445  0.917984  0.371546  1
  Tb  Tb4  1  0.596151  0.801145  0.860884  1
  Tb  Tb5  1  0.596151  0.198855  0.360884  1
  Tb  Tb6  1  0.421207  0.802148  0.363427  1
  Tb  Tb7  1  0.421207  0.197852  0.863427  1
  Tb  Tb8  1  0.194929  0.417375  0.639684  1
  Tb  Tb9  1  0.194929  0.582625  0.139684  1
  Tb  Tb10  1  0.799712  0.409233  0.134872  1
  Tb  Tb11  1  0.799712  0.590767  0.634872  1
  Tb  Tb12  1  0.910384  0.703748  0.122929  1
  Tb  Tb13  1  0.910384  0.296252  0.622929  1
  Tb  Tb14  1  0.073846  0.708940  0.639108  1
  Tb  Tb15  1  0.073846  0.291060  0.139108  1
  Tb  Tb16  1  0.992119  0.003778  0.499928  1
  Tb  Tb17  1  0.992119  0.996222  0.999928  1
  Tb  Tb18  1  0.497389  0.502299  0.000806  1
  Tb  Tb19  1  0.497389  0.497701  0.500806  1
  Ru  Ru20  1  0.847695  0.153595  0.248025  1
  Ru  Ru21  1  0.847695  0.846405  0.748025  1
  Ru  Ru22  1  0.501471  0.000107  0.117102  1
  Ru  Ru23  1  0.501471  0.999893  0.617102  1
  Ru  Ru24  1  0.998611  0.500210  0.882480  1
  Ru  Ru25  1  0.998611  0.499790  0.382480  1
  Au  Au26  1  0.155498  0.154723  0.752361  1
  Au  Au27  1  0.155498  0.845277  0.252361  1
  Au  Au28  1  0.653699  0.344825  0.752181  1
  Au  Au29  1  0.653699  0.655175  0.252181  1
  Au  Au30  1  0.340749  0.345263  0.247458  1
  Au  Au31  1  0.340749  0.654737  0.747458  1
