# generated using pymatgen
data_Sr8Li4CdHg5As12
_symmetry_space_group_name_H-M   'P 1'
_cell_length_a   10.32783746
_cell_length_b   10.32783750
_cell_length_c   16.46536200
_cell_angle_alpha   90.00000000
_cell_angle_beta   90.00000000
_cell_angle_gamma   154.40523828
_symmetry_Int_Tables_number   1
_chemical_formula_structural   Sr8Li4CdHg5As12
_chemical_formula_sum   'Sr8 Li4 Cd1 Hg5 As12'
_cell_volume   758.71231698
_cell_formula_units_Z   1
loop_
 _symmetry_equiv_pos_site_id
 _symmetry_equiv_pos_as_xyz
  1  'x, y, z'
loop_
 _atom_site_type_symbol
 _atom_site_label
 _atom_site_symmetry_multiplicity
 _atom_site_fract_x
 _atom_site_fract_y
 _atom_site_fract_z
 _atom_site_occupancy
  Sr  Sr0  1  0.982653  0.017347  0.378547  1
  Sr  Sr1  1  0.017247  0.982753  0.621567  1
  Sr  Sr2  1  0.982653  0.017347  0.121453  1
  Sr  Sr3  1  0.017247  0.982753  0.878433  1
  Sr  Sr4  1  0.827318  0.172682  0.929847  1
  Sr  Sr5  1  0.172705  0.827295  0.070978  1
  Sr  Sr6  1  0.827318  0.172682  0.570153  1
  Sr  Sr7  1  0.172705  0.827295  0.429022  1
  Li  Li8  1  0.847927  0.152073  0.250000  1
  Li  Li9  1  0.151175  0.848825  0.750000  1
  Li  Li10  1  0.564539  0.435461  0.250000  1
  Li  Li11  1  0.436545  0.563455  0.750000  1
  Cd  Cd12  1  0.299132  0.700868  0.750000  1
  Hg  Hg13  1  0.352354  0.647646  0.382850  1
  Hg  Hg14  1  0.648013  0.351987  0.617174  1
  Hg  Hg15  1  0.352354  0.647646  0.117150  1
  Hg  Hg16  1  0.648013  0.351987  0.882826  1
  Hg  Hg17  1  0.700967  0.299033  0.250000  1
  As  As18  1  0.775832  0.224168  0.388721  1
  As  As19  1  0.224482  0.775518  0.611819  1
  As  As20  1  0.775832  0.224168  0.111279  1
  As  As21  1  0.224482  0.775518  0.888181  1
  As  As22  1  0.560448  0.439552  0.477399  1
  As  As23  1  0.439703  0.560297  0.522959  1
  As  As24  1  0.560448  0.439552  0.022601  1
  As  As25  1  0.439703  0.560297  0.977041  1
  As  As26  1  0.435644  0.564356  0.250000  1
  As  As27  1  0.564518  0.435482  0.750000  1
  As  As28  1  0.113623  0.886377  0.250000  1
  As  As29  1  0.884424  0.115576  0.750000  1
