# generated using pymatgen
data_Sm3IrAu3
_symmetry_space_group_name_H-M   'P 1'
_cell_length_a   8.15418634
_cell_length_b   8.15418575
_cell_length_c   8.15418600
_cell_angle_alpha   114.34586094
_cell_angle_beta   114.34585908
_cell_angle_gamma   114.34585867
_symmetry_Int_Tables_number   1
_chemical_formula_structural   Sm3IrAu3
_chemical_formula_sum   'Sm6 Ir2 Au6'
_cell_volume   320.77876506
_cell_formula_units_Z   2
loop_
 _symmetry_equiv_pos_site_id
 _symmetry_equiv_pos_as_xyz
  1  'x, y, z'
loop_
 _atom_site_type_symbol
 _atom_site_label
 _atom_site_symmetry_multiplicity
 _atom_site_fract_x
 _atom_site_fract_y
 _atom_site_fract_z
 _atom_site_occupancy
  Sm  Sm0  1  0.040904  0.392674  0.281343  1
  Sm  Sm1  1  0.392674  0.281343  0.040904  1
  Sm  Sm2  1  0.718657  0.959096  0.607326  1
  Sm  Sm3  1  0.281343  0.040904  0.392674  1
  Sm  Sm4  1  0.607326  0.718657  0.959096  1
  Sm  Sm5  1  0.959096  0.607326  0.718657  1
  Ir  Ir6  1  0.000000  0.000000  0.000000  1
  Ir  Ir7  1  0.500000  0.500000  0.500000  1
  Au  Au8  1  0.435471  0.940502  0.774738  1
  Au  Au9  1  0.940502  0.774738  0.435471  1
  Au  Au10  1  0.225262  0.564529  0.059498  1
  Au  Au11  1  0.774738  0.435471  0.940502  1
  Au  Au12  1  0.059498  0.225262  0.564529  1
  Au  Au13  1  0.564529  0.059498  0.225262  1
