# generated using pymatgen
data_SrNd(SbPd)4
_symmetry_space_group_name_H-M   'P 1'
_cell_length_a   4.63809800
_cell_length_b   4.63809800
_cell_length_c   10.89241700
_cell_angle_alpha   90.00000000
_cell_angle_beta   90.00000000
_cell_angle_gamma   90.00000000
_symmetry_Int_Tables_number   1
_chemical_formula_structural   SrNd(SbPd)4
_chemical_formula_sum   'Sr1 Nd1 Sb4 Pd4'
_cell_volume   234.31716319
_cell_formula_units_Z   1
loop_
 _symmetry_equiv_pos_site_id
 _symmetry_equiv_pos_as_xyz
  1  'x, y, z'
loop_
 _atom_site_type_symbol
 _atom_site_label
 _atom_site_symmetry_multiplicity
 _atom_site_fract_x
 _atom_site_fract_y
 _atom_site_fract_z
 _atom_site_occupancy
  Sr  Sr0  1  0.000000  0.500000  0.241570  1
  Nd  Nd1  1  0.500000  0.000000  0.758139  1
  Sb  Sb2  1  0.000000  0.000000  0.504876  1
  Sb  Sb3  1  0.500000  0.500000  0.504876  1
  Sb  Sb4  1  0.500000  0.000000  0.127820  1
  Sb  Sb5  1  0.000000  0.500000  0.869959  1
  Pd  Pd6  1  0.000000  0.000000  0.993908  1
  Pd  Pd7  1  0.500000  0.500000  0.993908  1
  Pd  Pd8  1  0.500000  0.000000  0.371725  1
  Pd  Pd9  1  0.000000  0.500000  0.633219  1
