# generated using pymatgen
data_TbZr3(Al3Rh)6
_symmetry_space_group_name_H-M   'P 1'
_cell_length_a   7.48889794
_cell_length_b   7.48007490
_cell_length_c   9.31840400
_cell_angle_alpha   90.00000000
_cell_angle_beta   90.00000000
_cell_angle_gamma   119.68633359
_symmetry_Int_Tables_number   1
_chemical_formula_structural   TbZr3(Al3Rh)6
_chemical_formula_sum   'Tb1 Zr3 Al18 Rh6'
_cell_volume   453.48199166
_cell_formula_units_Z   1
loop_
 _symmetry_equiv_pos_site_id
 _symmetry_equiv_pos_as_xyz
  1  'x, y, z'
loop_
 _atom_site_type_symbol
 _atom_site_label
 _atom_site_symmetry_multiplicity
 _atom_site_fract_x
 _atom_site_fract_y
 _atom_site_fract_z
 _atom_site_occupancy
  Tb  Tb0  1  0.329126  0.006723  0.750000  1
  Zr  Zr1  1  0.993902  0.671666  0.250000  1
  Zr  Zr2  1  0.006082  0.329180  0.750000  1
  Zr  Zr3  1  0.671307  0.993931  0.250000  1
  Al  Al4  1  0.121658  0.123172  0.250000  1
  Al  Al5  1  0.871748  0.875363  0.750000  1
  Al  Al6  1  0.996771  0.334717  0.076839  1
  Al  Al7  1  0.999974  0.662356  0.926825  1
  Al  Al8  1  0.999974  0.662356  0.573175  1
  Al  Al9  1  0.335110  0.997800  0.419219  1
  Al  Al10  1  0.996771  0.334717  0.423161  1
  Al  Al11  1  0.668095  0.002299  0.573335  1
  Al  Al12  1  0.668095  0.002299  0.926665  1
  Al  Al13  1  0.335110  0.997800  0.080781  1
  Al  Al14  1  0.331365  0.333828  0.552776  1
  Al  Al15  1  0.668670  0.668596  0.441250  1
  Al  Al16  1  0.668670  0.668596  0.058750  1
  Al  Al17  1  0.331365  0.333828  0.947224  1
  Al  Al18  1  0.338078  0.553609  0.250000  1
  Al  Al19  1  0.666423  0.451697  0.750000  1
  Al  Al20  1  0.555455  0.339687  0.250000  1
  Al  Al21  1  0.445886  0.656339  0.750000  1
  Rh  Rh22  1  0.672743  0.327809  0.001268  1
  Rh  Rh23  1  0.328105  0.673024  0.001858  1
  Rh  Rh24  1  0.328105  0.673024  0.498142  1
  Rh  Rh25  1  0.672743  0.327809  0.498732  1
  Rh  Rh26  1  0.999335  0.998887  0.001490  1
  Rh  Rh27  1  0.999335  0.998887  0.498510  1
