# generated using pymatgen
data_Li6Eu2P5
_symmetry_space_group_name_H-M   'P 1'
_cell_length_a   4.14756064
_cell_length_b   4.14756117
_cell_length_c   13.45061058
_cell_angle_alpha   98.86908788
_cell_angle_beta   98.86908924
_cell_angle_gamma   89.99999497
_symmetry_Int_Tables_number   1
_chemical_formula_structural   Li6Eu2P5
_chemical_formula_sum   'Li6 Eu2 P5'
_cell_volume   225.81387229
_cell_formula_units_Z   1
loop_
 _symmetry_equiv_pos_site_id
 _symmetry_equiv_pos_as_xyz
  1  'x, y, z'
loop_
 _atom_site_type_symbol
 _atom_site_label
 _atom_site_symmetry_multiplicity
 _atom_site_fract_x
 _atom_site_fract_y
 _atom_site_fract_z
 _atom_site_occupancy
  Li  Li0  1  0.950179  0.450179  0.900360  1
  Li  Li1  1  0.450179  0.950179  0.900360  1
  Li  Li2  1  0.049821  0.549821  0.099640  1
  Li  Li3  1  0.549821  0.049821  0.099640  1
  Li  Li4  1  0.250000  0.750000  0.500000  1
  Li  Li5  1  0.750000  0.250000  0.500000  1
  Eu  Eu6  1  0.645239  0.645239  0.290479  1
  Eu  Eu7  1  0.354761  0.354761  0.709521  1
  P  P8  1  0.500000  0.500000  0.000000  1
  P  P9  1  0.889773  0.889773  0.779547  1
  P  P10  1  0.110227  0.110227  0.220453  1
  P  P11  1  0.805467  0.805467  0.610932  1
  P  P12  1  0.194533  0.194533  0.389068  1
