# generated using pymatgen
data_Tm3Co7P6IrRu
_symmetry_space_group_name_H-M   'P 1'
_cell_length_a   3.69386700
_cell_length_b   10.63991900
_cell_length_c   12.32766300
_cell_angle_alpha   90.00000000
_cell_angle_beta   90.00000000
_cell_angle_gamma   90.00000000
_symmetry_Int_Tables_number   1
_chemical_formula_structural   Tm3Co7P6IrRu
_chemical_formula_sum   'Tm6 Co14 P12 Ir2 Ru2'
_cell_volume   484.50730538
_cell_formula_units_Z   2
loop_
 _symmetry_equiv_pos_site_id
 _symmetry_equiv_pos_as_xyz
  1  'x, y, z'
loop_
 _atom_site_type_symbol
 _atom_site_label
 _atom_site_symmetry_multiplicity
 _atom_site_fract_x
 _atom_site_fract_y
 _atom_site_fract_z
 _atom_site_occupancy
  Tm  Tm0  1  0.000000  0.500000  0.519729  1
  Tm  Tm1  1  0.500000  0.000000  0.480271  1
  Tm  Tm2  1  0.500000  0.813172  0.205269  1
  Tm  Tm3  1  0.500000  0.186828  0.205269  1
  Tm  Tm4  1  0.000000  0.686828  0.794731  1
  Tm  Tm5  1  0.000000  0.313172  0.794731  1
  Co  Co6  1  0.000000  0.500000  0.988542  1
  Co  Co7  1  0.500000  0.000000  0.011458  1
  Co  Co8  1  0.500000  0.331591  0.992294  1
  Co  Co9  1  0.500000  0.668409  0.992294  1
  Co  Co10  1  0.000000  0.168409  0.007706  1
  Co  Co11  1  0.000000  0.831591  0.007706  1
  Co  Co12  1  0.500000  0.299567  0.429859  1
  Co  Co13  1  0.500000  0.700433  0.429859  1
  Co  Co14  1  0.000000  0.200433  0.570141  1
  Co  Co15  1  0.000000  0.799567  0.570141  1
  Co  Co16  1  0.500000  0.879991  0.709231  1
  Co  Co17  1  0.500000  0.120009  0.709231  1
  Co  Co18  1  0.000000  0.620009  0.290769  1
  Co  Co19  1  0.000000  0.379991  0.290769  1
  P  P20  1  0.500000  0.500000  0.889744  1
  P  P21  1  0.000000  0.000000  0.110256  1
  P  P22  1  0.500000  0.500000  0.349494  1
  P  P23  1  0.000000  0.000000  0.650506  1
  P  P24  1  0.500000  0.303736  0.614186  1
  P  P25  1  0.500000  0.696264  0.614186  1
  P  P26  1  0.000000  0.196264  0.385814  1
  P  P27  1  0.000000  0.803736  0.385814  1
  P  P28  1  0.500000  0.846097  0.892754  1
  P  P29  1  0.500000  0.153903  0.892754  1
  P  P30  1  0.000000  0.653903  0.107246  1
  P  P31  1  0.000000  0.346097  0.107246  1
  Ir  Ir32  1  0.500000  0.500000  0.703057  1
  Ir  Ir33  1  0.000000  0.000000  0.296943  1
  Ru  Ru34  1  0.500000  0.500000  0.159627  1
  Ru  Ru35  1  0.000000  0.000000  0.840373  1
