# generated using pymatgen
data_ErPaZn4(InPt2)2
_symmetry_space_group_name_H-M   'P 1'
_cell_length_a   4.03884700
_cell_length_b   6.85602793
_cell_length_c   8.19672662
_cell_angle_alpha   89.79616334
_cell_angle_beta   90.00000000
_cell_angle_gamma   90.00000000
_symmetry_Int_Tables_number   1
_chemical_formula_structural   ErPaZn4(InPt2)2
_chemical_formula_sum   'Er1 Pa1 Zn4 In2 Pt4'
_cell_volume   226.96959444
_cell_formula_units_Z   1
loop_
 _symmetry_equiv_pos_site_id
 _symmetry_equiv_pos_as_xyz
  1  'x, y, z'
loop_
 _atom_site_type_symbol
 _atom_site_label
 _atom_site_symmetry_multiplicity
 _atom_site_fract_x
 _atom_site_fract_y
 _atom_site_fract_z
 _atom_site_occupancy
  Er  Er0  1  0.750000  0.456870  0.824412  1
  Pa  Pa1  1  0.250000  0.040561  0.326600  1
  Zn  Zn2  1  0.250000  0.622178  0.558518  1
  Zn  Zn3  1  0.250000  0.129598  0.947520  1
  Zn  Zn4  1  0.750000  0.375961  0.452556  1
  Zn  Zn5  1  0.750000  0.872473  0.050253  1
  In  In6  1  0.250000  0.556284  0.165933  1
  In  In7  1  0.750000  0.944154  0.672262  1
  Pt  Pt8  1  0.250000  0.240966  0.634662  1
  Pt  Pt9  1  0.250000  0.759556  0.861602  1
  Pt  Pt10  1  0.750000  0.749826  0.359315  1
  Pt  Pt11  1  0.750000  0.251573  0.146368  1
