# generated using pymatgen
data_Ca4Ga2PdPt3
_symmetry_space_group_name_H-M   'P 1'
_cell_length_a   5.71457429
_cell_length_b   5.71545055
_cell_length_c   7.85979245
_cell_angle_alpha   79.19154560
_cell_angle_beta   79.19644144
_cell_angle_gamma   59.96175189
_symmetry_Int_Tables_number   1
_chemical_formula_structural   Ca4Ga2PdPt3
_chemical_formula_sum   'Ca4 Ga2 Pd1 Pt3'
_cell_volume   216.96485157
_cell_formula_units_Z   1
loop_
 _symmetry_equiv_pos_site_id
 _symmetry_equiv_pos_as_xyz
  1  'x, y, z'
loop_
 _atom_site_type_symbol
 _atom_site_label
 _atom_site_symmetry_multiplicity
 _atom_site_fract_x
 _atom_site_fract_y
 _atom_site_fract_z
 _atom_site_occupancy
  Ca  Ca0  1  0.786276  0.515182  0.349246  1
  Ca  Ca1  1  0.483610  0.214517  0.148892  1
  Ca  Ca2  1  0.215493  0.484234  0.651280  1
  Ca  Ca3  1  0.512848  0.785451  0.850214  1
  Ga  Ga4  1  0.135110  0.866449  0.248378  1
  Ga  Ga5  1  0.869542  0.133943  0.750908  1
  Pd  Pd6  1  0.737914  0.003647  0.502480  1
  Pt  Pt7  1  0.001751  0.736506  0.003055  1
  Pt  Pt8  1  0.260647  0.996010  0.496839  1
  Pt  Pt9  1  0.996811  0.264062  0.998709  1
