# generated using pymatgen
data_Pr4V3PtF28
_symmetry_space_group_name_H-M   'P 1'
_cell_length_a   5.67282330
_cell_length_b   9.19130880
_cell_length_c   12.23728961
_cell_angle_alpha   62.35126256
_cell_angle_beta   89.86227104
_cell_angle_gamma   89.87276510
_symmetry_Int_Tables_number   1
_chemical_formula_structural   Pr4V3PtF28
_chemical_formula_sum   'Pr4 V3 Pt1 F28'
_cell_volume   565.19775530
_cell_formula_units_Z   1
loop_
 _symmetry_equiv_pos_site_id
 _symmetry_equiv_pos_as_xyz
  1  'x, y, z'
loop_
 _atom_site_type_symbol
 _atom_site_label
 _atom_site_symmetry_multiplicity
 _atom_site_fract_x
 _atom_site_fract_y
 _atom_site_fract_z
 _atom_site_occupancy
  Pr  Pr0  1  0.758967  0.808094  0.766569  1
  Pr  Pr1  1  0.258134  0.191723  0.735729  1
  Pr  Pr2  1  0.239103  0.191421  0.231130  1
  Pr  Pr3  1  0.741896  0.805974  0.268156  1
  V  V4  1  0.752959  0.275057  0.957015  1
  V  V5  1  0.255338  0.724830  0.544467  1
  V  V6  1  0.246165  0.725622  0.043263  1
  Pt  Pt7  1  0.743852  0.271960  0.457447  1
  F  F8  1  0.444364  0.710424  0.924004  1
  F  F9  1  0.928412  0.296935  0.583667  1
  F  F10  1  0.554447  0.291265  0.075616  1
  F  F11  1  0.058039  0.710552  0.425028  1
  F  F12  1  0.447836  0.284559  0.537291  1
  F  F13  1  0.972284  0.714164  0.956555  1
  F  F14  1  0.530246  0.715512  0.457366  1
  F  F15  1  0.028325  0.287623  0.042730  1
  F  F16  1  0.760909  0.500441  0.866056  1
  F  F17  1  0.266386  0.497638  0.634087  1
  F  F18  1  0.237748  0.499674  0.134657  1
  F  F19  1  0.737810  0.512234  0.359126  1
  F  F20  1  0.760999  0.050772  0.046640  1
  F  F21  1  0.259850  0.949451  0.454198  1
  F  F22  1  0.239612  0.951150  0.952717  1
  F  F23  1  0.740522  0.030753  0.549014  1
  F  F24  1  0.988032  0.726680  0.637236  1
  F  F25  1  0.484095  0.267384  0.867642  1
  F  F26  1  0.036634  0.267949  0.372068  1
  F  F27  1  0.514340  0.735124  0.131940  1
  F  F28  1  0.050050  0.746035  0.162433  1
  F  F29  1  0.561687  0.254707  0.327117  1
  F  F30  1  0.950320  0.257376  0.836773  1
  F  F31  1  0.450632  0.739960  0.665884  1
  F  F32  1  0.408084  0.969521  0.227516  1
  F  F33  1  0.907790  0.031705  0.271028  1
  F  F34  1  0.592731  0.034292  0.769423  1
  F  F35  1  0.091402  0.971439  0.728412  1
