# generated using pymatgen
data_LiPr(AsO3)4
_symmetry_space_group_name_H-M   'P 1'
_cell_length_a   9.50249080
_cell_length_b   9.50249087
_cell_length_c   10.38848289
_cell_angle_alpha   57.03751083
_cell_angle_beta   57.03751596
_cell_angle_gamma   46.06143778
_symmetry_Int_Tables_number   1
_chemical_formula_structural   LiPr(AsO3)4
_chemical_formula_sum   'Li2 Pr2 As8 O24'
_cell_volume   544.78276700
_cell_formula_units_Z   2
loop_
 _symmetry_equiv_pos_site_id
 _symmetry_equiv_pos_as_xyz
  1  'x, y, z'
loop_
 _atom_site_type_symbol
 _atom_site_label
 _atom_site_symmetry_multiplicity
 _atom_site_fract_x
 _atom_site_fract_y
 _atom_site_fract_z
 _atom_site_occupancy
  Li  Li0  1  0.206973  0.793027  0.250000  1
  Li  Li1  1  0.793027  0.206973  0.750000  1
  Pr  Pr2  1  0.705403  0.294597  0.250000  1
  Pr  Pr3  1  0.294597  0.705403  0.750000  1
  As  As4  1  0.209471  0.501289  0.593168  1
  As  As5  1  0.925103  0.807625  0.156054  1
  As  As6  1  0.074897  0.192375  0.843946  1
  As  As7  1  0.790529  0.498711  0.406832  1
  As  As8  1  0.192375  0.074897  0.343946  1
  As  As9  1  0.501289  0.209471  0.093168  1
  As  As10  1  0.498711  0.790529  0.906832  1
  As  As11  1  0.807625  0.925103  0.656054  1
  O  O12  1  0.938284  0.951522  0.694536  1
  O  O13  1  0.684648  0.829254  0.851716  1
  O  O14  1  0.478400  0.648980  0.097309  1
  O  O15  1  0.170746  0.315352  0.648284  1
  O  O16  1  0.521600  0.351020  0.902691  1
  O  O17  1  0.061716  0.048478  0.305464  1
  O  O18  1  0.724913  0.962139  0.069096  1
  O  O19  1  0.048478  0.061716  0.805464  1
  O  O20  1  0.745805  0.509812  0.265862  1
  O  O21  1  0.490188  0.254195  0.234138  1
  O  O22  1  0.126457  0.649592  0.042018  1
  O  O23  1  0.275087  0.037861  0.930904  1
  O  O24  1  0.350408  0.873543  0.457982  1
  O  O25  1  0.962139  0.724913  0.569096  1
  O  O26  1  0.509812  0.745805  0.765862  1
  O  O27  1  0.315352  0.170746  0.148284  1
  O  O28  1  0.951522  0.938284  0.194536  1
  O  O29  1  0.037861  0.275087  0.430904  1
  O  O30  1  0.351020  0.521600  0.402691  1
  O  O31  1  0.649592  0.126457  0.542018  1
  O  O32  1  0.254195  0.490188  0.734138  1
  O  O33  1  0.873543  0.350408  0.957982  1
  O  O34  1  0.829254  0.684648  0.351716  1
  O  O35  1  0.648980  0.478400  0.597309  1
