# generated using pymatgen
data_HfTa(CoH3)2
_symmetry_space_group_name_H-M   'P 1'
_cell_length_a   5.33467201
_cell_length_b   5.33467180
_cell_length_c   4.23994700
_cell_angle_alpha   90.00000000
_cell_angle_beta   90.00000000
_cell_angle_gamma   142.00074145
_symmetry_Int_Tables_number   1
_chemical_formula_structural   HfTa(CoH3)2
_chemical_formula_sum   'Hf1 Ta1 Co2 H6'
_cell_volume   74.28662734
_cell_formula_units_Z   1
loop_
 _symmetry_equiv_pos_site_id
 _symmetry_equiv_pos_as_xyz
  1  'x, y, z'
loop_
 _atom_site_type_symbol
 _atom_site_label
 _atom_site_symmetry_multiplicity
 _atom_site_fract_x
 _atom_site_fract_y
 _atom_site_fract_z
 _atom_site_occupancy
  Hf  Hf0  1  0.367136  0.632864  0.750000  1
  Ta  Ta1  1  0.634067  0.365933  0.250000  1
  Co  Co2  1  0.074609  0.925391  0.750000  1
  Co  Co3  1  0.928583  0.071417  0.250000  1
  H  H4  1  0.581146  0.418854  0.750000  1
  H  H5  1  0.186533  0.813467  0.478146  1
  H  H6  1  0.186533  0.813467  0.021854  1
  H  H7  1  0.805649  0.194351  0.001791  1
  H  H8  1  0.805649  0.194351  0.498209  1
  H  H9  1  0.430095  0.569905  0.250000  1
