# generated using pymatgen
data_Lu19Th(CoBi2)4
_symmetry_space_group_name_H-M   'P 1'
_cell_length_a   7.85522297
_cell_length_b   8.77898999
_cell_length_c   12.20748464
_cell_angle_alpha   90.14007137
_cell_angle_beta   89.83592395
_cell_angle_gamma   90.10037675
_symmetry_Int_Tables_number   1
_chemical_formula_structural   Lu19Th(CoBi2)4
_chemical_formula_sum   'Lu19 Th1 Co4 Bi8'
_cell_volume   841.83216923
_cell_formula_units_Z   1
loop_
 _symmetry_equiv_pos_site_id
 _symmetry_equiv_pos_as_xyz
  1  'x, y, z'
loop_
 _atom_site_type_symbol
 _atom_site_label
 _atom_site_symmetry_multiplicity
 _atom_site_fract_x
 _atom_site_fract_y
 _atom_site_fract_z
 _atom_site_occupancy
  Lu  Lu0  1  0.343046  0.752157  0.701248  1
  Lu  Lu1  1  0.654769  0.249695  0.298702  1
  Lu  Lu2  1  0.847671  0.249721  0.801175  1
  Lu  Lu3  1  0.152827  0.750165  0.199469  1
  Lu  Lu4  1  0.886557  0.749624  0.812424  1
  Lu  Lu5  1  0.112956  0.249886  0.186960  1
  Lu  Lu6  1  0.383166  0.248254  0.688897  1
  Lu  Lu7  1  0.611522  0.753224  0.310941  1
  Lu  Lu8  1  0.320503  0.457573  0.433433  1
  Lu  Lu9  1  0.172223  0.461134  0.937566  1
  Lu  Lu10  1  0.328029  0.041439  0.436442  1
  Lu  Lu11  1  0.827991  0.539132  0.062491  1
  Lu  Lu12  1  0.674310  0.958385  0.563334  1
  Lu  Lu13  1  0.828176  0.961091  0.062896  1
  Lu  Lu14  1  0.172288  0.038676  0.937211  1
  Lu  Lu15  1  0.058472  0.750816  0.498741  1
  Lu  Lu16  1  0.946365  0.248331  0.501740  1
  Lu  Lu17  1  0.558602  0.249826  0.002186  1
  Lu  Lu18  1  0.440408  0.750330  0.998378  1
  Th  Th19  1  0.675138  0.536909  0.560951  1
  Co  Co20  1  0.067499  0.750094  0.992070  1
  Co  Co21  1  0.932362  0.249855  0.007936  1
  Co  Co22  1  0.569653  0.257128  0.509918  1
  Co  Co23  1  0.432658  0.748033  0.492343  1
  Bi  Bi24  1  0.567492  0.509293  0.829236  1
  Bi  Bi25  1  0.430874  0.490129  0.172933  1
  Bi  Bi26  1  0.076082  0.488417  0.674682  1
  Bi  Bi27  1  0.430248  0.010209  0.172728  1
  Bi  Bi28  1  0.929475  0.510161  0.325901  1
  Bi  Bi29  1  0.569073  0.990055  0.826881  1
  Bi  Bi30  1  0.930076  0.989829  0.327221  1
  Bi  Bi31  1  0.069486  0.010428  0.672968  1
