# generated using pymatgen
data_Dy5Er2Tm(P3Ir4)4
_symmetry_space_group_name_H-M   'P 1'
_cell_length_a   12.96248200
_cell_length_b   12.96312621
_cell_length_c   3.99912800
_cell_angle_alpha   90.00000000
_cell_angle_beta   90.00000000
_cell_angle_gamma   119.99836119
_symmetry_Int_Tables_number   1
_chemical_formula_structural   Dy5Er2Tm(P3Ir4)4
_chemical_formula_sum   'Dy5 Er2 Tm1 P12 Ir16'
_cell_volume   581.97057114
_cell_formula_units_Z   1
loop_
 _symmetry_equiv_pos_site_id
 _symmetry_equiv_pos_as_xyz
  1  'x, y, z'
loop_
 _atom_site_type_symbol
 _atom_site_label
 _atom_site_symmetry_multiplicity
 _atom_site_fract_x
 _atom_site_fract_y
 _atom_site_fract_z
 _atom_site_occupancy
  Dy  Dy0  1  0.333338  0.666682  0.500000  1
  Dy  Dy1  1  0.666657  0.333318  0.500000  1
  Dy  Dy2  1  0.999993  0.814313  0.000000  1
  Dy  Dy3  1  0.185679  0.185687  0.000000  1
  Dy  Dy4  1  0.814297  0.000000  0.000000  1
  Er  Er5  1  0.000012  0.445948  0.500000  1
  Er  Er6  1  0.554064  0.554052  0.500000  1
  Tm  Tm7  1  0.446083  0.000000  0.500000  1
  P  P8  1  0.000053  0.652233  0.500000  1
  P  P9  1  0.347820  0.347767  0.500000  1
  P  P10  1  0.651910  0.000000  0.500000  1
  P  P11  1  0.516837  0.688593  0.000000  1
  P  P12  1  0.311630  0.828518  0.000000  1
  P  P13  1  0.171715  0.483178  0.000000  1
  P  P14  1  0.483113  0.171482  0.000000  1
  P  P15  1  0.688538  0.516822  0.000000  1
  P  P16  1  0.828245  0.311407  0.000000  1
  P  P17  1  0.999984  0.176599  0.500000  1
  P  P18  1  0.823385  0.823401  0.500000  1
  P  P19  1  0.176600  0.000000  0.500000  1
  Ir  Ir20  1  0.509415  0.866153  0.000000  1
  Ir  Ir21  1  0.134130  0.643684  0.000000  1
  Ir  Ir22  1  0.356432  0.490526  0.000000  1
  Ir  Ir23  1  0.490446  0.356316  0.000000  1
  Ir  Ir24  1  0.865906  0.509474  0.000000  1
  Ir  Ir25  1  0.643262  0.133847  0.000000  1
  Ir  Ir26  1  0.999986  0.274781  0.000000  1
  Ir  Ir27  1  0.725205  0.725219  0.000000  1
  Ir  Ir28  1  0.275092  0.000000  0.000000  1
  Ir  Ir29  1  0.630094  0.809184  0.500000  1
  Ir  Ir30  1  0.191141  0.821232  0.500000  1
  Ir  Ir31  1  0.178977  0.369835  0.500000  1
  Ir  Ir32  1  0.369909  0.178768  0.500000  1
  Ir  Ir33  1  0.809142  0.630165  0.500000  1
  Ir  Ir34  1  0.820911  0.190816  0.500000  1
  Ir  Ir35  1  0.999998  0.000000  0.500000  1
