# generated using pymatgen
data_LaHo2(ZnPt)4
_symmetry_space_group_name_H-M   'P 1'
_cell_length_a   8.28007139
_cell_length_b   8.28007226
_cell_length_c   8.28007143
_cell_angle_alpha   151.71812112
_cell_angle_beta   125.59445315
_cell_angle_gamma   62.44036774
_symmetry_Int_Tables_number   1
_chemical_formula_structural   LaHo2(ZnPt)4
_chemical_formula_sum   'La1 Ho2 Zn4 Pt4'
_cell_volume   216.87447729
_cell_formula_units_Z   1
loop_
 _symmetry_equiv_pos_site_id
 _symmetry_equiv_pos_as_xyz
  1  'x, y, z'
loop_
 _atom_site_type_symbol
 _atom_site_label
 _atom_site_symmetry_multiplicity
 _atom_site_fract_x
 _atom_site_fract_y
 _atom_site_fract_z
 _atom_site_occupancy
  La  La0  1  0.500000  0.000000  0.500000  1
  Ho  Ho1  1  0.874430  0.874430  0.000000  1
  Ho  Ho2  1  0.125570  0.125570  0.000000  1
  Zn  Zn3  1  0.477279  0.674579  0.802700  1
  Zn  Zn4  1  0.871880  0.674579  0.197300  1
  Zn  Zn5  1  0.128120  0.325421  0.802700  1
  Zn  Zn6  1  0.522721  0.325421  0.197300  1
  Pt  Pt7  1  0.275621  0.775621  0.500000  1
  Pt  Pt8  1  0.724379  0.224379  0.500000  1
  Pt  Pt9  1  0.811184  0.500000  0.311184  1
  Pt  Pt10  1  0.188816  0.500000  0.688816  1
