# generated using pymatgen
data_Cs4LaPaTe6
_symmetry_space_group_name_H-M   'P 1'
_cell_length_a   8.53299967
_cell_length_b   8.53300076
_cell_length_c   9.34383847
_cell_angle_alpha   81.07596573
_cell_angle_beta   81.07596285
_cell_angle_gamma   119.89892188
_symmetry_Int_Tables_number   1
_chemical_formula_structural   Cs4LaPaTe6
_chemical_formula_sum   'Cs4 La1 Pa1 Te6'
_cell_volume   560.78240231
_cell_formula_units_Z   1
loop_
 _symmetry_equiv_pos_site_id
 _symmetry_equiv_pos_as_xyz
  1  'x, y, z'
loop_
 _atom_site_type_symbol
 _atom_site_label
 _atom_site_symmetry_multiplicity
 _atom_site_fract_x
 _atom_site_fract_y
 _atom_site_fract_z
 _atom_site_occupancy
  Cs  Cs0  1  0.499951  0.500049  0.000000  1
  Cs  Cs1  1  0.652816  0.347184  0.500000  1
  Cs  Cs2  1  0.346442  0.653558  0.500000  1
  Cs  Cs3  1  0.000645  0.999355  0.500000  1
  La  La4  1  0.167918  0.832082  0.000000  1
  Pa  Pa5  1  0.832097  0.167903  0.000000  1
  Te  Te6  1  0.807784  0.827987  0.193078  1
  Te  Te7  1  0.172013  0.192216  0.806922  1
  Te  Te8  1  0.453674  0.058910  0.197908  1
  Te  Te9  1  0.588484  0.962913  0.802385  1
  Te  Te10  1  0.941090  0.546326  0.802092  1
  Te  Te11  1  0.037087  0.411516  0.197615  1
