# generated using pymatgen
data_Sm11Hf(PaRh2)8
_symmetry_space_group_name_H-M   'P 1'
_cell_length_a   7.47981849
_cell_length_b   7.53076391
_cell_length_c   14.47226800
_cell_angle_alpha   90.00000000
_cell_angle_beta   90.00000000
_cell_angle_gamma   89.66976028
_symmetry_Int_Tables_number   1
_chemical_formula_structural   Sm11Hf(PaRh2)8
_chemical_formula_sum   'Sm11 Hf1 Pa8 Rh16'
_cell_volume   815.19118313
_cell_formula_units_Z   1
loop_
 _symmetry_equiv_pos_site_id
 _symmetry_equiv_pos_as_xyz
  1  'x, y, z'
loop_
 _atom_site_type_symbol
 _atom_site_label
 _atom_site_symmetry_multiplicity
 _atom_site_fract_x
 _atom_site_fract_y
 _atom_site_fract_z
 _atom_site_occupancy
  Sm  Sm0  1  0.509036  0.674258  0.596511  1
  Sm  Sm1  1  0.002170  0.820519  0.905950  1
  Sm  Sm2  1  0.496043  0.324336  0.091472  1
  Sm  Sm3  1  0.994889  0.177454  0.408473  1
  Sm  Sm4  1  0.496043  0.324336  0.408528  1
  Sm  Sm5  1  0.994889  0.177454  0.091527  1
  Sm  Sm6  1  0.509036  0.674258  0.903489  1
  Sm  Sm7  1  0.002170  0.820519  0.594050  1
  Sm  Sm8  1  0.310408  0.973113  0.750000  1
  Sm  Sm9  1  0.189997  0.472648  0.250000  1
  Sm  Sm10  1  0.690679  0.028804  0.250000  1
  Hf  Hf11  1  0.814823  0.519522  0.750000  1
  Pa  Pa12  1  0.657289  0.159706  0.622848  1
  Pa  Pa13  1  0.157534  0.341513  0.878296  1
  Pa  Pa14  1  0.343487  0.841896  0.120530  1
  Pa  Pa15  1  0.841964  0.659378  0.379501  1
  Pa  Pa16  1  0.343487  0.841896  0.379470  1
  Pa  Pa17  1  0.841964  0.659378  0.120499  1
  Pa  Pa18  1  0.657289  0.159706  0.877152  1
  Pa  Pa19  1  0.157534  0.341513  0.621704  1
  Rh  Rh20  1  0.680620  0.948998  0.462798  1
  Rh  Rh21  1  0.177404  0.550286  0.038417  1
  Rh  Rh22  1  0.322945  0.051779  0.961747  1
  Rh  Rh23  1  0.824086  0.451513  0.543921  1
  Rh  Rh24  1  0.322945  0.051779  0.538253  1
  Rh  Rh25  1  0.824086  0.451513  0.956079  1
  Rh  Rh26  1  0.680620  0.948998  0.037202  1
  Rh  Rh27  1  0.177404  0.550286  0.461583  1
  Rh  Rh28  1  0.460308  0.360171  0.750000  1
  Rh  Rh29  1  0.945162  0.160067  0.750000  1
  Rh  Rh30  1  0.544369  0.652941  0.250000  1
  Rh  Rh31  1  0.045274  0.846873  0.250000  1
  Rh  Rh32  1  0.699842  0.872530  0.750000  1
  Rh  Rh33  1  0.165702  0.609908  0.750000  1
  Rh  Rh34  1  0.308524  0.107772  0.250000  1
  Rh  Rh35  1  0.809974  0.392384  0.250000  1
