# generated using pymatgen
data_Tm4B12OsW
_symmetry_space_group_name_H-M   'P 1'
_cell_length_a   3.59750200
_cell_length_b   9.15327699
_cell_length_c   11.54363181
_cell_angle_alpha   89.82258852
_cell_angle_beta   90.00000000
_cell_angle_gamma   90.00000000
_symmetry_Int_Tables_number   1
_chemical_formula_structural   Tm4B12OsW
_chemical_formula_sum   'Tm8 B24 Os2 W2'
_cell_volume   380.11764785
_cell_formula_units_Z   2
loop_
 _symmetry_equiv_pos_site_id
 _symmetry_equiv_pos_as_xyz
  1  'x, y, z'
loop_
 _atom_site_type_symbol
 _atom_site_label
 _atom_site_symmetry_multiplicity
 _atom_site_fract_x
 _atom_site_fract_y
 _atom_site_fract_z
 _atom_site_occupancy
  Tm  Tm0  1  0.000000  0.321686  0.414055  1
  Tm  Tm1  1  0.000000  0.678314  0.585945  1
  Tm  Tm2  1  0.000000  0.821090  0.086284  1
  Tm  Tm3  1  0.000000  0.178910  0.913716  1
  Tm  Tm4  1  0.000000  0.944894  0.371538  1
  Tm  Tm5  1  0.000000  0.055106  0.628463  1
  Tm  Tm6  1  0.000000  0.442470  0.127363  1
  Tm  Tm7  1  0.000000  0.557530  0.872636  1
  B  B8  1  0.500000  0.551155  0.434600  1
  B  B9  1  0.500000  0.448845  0.565400  1
  B  B10  1  0.500000  0.053731  0.066349  1
  B  B11  1  0.500000  0.946269  0.933651  1
  B  B12  1  0.500000  0.751455  0.421777  1
  B  B13  1  0.500000  0.248545  0.578223  1
  B  B14  1  0.500000  0.248883  0.080472  1
  B  B15  1  0.500000  0.751117  0.919528  1
  B  B16  1  0.500000  0.796086  0.263007  1
  B  B17  1  0.500000  0.203914  0.736993  1
  B  B18  1  0.500000  0.290584  0.233592  1
  B  B19  1  0.500000  0.709415  0.766408  1
  B  B20  1  0.500000  0.631660  0.181652  1
  B  B21  1  0.500000  0.368340  0.818348  1
  B  B22  1  0.500000  0.130566  0.313615  1
  B  B23  1  0.500000  0.869434  0.686385  1
  B  B24  1  0.500000  0.982585  0.211615  1
  B  B25  1  0.500000  0.017415  0.788385  1
  B  B26  1  0.500000  0.477083  0.286324  1
  B  B27  1  0.500000  0.522917  0.713676  1
  B  B28  1  0.500000  0.603770  0.027817  1
  B  B29  1  0.500000  0.396230  0.972183  1
  B  B30  1  0.500000  0.103049  0.470602  1
  B  B31  1  0.500000  0.896951  0.529398  1
  Os  Os32  1  0.000000  0.137587  0.177946  1
  Os  Os33  1  0.000000  0.862413  0.822054  1
  W  W34  1  0.000000  0.638635  0.319396  1
  W  W35  1  0.000000  0.361365  0.680604  1
