# generated using pymatgen
data_NdHo5Co14(P3Ru)4
_symmetry_space_group_name_H-M   'P 1'
_cell_length_a   3.74915900
_cell_length_b   10.59278100
_cell_length_c   12.34553400
_cell_angle_alpha   90.00000000
_cell_angle_beta   90.00000000
_cell_angle_gamma   90.00000000
_symmetry_Int_Tables_number   1
_chemical_formula_structural   NdHo5Co14(P3Ru)4
_chemical_formula_sum   'Nd1 Ho5 Co14 P12 Ru4'
_cell_volume   490.29078692
_cell_formula_units_Z   1
loop_
 _symmetry_equiv_pos_site_id
 _symmetry_equiv_pos_as_xyz
  1  'x, y, z'
loop_
 _atom_site_type_symbol
 _atom_site_label
 _atom_site_symmetry_multiplicity
 _atom_site_fract_x
 _atom_site_fract_y
 _atom_site_fract_z
 _atom_site_occupancy
  Nd  Nd0  1  0.000000  0.500000  0.529068  1
  Ho  Ho1  1  0.500000  0.000000  0.478778  1
  Ho  Ho2  1  0.500000  0.818541  0.202495  1
  Ho  Ho3  1  0.500000  0.181459  0.202495  1
  Ho  Ho4  1  0.000000  0.683772  0.796647  1
  Ho  Ho5  1  0.000000  0.316228  0.796647  1
  Co  Co6  1  0.000000  0.500000  0.985914  1
  Co  Co7  1  0.500000  0.000000  0.013728  1
  Co  Co8  1  0.000000  0.198151  0.573948  1
  Co  Co9  1  0.000000  0.801849  0.573948  1
  Co  Co10  1  0.500000  0.880615  0.711777  1
  Co  Co11  1  0.500000  0.119385  0.711777  1
  Co  Co12  1  0.000000  0.621538  0.285336  1
  Co  Co13  1  0.000000  0.378462  0.285336  1
  Co  Co14  1  0.500000  0.331964  0.990042  1
  Co  Co15  1  0.500000  0.668036  0.990042  1
  Co  Co16  1  0.000000  0.166854  0.008831  1
  Co  Co17  1  0.000000  0.833146  0.008831  1
  Co  Co18  1  0.500000  0.500000  0.707509  1
  Co  Co19  1  0.000000  0.000000  0.294108  1
  P  P20  1  0.500000  0.305900  0.622168  1
  P  P21  1  0.500000  0.694100  0.622168  1
  P  P22  1  0.000000  0.182638  0.381385  1
  P  P23  1  0.000000  0.817362  0.381385  1
  P  P24  1  0.500000  0.500000  0.883131  1
  P  P25  1  0.000000  0.000000  0.116912  1
  P  P26  1  0.500000  0.846794  0.894288  1
  P  P27  1  0.500000  0.153206  0.894288  1
  P  P28  1  0.000000  0.654277  0.104246  1
  P  P29  1  0.000000  0.345723  0.104246  1
  P  P30  1  0.500000  0.500000  0.342113  1
  P  P31  1  0.000000  0.000000  0.651806  1
  Ru  Ru32  1  0.500000  0.293227  0.429219  1
  Ru  Ru33  1  0.500000  0.706773  0.429219  1
  Ru  Ru34  1  0.500000  0.500000  0.154938  1
  Ru  Ru35  1  0.000000  0.000000  0.841232  1
