# generated using pymatgen
data_TbEr5Al24CuOs7
_symmetry_space_group_name_H-M   'P 1'
_cell_length_a   8.79191940
_cell_length_b   8.82199557
_cell_length_c   9.53447882
_cell_angle_alpha   89.93641156
_cell_angle_beta   89.84528995
_cell_angle_gamma   119.74547526
_symmetry_Int_Tables_number   1
_chemical_formula_structural   TbEr5Al24CuOs7
_chemical_formula_sum   'Tb1 Er5 Al24 Cu1 Os7'
_cell_volume   642.07087331
_cell_formula_units_Z   1
loop_
 _symmetry_equiv_pos_site_id
 _symmetry_equiv_pos_as_xyz
  1  'x, y, z'
loop_
 _atom_site_type_symbol
 _atom_site_label
 _atom_site_symmetry_multiplicity
 _atom_site_fract_x
 _atom_site_fract_y
 _atom_site_fract_z
 _atom_site_occupancy
  Tb  Tb0  1  0.806499  0.190212  0.750964  1
  Er  Er1  1  0.193169  0.384528  0.251075  1
  Er  Er2  1  0.806759  0.615410  0.748943  1
  Er  Er3  1  0.608229  0.803934  0.252730  1
  Er  Er4  1  0.391537  0.196119  0.747306  1
  Er  Er5  1  0.195153  0.809324  0.249660  1
  Al  Al6  1  0.334613  0.667670  0.021340  1
  Al  Al7  1  0.664677  0.332164  0.979564  1
  Al  Al8  1  0.667831  0.333342  0.519700  1
  Al  Al9  1  0.332089  0.666939  0.479693  1
  Al  Al10  1  0.163508  0.327371  0.574461  1
  Al  Al11  1  0.837109  0.673118  0.424850  1
  Al  Al12  1  0.672240  0.835096  0.576330  1
  Al  Al13  1  0.832141  0.674981  0.079283  1
  Al  Al14  1  0.327412  0.164577  0.423096  1
  Al  Al15  1  0.168379  0.325347  0.921310  1
  Al  Al16  1  0.162507  0.834895  0.574544  1
  Al  Al17  1  0.327414  0.164665  0.076881  1
  Al  Al18  1  0.837501  0.165312  0.424481  1
  Al  Al19  1  0.672070  0.834842  0.923846  1
  Al  Al20  1  0.832224  0.157457  0.079657  1
  Al  Al21  1  0.167534  0.842459  0.921421  1
  Al  Al22  1  0.559965  0.122729  0.249582  1
  Al  Al23  1  0.439127  0.876848  0.750537  1
  Al  Al24  1  0.878551  0.439649  0.249676  1
  Al  Al25  1  0.122298  0.561478  0.749863  1
  Al  Al26  1  0.560434  0.437651  0.249176  1
  Al  Al27  1  0.439621  0.562411  0.750766  1
  Al  Al28  1  0.000559  0.001179  0.250349  1
  Al  Al29  1  0.000255  0.997959  0.749603  1
  Cu  Cu30  1  0.999745  0.499865  0.999718  1
  Os  Os31  1  0.499336  0.999600  0.000594  1
  Os  Os32  1  0.499535  0.999826  0.499601  1
  Os  Os33  1  0.499873  0.500113  0.000150  1
  Os  Os34  1  0.000356  0.500532  0.499420  1
  Os  Os35  1  0.499978  0.500170  0.499793  1
  Os  Os36  1  0.999857  0.000084  0.000066  1
  Os  Os37  1  0.999916  0.000145  0.499973  1
