# generated using pymatgen
data_Be6Al5VRh12
_symmetry_space_group_name_H-M   'P 1'
_cell_length_a   4.11866100
_cell_length_b   5.81379800
_cell_length_c   12.33554200
_cell_angle_alpha   90.00000000
_cell_angle_beta   90.00077968
_cell_angle_gamma   90.00000000
_symmetry_Int_Tables_number   1
_chemical_formula_structural   Be6Al5VRh12
_chemical_formula_sum   'Be6 Al5 V1 Rh12'
_cell_volume   295.37533136
_cell_formula_units_Z   1
loop_
 _symmetry_equiv_pos_site_id
 _symmetry_equiv_pos_as_xyz
  1  'x, y, z'
loop_
 _atom_site_type_symbol
 _atom_site_label
 _atom_site_symmetry_multiplicity
 _atom_site_fract_x
 _atom_site_fract_y
 _atom_site_fract_z
 _atom_site_occupancy
  Be  Be0  1  0.000000  0.000000  0.000000  1
  Be  Be1  1  0.499380  0.500000  0.165508  1
  Be  Be2  1  0.999428  0.000000  0.337425  1
  Be  Be3  1  0.500000  0.500000  0.500000  1
  Be  Be4  1  0.000572  0.000000  0.662575  1
  Be  Be5  1  0.500620  0.500000  0.834492  1
  Al  Al6  1  0.499465  0.000000  0.168126  1
  Al  Al7  1  0.999517  0.500000  0.333456  1
  Al  Al8  1  0.500000  0.000000  0.500000  1
  Al  Al9  1  0.000483  0.500000  0.666544  1
  Al  Al10  1  0.500535  0.000000  0.831874  1
  V  V11  1  0.000000  0.500000  0.000000  1
  Rh  Rh12  1  0.500000  0.249484  0.000000  1
  Rh  Rh13  1  0.500000  0.750518  0.000000  1
  Rh  Rh14  1  0.999558  0.249974  0.165142  1
  Rh  Rh15  1  0.999558  0.750026  0.165142  1
  Rh  Rh16  1  0.499507  0.249898  0.332802  1
  Rh  Rh17  1  0.499507  0.750102  0.332802  1
  Rh  Rh18  1  0.000000  0.250570  0.500000  1
  Rh  Rh19  1  0.000000  0.749432  0.500000  1
  Rh  Rh20  1  0.500493  0.249898  0.667198  1
  Rh  Rh21  1  0.500493  0.750102  0.667198  1
  Rh  Rh22  1  0.000442  0.249974  0.834858  1
  Rh  Rh23  1  0.000442  0.750026  0.834858  1
