# generated using pymatgen
data_Hf3Ti2Ga2P
_symmetry_space_group_name_H-M   'P 1'
_cell_length_a   7.82378900
_cell_length_b   7.76980238
_cell_length_c   5.33595500
_cell_angle_alpha   90.00000000
_cell_angle_beta   90.00000000
_cell_angle_gamma   120.23011832
_symmetry_Int_Tables_number   1
_chemical_formula_structural   Hf3Ti2Ga2P
_chemical_formula_sum   'Hf6 Ti4 Ga4 P2'
_cell_volume   280.25809270
_cell_formula_units_Z   2
loop_
 _symmetry_equiv_pos_site_id
 _symmetry_equiv_pos_as_xyz
  1  'x, y, z'
loop_
 _atom_site_type_symbol
 _atom_site_label
 _atom_site_symmetry_multiplicity
 _atom_site_fract_x
 _atom_site_fract_y
 _atom_site_fract_z
 _atom_site_occupancy
  Hf  Hf0  1  0.263606  0.000000  0.250000  1
  Hf  Hf1  1  0.736394  0.000000  0.750000  1
  Hf  Hf2  1  0.998233  0.241110  0.250000  1
  Hf  Hf3  1  0.001767  0.758890  0.750000  1
  Hf  Hf4  1  0.757123  0.758890  0.250000  1
  Hf  Hf5  1  0.242877  0.241110  0.750000  1
  Ti  Ti6  1  0.340123  0.680247  0.000000  1
  Ti  Ti7  1  0.659877  0.319753  0.000000  1
  Ti  Ti8  1  0.659877  0.319753  0.500000  1
  Ti  Ti9  1  0.340123  0.680247  0.500000  1
  Ga  Ga10  1  0.996727  0.597551  0.250000  1
  Ga  Ga11  1  0.003273  0.402449  0.750000  1
  Ga  Ga12  1  0.399176  0.402449  0.250000  1
  Ga  Ga13  1  0.600824  0.597551  0.750000  1
  P  P14  1  0.613150  0.000000  0.250000  1
  P  P15  1  0.386850  0.000000  0.750000  1
