# generated using pymatgen
data_LiDy2Y14Cd3Pt4
_symmetry_space_group_name_H-M   'P 1'
_cell_length_a   9.72499416
_cell_length_b   9.72499379
_cell_length_c   9.72861344
_cell_angle_alpha   59.85907810
_cell_angle_beta   59.85907899
_cell_angle_gamma   59.82820974
_symmetry_Int_Tables_number   1
_chemical_formula_structural   LiDy2Y14Cd3Pt4
_chemical_formula_sum   'Li1 Dy2 Y14 Cd3 Pt4'
_cell_volume   648.36814283
_cell_formula_units_Z   1
loop_
 _symmetry_equiv_pos_site_id
 _symmetry_equiv_pos_as_xyz
  1  'x, y, z'
loop_
 _atom_site_type_symbol
 _atom_site_label
 _atom_site_symmetry_multiplicity
 _atom_site_fract_x
 _atom_site_fract_y
 _atom_site_fract_z
 _atom_site_occupancy
  Li  Li0  1  0.571286  0.571286  0.571372  1
  Dy  Dy1  1  0.350914  0.350914  0.351039  1
  Dy  Dy2  1  0.352047  0.352047  0.945041  1
  Y  Y3  1  0.352601  0.943366  0.352631  1
  Y  Y4  1  0.943366  0.352601  0.352631  1
  Y  Y5  1  0.809564  0.192320  0.192185  1
  Y  Y6  1  0.188462  0.812301  0.812285  1
  Y  Y7  1  0.192320  0.809564  0.192185  1
  Y  Y8  1  0.812301  0.188462  0.812285  1
  Y  Y9  1  0.192450  0.192450  0.809449  1
  Y  Y10  1  0.812548  0.812548  0.188102  1
  Y  Y11  1  0.937234  0.564586  0.564882  1
  Y  Y12  1  0.563164  0.936730  0.936313  1
  Y  Y13  1  0.564586  0.937234  0.564882  1
  Y  Y14  1  0.936730  0.563164  0.936313  1
  Y  Y15  1  0.564338  0.564338  0.937294  1
  Y  Y16  1  0.936153  0.936153  0.563661  1
  Cd  Cd17  1  0.582118  0.582118  0.253793  1
  Cd  Cd18  1  0.581983  0.253832  0.582207  1
  Cd  Cd19  1  0.253832  0.581983  0.582207  1
  Pt  Pt20  1  0.144526  0.144526  0.143203  1
  Pt  Pt21  1  0.143438  0.143438  0.570569  1
  Pt  Pt22  1  0.143949  0.570090  0.142736  1
  Pt  Pt23  1  0.570090  0.143949  0.142736  1
