# generated using pymatgen
data_SmY3Pd4F28
_symmetry_space_group_name_H-M   'P 1'
_cell_length_a   5.53994179
_cell_length_b   8.91302245
_cell_length_c   12.00686825
_cell_angle_alpha   62.38229907
_cell_angle_beta   90.06106163
_cell_angle_gamma   90.02357766
_symmetry_Int_Tables_number   1
_chemical_formula_structural   SmY3Pd4F28
_chemical_formula_sum   'Sm1 Y3 Pd4 F28'
_cell_volume   525.31890364
_cell_formula_units_Z   1
loop_
 _symmetry_equiv_pos_site_id
 _symmetry_equiv_pos_as_xyz
  1  'x, y, z'
loop_
 _atom_site_type_symbol
 _atom_site_label
 _atom_site_symmetry_multiplicity
 _atom_site_fract_x
 _atom_site_fract_y
 _atom_site_fract_z
 _atom_site_occupancy
  Sm  Sm0  1  0.738110  0.813612  0.264432  1
  Y  Y1  1  0.762536  0.814174  0.763917  1
  Y  Y2  1  0.262644  0.186160  0.736123  1
  Y  Y3  1  0.237295  0.189030  0.235681  1
  Pd  Pd4  1  0.758624  0.274287  0.956054  1
  Pd  Pd5  1  0.257846  0.726307  0.544825  1
  Pd  Pd6  1  0.242639  0.726509  0.041254  1
  Pd  Pd7  1  0.741851  0.271026  0.457889  1
  F  F8  1  0.433894  0.703656  0.914197  1
  F  F9  1  0.934112  0.295257  0.584402  1
  F  F10  1  0.566949  0.296777  0.083240  1
  F  F11  1  0.068574  0.703358  0.417207  1
  F  F12  1  0.443209  0.279448  0.541502  1
  F  F13  1  0.942022  0.719610  0.958366  1
  F  F14  1  0.556110  0.717937  0.462146  1
  F  F15  1  0.057267  0.281497  0.040173  1
  F  F16  1  0.771206  0.520606  0.858366  1
  F  F17  1  0.270234  0.479560  0.642174  1
  F  F18  1  0.229225  0.480382  0.140237  1
  F  F19  1  0.728827  0.516554  0.359868  1
  F  F20  1  0.755936  0.028716  0.047502  1
  F  F21  1  0.256611  0.972124  0.452100  1
  F  F22  1  0.244377  0.972522  0.950223  1
  F  F23  1  0.743995  0.025211  0.549842  1
  F  F24  1  0.963614  0.726273  0.633629  1
  F  F25  1  0.465005  0.274089  0.866446  1
  F  F26  1  0.035343  0.273327  0.367745  1
  F  F27  1  0.535947  0.725117  0.130584  1
  F  F28  1  0.059206  0.742617  0.173751  1
  F  F29  1  0.554505  0.254963  0.325733  1
  F  F30  1  0.946051  0.256456  0.824657  1
  F  F31  1  0.444693  0.743906  0.676307  1
  F  F32  1  0.402864  0.971526  0.230558  1
  F  F33  1  0.910384  0.037050  0.268822  1
  F  F34  1  0.589078  0.031105  0.768256  1
  F  F35  1  0.089217  0.969250  0.731793  1
