# generated using pymatgen
data_YbAu2(SeO4)4
_symmetry_space_group_name_H-M   'P 1'
_cell_length_a   6.72718681
_cell_length_b   6.72714218
_cell_length_c   8.99878842
_cell_angle_alpha   74.77948919
_cell_angle_beta   74.77916897
_cell_angle_gamma   89.43251530
_symmetry_Int_Tables_number   1
_chemical_formula_structural   YbAu2(SeO4)4
_chemical_formula_sum   'Yb1 Au2 Se4 O16'
_cell_volume   378.40604670
_cell_formula_units_Z   1
loop_
 _symmetry_equiv_pos_site_id
 _symmetry_equiv_pos_as_xyz
  1  'x, y, z'
loop_
 _atom_site_type_symbol
 _atom_site_label
 _atom_site_symmetry_multiplicity
 _atom_site_fract_x
 _atom_site_fract_y
 _atom_site_fract_z
 _atom_site_occupancy
  Yb  Yb0  1  0.000000  0.000000  0.000000  1
  Au  Au1  1  0.000000  0.000000  0.500000  1
  Au  Au2  1  0.500000  0.500000  0.500000  1
  Se  Se3  1  0.082251  0.584663  0.743956  1
  Se  Se4  1  0.584664  0.082252  0.743957  1
  Se  Se5  1  0.917749  0.415337  0.256044  1
  Se  Se6  1  0.415336  0.917748  0.256043  1
  O  O7  1  0.348071  0.635416  0.670269  1
  O  O8  1  0.635417  0.348074  0.670268  1
  O  O9  1  0.651929  0.364584  0.329731  1
  O  O10  1  0.364583  0.651926  0.329732  1
  O  O11  1  0.011633  0.712640  0.878641  1
  O  O12  1  0.712640  0.011636  0.878641  1
  O  O13  1  0.988367  0.287360  0.121359  1
  O  O14  1  0.287360  0.988364  0.121359  1
  O  O15  1  0.978187  0.687271  0.583624  1
  O  O16  1  0.687273  0.978187  0.583624  1
  O  O17  1  0.021813  0.312729  0.416376  1
  O  O18  1  0.312727  0.021813  0.416376  1
  O  O19  1  0.022570  0.336301  0.793741  1
  O  O20  1  0.336303  0.022572  0.793741  1
  O  O21  1  0.977430  0.663699  0.206259  1
  O  O22  1  0.663697  0.977428  0.206259  1
