# generated using pymatgen
data_Hf18MnRe8Ge
_symmetry_space_group_name_H-M   'P 1'
_cell_length_a   8.55287800
_cell_length_b   8.55287833
_cell_length_c   8.62614800
_cell_angle_alpha   90.00000000
_cell_angle_beta   90.00000000
_cell_angle_gamma   119.99999874
_symmetry_Int_Tables_number   1
_chemical_formula_structural   Hf18MnRe8Ge
_chemical_formula_sum   'Hf18 Mn1 Re8 Ge1'
_cell_volume   546.47728328
_cell_formula_units_Z   1
loop_
 _symmetry_equiv_pos_site_id
 _symmetry_equiv_pos_as_xyz
  1  'x, y, z'
loop_
 _atom_site_type_symbol
 _atom_site_label
 _atom_site_symmetry_multiplicity
 _atom_site_fract_x
 _atom_site_fract_y
 _atom_site_fract_z
 _atom_site_occupancy
  Hf  Hf0  1  0.201966  0.798034  0.443831  1
  Hf  Hf1  1  0.201966  0.403931  0.443831  1
  Hf  Hf2  1  0.596069  0.798034  0.443831  1
  Hf  Hf3  1  0.807782  0.192218  0.546825  1
  Hf  Hf4  1  0.807782  0.615565  0.546825  1
  Hf  Hf5  1  0.384435  0.192218  0.546825  1
  Hf  Hf6  1  0.807782  0.192218  0.953175  1
  Hf  Hf7  1  0.807782  0.615565  0.953175  1
  Hf  Hf8  1  0.384435  0.192218  0.953175  1
  Hf  Hf9  1  0.201966  0.798034  0.056169  1
  Hf  Hf10  1  0.201966  0.403931  0.056169  1
  Hf  Hf11  1  0.596069  0.798034  0.056169  1
  Hf  Hf12  1  0.539211  0.460789  0.250000  1
  Hf  Hf13  1  0.539211  0.078422  0.250000  1
  Hf  Hf14  1  0.921578  0.460789  0.250000  1
  Hf  Hf15  1  0.459885  0.540115  0.750000  1
  Hf  Hf16  1  0.459885  0.919771  0.750000  1
  Hf  Hf17  1  0.080229  0.540115  0.750000  1
  Mn  Mn18  1  0.333333  0.666667  0.250000  1
  Re  Re19  1  0.889298  0.110702  0.250000  1
  Re  Re20  1  0.889298  0.778596  0.250000  1
  Re  Re21  1  0.221404  0.110702  0.250000  1
  Re  Re22  1  0.110191  0.889809  0.750000  1
  Re  Re23  1  0.110191  0.220381  0.750000  1
  Re  Re24  1  0.779619  0.889809  0.750000  1
  Re  Re25  1  0.000000  0.000000  0.498271  1
  Re  Re26  1  0.000000  0.000000  0.001729  1
  Ge  Ge27  1  0.666667  0.333333  0.750000  1
