# generated using pymatgen
data_DyTm4Bi2As
_symmetry_space_group_name_H-M   'P 1'
_cell_length_a   7.96675000
_cell_length_b   9.09328100
_cell_length_c   11.92617200
_cell_angle_alpha   90.00000000
_cell_angle_beta   90.00000000
_cell_angle_gamma   90.00000000
_symmetry_Int_Tables_number   1
_chemical_formula_structural   DyTm4Bi2As
_chemical_formula_sum   'Dy4 Tm16 Bi8 As4'
_cell_volume   863.97836890
_cell_formula_units_Z   4
loop_
 _symmetry_equiv_pos_site_id
 _symmetry_equiv_pos_as_xyz
  1  'x, y, z'
loop_
 _atom_site_type_symbol
 _atom_site_label
 _atom_site_symmetry_multiplicity
 _atom_site_fract_x
 _atom_site_fract_y
 _atom_site_fract_z
 _atom_site_occupancy
  Dy  Dy0  1  0.638679  0.750000  0.294086  1
  Dy  Dy1  1  0.861321  0.750000  0.794086  1
  Dy  Dy2  1  0.361321  0.250000  0.705914  1
  Dy  Dy3  1  0.138679  0.250000  0.205914  1
  Tm  Tm4  1  0.818397  0.557352  0.062341  1
  Tm  Tm5  1  0.681603  0.942648  0.562341  1
  Tm  Tm6  1  0.181603  0.057352  0.937659  1
  Tm  Tm7  1  0.318397  0.442648  0.437659  1
  Tm  Tm8  1  0.181603  0.442648  0.937659  1
  Tm  Tm9  1  0.318397  0.057352  0.437659  1
  Tm  Tm10  1  0.818397  0.942648  0.062341  1
  Tm  Tm11  1  0.681603  0.557352  0.562341  1
  Tm  Tm12  1  0.160323  0.750000  0.211803  1
  Tm  Tm13  1  0.339677  0.750000  0.711803  1
  Tm  Tm14  1  0.839677  0.250000  0.788197  1
  Tm  Tm15  1  0.660323  0.250000  0.288197  1
  Tm  Tm16  1  0.466171  0.750000  0.000763  1
  Tm  Tm17  1  0.033829  0.750000  0.500763  1
  Tm  Tm18  1  0.533829  0.250000  0.999237  1
  Tm  Tm19  1  0.966171  0.250000  0.499237  1
  Bi  Bi20  1  0.930466  0.510022  0.326460  1
  Bi  Bi21  1  0.569534  0.989978  0.826460  1
  Bi  Bi22  1  0.069534  0.010022  0.673540  1
  Bi  Bi23  1  0.430466  0.489978  0.173540  1
  Bi  Bi24  1  0.069534  0.489978  0.673540  1
  Bi  Bi25  1  0.430466  0.010022  0.173540  1
  Bi  Bi26  1  0.930466  0.989978  0.326460  1
  Bi  Bi27  1  0.569534  0.510022  0.826460  1
  As  As28  1  0.408508  0.750000  0.479654  1
  As  As29  1  0.091492  0.750000  0.979654  1
  As  As30  1  0.591492  0.250000  0.520346  1
  As  As31  1  0.908508  0.250000  0.020346  1
