# generated using pymatgen
data_Ho3Tm(SiRh2)8
_symmetry_space_group_name_H-M   'P 1'
_cell_length_a   4.11593800
_cell_length_b   9.09496665
_cell_length_c   11.26789505
_cell_angle_alpha   90.06909065
_cell_angle_beta   90.00000000
_cell_angle_gamma   90.00000000
_symmetry_Int_Tables_number   1
_chemical_formula_structural   Ho3Tm(SiRh2)8
_chemical_formula_sum   'Ho3 Tm1 Si8 Rh16'
_cell_volume   421.80566940
_cell_formula_units_Z   1
loop_
 _symmetry_equiv_pos_site_id
 _symmetry_equiv_pos_as_xyz
  1  'x, y, z'
loop_
 _atom_site_type_symbol
 _atom_site_label
 _atom_site_symmetry_multiplicity
 _atom_site_fract_x
 _atom_site_fract_y
 _atom_site_fract_z
 _atom_site_occupancy
  Ho  Ho0  1  0.250000  0.147759  0.824744  1
  Ho  Ho1  1  0.250000  0.351843  0.325410  1
  Ho  Ho2  1  0.750000  0.851356  0.174718  1
  Tm  Tm3  1  0.750000  0.647578  0.675028  1
  Si  Si4  1  0.250000  0.412443  0.637037  1
  Si  Si5  1  0.250000  0.087951  0.136344  1
  Si  Si6  1  0.750000  0.588491  0.363718  1
  Si  Si7  1  0.750000  0.911122  0.862672  1
  Si  Si8  1  0.250000  0.616547  0.058547  1
  Si  Si9  1  0.250000  0.884163  0.558410  1
  Si  Si10  1  0.750000  0.383766  0.941962  1
  Si  Si11  1  0.750000  0.116847  0.441569  1
  Rh  Rh12  1  0.250000  0.616771  0.502760  1
  Rh  Rh13  1  0.250000  0.884726  0.999891  1
  Rh  Rh14  1  0.750000  0.385660  0.499579  1
  Rh  Rh15  1  0.750000  0.115091  0.998657  1
  Rh  Rh16  1  0.250000  0.683397  0.269753  1
  Rh  Rh17  1  0.250000  0.813046  0.767757  1
  Rh  Rh18  1  0.750000  0.316439  0.731317  1
  Rh  Rh19  1  0.750000  0.184184  0.230762  1
  Rh  Rh20  1  0.250000  0.173297  0.559672  1
  Rh  Rh21  1  0.250000  0.326943  0.059253  1
  Rh  Rh22  1  0.750000  0.827489  0.440746  1
  Rh  Rh23  1  0.750000  0.672633  0.939955  1
  Rh  Rh24  1  0.250000  0.006880  0.344532  1
  Rh  Rh25  1  0.250000  0.493604  0.844381  1
  Rh  Rh26  1  0.750000  0.993015  0.655555  1
  Rh  Rh27  1  0.750000  0.506960  0.155269  1
