# generated using pymatgen
data_Tb9Dy7(C2Cl3)4
_symmetry_space_group_name_H-M   'P 1'
_cell_length_a   3.66820700
_cell_length_b   10.52903715
_cell_length_c   19.80155028
_cell_angle_alpha   90.01936661
_cell_angle_beta   90.00000000
_cell_angle_gamma   90.00000000
_symmetry_Int_Tables_number   1
_chemical_formula_structural   Tb9Dy7(C2Cl3)4
_chemical_formula_sum   'Tb9 Dy7 C8 Cl12'
_cell_volume   764.78905041
_cell_formula_units_Z   1
loop_
 _symmetry_equiv_pos_site_id
 _symmetry_equiv_pos_as_xyz
  1  'x, y, z'
loop_
 _atom_site_type_symbol
 _atom_site_label
 _atom_site_symmetry_multiplicity
 _atom_site_fract_x
 _atom_site_fract_y
 _atom_site_fract_z
 _atom_site_occupancy
  Tb  Tb0  1  0.250000  0.138601  0.573325  1
  Tb  Tb1  1  0.250000  0.638638  0.926750  1
  Tb  Tb2  1  0.750000  0.861100  0.426786  1
  Tb  Tb3  1  0.750000  0.361301  0.073153  1
  Tb  Tb4  1  0.250000  0.637230  0.755642  1
  Tb  Tb5  1  0.250000  0.137473  0.744408  1
  Tb  Tb6  1  0.750000  0.362531  0.244292  1
  Tb  Tb7  1  0.750000  0.862714  0.255515  1
  Tb  Tb8  1  0.250000  0.101160  0.332281  1
  Dy  Dy9  1  0.250000  0.600495  0.168166  1
  Dy  Dy10  1  0.750000  0.899509  0.668247  1
  Dy  Dy11  1  0.750000  0.399432  0.831818  1
  Dy  Dy12  1  0.250000  0.124407  0.164730  1
  Dy  Dy13  1  0.250000  0.624887  0.335037  1
  Dy  Dy14  1  0.750000  0.875211  0.835015  1
  Dy  Dy15  1  0.750000  0.375350  0.665025  1
  C  C16  1  0.250000  0.863106  0.347785  1
  C  C17  1  0.250000  0.364157  0.152032  1
  C  C18  1  0.750000  0.135995  0.652342  1
  C  C19  1  0.750000  0.636162  0.847745  1
  C  C20  1  0.250000  0.387901  0.750180  1
  C  C21  1  0.250000  0.888040  0.749858  1
  C  C22  1  0.750000  0.611839  0.249747  1
  C  C23  1  0.750000  0.112309  0.249735  1
  Cl  Cl24  1  0.250000  0.377876  0.951446  1
  Cl  Cl25  1  0.250000  0.877686  0.548534  1
  Cl  Cl26  1  0.750000  0.622167  0.048054  1
  Cl  Cl27  1  0.750000  0.122102  0.452550  1
  Cl  Cl28  1  0.250000  0.888063  0.943658  1
  Cl  Cl29  1  0.250000  0.387997  0.556405  1
  Cl  Cl30  1  0.750000  0.111981  0.055892  1
  Cl  Cl31  1  0.750000  0.611828  0.443852  1
  Cl  Cl32  1  0.250000  0.361901  0.354392  1
  Cl  Cl33  1  0.250000  0.860661  0.145544  1
  Cl  Cl34  1  0.750000  0.639076  0.645506  1
  Cl  Cl35  1  0.750000  0.139112  0.854550  1
