# generated using pymatgen
data_Tb3Ho9Rh4
_symmetry_space_group_name_H-M   'P 1'
_cell_length_a   7.17636611
_cell_length_b   9.41897200
_cell_length_c   6.27506710
_cell_angle_alpha   90.00000000
_cell_angle_beta   89.97977893
_cell_angle_gamma   90.00000000
_symmetry_Int_Tables_number   1
_chemical_formula_structural   Tb3Ho9Rh4
_chemical_formula_sum   'Tb3 Ho9 Rh4'
_cell_volume   424.15680545
_cell_formula_units_Z   1
loop_
 _symmetry_equiv_pos_site_id
 _symmetry_equiv_pos_as_xyz
  1  'x, y, z'
loop_
 _atom_site_type_symbol
 _atom_site_label
 _atom_site_symmetry_multiplicity
 _atom_site_fract_x
 _atom_site_fract_y
 _atom_site_fract_z
 _atom_site_occupancy
  Tb  Tb0  1  0.033807  0.250000  0.135238  1
  Tb  Tb1  1  0.533942  0.250000  0.364841  1
  Tb  Tb2  1  0.466015  0.750000  0.635368  1
  Ho  Ho3  1  0.321992  0.563285  0.169966  1
  Ho  Ho4  1  0.321992  0.936715  0.169966  1
  Ho  Ho5  1  0.822157  0.563416  0.329708  1
  Ho  Ho6  1  0.822157  0.936584  0.329708  1
  Ho  Ho7  1  0.177844  0.063114  0.670175  1
  Ho  Ho8  1  0.177844  0.436886  0.670175  1
  Ho  Ho9  1  0.678122  0.063133  0.830065  1
  Ho  Ho10  1  0.678122  0.436867  0.830065  1
  Ho  Ho11  1  0.965752  0.750000  0.864582  1
  Rh  Rh12  1  0.618535  0.750000  0.058099  1
  Rh  Rh13  1  0.117701  0.750000  0.442018  1
  Rh  Rh14  1  0.882026  0.250000  0.558509  1
  Rh  Rh15  1  0.381991  0.250000  0.941516  1
