# generated using pymatgen
data_Tb5YbErIrI12
_symmetry_space_group_name_H-M   'P 1'
_cell_length_a   9.78746065
_cell_length_b   9.82884921
_cell_length_c   9.84611866
_cell_angle_alpha   106.86488549
_cell_angle_beta   107.14364161
_cell_angle_gamma   107.02647102
_symmetry_Int_Tables_number   1
_chemical_formula_structural   Tb5YbErIrI12
_chemical_formula_sum   'Tb5 Yb1 Er1 Ir1 I12'
_cell_volume   788.57529179
_cell_formula_units_Z   1
loop_
 _symmetry_equiv_pos_site_id
 _symmetry_equiv_pos_as_xyz
  1  'x, y, z'
loop_
 _atom_site_type_symbol
 _atom_site_label
 _atom_site_symmetry_multiplicity
 _atom_site_fract_x
 _atom_site_fract_y
 _atom_site_fract_z
 _atom_site_occupancy
  Tb  Tb0  1  0.096919  0.024298  0.302587  1
  Tb  Tb1  1  0.292935  0.093508  0.022474  1
  Tb  Tb2  1  0.024016  0.303423  0.098134  1
  Tb  Tb3  1  0.903004  0.975185  0.697151  1
  Tb  Tb4  1  0.706589  0.904805  0.977010  1
  Yb  Yb5  1  0.500076  0.499845  0.500028  1
  Er  Er6  1  0.976144  0.700850  0.902921  1
  Ir  Ir7  1  0.999729  0.999860  0.999878  1
  I  I8  1  0.070790  0.676893  0.221680  1
  I  I9  1  0.225932  0.072082  0.678585  1
  I  I10  1  0.677424  0.222958  0.070946  1
  I  I11  1  0.928770  0.324715  0.776053  1
  I  I12  1  0.774000  0.927694  0.321422  1
  I  I13  1  0.320074  0.774968  0.928412  1
  I  I14  1  0.458238  0.152565  0.379220  1
  I  I15  1  0.380500  0.457080  0.152249  1
  I  I16  1  0.152268  0.380234  0.458771  1
  I  I17  1  0.541659  0.847160  0.620700  1
  I  I18  1  0.621967  0.542577  0.847924  1
  I  I19  1  0.848964  0.619299  0.543857  1
