# generated using pymatgen
data_Cs2KGdSb2
_symmetry_space_group_name_H-M   'P 1'
_cell_length_a   10.45578685
_cell_length_b   10.45575843
_cell_length_c   10.45578800
_cell_angle_alpha   132.97419222
_cell_angle_beta   65.71663202
_cell_angle_gamma   136.85158942
_symmetry_Int_Tables_number   1
_chemical_formula_structural   Cs2KGdSb2
_chemical_formula_sum   'Cs4 K2 Gd2 Sb4'
_cell_volume   563.43154510
_cell_formula_units_Z   2
loop_
 _symmetry_equiv_pos_site_id
 _symmetry_equiv_pos_as_xyz
  1  'x, y, z'
loop_
 _atom_site_type_symbol
 _atom_site_label
 _atom_site_symmetry_multiplicity
 _atom_site_fract_x
 _atom_site_fract_y
 _atom_site_fract_z
 _atom_site_occupancy
  Cs  Cs0  1  0.319130  0.759262  0.075577  1
  Cs  Cs1  1  0.180865  0.256663  0.440410  1
  Cs  Cs2  1  0.816405  0.740832  0.559987  1
  Cs  Cs3  1  0.683811  0.243501  0.924213  1
  K  K4  1  0.250002  0.249780  0.999799  1
  K  K5  1  0.750147  0.750020  0.000017  1
  Gd  Gd6  1  0.750036  0.249934  0.499722  1
  Gd  Gd7  1  0.249646  0.749737  0.500087  1
  Sb  Sb8  1  0.903281  0.296109  0.197871  1
  Sb  Sb9  1  0.596688  0.794937  0.392984  1
  Sb  Sb10  1  0.401931  0.203941  0.607103  1
  Sb  Sb11  1  0.098060  0.705285  0.802230  1
