# generated using pymatgen
data_LaTh(GaIr)2
_symmetry_space_group_name_H-M   'P 1'
_cell_length_a   4.41932100
_cell_length_b   7.04865003
_cell_length_c   8.05643837
_cell_angle_alpha   89.70355685
_cell_angle_beta   90.00000000
_cell_angle_gamma   90.00000000
_symmetry_Int_Tables_number   1
_chemical_formula_structural   LaTh(GaIr)2
_chemical_formula_sum   'La2 Th2 Ga4 Ir4'
_cell_volume   250.95668672
_cell_formula_units_Z   2
loop_
 _symmetry_equiv_pos_site_id
 _symmetry_equiv_pos_as_xyz
  1  'x, y, z'
loop_
 _atom_site_type_symbol
 _atom_site_label
 _atom_site_symmetry_multiplicity
 _atom_site_fract_x
 _atom_site_fract_y
 _atom_site_fract_z
 _atom_site_occupancy
  La  La0  1  0.250000  0.532375  0.188846  1
  La  La1  1  0.750000  0.467625  0.811154  1
  Th  Th2  1  0.750000  0.968127  0.689201  1
  Th  Th3  1  0.250000  0.031873  0.310799  1
  Ga  Ga4  1  0.250000  0.647892  0.567597  1
  Ga  Ga5  1  0.750000  0.352108  0.432403  1
  Ga  Ga6  1  0.750000  0.851859  0.067156  1
  Ga  Ga7  1  0.250000  0.148141  0.932844  1
  Ir  Ir8  1  0.250000  0.775089  0.881850  1
  Ir  Ir9  1  0.750000  0.224911  0.118150  1
  Ir  Ir10  1  0.750000  0.744852  0.393813  1
  Ir  Ir11  1  0.250000  0.255148  0.606187  1
