# generated using pymatgen
data_Nd20Si15Au
_symmetry_space_group_name_H-M   'P 1'
_cell_length_a   7.90659015
_cell_length_b   7.90146940
_cell_length_c   15.19246475
_cell_angle_alpha   89.59225930
_cell_angle_beta   90.00891576
_cell_angle_gamma   90.02051562
_symmetry_Int_Tables_number   1
_chemical_formula_structural   Nd20Si15Au
_chemical_formula_sum   'Nd20 Si15 Au1'
_cell_volume   949.10507667
_cell_formula_units_Z   1
loop_
 _symmetry_equiv_pos_site_id
 _symmetry_equiv_pos_as_xyz
  1  'x, y, z'
loop_
 _atom_site_type_symbol
 _atom_site_label
 _atom_site_symmetry_multiplicity
 _atom_site_fract_x
 _atom_site_fract_y
 _atom_site_fract_z
 _atom_site_occupancy
  Nd  Nd0  1  0.481015  0.371344  0.125859  1
  Nd  Nd1  1  0.974780  0.133999  0.628434  1
  Nd  Nd2  1  0.871569  0.019860  0.875498  1
  Nd  Nd3  1  0.125830  0.978362  0.375683  1
  Nd  Nd4  1  0.520468  0.624185  0.625630  1
  Nd  Nd5  1  0.373348  0.482210  0.874712  1
  Nd  Nd6  1  0.628167  0.516742  0.373137  1
  Nd  Nd7  1  0.018190  0.874353  0.122418  1
  Nd  Nd8  1  0.630486  0.990936  0.446391  1
  Nd  Nd9  1  0.379636  0.009168  0.946917  1
  Nd  Nd10  1  0.982206  0.616598  0.549403  1
  Nd  Nd11  1  0.490477  0.876798  0.197566  1
  Nd  Nd12  1  0.518104  0.129030  0.702402  1
  Nd  Nd13  1  0.877204  0.489461  0.802998  1
  Nd  Nd14  1  0.121854  0.506765  0.301604  1
  Nd  Nd15  1  0.012322  0.377005  0.051983  1
  Nd  Nd16  1  0.304225  0.308525  0.502082  1
  Nd  Nd17  1  0.193181  0.812706  0.747721  1
  Nd  Nd18  1  0.810539  0.190994  0.249825  1
  Nd  Nd19  1  0.690922  0.693874  0.000167  1
  Si  Si20  1  0.712260  0.078191  0.060689  1
  Si  Si21  1  0.921651  0.286952  0.439209  1
  Si  Si22  1  0.422242  0.211248  0.310550  1
  Si  Si23  1  0.577348  0.785941  0.809621  1
  Si  Si24  1  0.212628  0.424064  0.691101  1
  Si  Si25  1  0.787440  0.577825  0.189179  1
  Si  Si26  1  0.076972  0.711637  0.940030  1
  Si  Si27  1  0.803974  0.830638  0.701085  1
  Si  Si28  1  0.194963  0.168107  0.201473  1
  Si  Si29  1  0.831487  0.804184  0.298425  1
  Si  Si30  1  0.328966  0.687261  0.447444  1
  Si  Si31  1  0.668894  0.305738  0.952395  1
  Si  Si32  1  0.693359  0.331349  0.547286  1
  Si  Si33  1  0.306132  0.669320  0.048232  1
  Si  Si34  1  0.168345  0.197421  0.800421  1
  Au  Au35  1  0.288814  0.927209  0.562429  1
