# generated using pymatgen
data_Ho3Lu13(Ga3Co)2
_symmetry_space_group_name_H-M   'P 1'
_cell_length_a   9.81201300
_cell_length_b   9.81587171
_cell_length_c   6.81127113
_cell_angle_alpha   90.01958399
_cell_angle_beta   90.00000000
_cell_angle_gamma   119.98699354
_symmetry_Int_Tables_number   1
_chemical_formula_structural   Ho3Lu13(Ga3Co)2
_chemical_formula_sum   'Ho3 Lu13 Ga6 Co2'
_cell_volume   568.20187046
_cell_formula_units_Z   1
loop_
 _symmetry_equiv_pos_site_id
 _symmetry_equiv_pos_as_xyz
  1  'x, y, z'
loop_
 _atom_site_type_symbol
 _atom_site_label
 _atom_site_symmetry_multiplicity
 _atom_site_fract_x
 _atom_site_fract_y
 _atom_site_fract_z
 _atom_site_occupancy
  Ho  Ho0  1  0.535043  0.070085  0.707961  1
  Ho  Ho1  1  0.000046  0.000092  0.229965  1
  Ho  Ho2  1  0.999964  0.999929  0.729913  1
  Lu  Lu3  1  0.173439  0.825206  0.509228  1
  Lu  Lu4  1  0.651766  0.825206  0.509228  1
  Lu  Lu5  1  0.174323  0.348648  0.509911  1
  Lu  Lu6  1  0.826480  0.174522  0.010643  1
  Lu  Lu7  1  0.348043  0.174522  0.010643  1
  Lu  Lu8  1  0.825714  0.651426  0.009906  1
  Lu  Lu9  1  0.332966  0.665933  0.828919  1
  Lu  Lu10  1  0.667065  0.334130  0.328214  1
  Lu  Lu11  1  0.464310  0.535724  0.207513  1
  Lu  Lu12  1  0.071413  0.535724  0.207513  1
  Lu  Lu13  1  0.463991  0.927983  0.207703  1
  Lu  Lu14  1  0.535682  0.464672  0.707423  1
  Lu  Lu15  1  0.928992  0.464672  0.707423  1
  Ga  Ga16  1  0.163780  0.836147  0.961321  1
  Ga  Ga17  1  0.672366  0.836147  0.961321  1
  Ga  Ga18  1  0.163783  0.327567  0.960697  1
  Ga  Ga19  1  0.836826  0.163831  0.460288  1
  Ga  Ga20  1  0.327006  0.163831  0.460288  1
  Ga  Ga21  1  0.836129  0.672258  0.461198  1
  Co  Co22  1  0.333342  0.666685  0.443097  1
  Co  Co23  1  0.667530  0.335059  0.943727  1
