# generated using pymatgen
data_PrDy2Cd(Ir2O7)2
_symmetry_space_group_name_H-M   'P 1'
_cell_length_a   7.22439202
_cell_length_b   7.37362400
_cell_length_c   7.33922000
_cell_angle_alpha   60.15422443
_cell_angle_beta   59.47280696
_cell_angle_gamma   59.46810323
_symmetry_Int_Tables_number   1
_chemical_formula_structural   PrDy2Cd(Ir2O7)2
_chemical_formula_sum   'Pr1 Dy2 Cd1 Ir4 O14'
_cell_volume   274.52988929
_cell_formula_units_Z   1
loop_
 _symmetry_equiv_pos_site_id
 _symmetry_equiv_pos_as_xyz
  1  'x, y, z'
loop_
 _atom_site_type_symbol
 _atom_site_label
 _atom_site_symmetry_multiplicity
 _atom_site_fract_x
 _atom_site_fract_y
 _atom_site_fract_z
 _atom_site_occupancy
  Pr  Pr0  1  0.125000  0.625000  0.125000  1
  Dy  Dy1  1  0.125000  0.125000  0.625000  1
  Dy  Dy2  1  0.125000  0.125000  0.125000  1
  Cd  Cd3  1  0.625000  0.125000  0.125000  1
  Ir  Ir4  1  0.625000  0.625000  0.625000  1
  Ir  Ir5  1  0.125000  0.625000  0.625000  1
  Ir  Ir6  1  0.625000  0.125000  0.625000  1
  Ir  Ir7  1  0.625000  0.625000  0.125000  1
  O  O8  1  0.962826  0.530926  0.547744  1
  O  O9  1  0.288225  0.291143  0.710316  1
  O  O10  1  0.962826  0.530926  0.958505  1
  O  O11  1  0.710830  0.296575  0.298042  1
  O  O12  1  0.550595  0.545032  0.952187  1
  O  O13  1  0.539170  0.953425  0.555447  1
  O  O14  1  0.539170  0.953425  0.951958  1
  O  O15  1  0.251226  0.237853  0.255460  1
  O  O16  1  0.287174  0.719074  0.702256  1
  O  O17  1  0.710830  0.296575  0.694553  1
  O  O18  1  0.998774  0.012147  0.994540  1
  O  O19  1  0.961775  0.958857  0.539684  1
  O  O20  1  0.287174  0.719074  0.291495  1
  O  O21  1  0.699405  0.704968  0.297813  1
