# generated using pymatgen
data_Tm6Al23Co2SiOs6
_symmetry_space_group_name_H-M   'P 1'
_cell_length_a   8.74664400
_cell_length_b   8.74664495
_cell_length_c   9.51056100
_cell_angle_alpha   90.00000000
_cell_angle_beta   90.00000000
_cell_angle_gamma   119.99999640
_symmetry_Int_Tables_number   1
_chemical_formula_structural   Tm6Al23Co2SiOs6
_chemical_formula_sum   'Tm6 Al23 Co2 Si1 Os6'
_cell_volume   630.11487371
_cell_formula_units_Z   1
loop_
 _symmetry_equiv_pos_site_id
 _symmetry_equiv_pos_as_xyz
  1  'x, y, z'
loop_
 _atom_site_type_symbol
 _atom_site_label
 _atom_site_symmetry_multiplicity
 _atom_site_fract_x
 _atom_site_fract_y
 _atom_site_fract_z
 _atom_site_occupancy
  Tm  Tm0  1  0.196257  0.392515  0.248186  1
  Tm  Tm1  1  0.805586  0.611170  0.752574  1
  Tm  Tm2  1  0.607485  0.803743  0.248186  1
  Tm  Tm3  1  0.388830  0.194414  0.752574  1
  Tm  Tm4  1  0.196257  0.803743  0.248186  1
  Tm  Tm5  1  0.805586  0.194414  0.752574  1
  Al  Al6  1  0.666667  0.333333  0.984795  1
  Al  Al7  1  0.666667  0.333333  0.516829  1
  Al  Al8  1  0.333333  0.666667  0.481829  1
  Al  Al9  1  0.159323  0.318649  0.575398  1
  Al  Al10  1  0.840674  0.681346  0.423855  1
  Al  Al11  1  0.681351  0.840677  0.575398  1
  Al  Al12  1  0.840005  0.680008  0.075401  1
  Al  Al13  1  0.318654  0.159326  0.423855  1
  Al  Al14  1  0.161364  0.322729  0.922657  1
  Al  Al15  1  0.159323  0.840677  0.575398  1
  Al  Al16  1  0.319992  0.159995  0.075401  1
  Al  Al17  1  0.840674  0.159326  0.423855  1
  Al  Al18  1  0.677271  0.838636  0.922657  1
  Al  Al19  1  0.840005  0.159995  0.075401  1
  Al  Al20  1  0.161364  0.838636  0.922657  1
  Al  Al21  1  0.561084  0.122168  0.247772  1
  Al  Al22  1  0.438195  0.876390  0.748831  1
  Al  Al23  1  0.877832  0.438916  0.247772  1
  Al  Al24  1  0.123610  0.561805  0.748831  1
  Al  Al25  1  0.561084  0.438916  0.247772  1
  Al  Al26  1  0.438195  0.561805  0.748831  1
  Al  Al27  1  0.000000  0.000000  0.249293  1
  Al  Al28  1  0.000000  0.000000  0.749711  1
  Co  Co29  1  0.000000  0.000000  0.999075  1
  Co  Co30  1  0.000000  0.000000  0.499493  1
  Si  Si31  1  0.333333  0.666667  0.038499  1
  Os  Os32  1  0.496218  0.992436  0.999995  1
  Os  Os33  1  0.007564  0.503782  0.999995  1
  Os  Os34  1  0.500548  0.001098  0.498822  1
  Os  Os35  1  0.496218  0.503782  0.999995  1
  Os  Os36  1  0.998902  0.499452  0.498822  1
  Os  Os37  1  0.500548  0.499452  0.498822  1
