# generated using pymatgen
data_U11S13Cl7
_symmetry_space_group_name_H-M   'P 1'
_cell_length_a   10.32345031
_cell_length_b   10.53472887
_cell_length_c   6.51501882
_cell_angle_alpha   89.36215974
_cell_angle_beta   90.41648719
_cell_angle_gamma   90.19555509
_symmetry_Int_Tables_number   1
_chemical_formula_structural   U11S13Cl7
_chemical_formula_sum   'U11 S13 Cl7'
_cell_volume   708.47268628
_cell_formula_units_Z   1
loop_
 _symmetry_equiv_pos_site_id
 _symmetry_equiv_pos_as_xyz
  1  'x, y, z'
loop_
 _atom_site_type_symbol
 _atom_site_label
 _atom_site_symmetry_multiplicity
 _atom_site_fract_x
 _atom_site_fract_y
 _atom_site_fract_z
 _atom_site_occupancy
  U  U0  1  0.836909  0.667380  0.268554  1
  U  U1  1  0.838668  0.324187  0.737082  1
  U  U2  1  0.158851  0.677882  0.758218  1
  U  U3  1  0.152463  0.317083  0.250398  1
  U  U4  1  0.658794  0.839669  0.744561  1
  U  U5  1  0.662842  0.167989  0.248756  1
  U  U6  1  0.337635  0.842605  0.246652  1
  U  U7  1  0.341325  0.164127  0.741000  1
  U  U8  1  0.508109  0.498820  0.155082  1
  U  U9  1  0.000097  0.997167  0.356861  1
  U  U10  1  0.999094  0.998169  0.859858  1
  S  S11  1  0.717714  0.414243  0.379950  1
  S  S12  1  0.587196  0.295240  0.894175  1
  S  S13  1  0.584563  0.714627  0.381121  1
  S  S14  1  0.408273  0.290426  0.375813  1
  S  S15  1  0.411253  0.708103  0.902819  1
  S  S16  1  0.211369  0.919745  0.611973  1
  S  S17  1  0.209035  0.079387  0.107639  1
  S  S18  1  0.791814  0.913938  0.107986  1
  S  S19  1  0.791335  0.080367  0.609182  1
  S  S20  1  0.917129  0.204165  0.105422  1
  S  S21  1  0.915309  0.791462  0.618123  1
  S  S22  1  0.082992  0.205701  0.614815  1
  S  S23  1  0.083086  0.790681  0.118531  1
  Cl  Cl24  1  0.286979  0.588938  0.385236  1
  Cl  Cl25  1  0.284328  0.413633  0.891171  1
  Cl  Cl26  1  0.714668  0.589351  0.888837  1
  Cl  Cl27  1  0.009341  0.499395  0.507874  1
  Cl  Cl28  1  0.997048  0.499010  0.005080  1
  Cl  Cl29  1  0.500700  0.002239  0.995179  1
  Cl  Cl30  1  0.501081  0.004268  0.496252  1
