# generated using pymatgen
data_NaY2Ga8Ag3
_symmetry_space_group_name_H-M   'P 1'
_cell_length_a   4.34149528
_cell_length_b   8.40274365
_cell_length_c   8.40274325
_cell_angle_alpha   71.17574077
_cell_angle_beta   75.02854076
_cell_angle_gamma   75.02853657
_symmetry_Int_Tables_number   1
_chemical_formula_structural   NaY2Ga8Ag3
_chemical_formula_sum   'Na1 Y2 Ga8 Ag3'
_cell_volume   275.11126080
_cell_formula_units_Z   1
loop_
 _symmetry_equiv_pos_site_id
 _symmetry_equiv_pos_as_xyz
  1  'x, y, z'
loop_
 _atom_site_type_symbol
 _atom_site_label
 _atom_site_symmetry_multiplicity
 _atom_site_fract_x
 _atom_site_fract_y
 _atom_site_fract_z
 _atom_site_occupancy
  Na  Na0  1  0.000000  0.000000  0.000000  1
  Y  Y1  1  0.296183  0.703817  0.703817  1
  Y  Y2  1  0.703817  0.296183  0.296183  1
  Ga  Ga3  1  0.338513  0.294647  0.028328  1
  Ga  Ga4  1  0.661487  0.705353  0.971672  1
  Ga  Ga5  1  0.338513  0.028328  0.294647  1
  Ga  Ga6  1  0.661487  0.971672  0.705353  1
  Ga  Ga7  1  0.141802  0.577935  0.138463  1
  Ga  Ga8  1  0.858198  0.422065  0.861537  1
  Ga  Ga9  1  0.141802  0.138463  0.577935  1
  Ga  Ga10  1  0.858198  0.861537  0.422065  1
  Ag  Ag11  1  0.500000  0.308887  0.691113  1
  Ag  Ag12  1  0.500000  0.691113  0.308887  1
  Ag  Ag13  1  0.000000  0.500000  0.500000  1
