# generated using pymatgen
data_MnFeSn4(BO3)4
_symmetry_space_group_name_H-M   'P 1'
_cell_length_a   4.91219106
_cell_length_b   16.04862904
_cell_length_c   4.88190849
_cell_angle_alpha   80.96535859
_cell_angle_beta   60.10772460
_cell_angle_gamma   80.91084476
_symmetry_Int_Tables_number   1
_chemical_formula_structural   MnFeSn4(BO3)4
_chemical_formula_sum   'Mn1 Fe1 Sn4 B4 O12'
_cell_volume   328.08913669
_cell_formula_units_Z   1
loop_
 _symmetry_equiv_pos_site_id
 _symmetry_equiv_pos_as_xyz
  1  'x, y, z'
loop_
 _atom_site_type_symbol
 _atom_site_label
 _atom_site_symmetry_multiplicity
 _atom_site_fract_x
 _atom_site_fract_y
 _atom_site_fract_z
 _atom_site_occupancy
  Mn  Mn0  1  0.500000  0.500000  0.500000  1
  Fe  Fe1  1  0.000000  0.000000  0.000000  1
  Sn  Sn2  1  0.890115  0.338099  0.886685  1
  Sn  Sn3  1  0.385494  0.842599  0.383855  1
  Sn  Sn4  1  0.614506  0.157401  0.616145  1
  Sn  Sn5  1  0.109885  0.661901  0.113315  1
  B  B6  1  0.196660  0.413702  0.195162  1
  B  B7  1  0.694823  0.917276  0.691895  1
  B  B8  1  0.305177  0.082724  0.308105  1
  B  B9  1  0.803340  0.586298  0.804838  1
  O  O10  1  0.912162  0.412998  0.200160  1
  O  O11  1  0.408456  0.915783  0.702123  1
  O  O12  1  0.293666  0.084387  0.029400  1
  O  O13  1  0.798998  0.586620  0.523103  1
  O  O14  1  0.027490  0.082690  0.596989  1
  O  O15  1  0.522556  0.587209  0.089618  1
  O  O16  1  0.477444  0.412791  0.910382  1
  O  O17  1  0.972510  0.917310  0.403011  1
  O  O18  1  0.201002  0.413380  0.476897  1
  O  O19  1  0.706334  0.915613  0.970600  1
  O  O20  1  0.591544  0.084217  0.297877  1
  O  O21  1  0.087838  0.587002  0.799840  1
