# generated using pymatgen
data_Tb2Al9RuRhAu
_symmetry_space_group_name_H-M   'P 1'
_cell_length_a   7.63194808
_cell_length_b   7.63194728
_cell_length_c   9.50412334
_cell_angle_alpha   90.06685601
_cell_angle_beta   90.06685136
_cell_angle_gamma   119.41286443
_symmetry_Int_Tables_number   1
_chemical_formula_structural   Tb2Al9RuRhAu
_chemical_formula_sum   'Tb4 Al18 Ru2 Rh2 Au2'
_cell_volume   482.22693381
_cell_formula_units_Z   2
loop_
 _symmetry_equiv_pos_site_id
 _symmetry_equiv_pos_as_xyz
  1  'x, y, z'
loop_
 _atom_site_type_symbol
 _atom_site_label
 _atom_site_symmetry_multiplicity
 _atom_site_fract_x
 _atom_site_fract_y
 _atom_site_fract_z
 _atom_site_occupancy
  Tb  Tb0  1  0.996523  0.677839  0.249224  1
  Tb  Tb1  1  0.003477  0.322161  0.750776  1
  Tb  Tb2  1  0.677839  0.996523  0.249224  1
  Tb  Tb3  1  0.322161  0.003477  0.750776  1
  Al  Al4  1  0.144313  0.144313  0.249821  1
  Al  Al5  1  0.855687  0.855687  0.750179  1
  Al  Al6  1  0.001739  0.348329  0.076496  1
  Al  Al7  1  0.998261  0.651671  0.923504  1
  Al  Al8  1  0.998746  0.654440  0.578507  1
  Al  Al9  1  0.345560  0.001254  0.421493  1
  Al  Al10  1  0.001254  0.345560  0.421493  1
  Al  Al11  1  0.654440  0.998746  0.578507  1
  Al  Al12  1  0.651671  0.998261  0.923504  1
  Al  Al13  1  0.348329  0.001739  0.076496  1
  Al  Al14  1  0.342589  0.342589  0.556878  1
  Al  Al15  1  0.657411  0.657411  0.443122  1
  Al  Al16  1  0.656217  0.656217  0.053957  1
  Al  Al17  1  0.343783  0.343783  0.946043  1
  Al  Al18  1  0.338287  0.554766  0.248541  1
  Al  Al19  1  0.661713  0.445234  0.751459  1
  Al  Al20  1  0.554766  0.338287  0.248541  1
  Al  Al21  1  0.445234  0.661713  0.751459  1
  Ru  Ru22  1  0.671906  0.328094  0.000000  1
  Ru  Ru23  1  0.328094  0.671906  0.000000  1
  Rh  Rh24  1  0.328169  0.671831  0.500000  1
  Rh  Rh25  1  0.671831  0.328169  0.500000  1
  Au  Au26  1  0.000000  0.000000  0.000000  1
  Au  Au27  1  0.000000  0.000000  0.500000  1
