# generated using pymatgen
data_La3ErCoI5
_symmetry_space_group_name_H-M   'P 1'
_cell_length_a   9.86434142
_cell_length_b   9.86434230
_cell_length_c   9.30015834
_cell_angle_alpha   76.61186392
_cell_angle_beta   76.61186167
_cell_angle_gamma   25.31215762
_symmetry_Int_Tables_number   1
_chemical_formula_structural   La3ErCoI5
_chemical_formula_sum   'La3 Er1 Co1 I5'
_cell_volume   375.86006253
_cell_formula_units_Z   1
loop_
 _symmetry_equiv_pos_site_id
 _symmetry_equiv_pos_as_xyz
  1  'x, y, z'
loop_
 _atom_site_type_symbol
 _atom_site_label
 _atom_site_symmetry_multiplicity
 _atom_site_fract_x
 _atom_site_fract_y
 _atom_site_fract_z
 _atom_site_occupancy
  La  La0  1  0.867512  0.867512  0.062152  1
  La  La1  1  0.132813  0.132813  0.925142  1
  La  La2  1  0.500710  0.500710  0.224596  1
  Er  Er3  1  0.499831  0.499831  0.798600  1
  Co  Co4  1  0.000231  0.000231  0.998330  1
  I  I5  1  0.675578  0.675578  0.166976  1
  I  I6  1  0.331642  0.331642  0.817267  1
  I  I7  1  0.662589  0.662589  0.651558  1
  I  I8  1  0.329646  0.329646  0.340409  1
  I  I9  1  0.999447  0.999447  0.514968  1
