# generated using pymatgen
data_U4Mn6MoP6
_symmetry_space_group_name_H-M   'P 1'
_cell_length_a   6.79391759
_cell_length_b   6.79391738
_cell_length_c   6.79391800
_cell_angle_alpha   109.47121950
_cell_angle_beta   109.47121888
_cell_angle_gamma   109.47122723
_symmetry_Int_Tables_number   1
_chemical_formula_structural   U4Mn6MoP6
_chemical_formula_sum   'U4 Mn6 Mo1 P6'
_cell_volume   241.40092284
_cell_formula_units_Z   1
loop_
 _symmetry_equiv_pos_site_id
 _symmetry_equiv_pos_as_xyz
  1  'x, y, z'
loop_
 _atom_site_type_symbol
 _atom_site_label
 _atom_site_symmetry_multiplicity
 _atom_site_fract_x
 _atom_site_fract_y
 _atom_site_fract_z
 _atom_site_occupancy
  U  U0  1  0.000000  0.000000  0.500000  1
  U  U1  1  0.500000  0.000000  0.000000  1
  U  U2  1  0.000000  0.500000  0.000000  1
  U  U3  1  0.500000  0.500000  0.500000  1
  Mn  Mn4  1  0.750000  0.500000  0.250000  1
  Mn  Mn5  1  0.500000  0.750000  0.250000  1
  Mn  Mn6  1  0.500000  0.250000  0.750000  1
  Mn  Mn7  1  0.750000  0.250000  0.500000  1
  Mn  Mn8  1  0.250000  0.750000  0.500000  1
  Mn  Mn9  1  0.250000  0.500000  0.750000  1
  Mo  Mo10  1  0.000000  0.000000  0.000000  1
  P  P11  1  0.325907  0.000000  0.325907  1
  P  P12  1  0.000000  0.325907  0.325907  1
  P  P13  1  0.000000  0.674093  0.674093  1
  P  P14  1  0.325907  0.325907  0.000000  1
  P  P15  1  0.674093  0.674093  0.000000  1
  P  P16  1  0.674093  0.000000  0.674093  1
