# generated using pymatgen
data_TbY(Fe4B)2
_symmetry_space_group_name_H-M   'P 1'
_cell_length_a   5.06975900
_cell_length_b   5.06976004
_cell_length_c   7.06096000
_cell_angle_alpha   90.00000000
_cell_angle_beta   90.00000000
_cell_angle_gamma   119.99999972
_symmetry_Int_Tables_number   1
_chemical_formula_structural   TbY(Fe4B)2
_chemical_formula_sum   'Tb1 Y1 Fe8 B2'
_cell_volume   157.16980096
_cell_formula_units_Z   1
loop_
 _symmetry_equiv_pos_site_id
 _symmetry_equiv_pos_as_xyz
  1  'x, y, z'
loop_
 _atom_site_type_symbol
 _atom_site_label
 _atom_site_symmetry_multiplicity
 _atom_site_fract_x
 _atom_site_fract_y
 _atom_site_fract_z
 _atom_site_occupancy
  Tb  Tb0  1  0.000000  0.000000  0.500000  1
  Y  Y1  1  0.000000  0.000000  0.000000  1
  Fe  Fe2  1  0.666667  0.333333  0.000000  1
  Fe  Fe3  1  0.333333  0.666667  0.000000  1
  Fe  Fe4  1  0.500000  0.500000  0.713283  1
  Fe  Fe5  1  0.500000  0.000000  0.713283  1
  Fe  Fe6  1  0.000000  0.500000  0.713283  1
  Fe  Fe7  1  0.500000  0.500000  0.286717  1
  Fe  Fe8  1  0.500000  0.000000  0.286717  1
  Fe  Fe9  1  0.000000  0.500000  0.286717  1
  B  B10  1  0.666667  0.333333  0.500000  1
  B  B11  1  0.333333  0.666667  0.500000  1
