# generated using pymatgen
data_Li3Eu4CdAu4
_symmetry_space_group_name_H-M   'P 1'
_cell_length_a   4.42394400
_cell_length_b   7.54951215
_cell_length_c   8.83259329
_cell_angle_alpha   89.46517936
_cell_angle_beta   90.00000000
_cell_angle_gamma   90.00000000
_symmetry_Int_Tables_number   1
_chemical_formula_structural   Li3Eu4CdAu4
_chemical_formula_sum   'Li3 Eu4 Cd1 Au4'
_cell_volume   294.98356621
_cell_formula_units_Z   1
loop_
 _symmetry_equiv_pos_site_id
 _symmetry_equiv_pos_as_xyz
  1  'x, y, z'
loop_
 _atom_site_type_symbol
 _atom_site_label
 _atom_site_symmetry_multiplicity
 _atom_site_fract_x
 _atom_site_fract_y
 _atom_site_fract_z
 _atom_site_occupancy
  Li  Li0  1  0.250000  0.632908  0.561290  1
  Li  Li1  1  0.250000  0.127838  0.942529  1
  Li  Li2  1  0.750000  0.371028  0.441034  1
  Eu  Eu3  1  0.750000  0.464457  0.817200  1
  Eu  Eu4  1  0.250000  0.037479  0.318414  1
  Eu  Eu5  1  0.750000  0.963447  0.681140  1
  Eu  Eu6  1  0.250000  0.541726  0.181754  1
  Cd  Cd7  1  0.750000  0.862202  0.061192  1
  Au  Au8  1  0.250000  0.759145  0.866820  1
  Au  Au9  1  0.250000  0.265421  0.619256  1
  Au  Au10  1  0.750000  0.731173  0.387686  1
  Au  Au11  1  0.750000  0.243174  0.121686  1
