# generated using pymatgen
data_Nb6Re5Si6Pd
_symmetry_space_group_name_H-M   'P 1'
_cell_length_a   7.57916738
_cell_length_b   7.55011529
_cell_length_c   7.55011466
_cell_angle_alpha   127.52569468
_cell_angle_beta   123.07819785
_cell_angle_gamma   81.00207762
_symmetry_Int_Tables_number   1
_chemical_formula_structural   Nb6Re5Si6Pd
_chemical_formula_sum   'Nb6 Re5 Si6 Pd1'
_cell_volume   276.85422304
_cell_formula_units_Z   1
loop_
 _symmetry_equiv_pos_site_id
 _symmetry_equiv_pos_as_xyz
  1  'x, y, z'
loop_
 _atom_site_type_symbol
 _atom_site_label
 _atom_site_symmetry_multiplicity
 _atom_site_fract_x
 _atom_site_fract_y
 _atom_site_fract_z
 _atom_site_occupancy
  Nb  Nb0  1  0.555651  0.093959  0.049661  1
  Nb  Nb1  1  0.444349  0.494010  0.538309  1
  Nb  Nb2  1  0.978358  0.502070  0.046059  1
  Nb  Nb3  1  0.021642  0.067699  0.523712  1
  Nb  Nb4  1  0.761090  0.910997  0.664946  1
  Nb  Nb5  1  0.238910  0.903856  0.149907  1
  Re  Re6  1  0.000000  0.244048  0.244048  1
  Re  Re7  1  0.163491  0.749490  0.661754  1
  Re  Re8  1  0.836509  0.498263  0.585999  1
  Re  Re9  1  0.590891  0.749955  0.090613  1
  Re  Re10  1  0.409109  0.499722  0.159063  1
  Si  Si11  1  0.778284  0.526526  0.249944  1
  Si  Si12  1  0.221716  0.471660  0.748242  1
  Si  Si13  1  0.338046  0.832716  0.503312  1
  Si  Si14  1  0.661954  0.165266  0.494671  1
  Si  Si15  1  0.828854  0.823888  0.989632  1
  Si  Si16  1  0.171146  0.160779  0.995034  1
  Pd  Pd17  1  0.500000  0.247295  0.747295  1
