# generated using pymatgen
data_Sr3CdRhO6
_symmetry_space_group_name_H-M   'P 1'
_cell_length_a   6.84787344
_cell_length_b   6.84787413
_cell_length_c   6.84787304
_cell_angle_alpha   90.51926212
_cell_angle_beta   90.51926106
_cell_angle_gamma   90.51926298
_symmetry_Int_Tables_number   1
_chemical_formula_structural   Sr3CdRhO6
_chemical_formula_sum   'Sr6 Cd2 Rh2 O12'
_cell_volume   321.08007807
_cell_formula_units_Z   2
loop_
 _symmetry_equiv_pos_site_id
 _symmetry_equiv_pos_as_xyz
  1  'x, y, z'
loop_
 _atom_site_type_symbol
 _atom_site_label
 _atom_site_symmetry_multiplicity
 _atom_site_fract_x
 _atom_site_fract_y
 _atom_site_fract_z
 _atom_site_occupancy
  Sr  Sr0  1  0.885858  0.614142  0.250000  1
  Sr  Sr1  1  0.114142  0.385858  0.750000  1
  Sr  Sr2  1  0.250000  0.885858  0.614142  1
  Sr  Sr3  1  0.614142  0.250000  0.885858  1
  Sr  Sr4  1  0.385858  0.750000  0.114142  1
  Sr  Sr5  1  0.750000  0.114142  0.385858  1
  Cd  Cd6  1  0.750000  0.750000  0.750000  1
  Cd  Cd7  1  0.250000  0.250000  0.250000  1
  Rh  Rh8  1  0.000000  0.000000  0.000000  1
  Rh  Rh9  1  0.500000  0.500000  0.500000  1
  O  O10  1  0.448780  0.580713  0.784414  1
  O  O11  1  0.580713  0.784414  0.448780  1
  O  O12  1  0.948780  0.284414  0.080713  1
  O  O13  1  0.551220  0.419287  0.215586  1
  O  O14  1  0.215586  0.551220  0.419287  1
  O  O15  1  0.051220  0.715586  0.919287  1
  O  O16  1  0.784414  0.448780  0.580713  1
  O  O17  1  0.715586  0.919287  0.051220  1
  O  O18  1  0.080713  0.948780  0.284414  1
  O  O19  1  0.919287  0.051220  0.715586  1
  O  O20  1  0.419287  0.215586  0.551220  1
  O  O21  1  0.284414  0.080713  0.948780  1
