# generated using pymatgen
data_Zr5Sn2BiB
_symmetry_space_group_name_H-M   'P 1'
_cell_length_a   8.63798409
_cell_length_b   8.62173702
_cell_length_c   5.84076100
_cell_angle_alpha   90.00000000
_cell_angle_beta   90.00000000
_cell_angle_gamma   119.93780608
_symmetry_Int_Tables_number   1
_chemical_formula_structural   Zr5Sn2BiB
_chemical_formula_sum   'Zr10 Sn4 Bi2 B2'
_cell_volume   376.94594292
_cell_formula_units_Z   2
loop_
 _symmetry_equiv_pos_site_id
 _symmetry_equiv_pos_as_xyz
  1  'x, y, z'
loop_
 _atom_site_type_symbol
 _atom_site_label
 _atom_site_symmetry_multiplicity
 _atom_site_fract_x
 _atom_site_fract_y
 _atom_site_fract_z
 _atom_site_occupancy
  Zr  Zr0  1  0.669153  0.335267  0.003572  1
  Zr  Zr1  1  0.330847  0.666115  0.003572  1
  Zr  Zr2  1  0.330847  0.666115  0.496428  1
  Zr  Zr3  1  0.669153  0.335267  0.496428  1
  Zr  Zr4  1  0.774943  0.770932  0.750000  1
  Zr  Zr5  1  0.225057  0.995989  0.750000  1
  Zr  Zr6  1  0.000000  0.230161  0.750000  1
  Zr  Zr7  1  0.228532  0.228310  0.250000  1
  Zr  Zr8  1  0.771468  0.999778  0.250000  1
  Zr  Zr9  1  0.000000  0.769621  0.250000  1
  Sn  Sn10  1  0.000000  0.599355  0.750000  1
  Sn  Sn11  1  0.602009  0.602512  0.250000  1
  Sn  Sn12  1  0.397991  0.000503  0.250000  1
  Sn  Sn13  1  0.000000  0.399308  0.250000  1
  Bi  Bi14  1  0.401075  0.400582  0.750000  1
  Bi  Bi15  1  0.598925  0.999507  0.750000  1
  B  B16  1  0.000000  0.000339  0.999964  1
  B  B17  1  0.000000  0.000339  0.500036  1
