# generated using pymatgen
data_BeNb(BW)3
_symmetry_space_group_name_H-M   'P 1'
_cell_length_a   4.61556711
_cell_length_b   4.61556566
_cell_length_c   6.29852400
_cell_angle_alpha   90.00000000
_cell_angle_beta   90.00000000
_cell_angle_gamma   139.03227577
_symmetry_Int_Tables_number   1
_chemical_formula_structural   BeNb(BW)3
_chemical_formula_sum   'Be1 Nb1 B3 W3'
_cell_volume   87.97314457
_cell_formula_units_Z   1
loop_
 _symmetry_equiv_pos_site_id
 _symmetry_equiv_pos_as_xyz
  1  'x, y, z'
loop_
 _atom_site_type_symbol
 _atom_site_label
 _atom_site_symmetry_multiplicity
 _atom_site_fract_x
 _atom_site_fract_y
 _atom_site_fract_z
 _atom_site_occupancy
  Be  Be0  1  0.566660  0.433340  0.500000  1
  Nb  Nb1  1  0.851393  0.148607  0.000000  1
  B  B2  1  0.559461  0.440539  0.000000  1
  B  B3  1  0.437790  0.562210  0.249651  1
  B  B4  1  0.437790  0.562210  0.750349  1
  W  W5  1  0.855244  0.144756  0.500000  1
  W  W6  1  0.145830  0.854170  0.245816  1
  W  W7  1  0.145830  0.854170  0.754184  1
