# generated using pymatgen
data_Nd2P7(Pd3Ru)3
_symmetry_space_group_name_H-M   'P 1'
_cell_length_a   9.80983100
_cell_length_b   9.80983001
_cell_length_c   3.96574800
_cell_angle_alpha   90.00000000
_cell_angle_beta   90.00000000
_cell_angle_gamma   119.99999412
_symmetry_Int_Tables_number   1
_chemical_formula_structural   Nd2P7(Pd3Ru)3
_chemical_formula_sum   'Nd2 P7 Pd9 Ru3'
_cell_volume   330.50556671
_cell_formula_units_Z   1
loop_
 _symmetry_equiv_pos_site_id
 _symmetry_equiv_pos_as_xyz
  1  'x, y, z'
loop_
 _atom_site_type_symbol
 _atom_site_label
 _atom_site_symmetry_multiplicity
 _atom_site_fract_x
 _atom_site_fract_y
 _atom_site_fract_z
 _atom_site_occupancy
  Nd  Nd0  1  0.000000  0.000000  0.000000  1
  Nd  Nd1  1  0.333333  0.666667  0.500000  1
  P  P2  1  0.792757  0.727843  0.500000  1
  P  P3  1  0.272157  0.064914  0.500000  1
  P  P4  1  0.935086  0.207243  0.500000  1
  P  P5  1  0.666667  0.333333  0.000000  1
  P  P6  1  0.078260  0.635655  0.000000  1
  P  P7  1  0.364345  0.442604  0.000000  1
  P  P8  1  0.557396  0.921740  0.000000  1
  Pd  Pd9  1  0.103294  0.408581  0.000000  1
  Pd  Pd10  1  0.591419  0.694710  0.000000  1
  Pd  Pd11  1  0.305290  0.896706  0.000000  1
  Pd  Pd12  1  0.063240  0.779654  0.500000  1
  Pd  Pd13  1  0.220346  0.283585  0.500000  1
  Pd  Pd14  1  0.716415  0.936760  0.500000  1
  Pd  Pd15  1  0.873800  0.413675  0.500000  1
  Pd  Pd16  1  0.586325  0.460124  0.500000  1
  Pd  Pd17  1  0.539876  0.126200  0.500000  1
  Ru  Ru18  1  0.832106  0.607010  0.000000  1
  Ru  Ru19  1  0.392990  0.225096  0.000000  1
  Ru  Ru20  1  0.774904  0.167894  0.000000  1
