# generated using pymatgen
data_PmNd(BeSi)2
_symmetry_space_group_name_H-M   'P 1'
_cell_length_a   5.78484709
_cell_length_b   5.78484708
_cell_length_c   5.78484790
_cell_angle_alpha   140.14325554
_cell_angle_beta   107.77262704
_cell_angle_gamma   85.82002999
_symmetry_Int_Tables_number   1
_chemical_formula_structural   PmNd(BeSi)2
_chemical_formula_sum   'Pm1 Nd1 Be2 Si2'
_cell_volume   113.93511231
_cell_formula_units_Z   1
loop_
 _symmetry_equiv_pos_site_id
 _symmetry_equiv_pos_as_xyz
  1  'x, y, z'
loop_
 _atom_site_type_symbol
 _atom_site_label
 _atom_site_symmetry_multiplicity
 _atom_site_fract_x
 _atom_site_fract_y
 _atom_site_fract_z
 _atom_site_occupancy
  Pm  Pm0  1  0.000049  0.000000  0.000049  1
  Nd  Nd1  1  0.500170  0.500000  0.000170  1
  Be  Be2  1  0.583339  0.250455  0.332885  1
  Be  Be3  1  0.082429  0.749544  0.332885  1
  Si  Si4  1  0.917486  0.250480  0.667006  1
  Si  Si5  1  0.416525  0.749519  0.667005  1
