# generated using pymatgen
data_Er5Lu11(InRh)4
_symmetry_space_group_name_H-M   'P 1'
_cell_length_a   9.48624070
_cell_length_b   9.48685479
_cell_length_c   9.48685420
_cell_angle_alpha   60.02186518
_cell_angle_beta   59.97445563
_cell_angle_gamma   59.97446217
_symmetry_Int_Tables_number   1
_chemical_formula_structural   Er5Lu11(InRh)4
_chemical_formula_sum   'Er5 Lu11 In4 Rh4'
_cell_volume   603.56981315
_cell_formula_units_Z   1
loop_
 _symmetry_equiv_pos_site_id
 _symmetry_equiv_pos_as_xyz
  1  'x, y, z'
loop_
 _atom_site_type_symbol
 _atom_site_label
 _atom_site_symmetry_multiplicity
 _atom_site_fract_x
 _atom_site_fract_y
 _atom_site_fract_z
 _atom_site_occupancy
  Er  Er0  1  0.061868  0.062181  0.437978  1
  Er  Er1  1  0.438324  0.061698  0.438275  1
  Er  Er2  1  0.061868  0.437978  0.062181  1
  Er  Er3  1  0.049597  0.650114  0.650114  1
  Er  Er4  1  0.438324  0.438275  0.061698  1
  Lu  Lu5  1  0.650364  0.048993  0.650377  1
  Lu  Lu6  1  0.188451  0.811780  0.187982  1
  Lu  Lu7  1  0.188451  0.187982  0.811780  1
  Lu  Lu8  1  0.811513  0.811541  0.188471  1
  Lu  Lu9  1  0.439257  0.060771  0.060771  1
  Lu  Lu10  1  0.811633  0.188347  0.188347  1
  Lu  Lu11  1  0.060936  0.438890  0.438890  1
  Lu  Lu12  1  0.811513  0.188471  0.811541  1
  Lu  Lu13  1  0.188311  0.811918  0.811918  1
  Lu  Lu14  1  0.650364  0.650377  0.048993  1
  Lu  Lu15  1  0.650473  0.650285  0.650285  1
  In  In16  1  0.416660  0.416599  0.416599  1
  In  In17  1  0.750167  0.416782  0.416782  1
  In  In18  1  0.417172  0.750074  0.416163  1
  In  In19  1  0.417172  0.416163  0.750074  1
  Rh  Rh20  1  0.856891  0.857831  0.426559  1
  Rh  Rh21  1  0.856043  0.858680  0.858680  1
  Rh  Rh22  1  0.427759  0.857709  0.857709  1
  Rh  Rh23  1  0.856891  0.426559  0.857831  1
