# generated using pymatgen
data_Dy3Zr(Si5Os3)2
_symmetry_space_group_name_H-M   'P 1'
_cell_length_a   8.07068723
_cell_length_b   8.08362522
_cell_length_c   5.79423032
_cell_angle_alpha   70.60659269
_cell_angle_beta   70.84705652
_cell_angle_gamma   94.08270092
_symmetry_Int_Tables_number   1
_chemical_formula_structural   Dy3Zr(Si5Os3)2
_chemical_formula_sum   'Dy3 Zr1 Si10 Os6'
_cell_volume   329.87688980
_cell_formula_units_Z   1
loop_
 _symmetry_equiv_pos_site_id
 _symmetry_equiv_pos_as_xyz
  1  'x, y, z'
loop_
 _atom_site_type_symbol
 _atom_site_label
 _atom_site_symmetry_multiplicity
 _atom_site_fract_x
 _atom_site_fract_y
 _atom_site_fract_z
 _atom_site_occupancy
  Dy  Dy0  1  0.398005  0.132630  0.745131  1
  Dy  Dy1  1  0.132859  0.398759  0.245206  1
  Dy  Dy2  1  0.600553  0.871928  0.251225  1
  Zr  Zr3  1  0.869405  0.595750  0.751778  1
  Si  Si4  1  0.064999  0.262746  0.834389  1
  Si  Si5  1  0.739630  0.923638  0.668881  1
  Si  Si6  1  0.931901  0.739072  0.164451  1
  Si  Si7  1  0.263342  0.067838  0.334004  1
  Si  Si8  1  0.203260  0.792829  0.750796  1
  Si  Si9  1  0.794472  0.205589  0.250738  1
  Si  Si10  1  0.516073  0.486307  0.749137  1
  Si  Si11  1  0.487422  0.515935  0.251405  1
  Si  Si12  1  0.775170  0.230817  0.751423  1
  Si  Si13  1  0.223901  0.773921  0.251287  1
  Os  Os14  1  0.254347  0.545378  0.630661  1
  Os  Os15  1  0.455266  0.743363  0.868613  1
  Os  Os16  1  0.747377  0.457352  0.365074  1
  Os  Os17  1  0.544958  0.259618  0.132154  1
  Os  Os18  1  0.001086  0.995873  0.750286  1
  Os  Os19  1  0.995973  0.000656  0.253360  1
