# generated using pymatgen
data_Dy2MnCoIr2
_symmetry_space_group_name_H-M   'P 1'
_cell_length_a   5.32273156
_cell_length_b   5.03815573
_cell_length_c   5.32273239
_cell_angle_alpha   60.03798225
_cell_angle_beta   62.19906140
_cell_angle_gamma   60.03796597
_symmetry_Int_Tables_number   1
_chemical_formula_structural   Dy2MnCoIr2
_chemical_formula_sum   'Dy2 Mn1 Co1 Ir2'
_cell_volume   102.56156487
_cell_formula_units_Z   1
loop_
 _symmetry_equiv_pos_site_id
 _symmetry_equiv_pos_as_xyz
  1  'x, y, z'
loop_
 _atom_site_type_symbol
 _atom_site_label
 _atom_site_symmetry_multiplicity
 _atom_site_fract_x
 _atom_site_fract_y
 _atom_site_fract_z
 _atom_site_occupancy
  Dy  Dy0  1  0.628051  0.620890  0.628051  1
  Dy  Dy1  1  0.371949  0.379110  0.371949  1
  Mn  Mn2  1  0.000000  0.500000  0.000000  1
  Co  Co3  1  0.000000  0.000000  0.000000  1
  Ir  Ir4  1  0.500000  0.000000  0.000000  1
  Ir  Ir5  1  0.000000  0.000000  0.500000  1
