# generated using pymatgen
data_YNp9O20
_symmetry_space_group_name_H-M   'P 1'
_cell_length_a   6.59891577
_cell_length_b   7.62493891
_cell_length_c   8.52456838
_cell_angle_alpha   103.03701423
_cell_angle_beta   97.45374140
_cell_angle_gamma   106.71562162
_symmetry_Int_Tables_number   1
_chemical_formula_structural   YNp9O20
_chemical_formula_sum   'Y1 Np9 O20'
_cell_volume   391.41016594
_cell_formula_units_Z   1
loop_
 _symmetry_equiv_pos_site_id
 _symmetry_equiv_pos_as_xyz
  1  'x, y, z'
loop_
 _atom_site_type_symbol
 _atom_site_label
 _atom_site_symmetry_multiplicity
 _atom_site_fract_x
 _atom_site_fract_y
 _atom_site_fract_z
 _atom_site_occupancy
  Y  Y0  1  0.000000  0.000000  0.000000  1
  Np  Np1  1  0.800539  0.601025  0.601126  1
  Np  Np2  1  0.599497  0.199045  0.198694  1
  Np  Np3  1  0.000000  0.500000  0.000000  1
  Np  Np4  1  0.800145  0.099777  0.601172  1
  Np  Np5  1  0.199461  0.398975  0.398874  1
  Np  Np6  1  0.601656  0.700842  0.199429  1
  Np  Np7  1  0.398344  0.299158  0.800571  1
  Np  Np8  1  0.199855  0.900223  0.398828  1
  Np  Np9  1  0.400503  0.800955  0.801306  1
  O  O10  1  0.849629  0.325065  0.451776  1
  O  O11  1  0.643758  0.923061  0.051663  1
  O  O12  1  0.447843  0.523207  0.649577  1
  O  O13  1  0.949663  0.770169  0.152856  1
  O  O14  1  0.851039  0.825717  0.450340  1
  O  O15  1  0.747215  0.374164  0.750150  1
  O  O16  1  0.255404  0.127371  0.254732  1
  O  O17  1  0.648741  0.425472  0.049461  1
  O  O18  1  0.948820  0.280818  0.152879  1
  O  O19  1  0.448409  0.025328  0.648601  1
  O  O20  1  0.551591  0.974672  0.351399  1
  O  O21  1  0.051180  0.719182  0.847121  1
  O  O22  1  0.744596  0.872629  0.745268  1
  O  O23  1  0.252785  0.625836  0.249850  1
  O  O24  1  0.351259  0.574528  0.950539  1
  O  O25  1  0.050337  0.229831  0.847144  1
  O  O26  1  0.552157  0.476793  0.350423  1
  O  O27  1  0.148961  0.174283  0.549660  1
  O  O28  1  0.356242  0.076939  0.948337  1
  O  O29  1  0.150371  0.674935  0.548224  1
