# generated using pymatgen
data_Sc4Co16Si7P5Ru4
_symmetry_space_group_name_H-M   'P 1'
_cell_length_a   3.66315800
_cell_length_b   10.30373167
_cell_length_c   11.78972978
_cell_angle_alpha   90.04156136
_cell_angle_beta   90.00000000
_cell_angle_gamma   90.00000000
_symmetry_Int_Tables_number   1
_chemical_formula_structural   Sc4Co16Si7P5Ru4
_chemical_formula_sum   'Sc4 Co16 Si7 P5 Ru4'
_cell_volume   444.99376762
_cell_formula_units_Z   1
loop_
 _symmetry_equiv_pos_site_id
 _symmetry_equiv_pos_as_xyz
  1  'x, y, z'
loop_
 _atom_site_type_symbol
 _atom_site_label
 _atom_site_symmetry_multiplicity
 _atom_site_fract_x
 _atom_site_fract_y
 _atom_site_fract_z
 _atom_site_occupancy
  Sc  Sc0  1  0.250000  0.583241  0.702865  1
  Sc  Sc1  1  0.250000  0.920839  0.202513  1
  Sc  Sc2  1  0.750000  0.420624  0.297228  1
  Sc  Sc3  1  0.750000  0.080621  0.797263  1
  Co  Co4  1  0.250000  0.413346  0.488374  1
  Co  Co5  1  0.250000  0.088132  0.987048  1
  Co  Co6  1  0.750000  0.592249  0.516419  1
  Co  Co7  1  0.750000  0.911446  0.010715  1
  Co  Co8  1  0.250000  0.210993  0.172353  1
  Co  Co9  1  0.250000  0.288807  0.672537  1
  Co  Co10  1  0.750000  0.786711  0.823489  1
  Co  Co11  1  0.750000  0.711083  0.328052  1
  Co  Co12  1  0.250000  0.884189  0.703160  1
  Co  Co13  1  0.250000  0.613490  0.204158  1
  Co  Co14  1  0.750000  0.112632  0.295715  1
  Co  Co15  1  0.750000  0.387545  0.795410  1
  Co  Co16  1  0.250000  0.467268  0.930509  1
  Co  Co17  1  0.250000  0.032364  0.431143  1
  Co  Co18  1  0.750000  0.532891  0.069930  1
  Co  Co19  1  0.750000  0.962607  0.571003  1
  Si  Si20  1  0.250000  0.416001  0.115625  1
  Si  Si21  1  0.250000  0.083629  0.615668  1
  Si  Si22  1  0.750000  0.583302  0.885207  1
  Si  Si23  1  0.750000  0.915961  0.384076  1
  Si  Si24  1  0.250000  0.266316  0.863652  1
  Si  Si25  1  0.250000  0.233760  0.363992  1
  Si  Si26  1  0.750000  0.734305  0.136088  1
  P  P27  1  0.750000  0.767073  0.637205  1
  P  P28  1  0.250000  0.594885  0.388904  1
  P  P29  1  0.250000  0.905152  0.888924  1
  P  P30  1  0.750000  0.405420  0.610762  1
  P  P31  1  0.750000  0.094867  0.110005  1
  Ru  Ru32  1  0.250000  0.712981  0.990256  1
  Ru  Ru33  1  0.250000  0.785520  0.491880  1
  Ru  Ru34  1  0.750000  0.287205  0.008622  1
  Ru  Ru35  1  0.750000  0.212548  0.509251  1
