# generated using pymatgen
data_Ce7NpPa2O20
_symmetry_space_group_name_H-M   'P 1'
_cell_length_a   6.69955597
_cell_length_b   7.73223276
_cell_length_c   8.64757180
_cell_angle_alpha   102.70006973
_cell_angle_beta   97.26991793
_cell_angle_gamma   106.87996308
_symmetry_Int_Tables_number   1
_chemical_formula_structural   Ce7NpPa2O20
_chemical_formula_sum   'Ce7 Np1 Pa2 O20'
_cell_volume   409.38908117
_cell_formula_units_Z   1
loop_
 _symmetry_equiv_pos_site_id
 _symmetry_equiv_pos_as_xyz
  1  'x, y, z'
loop_
 _atom_site_type_symbol
 _atom_site_label
 _atom_site_symmetry_multiplicity
 _atom_site_fract_x
 _atom_site_fract_y
 _atom_site_fract_z
 _atom_site_occupancy
  Ce  Ce0  1  0.003406  0.501607  0.001198  1
  Ce  Ce1  1  0.800425  0.099293  0.601799  1
  Ce  Ce2  1  0.598430  0.700323  0.197758  1
  Ce  Ce3  1  0.199483  0.399404  0.399315  1
  Ce  Ce4  1  0.398255  0.297917  0.799220  1
  Ce  Ce5  1  0.199549  0.900719  0.399996  1
  Ce  Ce6  1  0.400166  0.800530  0.800308  1
  Np  Np7  1  0.000018  0.999894  0.000298  1
  Pa  Pa8  1  0.800576  0.600833  0.601271  1
  Pa  Pa9  1  0.599880  0.199495  0.199128  1
  O  O10  1  0.840721  0.329339  0.447036  1
  O  O11  1  0.651617  0.934715  0.049813  1
  O  O12  1  0.949516  0.783919  0.145790  1
  O  O13  1  0.842584  0.815354  0.453969  1
  O  O14  1  0.461908  0.528559  0.644640  1
  O  O15  1  0.650118  0.416512  0.054771  1
  O  O16  1  0.756934  0.384137  0.746236  1
  O  O17  1  0.258052  0.129002  0.245295  1
  O  O18  1  0.452225  0.023891  0.650018  1
  O  O19  1  0.942011  0.267716  0.154104  1
  O  O20  1  0.554182  0.983534  0.343160  1
  O  O21  1  0.045163  0.728640  0.846549  1
  O  O22  1  0.249952  0.625411  0.252300  1
  O  O23  1  0.755099  0.867891  0.751019  1
  O  O24  1  0.351163  0.574508  0.947271  1
  O  O25  1  0.046466  0.216653  0.856756  1
  O  O26  1  0.556389  0.469199  0.350338  1
  O  O27  1  0.146659  0.176104  0.549500  1
  O  O28  1  0.352115  0.075528  0.957736  1
  O  O29  1  0.136938  0.669372  0.553406  1
