# generated using pymatgen
data_YbUSbO2
_symmetry_space_group_name_H-M   'P 1'
_cell_length_a   7.03956913
_cell_length_b   7.03956865
_cell_length_c   7.03956864
_cell_angle_alpha   148.31074849
_cell_angle_beta   148.31074614
_cell_angle_gamma   45.42684085
_symmetry_Int_Tables_number   1
_chemical_formula_structural   YbUSbO2
_chemical_formula_sum   'Yb1 U1 Sb1 O2'
_cell_volume   95.95318929
_cell_formula_units_Z   1
loop_
 _symmetry_equiv_pos_site_id
 _symmetry_equiv_pos_as_xyz
  1  'x, y, z'
loop_
 _atom_site_type_symbol
 _atom_site_label
 _atom_site_symmetry_multiplicity
 _atom_site_fract_x
 _atom_site_fract_y
 _atom_site_fract_z
 _atom_site_occupancy
  Yb  Yb0  1  0.342273  0.342273  0.000000  1
  U  U1  1  0.663480  0.663480  0.000000  1
  Sb  Sb2  1  0.005211  0.005211  0.000000  1
  O  O3  1  0.744518  0.244518  0.500000  1
  O  O4  1  0.244518  0.744518  0.500000  1
