# generated using pymatgen
data_Ho8AsPd17Pt7
_symmetry_space_group_name_H-M   'P 1'
_cell_length_a   8.39772900
_cell_length_b   8.38977300
_cell_length_c   8.37521300
_cell_angle_alpha   90.00000000
_cell_angle_beta   90.00000000
_cell_angle_gamma   90.00000000
_symmetry_Int_Tables_number   1
_chemical_formula_structural   Ho8AsPd17Pt7
_chemical_formula_sum   'Ho8 As1 Pd17 Pt7'
_cell_volume   590.07596714
_cell_formula_units_Z   1
loop_
 _symmetry_equiv_pos_site_id
 _symmetry_equiv_pos_as_xyz
  1  'x, y, z'
loop_
 _atom_site_type_symbol
 _atom_site_label
 _atom_site_symmetry_multiplicity
 _atom_site_fract_x
 _atom_site_fract_y
 _atom_site_fract_z
 _atom_site_occupancy
  Ho  Ho0  1  0.254250  0.255830  0.254977  1
  Ho  Ho1  1  0.744610  0.743996  0.745509  1
  Ho  Ho2  1  0.744610  0.743996  0.254491  1
  Ho  Ho3  1  0.745750  0.255830  0.745023  1
  Ho  Ho4  1  0.254250  0.255830  0.745023  1
  Ho  Ho5  1  0.255390  0.743996  0.254491  1
  Ho  Ho6  1  0.255390  0.743996  0.745509  1
  Ho  Ho7  1  0.745750  0.255830  0.254977  1
  As  As8  1  0.000000  0.000770  0.000000  1
  Pd  Pd9  1  0.500000  0.258501  0.000000  1
  Pd  Pd10  1  0.000000  0.739459  0.500000  1
  Pd  Pd11  1  0.500000  0.741630  0.000000  1
  Pd  Pd12  1  0.500000  0.999888  0.258495  1
  Pd  Pd13  1  0.260672  0.000008  0.500000  1
  Pd  Pd14  1  0.500000  0.999888  0.741505  1
  Pd  Pd15  1  0.739328  0.000008  0.500000  1
  Pd  Pd16  1  0.000000  0.500257  0.257829  1
  Pd  Pd17  1  0.000000  0.500257  0.742171  1
  Pd  Pd18  1  0.500000  0.499854  0.252166  1
  Pd  Pd19  1  0.500000  0.499854  0.747834  1
  Pd  Pd20  1  0.286819  0.000015  0.000000  1
  Pd  Pd21  1  0.713181  0.000015  0.000000  1
  Pd  Pd22  1  0.000000  0.286631  0.000000  1
  Pd  Pd23  1  0.000000  0.714543  0.000000  1
  Pd  Pd24  1  0.000000  0.999538  0.288524  1
  Pd  Pd25  1  0.000000  0.999538  0.711476  1
  Pt  Pt26  1  0.258506  0.500148  0.000000  1
  Pt  Pt27  1  0.741494  0.500148  0.000000  1
  Pt  Pt28  1  0.000000  0.260520  0.500000  1
  Pt  Pt29  1  0.252366  0.499815  0.500000  1
  Pt  Pt30  1  0.747634  0.499815  0.500000  1
  Pt  Pt31  1  0.500000  0.252311  0.500000  1
  Pt  Pt32  1  0.500000  0.747289  0.500000  1
