# generated using pymatgen
data_La13Pr7Si15I
_symmetry_space_group_name_H-M   'P 1'
_cell_length_a   8.08148383
_cell_length_b   8.02422411
_cell_length_c   15.46403869
_cell_angle_alpha   89.91454510
_cell_angle_beta   89.12967837
_cell_angle_gamma   89.84152016
_symmetry_Int_Tables_number   1
_chemical_formula_structural   La13Pr7Si15I
_chemical_formula_sum   'La13 Pr7 Si15 I1'
_cell_volume   1002.68579511
_cell_formula_units_Z   1
loop_
 _symmetry_equiv_pos_site_id
 _symmetry_equiv_pos_as_xyz
  1  'x, y, z'
loop_
 _atom_site_type_symbol
 _atom_site_label
 _atom_site_symmetry_multiplicity
 _atom_site_fract_x
 _atom_site_fract_y
 _atom_site_fract_z
 _atom_site_occupancy
  La  La0  1  0.307888  0.309795  0.000816  1
  La  La1  1  0.188247  0.810464  0.250487  1
  La  La2  1  0.797640  0.188815  0.752615  1
  La  La3  1  0.686800  0.690221  0.494635  1
  La  La4  1  0.377764  0.008144  0.445226  1
  La  La5  1  0.497690  0.872644  0.698298  1
  La  La6  1  0.509991  0.121721  0.197992  1
  La  La7  1  0.874284  0.487666  0.299034  1
  La  La8  1  0.121735  0.516037  0.805338  1
  La  La9  1  0.631222  0.985105  0.953040  1
  La  La10  1  0.994518  0.385418  0.541259  1
  La  La11  1  0.991307  0.621500  0.054091  1
  La  La12  1  0.137229  0.988493  0.876601  1
  Pr  Pr13  1  0.514875  0.628581  0.127429  1
  Pr  Pr14  1  0.494515  0.380681  0.628398  1
  Pr  Pr15  1  0.633725  0.520003  0.877924  1
  Pr  Pr16  1  0.369243  0.481284  0.374536  1
  Pr  Pr17  1  0.869725  0.017007  0.375428  1
  Pr  Pr18  1  0.984500  0.128741  0.125881  1
  Pr  Pr19  1  0.002627  0.851721  0.619686  1
  Si  Si20  1  0.333196  0.698084  0.951791  1
  Si  Si21  1  0.660497  0.301852  0.450595  1
  Si  Si22  1  0.702751  0.336264  0.053123  1
  Si  Si23  1  0.301892  0.668354  0.549527  1
  Si  Si24  1  0.799899  0.833913  0.199880  1
  Si  Si25  1  0.165150  0.198473  0.300318  1
  Si  Si26  1  0.840261  0.801383  0.798453  1
  Si  Si27  1  0.289440  0.921568  0.058844  1
  Si  Si28  1  0.576577  0.788696  0.307433  1
  Si  Si29  1  0.452766  0.212854  0.825191  1
  Si  Si30  1  0.791867  0.575258  0.691065  1
  Si  Si31  1  0.210624  0.421705  0.192748  1
  Si  Si32  1  0.703436  0.078033  0.558744  1
  Si  Si33  1  0.924492  0.291431  0.942400  1
  Si  Si34  1  0.078127  0.711642  0.439861  1
  I  I35  1  0.183496  0.166447  0.681312  1
