# generated using pymatgen
data_ErNb(CoSb)2
_symmetry_space_group_name_H-M   'P 1'
_cell_length_a   6.12875500
_cell_length_b   4.32131700
_cell_length_c   8.66753900
_cell_angle_alpha   90.00000000
_cell_angle_beta   90.00000000
_cell_angle_gamma   90.00000000
_symmetry_Int_Tables_number   1
_chemical_formula_structural   ErNb(CoSb)2
_chemical_formula_sum   'Er2 Nb2 Co4 Sb4'
_cell_volume   229.55364394
_cell_formula_units_Z   2
loop_
 _symmetry_equiv_pos_site_id
 _symmetry_equiv_pos_as_xyz
  1  'x, y, z'
loop_
 _atom_site_type_symbol
 _atom_site_label
 _atom_site_symmetry_multiplicity
 _atom_site_fract_x
 _atom_site_fract_y
 _atom_site_fract_z
 _atom_site_occupancy
  Er  Er0  1  0.006224  0.000000  0.375970  1
  Er  Er1  1  0.506223  0.500001  0.624030  1
  Nb  Nb2  1  0.492219  0.500001  0.123178  1
  Nb  Nb3  1  0.992219  0.000000  0.876822  1
  Co  Co4  1  0.734863  0.000000  0.111977  1
  Co  Co5  1  0.270791  0.500001  0.351707  1
  Co  Co6  1  0.770790  0.000000  0.648293  1
  Co  Co7  1  0.234864  0.500001  0.888024  1
  Sb  Sb8  1  0.988126  0.500001  0.121830  1
  Sb  Sb9  1  0.507776  0.000000  0.368795  1
  Sb  Sb10  1  0.007777  0.500001  0.631205  1
  Sb  Sb11  1  0.488126  0.000000  0.878170  1
