# generated using pymatgen
data_Be8Mo3Ru
_symmetry_space_group_name_H-M   'P 1'
_cell_length_a   4.41768800
_cell_length_b   4.41768797
_cell_length_c   7.24337900
_cell_angle_alpha   90.00000000
_cell_angle_beta   90.00000000
_cell_angle_gamma   120.00000022
_symmetry_Int_Tables_number   1
_chemical_formula_structural   Be8Mo3Ru
_chemical_formula_sum   'Be8 Mo3 Ru1'
_cell_volume   122.42269013
_cell_formula_units_Z   1
loop_
 _symmetry_equiv_pos_site_id
 _symmetry_equiv_pos_as_xyz
  1  'x, y, z'
loop_
 _atom_site_type_symbol
 _atom_site_label
 _atom_site_symmetry_multiplicity
 _atom_site_fract_x
 _atom_site_fract_y
 _atom_site_fract_z
 _atom_site_occupancy
  Be  Be0  1  0.000000  0.000000  0.504471  1
  Be  Be1  1  0.000000  0.000000  0.000506  1
  Be  Be2  1  0.661838  0.830919  0.247901  1
  Be  Be3  1  0.169081  0.830919  0.247901  1
  Be  Be4  1  0.169081  0.338162  0.247901  1
  Be  Be5  1  0.338406  0.169203  0.752036  1
  Be  Be6  1  0.830797  0.169203  0.752036  1
  Be  Be7  1  0.830797  0.661594  0.752036  1
  Mo  Mo8  1  0.666667  0.333333  0.060318  1
  Mo  Mo9  1  0.666667  0.333333  0.436848  1
  Mo  Mo10  1  0.333333  0.666667  0.561193  1
  Ru  Ru11  1  0.333333  0.666667  0.936853  1
