# generated using pymatgen
data_PrNdPa2(GeRh)4
_symmetry_space_group_name_H-M   'P 1'
_cell_length_a   4.40023200
_cell_length_b   7.48185756
_cell_length_c   7.48943804
_cell_angle_alpha   93.34287775
_cell_angle_beta   90.00000000
_cell_angle_gamma   90.00000000
_symmetry_Int_Tables_number   1
_chemical_formula_structural   PrNdPa2(GeRh)4
_chemical_formula_sum   'Pr1 Nd1 Pa2 Ge4 Rh4'
_cell_volume   246.14705492
_cell_formula_units_Z   1
loop_
 _symmetry_equiv_pos_site_id
 _symmetry_equiv_pos_as_xyz
  1  'x, y, z'
loop_
 _atom_site_type_symbol
 _atom_site_label
 _atom_site_symmetry_multiplicity
 _atom_site_fract_x
 _atom_site_fract_y
 _atom_site_fract_z
 _atom_site_occupancy
  Pr  Pr0  1  0.250000  0.997426  0.768032  1
  Nd  Nd1  1  0.750000  0.002571  0.233612  1
  Pa  Pa2  1  0.250000  0.502967  0.696713  1
  Pa  Pa3  1  0.750000  0.497351  0.302293  1
  Ge  Ge4  1  0.250000  0.281901  0.087662  1
  Ge  Ge5  1  0.750000  0.717983  0.913206  1
  Ge  Ge6  1  0.250000  0.788055  0.393442  1
  Ge  Ge7  1  0.750000  0.213663  0.605385  1
  Rh  Rh8  1  0.750000  0.738438  0.568041  1
  Rh  Rh9  1  0.250000  0.260467  0.431224  1
  Rh  Rh10  1  0.750000  0.367643  0.940874  1
  Rh  Rh11  1  0.250000  0.631536  0.059516  1
