# generated using pymatgen
data_TbEr2Mg3Si2Pd
_symmetry_space_group_name_H-M   'P 1'
_cell_length_a   7.22750554
_cell_length_b   7.22750590
_cell_length_c   4.24976600
_cell_angle_alpha   90.00000000
_cell_angle_beta   90.00000000
_cell_angle_gamma   120.15417415
_symmetry_Int_Tables_number   1
_chemical_formula_structural   TbEr2Mg3Si2Pd
_chemical_formula_sum   'Tb1 Er2 Mg3 Si2 Pd1'
_cell_volume   191.95336777
_cell_formula_units_Z   1
loop_
 _symmetry_equiv_pos_site_id
 _symmetry_equiv_pos_as_xyz
  1  'x, y, z'
loop_
 _atom_site_type_symbol
 _atom_site_label
 _atom_site_symmetry_multiplicity
 _atom_site_fract_x
 _atom_site_fract_y
 _atom_site_fract_z
 _atom_site_occupancy
  Tb  Tb0  1  0.418613  0.418613  0.500000  1
  Er  Er1  1  0.581726  0.999913  0.500000  1
  Er  Er2  1  0.999913  0.581726  0.500000  1
  Mg  Mg3  1  0.756711  0.756711  0.000000  1
  Mg  Mg4  1  0.243656  0.999475  0.000000  1
  Mg  Mg5  1  0.999475  0.243656  0.000000  1
  Si  Si6  1  0.667449  0.333166  0.000000  1
  Si  Si7  1  0.333166  0.667449  0.000000  1
  Pd  Pd8  1  0.999291  0.999291  0.500000  1
