# generated using pymatgen
data_Al11MoRu12
_symmetry_space_group_name_H-M   'P 1'
_cell_length_a   4.25107900
_cell_length_b   6.00937800
_cell_length_c   12.72193700
_cell_angle_alpha   89.99988559
_cell_angle_beta   89.99997304
_cell_angle_gamma   89.99992372
_symmetry_Int_Tables_number   1
_chemical_formula_structural   Al11MoRu12
_chemical_formula_sum   'Al11 Mo1 Ru12'
_cell_volume   324.99893593
_cell_formula_units_Z   1
loop_
 _symmetry_equiv_pos_site_id
 _symmetry_equiv_pos_as_xyz
  1  'x, y, z'
loop_
 _atom_site_type_symbol
 _atom_site_label
 _atom_site_symmetry_multiplicity
 _atom_site_fract_x
 _atom_site_fract_y
 _atom_site_fract_z
 _atom_site_occupancy
  Al  Al0  1  0.499892  0.500007  0.169862  1
  Al  Al1  1  0.999879  0.999991  0.333995  1
  Al  Al2  1  0.500002  0.500011  0.499916  1
  Al  Al3  1  0.000123  0.999996  0.666014  1
  Al  Al4  1  0.500101  0.499997  0.830215  1
  Al  Al5  1  0.999998  0.500002  0.999942  1
  Al  Al6  1  0.499883  0.999992  0.168516  1
  Al  Al7  1  0.999875  0.500012  0.336030  1
  Al  Al8  1  0.499999  0.999984  0.499922  1
  Al  Al9  1  0.000138  0.500005  0.663980  1
  Al  Al10  1  0.500099  0.999999  0.831549  1
  Mo  Mo11  1  0.999998  0.000005  0.000070  1
  Ru  Ru12  1  0.500007  0.254942  0.000059  1
  Ru  Ru13  1  0.499987  0.745059  0.000062  1
  Ru  Ru14  1  0.999912  0.252180  0.166681  1
  Ru  Ru15  1  0.999911  0.747818  0.166684  1
  Ru  Ru16  1  0.499909  0.249515  0.333320  1
  Ru  Ru17  1  0.499889  0.750487  0.333316  1
  Ru  Ru18  1  0.000015  0.249171  0.500017  1
  Ru  Ru19  1  0.999982  0.750829  0.500019  1
  Ru  Ru20  1  0.500124  0.249497  0.666600  1
  Ru  Ru21  1  0.500128  0.750497  0.666596  1
  Ru  Ru22  1  0.000067  0.252007  0.833316  1
  Ru  Ru23  1  0.000068  0.747997  0.833319  1
