# generated using pymatgen
data_TbHo4(Cd2Ni)2
_symmetry_space_group_name_H-M   'P 1'
_cell_length_a   7.83756900
_cell_length_b   18.21650800
_cell_length_c   3.58156200
_cell_angle_alpha   90.00000000
_cell_angle_beta   90.00000000
_cell_angle_gamma   90.00000000
_symmetry_Int_Tables_number   1
_chemical_formula_structural   TbHo4(Cd2Ni)2
_chemical_formula_sum   'Tb2 Ho8 Cd8 Ni4'
_cell_volume   511.35084707
_cell_formula_units_Z   2
loop_
 _symmetry_equiv_pos_site_id
 _symmetry_equiv_pos_as_xyz
  1  'x, y, z'
loop_
 _atom_site_type_symbol
 _atom_site_label
 _atom_site_symmetry_multiplicity
 _atom_site_fract_x
 _atom_site_fract_y
 _atom_site_fract_z
 _atom_site_occupancy
  Tb  Tb0  1  0.500000  0.500000  0.000000  1
  Tb  Tb1  1  0.000000  0.000000  0.000000  1
  Ho  Ho2  1  0.759495  0.278734  0.000000  1
  Ho  Ho3  1  0.240505  0.721266  0.000000  1
  Ho  Ho4  1  0.740505  0.778734  0.000000  1
  Ho  Ho5  1  0.259495  0.221266  0.000000  1
  Ho  Ho6  1  0.620816  0.089039  0.000000  1
  Ho  Ho7  1  0.379184  0.910961  0.000000  1
  Ho  Ho8  1  0.879184  0.589039  0.000000  1
  Ho  Ho9  1  0.120816  0.410961  0.000000  1
  Cd  Cd10  1  0.705473  0.930857  0.500000  1
  Cd  Cd11  1  0.294527  0.069143  0.500000  1
  Cd  Cd12  1  0.794527  0.430857  0.500000  1
  Cd  Cd13  1  0.205473  0.569143  0.500000  1
  Cd  Cd14  1  0.560552  0.651726  0.500000  1
  Cd  Cd15  1  0.439448  0.348274  0.500000  1
  Cd  Cd16  1  0.939448  0.151726  0.500000  1
  Cd  Cd17  1  0.060552  0.848274  0.500000  1
  Ni  Ni18  1  0.539845  0.196335  0.500000  1
  Ni  Ni19  1  0.460155  0.803665  0.500000  1
  Ni  Ni20  1  0.960155  0.696335  0.500000  1
  Ni  Ni21  1  0.039845  0.303665  0.500000  1
