# generated using pymatgen
data_Pa2Ga8Ru
_symmetry_space_group_name_H-M   'P 1'
_cell_length_a   4.34280700
_cell_length_b   4.34280700
_cell_length_c   11.18389500
_cell_angle_alpha   90.00000000
_cell_angle_beta   90.00000000
_cell_angle_gamma   90.00000000
_symmetry_Int_Tables_number   1
_chemical_formula_structural   Pa2Ga8Ru
_chemical_formula_sum   'Pa2 Ga8 Ru1'
_cell_volume   210.92795370
_cell_formula_units_Z   1
loop_
 _symmetry_equiv_pos_site_id
 _symmetry_equiv_pos_as_xyz
  1  'x, y, z'
loop_
 _atom_site_type_symbol
 _atom_site_label
 _atom_site_symmetry_multiplicity
 _atom_site_fract_x
 _atom_site_fract_y
 _atom_site_fract_z
 _atom_site_occupancy
  Pa  Pa0  1  0.000000  0.000000  0.694061  1
  Pa  Pa1  1  0.000000  0.000000  0.305939  1
  Ga  Ga2  1  0.000000  0.500000  0.500000  1
  Ga  Ga3  1  0.500000  0.000000  0.500000  1
  Ga  Ga4  1  0.500000  0.500000  0.692913  1
  Ga  Ga5  1  0.500000  0.500000  0.307087  1
  Ga  Ga6  1  0.000000  0.500000  0.878946  1
  Ga  Ga7  1  0.500000  0.000000  0.878946  1
  Ga  Ga8  1  0.000000  0.500000  0.121054  1
  Ga  Ga9  1  0.500000  0.000000  0.121054  1
  Ru  Ru10  1  0.000000  0.000000  0.000000  1
