# generated using pymatgen
data_Ac2GeBr2
_symmetry_space_group_name_H-M   'P 1'
_cell_length_a   4.63338000
_cell_length_b   4.63337969
_cell_length_c   11.04252800
_cell_angle_alpha   90.00000000
_cell_angle_beta   90.00000000
_cell_angle_gamma   119.99998796
_symmetry_Int_Tables_number   1
_chemical_formula_structural   Ac2GeBr2
_chemical_formula_sum   'Ac2 Ge1 Br2'
_cell_volume   205.30286192
_cell_formula_units_Z   1
loop_
 _symmetry_equiv_pos_site_id
 _symmetry_equiv_pos_as_xyz
  1  'x, y, z'
loop_
 _atom_site_type_symbol
 _atom_site_label
 _atom_site_symmetry_multiplicity
 _atom_site_fract_x
 _atom_site_fract_y
 _atom_site_fract_z
 _atom_site_occupancy
  Ac  Ac0  1  0.333334  0.666667  0.341970  1
  Ac  Ac1  1  0.666666  0.333332  0.658030  1
  Ge  Ge2  1  0.000000  0.000000  0.500000  1
  Br  Br3  1  0.666666  0.333332  0.177821  1
  Br  Br4  1  0.333334  0.666667  0.822179  1
