# generated using pymatgen
data_TmLu3Al5Tc3
_symmetry_space_group_name_H-M   'P 1'
_cell_length_a   5.46207302
_cell_length_b   5.48169619
_cell_length_c   8.72081304
_cell_angle_alpha   89.99999871
_cell_angle_beta   89.99101659
_cell_angle_gamma   120.11890524
_symmetry_Int_Tables_number   1
_chemical_formula_structural   TmLu3Al5Tc3
_chemical_formula_sum   'Tm1 Lu3 Al5 Tc3'
_cell_volume   225.85954979
_cell_formula_units_Z   1
loop_
 _symmetry_equiv_pos_site_id
 _symmetry_equiv_pos_as_xyz
  1  'x, y, z'
loop_
 _atom_site_type_symbol
 _atom_site_label
 _atom_site_symmetry_multiplicity
 _atom_site_fract_x
 _atom_site_fract_y
 _atom_site_fract_z
 _atom_site_occupancy
  Tm  Tm0  1  0.336055  0.668028  0.443554  1
  Lu  Lu1  1  0.665385  0.332693  0.555156  1
  Lu  Lu2  1  0.665427  0.332713  0.944901  1
  Lu  Lu3  1  0.336138  0.668069  0.056330  1
  Al  Al4  1  0.835244  0.162957  0.249908  1
  Al  Al5  1  0.835244  0.672287  0.249908  1
  Al  Al6  1  0.323725  0.161862  0.249953  1
  Al  Al7  1  0.186183  0.842719  0.750106  1
  Al  Al8  1  0.186183  0.343464  0.750106  1
  Tc  Tc9  1  0.977370  0.988685  0.510048  1
  Tc  Tc10  1  0.977364  0.988682  0.990043  1
  Tc  Tc11  1  0.675683  0.837841  0.749986  1
