# generated using pymatgen
data_Tm20IrOs4Rh7
_symmetry_space_group_name_H-M   'P 1'
_cell_length_a   10.73533511
_cell_length_b   10.73533511
_cell_length_c   6.32980300
_cell_angle_alpha   90.00238484
_cell_angle_beta   90.00238484
_cell_angle_gamma   90.01650235
_symmetry_Int_Tables_number   1
_chemical_formula_structural   Tm20IrOs4Rh7
_chemical_formula_sum   'Tm20 Ir1 Os4 Rh7'
_cell_volume   729.49343367
_cell_formula_units_Z   1
loop_
 _symmetry_equiv_pos_site_id
 _symmetry_equiv_pos_as_xyz
  1  'x, y, z'
loop_
 _atom_site_type_symbol
 _atom_site_label
 _atom_site_symmetry_multiplicity
 _atom_site_fract_x
 _atom_site_fract_y
 _atom_site_fract_z
 _atom_site_occupancy
  Tm  Tm0  1  0.294313  0.085965  0.375764  1
  Tm  Tm1  1  0.294444  0.912959  0.875348  1
  Tm  Tm2  1  0.705688  0.086004  0.875511  1
  Tm  Tm3  1  0.705631  0.913967  0.375497  1
  Tm  Tm4  1  0.584900  0.793833  0.875298  1
  Tm  Tm5  1  0.586051  0.205583  0.375851  1
  Tm  Tm6  1  0.413578  0.793742  0.376478  1
  Tm  Tm7  1  0.413840  0.205576  0.875477  1
  Tm  Tm8  1  0.206167  0.415100  0.624702  1
  Tm  Tm9  1  0.206258  0.586422  0.123522  1
  Tm  Tm10  1  0.794417  0.413949  0.124149  1
  Tm  Tm11  1  0.794424  0.586160  0.624523  1
  Tm  Tm12  1  0.914035  0.705687  0.124236  1
  Tm  Tm13  1  0.913996  0.294312  0.624489  1
  Tm  Tm14  1  0.087041  0.705556  0.624652  1
  Tm  Tm15  1  0.086033  0.294369  0.124503  1
  Tm  Tm16  1  0.999978  0.000030  0.500035  1
  Tm  Tm17  1  0.999970  0.000022  0.999965  1
  Tm  Tm18  1  0.499852  0.500258  0.999822  1
  Tm  Tm19  1  0.499742  0.500148  0.500178  1
  Ir  Ir20  1  0.347891  0.652109  0.750000  1
  Os  Os21  1  0.500220  0.000422  0.123530  1
  Os  Os22  1  0.500257  0.000455  0.623309  1
  Os  Os23  1  0.999545  0.499743  0.876691  1
  Os  Os24  1  0.999578  0.499780  0.376470  1
  Rh  Rh25  1  0.847883  0.152117  0.250000  1
  Rh  Rh26  1  0.847955  0.847963  0.749921  1
  Rh  Rh27  1  0.152037  0.152045  0.750079  1
  Rh  Rh28  1  0.151746  0.848254  0.250000  1
  Rh  Rh29  1  0.652092  0.347908  0.750000  1
  Rh  Rh30  1  0.652520  0.652081  0.250118  1
  Rh  Rh31  1  0.347919  0.347480  0.249882  1
