# generated using pymatgen
data_KTe8Rh5
_symmetry_space_group_name_H-M   'P 1'
_cell_length_a   10.49203919
_cell_length_b   10.49203833
_cell_length_c   9.03414211
_cell_angle_alpha   76.08313868
_cell_angle_beta   76.08314004
_cell_angle_gamma   22.34844106
_symmetry_Int_Tables_number   1
_chemical_formula_structural   KTe8Rh5
_chemical_formula_sum   'K1 Te8 Rh5'
_cell_volume   366.60836567
_cell_formula_units_Z   1
loop_
 _symmetry_equiv_pos_site_id
 _symmetry_equiv_pos_as_xyz
  1  'x, y, z'
loop_
 _atom_site_type_symbol
 _atom_site_label
 _atom_site_symmetry_multiplicity
 _atom_site_fract_x
 _atom_site_fract_y
 _atom_site_fract_z
 _atom_site_occupancy
  K  K0  1  0.500000  0.500000  0.500000  1
  Te  Te1  1  0.570362  0.570362  0.844842  1
  Te  Te2  1  0.429638  0.429638  0.155158  1
  Te  Te3  1  0.090374  0.090374  0.168453  1
  Te  Te4  1  0.909626  0.909626  0.831547  1
  Te  Te5  1  0.177521  0.177521  0.515566  1
  Te  Te6  1  0.822479  0.822479  0.484434  1
  Te  Te7  1  0.236531  0.236531  0.850434  1
  Te  Te8  1  0.763469  0.763469  0.149566  1
  Rh  Rh9  1  0.000000  0.000000  0.000000  1
  Rh  Rh10  1  0.340048  0.340048  0.983056  1
  Rh  Rh11  1  0.659952  0.659952  0.016944  1
  Rh  Rh12  1  0.295480  0.295480  0.316640  1
  Rh  Rh13  1  0.704520  0.704520  0.683360  1
