# generated using pymatgen
data_NdBi(SeO3)3
_symmetry_space_group_name_H-M   'P 1'
_cell_length_a   7.34245112
_cell_length_b   8.39411590
_cell_length_c   9.35488390
_cell_angle_alpha   70.34942464
_cell_angle_beta   69.96122732
_cell_angle_gamma   66.12994298
_symmetry_Int_Tables_number   1
_chemical_formula_structural   NdBi(SeO3)3
_chemical_formula_sum   'Nd2 Bi2 Se6 O18'
_cell_volume   482.05316500
_cell_formula_units_Z   2
loop_
 _symmetry_equiv_pos_site_id
 _symmetry_equiv_pos_as_xyz
  1  'x, y, z'
loop_
 _atom_site_type_symbol
 _atom_site_label
 _atom_site_symmetry_multiplicity
 _atom_site_fract_x
 _atom_site_fract_y
 _atom_site_fract_z
 _atom_site_occupancy
  Nd  Nd0  1  0.334223  0.730633  0.588641  1
  Nd  Nd1  1  0.665777  0.269367  0.411359  1
  Bi  Bi2  1  0.740154  0.734371  0.807770  1
  Bi  Bi3  1  0.259846  0.265629  0.192230  1
  Se  Se4  1  0.428145  0.775095  0.199566  1
  Se  Se5  1  0.571855  0.224905  0.800434  1
  Se  Se6  1  0.150172  0.748236  0.963977  1
  Se  Se7  1  0.849828  0.251764  0.036023  1
  Se  Se8  1  0.887433  0.759335  0.420687  1
  Se  Se9  1  0.112567  0.240665  0.579313  1
  O  O10  1  0.647910  0.792924  0.061293  1
  O  O11  1  0.352090  0.207076  0.938707  1
  O  O12  1  0.362667  0.935301  0.305091  1
  O  O13  1  0.637333  0.064699  0.694909  1
  O  O14  1  0.511440  0.594864  0.348923  1
  O  O15  1  0.488560  0.405136  0.651077  1
  O  O16  1  0.164209  0.573282  0.124128  1
  O  O17  1  0.835791  0.426718  0.875872  1
  O  O18  1  0.401037  0.706005  0.849910  1
  O  O19  1  0.598963  0.293995  0.150090  1
  O  O20  1  0.339129  0.250779  0.438118  1
  O  O21  1  0.660871  0.749221  0.561882  1
  O  O22  1  0.971059  0.291851  0.442726  1
  O  O23  1  0.028941  0.708149  0.557274  1
  O  O24  1  0.153775  0.018997  0.653575  1
  O  O25  1  0.846225  0.981003  0.346425  1
  O  O26  1  0.932533  0.308600  0.161130  1
  O  O27  1  0.067467  0.691400  0.838870  1
