# generated using pymatgen
data_Th4Cd2CoCu3
_symmetry_space_group_name_H-M   'P 1'
_cell_length_a   7.76617660
_cell_length_b   7.76617694
_cell_length_c   3.74008100
_cell_angle_alpha   90.00000000
_cell_angle_beta   90.00000000
_cell_angle_gamma   90.28110927
_symmetry_Int_Tables_number   1
_chemical_formula_structural   Th4Cd2CoCu3
_chemical_formula_sum   'Th4 Cd2 Co1 Cu3'
_cell_volume   225.57466643
_cell_formula_units_Z   1
loop_
 _symmetry_equiv_pos_site_id
 _symmetry_equiv_pos_as_xyz
  1  'x, y, z'
loop_
 _atom_site_type_symbol
 _atom_site_label
 _atom_site_symmetry_multiplicity
 _atom_site_fract_x
 _atom_site_fract_y
 _atom_site_fract_z
 _atom_site_occupancy
  Th  Th0  1  0.671534  0.171534  0.500000  1
  Th  Th1  1  0.309492  0.809492  0.500000  1
  Th  Th2  1  0.177643  0.344315  0.500000  1
  Th  Th3  1  0.844315  0.677643  0.500000  1
  Cd  Cd4  1  0.001702  0.008731  0.000000  1
  Cd  Cd5  1  0.508731  0.501702  0.000000  1
  Co  Co6  1  0.120011  0.620011  0.000000  1
  Cu  Cu7  1  0.876012  0.376012  0.000000  1
  Cu  Cu8  1  0.615453  0.875106  0.000000  1
  Cu  Cu9  1  0.375106  0.115453  0.000000  1
