# generated using pymatgen
data_ErTm(B4Ir)2
_symmetry_space_group_name_H-M   'P 1'
_cell_length_a   3.55701400
_cell_length_b   5.94939204
_cell_length_c   11.54333586
_cell_angle_alpha   89.97353110
_cell_angle_beta   90.00000000
_cell_angle_gamma   90.00000000
_symmetry_Int_Tables_number   1
_chemical_formula_structural   ErTm(B4Ir)2
_chemical_formula_sum   'Er2 Tm2 B16 Ir4'
_cell_volume   244.28086445
_cell_formula_units_Z   2
loop_
 _symmetry_equiv_pos_site_id
 _symmetry_equiv_pos_as_xyz
  1  'x, y, z'
loop_
 _atom_site_type_symbol
 _atom_site_label
 _atom_site_symmetry_multiplicity
 _atom_site_fract_x
 _atom_site_fract_y
 _atom_site_fract_z
 _atom_site_occupancy
  Er  Er0  1  0.500000  0.131205  0.351373  1
  Er  Er1  1  0.500000  0.868795  0.648627  1
  Tm  Tm2  1  0.500000  0.631384  0.148605  1
  Tm  Tm3  1  0.500000  0.368616  0.851395  1
  B  B4  1  0.000000  0.975008  0.192726  1
  B  B5  1  0.000000  0.024992  0.807274  1
  B  B6  1  0.000000  0.475371  0.306911  1
  B  B7  1  0.000000  0.524629  0.693089  1
  B  B8  1  0.000000  0.791644  0.311840  1
  B  B9  1  0.000000  0.208356  0.688160  1
  B  B10  1  0.000000  0.292083  0.187851  1
  B  B11  1  0.000000  0.707917  0.812149  1
  B  B12  1  0.000000  0.864252  0.469966  1
  B  B13  1  0.000000  0.135748  0.530034  1
  B  B14  1  0.000000  0.364614  0.029895  1
  B  B15  1  0.000000  0.635386  0.970105  1
  B  B16  1  0.000000  0.886805  0.046875  1
  B  B17  1  0.000000  0.113195  0.953125  1
  B  B18  1  0.000000  0.387109  0.453174  1
  B  B19  1  0.000000  0.612891  0.546826  1
  Ir  Ir20  1  0.500000  0.643778  0.402756  1
  Ir  Ir21  1  0.500000  0.356222  0.597244  1
  Ir  Ir22  1  0.500000  0.144428  0.096845  1
  Ir  Ir23  1  0.500000  0.855572  0.903155  1
