# generated using pymatgen
data_LiVMo2O9
_symmetry_space_group_name_H-M   'P 1'
_cell_length_a   5.54626200
_cell_length_b   7.71483000
_cell_length_c   9.22105700
_cell_angle_alpha   90.00000000
_cell_angle_beta   90.00000000
_cell_angle_gamma   90.00000000
_symmetry_Int_Tables_number   1
_chemical_formula_structural   LiVMo2O9
_chemical_formula_sum   'Li2 V2 Mo4 O18'
_cell_volume   394.55490666
_cell_formula_units_Z   2
loop_
 _symmetry_equiv_pos_site_id
 _symmetry_equiv_pos_as_xyz
  1  'x, y, z'
loop_
 _atom_site_type_symbol
 _atom_site_label
 _atom_site_symmetry_multiplicity
 _atom_site_fract_x
 _atom_site_fract_y
 _atom_site_fract_z
 _atom_site_occupancy
  Li  Li0  1  0.000000  0.500000  0.392847  1
  Li  Li1  1  0.500000  0.000000  0.607153  1
  V  V2  1  0.000000  0.000000  0.041840  1
  V  V3  1  0.500000  0.500000  0.958160  1
  Mo  Mo4  1  0.500000  0.207149  0.261633  1
  Mo  Mo5  1  0.500000  0.792851  0.261633  1
  Mo  Mo6  1  0.000000  0.707149  0.738367  1
  Mo  Mo7  1  0.000000  0.292851  0.738367  1
  O  O8  1  0.000000  0.812761  0.935343  1
  O  O9  1  0.254248  0.316999  0.332382  1
  O  O10  1  0.754248  0.183001  0.667618  1
  O  O11  1  0.245752  0.816999  0.667618  1
  O  O12  1  0.000000  0.187239  0.935343  1
  O  O13  1  0.754248  0.816999  0.667618  1
  O  O14  1  0.745752  0.683001  0.332382  1
  O  O15  1  0.245752  0.183001  0.667618  1
  O  O16  1  0.240164  0.500000  0.852435  1
  O  O17  1  0.259836  0.000000  0.147565  1
  O  O18  1  0.500000  0.000000  0.385300  1
  O  O19  1  0.745752  0.316999  0.332382  1
  O  O20  1  0.500000  0.687239  0.064657  1
  O  O21  1  0.500000  0.312761  0.064657  1
  O  O22  1  0.759836  0.500000  0.852435  1
  O  O23  1  0.000000  0.500000  0.614700  1
  O  O24  1  0.254248  0.683001  0.332382  1
  O  O25  1  0.740164  0.000000  0.147565  1
