# generated using pymatgen
data_Tb3Zn3SiAgGe
_symmetry_space_group_name_H-M   'P 1'
_cell_length_a   6.95483200
_cell_length_b   6.95483183
_cell_length_c   4.33402800
_cell_angle_alpha   90.00000000
_cell_angle_beta   90.00000000
_cell_angle_gamma   120.00000079
_symmetry_Int_Tables_number   1
_chemical_formula_structural   Tb3Zn3SiAgGe
_chemical_formula_sum   'Tb3 Zn3 Si1 Ag1 Ge1'
_cell_volume   181.54973447
_cell_formula_units_Z   1
loop_
 _symmetry_equiv_pos_site_id
 _symmetry_equiv_pos_as_xyz
  1  'x, y, z'
loop_
 _atom_site_type_symbol
 _atom_site_label
 _atom_site_symmetry_multiplicity
 _atom_site_fract_x
 _atom_site_fract_y
 _atom_site_fract_z
 _atom_site_occupancy
  Tb  Tb0  1  0.574966  0.001641  0.000000  1
  Tb  Tb1  1  0.998359  0.573325  0.000000  1
  Tb  Tb2  1  0.426675  0.425034  0.000000  1
  Zn  Zn3  1  0.248292  0.006108  0.500000  1
  Zn  Zn4  1  0.993892  0.242184  0.500000  1
  Zn  Zn5  1  0.757816  0.751708  0.500000  1
  Si  Si6  1  0.666667  0.333333  0.500000  1
  Ag  Ag7  1  0.000000  0.000000  0.000000  1
  Ge  Ge8  1  0.333333  0.666667  0.500000  1
