# generated using pymatgen
data_K3Ba3InAs4
_symmetry_space_group_name_H-M   'P 1'
_cell_length_a   10.68040000
_cell_length_b   10.68040011
_cell_length_c   8.04109200
_cell_angle_alpha   90.00000000
_cell_angle_beta   90.00000000
_cell_angle_gamma   119.99998728
_symmetry_Int_Tables_number   1
_chemical_formula_structural   K3Ba3InAs4
_chemical_formula_sum   'K6 Ba6 In2 As8'
_cell_volume   794.36620380
_cell_formula_units_Z   2
loop_
 _symmetry_equiv_pos_site_id
 _symmetry_equiv_pos_as_xyz
  1  'x, y, z'
loop_
 _atom_site_type_symbol
 _atom_site_label
 _atom_site_symmetry_multiplicity
 _atom_site_fract_x
 _atom_site_fract_y
 _atom_site_fract_z
 _atom_site_occupancy
  K  K0  1  0.136160  0.863840  0.173713  1
  K  K1  1  0.272320  0.136160  0.673713  1
  K  K2  1  0.863840  0.727680  0.673713  1
  K  K3  1  0.136160  0.272320  0.173713  1
  K  K4  1  0.727680  0.863840  0.173713  1
  K  K5  1  0.863840  0.136160  0.673713  1
  Ba  Ba6  1  0.949230  0.474615  0.999678  1
  Ba  Ba7  1  0.525385  0.050770  0.999678  1
  Ba  Ba8  1  0.474615  0.949230  0.499678  1
  Ba  Ba9  1  0.050770  0.525385  0.499678  1
  Ba  Ba10  1  0.525385  0.474615  0.999678  1
  Ba  Ba11  1  0.474615  0.525385  0.499678  1
  In  In12  1  0.666667  0.333333  0.378966  1
  In  In13  1  0.333333  0.666667  0.878966  1
  As  As14  1  0.333333  0.666667  0.225275  1
  As  As15  1  0.805855  0.194145  0.271196  1
  As  As16  1  0.611709  0.805855  0.771196  1
  As  As17  1  0.194145  0.388291  0.771196  1
  As  As18  1  0.805855  0.611709  0.271196  1
  As  As19  1  0.666667  0.333333  0.725275  1
  As  As20  1  0.388291  0.194145  0.271196  1
  As  As21  1  0.194145  0.805855  0.771196  1
