# generated using pymatgen
data_Co8Mo13P(WN2)2
_symmetry_space_group_name_H-M   'P 1'
_cell_length_a   7.99568344
_cell_length_b   7.98962451
_cell_length_c   7.88406929
_cell_angle_alpha   59.54128965
_cell_angle_beta   59.53057210
_cell_angle_gamma   59.97490650
_symmetry_Int_Tables_number   1
_chemical_formula_structural   Co8Mo13P(WN2)2
_chemical_formula_sum   'Co8 Mo13 P1 W2 N4'
_cell_volume   353.55251946
_cell_formula_units_Z   1
loop_
 _symmetry_equiv_pos_site_id
 _symmetry_equiv_pos_as_xyz
  1  'x, y, z'
loop_
 _atom_site_type_symbol
 _atom_site_label
 _atom_site_symmetry_multiplicity
 _atom_site_fract_x
 _atom_site_fract_y
 _atom_site_fract_z
 _atom_site_occupancy
  Co  Co0  1  0.245360  0.928366  0.897596  1
  Co  Co1  1  0.928461  0.245611  0.897468  1
  Co  Co2  1  0.928677  0.928366  0.897596  1
  Co  Co3  1  0.920832  0.920219  0.238116  1
  Co  Co4  1  0.004640  0.321634  0.352404  1
  Co  Co5  1  0.329168  0.329781  0.011884  1
  Co  Co6  1  0.321539  0.004389  0.352532  1
  Co  Co7  1  0.321323  0.321634  0.352404  1
  Mo  Mo8  1  0.683648  0.314466  0.687321  1
  Mo  Mo9  1  0.555737  0.556020  0.945781  1
  Mo  Mo10  1  0.566352  0.935534  0.562679  1
  Mo  Mo11  1  0.935434  0.935534  0.562679  1
  Mo  Mo12  1  0.935690  0.566342  0.562278  1
  Mo  Mo13  1  0.942462  0.556020  0.945781  1
  Mo  Mo14  1  0.694079  0.307474  0.304369  1
  Mo  Mo15  1  0.307538  0.693980  0.304219  1
  Mo  Mo16  1  0.314566  0.314466  0.687321  1
  Mo  Mo17  1  0.314310  0.683658  0.687722  1
  Mo  Mo18  1  0.694263  0.693980  0.304219  1
  Mo  Mo19  1  0.125000  0.625000  0.125000  1
  Mo  Mo20  1  0.555921  0.942526  0.945631  1
  P  P21  1  0.125000  0.125000  0.625000  1
  W  W22  1  0.625000  0.125000  0.125000  1
  W  W23  1  0.125000  0.125000  0.125000  1
  N  N24  1  0.625000  0.625000  0.625000  1
  N  N25  1  0.125000  0.625000  0.625000  1
  N  N26  1  0.625000  0.125000  0.625000  1
  N  N27  1  0.625000  0.625000  0.125000  1
