# generated using pymatgen
data_TbTa2Nb3(B2Ru5)2
_symmetry_space_group_name_H-M   'P 1'
_cell_length_a   9.54575557
_cell_length_b   9.54575503
_cell_length_c   3.05015500
_cell_angle_alpha   90.00000000
_cell_angle_beta   90.00000000
_cell_angle_gamma   90.31606738
_symmetry_Int_Tables_number   1
_chemical_formula_structural   TbTa2Nb3(B2Ru5)2
_chemical_formula_sum   'Tb1 Ta2 Nb3 B4 Ru10'
_cell_volume   277.93029984
_cell_formula_units_Z   1
loop_
 _symmetry_equiv_pos_site_id
 _symmetry_equiv_pos_as_xyz
  1  'x, y, z'
loop_
 _atom_site_type_symbol
 _atom_site_label
 _atom_site_symmetry_multiplicity
 _atom_site_fract_x
 _atom_site_fract_y
 _atom_site_fract_z
 _atom_site_occupancy
  Tb  Tb0  1  0.824743  0.675257  0.000000  1
  Ta  Ta1  1  0.500977  0.500518  0.000000  1
  Ta  Ta2  1  0.999482  0.999023  0.000000  1
  Nb  Nb3  1  0.178357  0.321643  0.000000  1
  Nb  Nb4  1  0.324406  0.823665  0.000000  1
  Nb  Nb5  1  0.676335  0.175594  0.000000  1
  B  B6  1  0.617926  0.882074  0.000000  1
  B  B7  1  0.376962  0.123038  0.000000  1
  B  B8  1  0.123852  0.619495  0.000000  1
  B  B9  1  0.880505  0.376148  0.000000  1
  Ru  Ru10  1  0.558201  0.724925  0.500000  1
  Ru  Ru11  1  0.427034  0.283229  0.500000  1
  Ru  Ru12  1  0.082151  0.782593  0.500000  1
  Ru  Ru13  1  0.930570  0.215766  0.500000  1
  Ru  Ru14  1  0.284234  0.569430  0.500000  1
  Ru  Ru15  1  0.717407  0.417849  0.500000  1
  Ru  Ru16  1  0.216771  0.072966  0.500000  1
  Ru  Ru17  1  0.775075  0.941799  0.500000  1
  Ru  Ru18  1  0.495742  0.004258  0.500000  1
  Ru  Ru19  1  0.009272  0.490728  0.500000  1
