# generated using pymatgen
data_NdY(NiC)2
_symmetry_space_group_name_H-M   'P 1'
_cell_length_a   3.65323300
_cell_length_b   3.65323300
_cell_length_c   7.14054300
_cell_angle_alpha   90.00000000
_cell_angle_beta   90.00000000
_cell_angle_gamma   90.00000000
_symmetry_Int_Tables_number   1
_chemical_formula_structural   NdY(NiC)2
_chemical_formula_sum   'Nd1 Y1 Ni2 C2'
_cell_volume   95.29848199
_cell_formula_units_Z   1
loop_
 _symmetry_equiv_pos_site_id
 _symmetry_equiv_pos_as_xyz
  1  'x, y, z'
loop_
 _atom_site_type_symbol
 _atom_site_label
 _atom_site_symmetry_multiplicity
 _atom_site_fract_x
 _atom_site_fract_y
 _atom_site_fract_z
 _atom_site_occupancy
  Nd  Nd0  1  0.000000  0.000000  0.250000  1
  Y  Y1  1  0.000000  0.000000  0.750000  1
  Ni  Ni2  1  0.500000  0.500000  0.987629  1
  Ni  Ni3  1  0.500000  0.500000  0.512371  1
  C  C4  1  0.500000  0.000000  0.509061  1
  C  C5  1  0.000000  0.500000  0.990939  1
