# generated using pymatgen
data_Nd3Ir5Rh4
_symmetry_space_group_name_H-M   'P 1'
_cell_length_a   5.36149794
_cell_length_b   5.36504589
_cell_length_c   17.69616241
_cell_angle_alpha   89.99999905
_cell_angle_beta   90.05178101
_cell_angle_gamma   120.02189399
_symmetry_Int_Tables_number   1
_chemical_formula_structural   Nd3Ir5Rh4
_chemical_formula_sum   'Nd6 Ir10 Rh8'
_cell_volume   440.73061478
_cell_formula_units_Z   2
loop_
 _symmetry_equiv_pos_site_id
 _symmetry_equiv_pos_as_xyz
  1  'x, y, z'
loop_
 _atom_site_type_symbol
 _atom_site_label
 _atom_site_symmetry_multiplicity
 _atom_site_fract_x
 _atom_site_fract_y
 _atom_site_fract_z
 _atom_site_occupancy
  Nd  Nd0  1  0.333245  0.666623  0.541576  1
  Nd  Nd1  1  0.666703  0.333351  0.041242  1
  Nd  Nd2  1  0.665630  0.332814  0.458081  1
  Nd  Nd3  1  0.333540  0.666770  0.958601  1
  Nd  Nd4  1  0.333426  0.666713  0.750096  1
  Nd  Nd5  1  0.666665  0.333332  0.249451  1
  Ir  Ir6  1  0.167098  0.333578  0.128231  1
  Ir  Ir7  1  0.833190  0.666071  0.627540  1
  Ir  Ir8  1  0.665827  0.832913  0.127787  1
  Ir  Ir9  1  0.167098  0.833520  0.128231  1
  Ir  Ir10  1  0.833190  0.167121  0.627540  1
  Ir  Ir11  1  0.333907  0.166954  0.627649  1
  Ir  Ir12  1  0.832893  0.666105  0.872185  1
  Ir  Ir13  1  0.832893  0.166790  0.872185  1
  Ir  Ir14  1  0.334048  0.167024  0.872179  1
  Ir  Ir15  1  0.668524  0.834262  0.372180  1
  Rh  Rh16  1  0.168403  0.833933  0.372848  1
  Rh  Rh17  1  0.168403  0.334469  0.372848  1
  Rh  Rh18  1  0.997745  0.998873  0.249916  1
  Rh  Rh19  1  0.000149  0.000074  0.749868  1
  Rh  Rh20  1  0.334209  0.667105  0.250238  1
  Rh  Rh21  1  0.666694  0.333347  0.749802  1
  Rh  Rh22  1  0.000226  0.000113  0.999764  1
  Rh  Rh23  1  0.996293  0.998146  0.499962  1
