# generated using pymatgen
data_SmY5(WO7)2
_symmetry_space_group_name_H-M   'P 1'
_cell_length_a   6.49933851
_cell_length_b   6.49933507
_cell_length_c   7.53509777
_cell_angle_alpha   89.93588015
_cell_angle_beta   90.06412155
_cell_angle_gamma   109.21211487
_symmetry_Int_Tables_number   1
_chemical_formula_structural   SmY5(WO7)2
_chemical_formula_sum   'Sm1 Y5 W2 O14'
_cell_volume   300.56588829
_cell_formula_units_Z   1
loop_
 _symmetry_equiv_pos_site_id
 _symmetry_equiv_pos_as_xyz
  1  'x, y, z'
loop_
 _atom_site_type_symbol
 _atom_site_label
 _atom_site_symmetry_multiplicity
 _atom_site_fract_x
 _atom_site_fract_y
 _atom_site_fract_z
 _atom_site_occupancy
  Sm  Sm0  1  0.508605  0.508605  0.250000  1
  Y  Y1  1  0.481029  0.481029  0.750000  1
  Y  Y2  1  0.998068  0.467514  0.498760  1
  Y  Y3  1  0.533376  0.001027  0.503783  1
  Y  Y4  1  0.001027  0.533376  0.996217  1
  Y  Y5  1  0.467514  0.998068  0.001240  1
  W  W6  1  0.000490  0.000490  0.250000  1
  W  W7  1  0.999604  0.999604  0.750000  1
  O  O8  1  0.070791  0.319939  0.218346  1
  O  O9  1  0.682833  0.934323  0.781961  1
  O  O10  1  0.934324  0.682833  0.718039  1
  O  O11  1  0.319939  0.070792  0.281654  1
  O  O12  1  0.676160  0.922281  0.222543  1
  O  O13  1  0.079794  0.324436  0.777422  1
  O  O14  1  0.324436  0.079795  0.722578  1
  O  O15  1  0.922282  0.676160  0.277457  1
  O  O16  1  0.366931  0.632524  0.504639  1
  O  O17  1  0.632525  0.366932  0.995361  1
  O  O18  1  0.362152  0.637622  0.995157  1
  O  O19  1  0.637622  0.362152  0.504843  1
  O  O20  1  0.927046  0.073452  0.499648  1
  O  O21  1  0.073452  0.927046  0.000352  1
