# generated using pymatgen
data_TbDyPa2(B4Os)4
_symmetry_space_group_name_H-M   'P 1'
_cell_length_a   5.98705419
_cell_length_b   11.60506396
_cell_length_c   3.58616200
_cell_angle_alpha   90.00000000
_cell_angle_beta   90.00000000
_cell_angle_gamma   89.91441761
_symmetry_Int_Tables_number   1
_chemical_formula_structural   TbDyPa2(B4Os)4
_chemical_formula_sum   'Tb1 Dy1 Pa2 B16 Os4'
_cell_volume   249.16678426
_cell_formula_units_Z   1
loop_
 _symmetry_equiv_pos_site_id
 _symmetry_equiv_pos_as_xyz
  1  'x, y, z'
loop_
 _atom_site_type_symbol
 _atom_site_label
 _atom_site_symmetry_multiplicity
 _atom_site_fract_x
 _atom_site_fract_y
 _atom_site_fract_z
 _atom_site_occupancy
  Tb  Tb0  1  0.871455  0.852120  0.000000  1
  Dy  Dy1  1  0.128562  0.147874  0.000000  1
  Pa  Pa2  1  0.628451  0.349181  0.000000  1
  Pa  Pa3  1  0.371557  0.650782  0.000000  1
  B  B4  1  0.789304  0.186479  0.500000  1
  B  B5  1  0.210986  0.813529  0.500000  1
  B  B6  1  0.289769  0.312598  0.500000  1
  B  B7  1  0.710159  0.687286  0.500000  1
  B  B8  1  0.862985  0.031254  0.500000  1
  B  B9  1  0.137186  0.968965  0.500000  1
  B  B10  1  0.365748  0.467772  0.500000  1
  B  B11  1  0.634250  0.532224  0.500000  1
  B  B12  1  0.887082  0.453617  0.500000  1
  B  B13  1  0.112924  0.546375  0.500000  1
  B  B14  1  0.386448  0.045435  0.500000  1
  B  B15  1  0.613207  0.954717  0.500000  1
  B  B16  1  0.972909  0.308394  0.500000  1
  B  B17  1  0.027184  0.691450  0.500000  1
  B  B18  1  0.470945  0.190099  0.500000  1
  B  B19  1  0.528815  0.809899  0.500000  1
  Os  Os20  1  0.639449  0.095597  0.000000  1
  Os  Os21  1  0.360627  0.904556  0.000000  1
  Os  Os22  1  0.141934  0.404738  0.000000  1
  Os  Os23  1  0.858061  0.595059  0.000000  1
