# generated using pymatgen
data_Ho2Ga2Co5NiB2
_symmetry_space_group_name_H-M   'P 1'
_cell_length_a   5.13119819
_cell_length_b   5.13119756
_cell_length_c   6.69243400
_cell_angle_alpha   90.00000000
_cell_angle_beta   90.00000000
_cell_angle_gamma   119.60045002
_symmetry_Int_Tables_number   1
_chemical_formula_structural   Ho2Ga2Co5NiB2
_chemical_formula_sum   'Ho2 Ga2 Co5 Ni1 B2'
_cell_volume   153.20986803
_cell_formula_units_Z   1
loop_
 _symmetry_equiv_pos_site_id
 _symmetry_equiv_pos_as_xyz
  1  'x, y, z'
loop_
 _atom_site_type_symbol
 _atom_site_label
 _atom_site_symmetry_multiplicity
 _atom_site_fract_x
 _atom_site_fract_y
 _atom_site_fract_z
 _atom_site_occupancy
  Ho  Ho0  1  0.000000  0.000000  0.494737  1
  Ho  Ho1  1  0.000000  0.000000  0.000317  1
  Ga  Ga2  1  0.668062  0.331938  0.499568  1
  Ga  Ga3  1  0.331938  0.668062  0.499568  1
  Co  Co4  1  0.500000  0.000000  0.795819  1
  Co  Co5  1  0.000000  0.500000  0.795819  1
  Co  Co6  1  0.500000  0.500000  0.204701  1
  Co  Co7  1  0.500000  0.000000  0.205178  1
  Co  Co8  1  0.000000  0.500000  0.205178  1
  Ni  Ni9  1  0.500000  0.500000  0.795158  1
  B  B10  1  0.669823  0.330177  0.001980  1
  B  B11  1  0.330177  0.669823  0.001980  1
