# generated using pymatgen
data_CaDy7(Si3Pt)4
_symmetry_space_group_name_H-M   'P 1'
_cell_length_a   8.13602200
_cell_length_b   8.12901795
_cell_length_c   8.16515700
_cell_angle_alpha   90.00000000
_cell_angle_beta   90.00000000
_cell_angle_gamma   120.02850594
_symmetry_Int_Tables_number   1
_chemical_formula_structural   CaDy7(Si3Pt)4
_chemical_formula_sum   'Ca1 Dy7 Si12 Pt4'
_cell_volume   467.54191141
_cell_formula_units_Z   1
loop_
 _symmetry_equiv_pos_site_id
 _symmetry_equiv_pos_as_xyz
  1  'x, y, z'
loop_
 _atom_site_type_symbol
 _atom_site_label
 _atom_site_symmetry_multiplicity
 _atom_site_fract_x
 _atom_site_fract_y
 _atom_site_fract_z
 _atom_site_occupancy
  Ca  Ca0  1  0.501363  0.002724  0.750000  1
  Dy  Dy1  1  0.000103  0.000205  0.250000  1
  Dy  Dy2  1  0.999952  0.999904  0.750000  1
  Dy  Dy3  1  0.498833  0.501018  0.250000  1
  Dy  Dy4  1  0.498941  0.997881  0.250000  1
  Dy  Dy5  1  0.002184  0.501018  0.250000  1
  Dy  Dy6  1  0.501132  0.498724  0.750000  1
  Dy  Dy7  1  0.997591  0.498724  0.750000  1
  Si  Si8  1  0.834501  0.165665  0.497714  1
  Si  Si9  1  0.835306  0.670613  0.499077  1
  Si  Si10  1  0.331162  0.165665  0.497714  1
  Si  Si11  1  0.834501  0.165665  0.002286  1
  Si  Si12  1  0.835306  0.670613  0.000923  1
  Si  Si13  1  0.331162  0.165665  0.002286  1
  Si  Si14  1  0.165493  0.834293  0.001025  1
  Si  Si15  1  0.668803  0.834293  0.001025  1
  Si  Si16  1  0.164664  0.329327  0.999667  1
  Si  Si17  1  0.165493  0.834293  0.498975  1
  Si  Si18  1  0.668803  0.834293  0.498975  1
  Si  Si19  1  0.164664  0.329327  0.500333  1
  Pt  Pt20  1  0.667739  0.335478  0.493658  1
  Pt  Pt21  1  0.667739  0.335478  0.006342  1
  Pt  Pt22  1  0.332284  0.664568  0.000649  1
  Pt  Pt23  1  0.332284  0.664568  0.499351  1
