# generated using pymatgen
data_Sm3Ho7Be3Si15Au2
_symmetry_space_group_name_H-M   'P 1'
_cell_length_a   4.05802391
_cell_length_b   4.04695583
_cell_length_c   34.68532174
_cell_angle_alpha   86.64552109
_cell_angle_beta   86.60613078
_cell_angle_gamma   90.00219598
_symmetry_Int_Tables_number   1
_chemical_formula_structural   Sm3Ho7Be3Si15Au2
_chemical_formula_sum   'Sm3 Ho7 Be3 Si15 Au2'
_cell_volume   567.64787668
_cell_formula_units_Z   1
loop_
 _symmetry_equiv_pos_site_id
 _symmetry_equiv_pos_as_xyz
  1  'x, y, z'
loop_
 _atom_site_type_symbol
 _atom_site_label
 _atom_site_symmetry_multiplicity
 _atom_site_fract_x
 _atom_site_fract_y
 _atom_site_fract_z
 _atom_site_occupancy
  Sm  Sm0  1  0.948094  0.448202  0.103532  1
  Sm  Sm1  1  0.350697  0.850758  0.298603  1
  Sm  Sm2  1  0.753452  0.253570  0.493284  1
  Ho  Ho3  1  0.149151  0.649834  0.700967  1
  Ho  Ho4  1  0.545589  0.045814  0.908575  1
  Ho  Ho5  1  0.997842  0.997478  0.004923  1
  Ho  Ho6  1  0.399837  0.399640  0.200668  1
  Ho  Ho7  1  0.802118  0.801994  0.395935  1
  Ho  Ho8  1  0.204573  0.204106  0.591491  1
  Ho  Ho9  1  0.601204  0.600909  0.797510  1
  Be  Be10  1  0.465358  0.965506  0.068996  1
  Be  Be11  1  0.867765  0.367887  0.264423  1
  Be  Be12  1  0.270067  0.770301  0.459550  1
  Si  Si13  1  0.666765  0.166951  0.665772  1
  Si  Si14  1  0.062798  0.563767  0.872689  1
  Si  Si15  1  0.915558  0.915922  0.168356  1
  Si  Si16  1  0.318009  0.318587  0.363478  1
  Si  Si17  1  0.719981  0.720610  0.559571  1
  Si  Si18  1  0.116594  0.116469  0.766665  1
  Si  Si19  1  0.513381  0.513510  0.972994  1
  Si  Si20  1  0.433391  0.933103  0.133242  1
  Si  Si21  1  0.835759  0.335390  0.328467  1
  Si  Si22  1  0.238238  0.738014  0.523533  1
  Si  Si23  1  0.633782  0.134475  0.732248  1
  Si  Si24  1  0.030715  0.530440  0.939041  1
  Si  Si25  1  0.480257  0.479882  0.040019  1
  Si  Si26  1  0.882534  0.882331  0.235334  1
  Si  Si27  1  0.284958  0.284678  0.430421  1
  Au  Au28  1  0.685822  0.685188  0.629101  1
  Au  Au29  1  0.082916  0.081889  0.836213  1
