# generated using pymatgen
data_HoTc(PIr)2
_symmetry_space_group_name_H-M   'P 1'
_cell_length_a   4.02133700
_cell_length_b   11.15356900
_cell_length_c   12.69120600
_cell_angle_alpha   90.00000000
_cell_angle_beta   90.00000000
_cell_angle_gamma   90.00000000
_symmetry_Int_Tables_number   1
_chemical_formula_structural   HoTc(PIr)2
_chemical_formula_sum   'Ho6 Tc6 P12 Ir12'
_cell_volume   569.22926744
_cell_formula_units_Z   6
loop_
 _symmetry_equiv_pos_site_id
 _symmetry_equiv_pos_as_xyz
  1  'x, y, z'
loop_
 _atom_site_type_symbol
 _atom_site_label
 _atom_site_symmetry_multiplicity
 _atom_site_fract_x
 _atom_site_fract_y
 _atom_site_fract_z
 _atom_site_occupancy
  Ho  Ho0  1  0.000000  0.500000  0.522254  1
  Ho  Ho1  1  0.500000  0.000000  0.477660  1
  Ho  Ho2  1  0.500000  0.818263  0.203778  1
  Ho  Ho3  1  0.500000  0.181737  0.203778  1
  Ho  Ho4  1  0.000000  0.682383  0.796751  1
  Ho  Ho5  1  0.000000  0.317617  0.796751  1
  Tc  Tc6  1  0.000000  0.500000  0.987367  1
  Tc  Tc7  1  0.500000  0.000000  0.011323  1
  Tc  Tc8  1  0.500000  0.298984  0.430683  1
  Tc  Tc9  1  0.500000  0.701016  0.430683  1
  Tc  Tc10  1  0.500000  0.500000  0.155985  1
  Tc  Tc11  1  0.000000  0.000000  0.841693  1
  P  P12  1  0.500000  0.307205  0.615646  1
  P  P13  1  0.500000  0.692795  0.615646  1
  P  P14  1  0.000000  0.193898  0.383438  1
  P  P15  1  0.000000  0.806102  0.383438  1
  P  P16  1  0.500000  0.500000  0.874809  1
  P  P17  1  0.000000  0.000000  0.124120  1
  P  P18  1  0.500000  0.849542  0.892179  1
  P  P19  1  0.500000  0.150458  0.892179  1
  P  P20  1  0.000000  0.649474  0.108114  1
  P  P21  1  0.000000  0.350526  0.108114  1
  P  P22  1  0.500000  0.500000  0.343473  1
  P  P23  1  0.000000  0.000000  0.657602  1
  Ir  Ir24  1  0.000000  0.199287  0.571978  1
  Ir  Ir25  1  0.000000  0.800713  0.571978  1
  Ir  Ir26  1  0.500000  0.875436  0.713072  1
  Ir  Ir27  1  0.500000  0.124564  0.713072  1
  Ir  Ir28  1  0.000000  0.624831  0.287395  1
  Ir  Ir29  1  0.000000  0.375169  0.287395  1
  Ir  Ir30  1  0.500000  0.330261  0.978814  1
  Ir  Ir31  1  0.500000  0.669739  0.978814  1
  Ir  Ir32  1  0.000000  0.170233  0.020540  1
  Ir  Ir33  1  0.000000  0.829767  0.020540  1
  Ir  Ir34  1  0.500000  0.500000  0.689138  1
  Ir  Ir35  1  0.000000  0.000000  0.309799  1
