# generated using pymatgen
data_Ho16Zr(ScIr4)3
_symmetry_space_group_name_H-M   'P 1'
_cell_length_a   10.77558600
_cell_length_b   10.77558600
_cell_length_c   6.25008200
_cell_angle_alpha   90.00000000
_cell_angle_beta   90.00000000
_cell_angle_gamma   90.00000000
_symmetry_Int_Tables_number   1
_chemical_formula_structural   Ho16Zr(ScIr4)3
_chemical_formula_sum   'Ho16 Zr1 Sc3 Ir12'
_cell_volume   725.71735656
_cell_formula_units_Z   1
loop_
 _symmetry_equiv_pos_site_id
 _symmetry_equiv_pos_as_xyz
  1  'x, y, z'
loop_
 _atom_site_type_symbol
 _atom_site_label
 _atom_site_symmetry_multiplicity
 _atom_site_fract_x
 _atom_site_fract_y
 _atom_site_fract_z
 _atom_site_occupancy
  Ho  Ho0  1  0.289780  0.086501  0.377106  1
  Ho  Ho1  1  0.288650  0.914260  0.876270  1
  Ho  Ho2  1  0.711350  0.085740  0.876270  1
  Ho  Ho3  1  0.710220  0.913499  0.377106  1
  Ho  Ho4  1  0.585797  0.788717  0.876909  1
  Ho  Ho5  1  0.586196  0.211705  0.377106  1
  Ho  Ho6  1  0.413804  0.788295  0.377106  1
  Ho  Ho7  1  0.414203  0.211283  0.876909  1
  Ho  Ho8  1  0.211705  0.413804  0.622894  1
  Ho  Ho9  1  0.211283  0.585797  0.123091  1
  Ho  Ho10  1  0.788717  0.414203  0.123091  1
  Ho  Ho11  1  0.788295  0.586196  0.622894  1
  Ho  Ho12  1  0.914260  0.711350  0.123730  1
  Ho  Ho13  1  0.913499  0.289780  0.622894  1
  Ho  Ho14  1  0.086501  0.710220  0.622894  1
  Ho  Ho15  1  0.085740  0.288650  0.123730  1
  Zr  Zr16  1  0.000000  0.000000  0.500000  1
  Sc  Sc17  1  0.000000  0.000000  0.000000  1
  Sc  Sc18  1  0.500000  0.500000  0.000000  1
  Sc  Sc19  1  0.500000  0.500000  0.500000  1
  Ir  Ir20  1  0.852653  0.146860  0.252423  1
  Ir  Ir21  1  0.853140  0.852653  0.747577  1
  Ir  Ir22  1  0.146860  0.147347  0.747577  1
  Ir  Ir23  1  0.147347  0.853140  0.252423  1
  Ir  Ir24  1  0.647916  0.351860  0.750451  1
  Ir  Ir25  1  0.648140  0.647916  0.249549  1
  Ir  Ir26  1  0.351860  0.352084  0.249549  1
  Ir  Ir27  1  0.352084  0.648140  0.750451  1
  Ir  Ir28  1  0.500000  0.000000  0.122261  1
  Ir  Ir29  1  0.500000  0.000000  0.622506  1
  Ir  Ir30  1  0.000000  0.500000  0.877739  1
  Ir  Ir31  1  0.000000  0.500000  0.377494  1
