# generated using pymatgen
data_Mn4TcB4W3
_symmetry_space_group_name_H-M   'P 1'
_cell_length_a   3.15262100
_cell_length_b   5.85695887
_cell_length_c   6.93041505
_cell_angle_alpha   89.53062635
_cell_angle_beta   90.00000000
_cell_angle_gamma   90.00000000
_symmetry_Int_Tables_number   1
_chemical_formula_structural   Mn4TcB4W3
_chemical_formula_sum   'Mn4 Tc1 B4 W3'
_cell_volume   127.96423644
_cell_formula_units_Z   1
loop_
 _symmetry_equiv_pos_site_id
 _symmetry_equiv_pos_as_xyz
  1  'x, y, z'
loop_
 _atom_site_type_symbol
 _atom_site_label
 _atom_site_symmetry_multiplicity
 _atom_site_fract_x
 _atom_site_fract_y
 _atom_site_fract_z
 _atom_site_occupancy
  Mn  Mn0  1  0.250000  0.140427  0.443114  1
  Mn  Mn1  1  0.250000  0.642637  0.056342  1
  Mn  Mn2  1  0.750000  0.856919  0.556491  1
  Mn  Mn3  1  0.750000  0.356815  0.942309  1
  Tc  Tc4  1  0.250000  0.027890  0.827716  1
  B  B5  1  0.250000  0.268978  0.136941  1
  B  B6  1  0.250000  0.765823  0.364283  1
  B  B7  1  0.750000  0.735459  0.863834  1
  B  B8  1  0.750000  0.233121  0.635424  1
  W  W9  1  0.250000  0.529680  0.672818  1
  W  W10  1  0.750000  0.970940  0.172783  1
  W  W11  1  0.750000  0.471310  0.327948  1
