# generated using pymatgen
data_BaFeNi2(PO4)3
_symmetry_space_group_name_H-M   'P 1'
_cell_length_a   9.16146375
_cell_length_b   9.16146348
_cell_length_c   9.16146345
_cell_angle_alpha   137.12794043
_cell_angle_beta   109.38602551
_cell_angle_gamma   86.28429516
_symmetry_Int_Tables_number   1
_chemical_formula_structural   BaFeNi2(PO4)3
_chemical_formula_sum   'Ba2 Fe2 Ni4 P6 O24'
_cell_volume   474.03769674
_cell_formula_units_Z   2
loop_
 _symmetry_equiv_pos_site_id
 _symmetry_equiv_pos_as_xyz
  1  'x, y, z'
loop_
 _atom_site_type_symbol
 _atom_site_label
 _atom_site_symmetry_multiplicity
 _atom_site_fract_x
 _atom_site_fract_y
 _atom_site_fract_z
 _atom_site_occupancy
  Ba  Ba0  1  0.250000  0.349272  0.099272  1
  Ba  Ba1  1  0.750000  0.650728  0.900728  1
  Fe  Fe2  1  0.000000  0.500000  0.500000  1
  Fe  Fe3  1  0.500000  0.000000  0.500000  1
  Ni  Ni4  1  0.116815  0.116815  0.500000  1
  Ni  Ni5  1  0.383185  0.883185  0.000000  1
  Ni  Ni6  1  0.616815  0.116815  0.000000  1
  Ni  Ni7  1  0.883185  0.883185  0.500000  1
  P  P8  1  0.250000  0.844068  0.594068  1
  P  P9  1  0.750000  0.155932  0.405932  1
  P  P10  1  0.319843  0.319843  0.500000  1
  P  P11  1  0.180157  0.680157  0.000000  1
  P  P12  1  0.819843  0.319843  0.000000  1
  P  P13  1  0.680157  0.680157  0.500000  1
  O  O14  1  0.344902  0.808541  0.463640  1
  O  O15  1  0.655098  0.191459  0.536360  1
  O  O16  1  0.844902  0.381261  0.536360  1
  O  O17  1  0.155098  0.618739  0.463640  1
  O  O18  1  0.130775  0.982354  0.613128  1
  O  O19  1  0.630775  0.017646  0.148421  1
  O  O20  1  0.869225  0.017646  0.386872  1
  O  O21  1  0.369225  0.982354  0.851579  1
  O  O22  1  0.349469  0.199727  0.283036  1
  O  O23  1  0.083309  0.800273  0.149742  1
  O  O24  1  0.849469  0.566433  0.149742  1
  O  O25  1  0.583309  0.433567  0.283036  1
  O  O26  1  0.650531  0.800273  0.716964  1
  O  O27  1  0.916691  0.199727  0.850258  1
  O  O28  1  0.150531  0.433567  0.850258  1
  O  O29  1  0.416691  0.566433  0.716964  1
  O  O30  1  0.131322  0.285955  0.430058  1
  O  O31  1  0.144105  0.714045  0.845369  1
  O  O32  1  0.631322  0.201264  0.845369  1
  O  O33  1  0.644105  0.798736  0.430058  1
  O  O34  1  0.868678  0.714045  0.569942  1
  O  O35  1  0.855895  0.285955  0.154631  1
  O  O36  1  0.368678  0.798736  0.154631  1
  O  O37  1  0.355895  0.201264  0.569942  1
