# generated using pymatgen
data_ZnCd(ClO4)4
_symmetry_space_group_name_H-M   'P 1'
_cell_length_a   4.99811200
_cell_length_b   7.25176819
_cell_length_c   8.89230208
_cell_angle_alpha   89.87879529
_cell_angle_beta   90.47027879
_cell_angle_gamma   97.66843315
_symmetry_Int_Tables_number   1
_chemical_formula_structural   ZnCd(ClO4)4
_chemical_formula_sum   'Zn1 Cd1 Cl4 O16'
_cell_volume   319.40949394
_cell_formula_units_Z   1
loop_
 _symmetry_equiv_pos_site_id
 _symmetry_equiv_pos_as_xyz
  1  'x, y, z'
loop_
 _atom_site_type_symbol
 _atom_site_label
 _atom_site_symmetry_multiplicity
 _atom_site_fract_x
 _atom_site_fract_y
 _atom_site_fract_z
 _atom_site_occupancy
  Zn  Zn0  1  0.000000  0.000000  0.000000  1
  Cd  Cd1  1  0.500000  0.500000  0.500000  1
  Cl  Cl2  1  0.559848  0.241469  0.162141  1
  Cl  Cl3  1  0.949480  0.243571  0.678382  1
  Cl  Cl4  1  0.440152  0.758531  0.837859  1
  Cl  Cl5  1  0.050520  0.756429  0.321618  1
  O  O6  1  0.567281  0.267851  0.325919  1
  O  O7  1  0.942339  0.212211  0.841924  1
  O  O8  1  0.432719  0.732149  0.674081  1
  O  O9  1  0.057661  0.787789  0.158076  1
  O  O10  1  0.273669  0.206714  0.114900  1
  O  O11  1  0.234271  0.266062  0.631006  1
  O  O12  1  0.726331  0.793286  0.885100  1
  O  O13  1  0.765729  0.733938  0.368994  1
  O  O14  1  0.682999  0.069171  0.133991  1
  O  O15  1  0.846082  0.424113  0.653182  1
  O  O16  1  0.317001  0.930829  0.866009  1
  O  O17  1  0.153918  0.575887  0.346818  1
  O  O18  1  0.698815  0.397997  0.085576  1
  O  O19  1  0.793180  0.095558  0.598881  1
  O  O20  1  0.301185  0.602003  0.914424  1
  O  O21  1  0.206820  0.904442  0.401119  1
