# generated using pymatgen
data_LuPaB6W
_symmetry_space_group_name_H-M   'P 1'
_cell_length_a   3.71160800
_cell_length_b   9.15142500
_cell_length_c   11.52334600
_cell_angle_alpha   90.00000000
_cell_angle_beta   90.00000000
_cell_angle_gamma   90.00000000
_symmetry_Int_Tables_number   1
_chemical_formula_structural   LuPaB6W
_chemical_formula_sum   'Lu4 Pa4 B24 W4'
_cell_volume   391.40775774
_cell_formula_units_Z   4
loop_
 _symmetry_equiv_pos_site_id
 _symmetry_equiv_pos_as_xyz
  1  'x, y, z'
loop_
 _atom_site_type_symbol
 _atom_site_label
 _atom_site_symmetry_multiplicity
 _atom_site_fract_x
 _atom_site_fract_y
 _atom_site_fract_z
 _atom_site_occupancy
  Lu  Lu0  1  0.000000  0.946011  0.374201  1
  Lu  Lu1  1  0.000000  0.053989  0.625799  1
  Lu  Lu2  1  0.000000  0.446011  0.125799  1
  Lu  Lu3  1  0.000000  0.553989  0.874201  1
  Pa  Pa4  1  0.000000  0.321521  0.413357  1
  Pa  Pa5  1  0.000000  0.678479  0.586643  1
  Pa  Pa6  1  0.000000  0.821521  0.086643  1
  Pa  Pa7  1  0.000000  0.178479  0.913357  1
  B  B8  1  0.500000  0.553426  0.433168  1
  B  B9  1  0.500000  0.446574  0.566832  1
  B  B10  1  0.500000  0.053426  0.066832  1
  B  B11  1  0.500000  0.946574  0.933168  1
  B  B12  1  0.500000  0.750842  0.420416  1
  B  B13  1  0.500000  0.249158  0.579584  1
  B  B14  1  0.500000  0.250842  0.079584  1
  B  B15  1  0.500000  0.749158  0.920416  1
  B  B16  1  0.500000  0.794668  0.264907  1
  B  B17  1  0.500000  0.205332  0.735092  1
  B  B18  1  0.500000  0.294668  0.235093  1
  B  B19  1  0.500000  0.705332  0.764908  1
  B  B20  1  0.500000  0.632232  0.184184  1
  B  B21  1  0.500000  0.367768  0.815816  1
  B  B22  1  0.500000  0.132232  0.315816  1
  B  B23  1  0.500000  0.867768  0.684184  1
  B  B24  1  0.500000  0.981651  0.213593  1
  B  B25  1  0.500000  0.018349  0.786407  1
  B  B26  1  0.500000  0.481651  0.286407  1
  B  B27  1  0.500000  0.518349  0.713593  1
  B  B28  1  0.500000  0.606921  0.029645  1
  B  B29  1  0.500000  0.393079  0.970355  1
  B  B30  1  0.500000  0.106921  0.470355  1
  B  B31  1  0.500000  0.893079  0.529645  1
  W  W32  1  0.000000  0.639495  0.321058  1
  W  W33  1  0.000000  0.360505  0.678942  1
  W  W34  1  0.000000  0.139495  0.178942  1
  W  W35  1  0.000000  0.860505  0.821058  1
