# generated using pymatgen
data_CaLa2NdOs6O19
_symmetry_space_group_name_H-M   'P 1'
_cell_length_a   7.88136385
_cell_length_b   7.96405520
_cell_length_c   7.95490736
_cell_angle_alpha   109.79262434
_cell_angle_beta   109.59448527
_cell_angle_gamma   109.43505506
_symmetry_Int_Tables_number   1
_chemical_formula_structural   CaLa2NdOs6O19
_chemical_formula_sum   'Ca1 La2 Nd1 Os6 O19'
_cell_volume   382.41660186
_cell_formula_units_Z   1
loop_
 _symmetry_equiv_pos_site_id
 _symmetry_equiv_pos_as_xyz
  1  'x, y, z'
loop_
 _atom_site_type_symbol
 _atom_site_label
 _atom_site_symmetry_multiplicity
 _atom_site_fract_x
 _atom_site_fract_y
 _atom_site_fract_z
 _atom_site_occupancy
  Ca  Ca0  1  0.001018  0.294652  0.999457  1
  La  La1  1  0.687262  0.689577  0.686268  1
  La  La2  1  0.312439  0.000812  0.000444  1
  Nd  Nd3  1  0.998540  0.000427  0.297052  1
  Os  Os4  1  0.359810  0.499451  0.864318  1
  Os  Os5  1  0.863982  0.362641  0.499668  1
  Os  Os6  1  0.501943  0.139023  0.639452  1
  Os  Os7  1  0.136827  0.635723  0.497569  1
  Os  Os8  1  0.499762  0.864031  0.364703  1
  Os  Os9  1  0.637788  0.501571  0.136985  1
  O  O10  1  0.321198  0.999411  0.326022  1
  O  O11  1  0.323785  0.324303  0.999699  1
  O  O12  1  0.000579  0.675335  0.674057  1
  O  O13  1  0.675360  0.676336  0.000483  1
  O  O14  1  0.000301  0.323035  0.324387  1
  O  O15  1  0.678956  0.003387  0.677119  1
  O  O16  1  0.999822  0.987924  0.000183  1
  O  O17  1  0.341699  0.283412  0.628736  1
  O  O18  1  0.058950  0.346818  0.716295  1
  O  O19  1  0.710798  0.368965  0.649043  1
  O  O20  1  0.369811  0.657316  0.720558  1
  O  O21  1  0.286977  0.938963  0.655752  1
  O  O22  1  0.628707  0.349703  0.286876  1
  O  O23  1  0.290171  0.631257  0.351144  1
  O  O24  1  0.712004  0.059482  0.338731  1
  O  O25  1  0.941391  0.661658  0.289145  1
  O  O26  1  0.658587  0.720328  0.372177  1
  O  O27  1  0.656125  0.287851  0.940553  1
  O  O28  1  0.345405  0.716604  0.063123  1
