# generated using pymatgen
data_Ta3Nb(SeI)4
_symmetry_space_group_name_H-M   'P 1'
_cell_length_a   7.62006896
_cell_length_b   7.62006889
_cell_length_c   7.83035834
_cell_angle_alpha   60.88447006
_cell_angle_beta   60.88446576
_cell_angle_gamma   59.99999919
_symmetry_Int_Tables_number   1
_chemical_formula_structural   Ta3Nb(SeI)4
_chemical_formula_sum   'Ta3 Nb1 Se4 I4'
_cell_volume   325.73381097
_cell_formula_units_Z   1
loop_
 _symmetry_equiv_pos_site_id
 _symmetry_equiv_pos_as_xyz
  1  'x, y, z'
loop_
 _atom_site_type_symbol
 _atom_site_label
 _atom_site_symmetry_multiplicity
 _atom_site_fract_x
 _atom_site_fract_y
 _atom_site_fract_z
 _atom_site_occupancy
  Ta  Ta0  1  0.411300  0.411300  0.393501  1
  Ta  Ta1  1  0.411300  0.783898  0.393501  1
  Ta  Ta2  1  0.783898  0.411300  0.393501  1
  Nb  Nb3  1  0.396237  0.396237  0.811290  1
  Se  Se4  1  0.625941  0.111176  0.636941  1
  Se  Se5  1  0.637598  0.637598  0.087206  1
  Se  Se6  1  0.111176  0.625941  0.636941  1
  Se  Se7  1  0.625941  0.625941  0.636941  1
  I  I8  1  0.124012  0.124012  0.133746  1
  I  I9  1  0.618230  0.124012  0.133746  1
  I  I10  1  0.124012  0.618230  0.133746  1
  I  I11  1  0.130354  0.130354  0.608939  1
