# generated using pymatgen
data_Hf3ReSi3RhW
_symmetry_space_group_name_H-M   'P 1'
_cell_length_a   6.95085344
_cell_length_b   6.92637658
_cell_length_c   3.50728100
_cell_angle_alpha   90.00000000
_cell_angle_beta   90.00000000
_cell_angle_gamma   120.69961440
_symmetry_Int_Tables_number   1
_chemical_formula_structural   Hf3ReSi3RhW
_chemical_formula_sum   'Hf3 Re1 Si3 Rh1 W1'
_cell_volume   145.19122591
_cell_formula_units_Z   1
loop_
 _symmetry_equiv_pos_site_id
 _symmetry_equiv_pos_as_xyz
  1  'x, y, z'
loop_
 _atom_site_type_symbol
 _atom_site_label
 _atom_site_symmetry_multiplicity
 _atom_site_fract_x
 _atom_site_fract_y
 _atom_site_fract_z
 _atom_site_occupancy
  Hf  Hf0  1  0.400743  0.400558  0.500000  1
  Hf  Hf1  1  0.594386  0.008830  0.500000  1
  Hf  Hf2  1  0.010339  0.594026  0.500000  1
  Re  Re3  1  0.000083  0.251721  0.000000  1
  Si  Si4  1  0.669329  0.339063  0.000000  1
  Si  Si5  1  0.338464  0.668450  0.000000  1
  Si  Si6  1  0.988309  0.990149  0.500000  1
  Rh  Rh7  1  0.747291  0.747390  0.000000  1
  W  W8  1  0.251056  0.999814  0.000000  1
