# generated using pymatgen
data_TbHo3Th6(Ge5Rh2)4
_symmetry_space_group_name_H-M   'P 1'
_cell_length_a   13.13287902
_cell_length_b   13.13287902
_cell_length_c   4.38662000
_cell_angle_alpha   90.00000000
_cell_angle_beta   90.00000000
_cell_angle_gamma   90.00664014
_symmetry_Int_Tables_number   1
_chemical_formula_structural   TbHo3Th6(Ge5Rh2)4
_chemical_formula_sum   'Tb1 Ho3 Th6 Ge20 Rh8'
_cell_volume   756.57136291
_cell_formula_units_Z   1
loop_
 _symmetry_equiv_pos_site_id
 _symmetry_equiv_pos_as_xyz
  1  'x, y, z'
loop_
 _atom_site_type_symbol
 _atom_site_label
 _atom_site_symmetry_multiplicity
 _atom_site_fract_x
 _atom_site_fract_y
 _atom_site_fract_z
 _atom_site_occupancy
  Tb  Tb0  1  0.324786  0.824786  0.500000  1
  Ho  Ho1  1  0.824982  0.674995  0.500000  1
  Ho  Ho2  1  0.174995  0.324982  0.500000  1
  Ho  Ho3  1  0.675033  0.175033  0.500000  1
  Th  Th4  1  0.500018  0.499976  0.000000  1
  Th  Th5  1  0.999976  0.000018  0.000000  1
  Th  Th6  1  0.887677  0.387677  0.500000  1
  Th  Th7  1  0.387749  0.112433  0.500000  1
  Th  Th8  1  0.612433  0.887749  0.500000  1
  Th  Th9  1  0.112190  0.612190  0.500000  1
  Ge  Ge10  1  0.433364  0.933364  0.000000  1
  Ge  Ge11  1  0.933051  0.566936  0.000000  1
  Ge  Ge12  1  0.066936  0.433051  0.000000  1
  Ge  Ge13  1  0.567029  0.067029  0.000000  1
  Ge  Ge14  1  0.337612  0.300512  0.000000  1
  Ge  Ge15  1  0.662465  0.699467  0.000000  1
  Ge  Ge16  1  0.699506  0.337605  0.000000  1
  Ge  Ge17  1  0.300374  0.662050  0.000000  1
  Ge  Ge18  1  0.800512  0.837612  0.000000  1
  Ge  Ge19  1  0.837605  0.199506  0.000000  1
  Ge  Ge20  1  0.162050  0.800374  0.000000  1
  Ge  Ge21  1  0.199467  0.162465  0.000000  1
  Ge  Ge22  1  0.337588  0.497141  0.500000  1
  Ge  Ge23  1  0.662397  0.502918  0.500000  1
  Ge  Ge24  1  0.502926  0.337594  0.500000  1
  Ge  Ge25  1  0.497360  0.662244  0.500000  1
  Ge  Ge26  1  0.997141  0.837588  0.500000  1
  Ge  Ge27  1  0.837594  0.002926  0.500000  1
  Ge  Ge28  1  0.002918  0.162397  0.500000  1
  Ge  Ge29  1  0.162244  0.997360  0.500000  1
  Rh  Rh30  1  0.255727  0.477138  0.000000  1
  Rh  Rh31  1  0.744247  0.522759  0.000000  1
  Rh  Rh32  1  0.522755  0.255777  0.000000  1
  Rh  Rh33  1  0.477586  0.744037  0.000000  1
  Rh  Rh34  1  0.977138  0.755727  0.000000  1
  Rh  Rh35  1  0.755777  0.022755  0.000000  1
  Rh  Rh36  1  0.244037  0.977586  0.000000  1
  Rh  Rh37  1  0.022759  0.244247  0.000000  1
