# generated using pymatgen
data_Dy2PaAlIn2Rh3
_symmetry_space_group_name_H-M   'P 1'
_cell_length_a   7.54300324
_cell_length_b   7.65901967
_cell_length_c   3.77282300
_cell_angle_alpha   90.00000000
_cell_angle_beta   90.00000000
_cell_angle_gamma   120.51009701
_symmetry_Int_Tables_number   1
_chemical_formula_structural   Dy2PaAlIn2Rh3
_chemical_formula_sum   'Dy2 Pa1 Al1 In2 Rh3'
_cell_volume   187.78426892
_cell_formula_units_Z   1
loop_
 _symmetry_equiv_pos_site_id
 _symmetry_equiv_pos_as_xyz
  1  'x, y, z'
loop_
 _atom_site_type_symbol
 _atom_site_label
 _atom_site_symmetry_multiplicity
 _atom_site_fract_x
 _atom_site_fract_y
 _atom_site_fract_z
 _atom_site_occupancy
  Dy  Dy0  1  0.603673  0.011567  0.500000  1
  Dy  Dy1  1  0.396327  0.407894  0.500000  1
  Pa  Pa2  1  0.000000  0.567305  0.500000  1
  Al  Al3  1  0.000000  0.237768  0.000000  1
  In  In4  1  0.264293  0.008117  0.000000  1
  In  In5  1  0.735707  0.743824  0.000000  1
  Rh  Rh6  1  0.000000  0.018737  0.500000  1
  Rh  Rh7  1  0.709189  0.356989  0.000000  1
  Rh  Rh8  1  0.290811  0.647800  0.000000  1
