# generated using pymatgen
data_TbHo2TmAl8
_symmetry_space_group_name_H-M   'P 1'
_cell_length_a   9.62546501
_cell_length_b   9.62546519
_cell_length_c   9.62546416
_cell_angle_alpha   33.51303985
_cell_angle_beta   33.51303757
_cell_angle_gamma   33.51304306
_symmetry_Int_Tables_number   1
_chemical_formula_structural   TbHo2TmAl8
_chemical_formula_sum   'Tb1 Ho2 Tm1 Al8'
_cell_volume   242.13303887
_cell_formula_units_Z   1
loop_
 _symmetry_equiv_pos_site_id
 _symmetry_equiv_pos_as_xyz
  1  'x, y, z'
loop_
 _atom_site_type_symbol
 _atom_site_label
 _atom_site_symmetry_multiplicity
 _atom_site_fract_x
 _atom_site_fract_y
 _atom_site_fract_z
 _atom_site_occupancy
  Tb  Tb0  1  0.812486  0.812486  0.812486  1
  Ho  Ho1  1  0.312569  0.312569  0.312569  1
  Ho  Ho2  1  0.687534  0.687534  0.687534  1
  Tm  Tm3  1  0.187415  0.187415  0.187415  1
  Al  Al4  1  0.500090  0.500090  0.500090  1
  Al  Al5  1  0.999972  0.999972  0.999972  1
  Al  Al6  1  0.249832  0.249832  0.750006  1
  Al  Al7  1  0.750003  0.750003  0.250258  1
  Al  Al8  1  0.249832  0.750006  0.249832  1
  Al  Al9  1  0.750003  0.250258  0.750003  1
  Al  Al10  1  0.750006  0.249832  0.249832  1
  Al  Al11  1  0.250258  0.750003  0.750003  1
