# generated using pymatgen
data_Tb3Ho(PdPt)2
_symmetry_space_group_name_H-M   'P 1'
_cell_length_a   4.54789800
_cell_length_b   5.59947708
_cell_length_c   7.05964649
_cell_angle_alpha   89.88239911
_cell_angle_beta   90.00000000
_cell_angle_gamma   90.00000000
_symmetry_Int_Tables_number   1
_chemical_formula_structural   Tb3Ho(PdPt)2
_chemical_formula_sum   'Tb3 Ho1 Pd2 Pt2'
_cell_volume   179.77952433
_cell_formula_units_Z   1
loop_
 _symmetry_equiv_pos_site_id
 _symmetry_equiv_pos_as_xyz
  1  'x, y, z'
loop_
 _atom_site_type_symbol
 _atom_site_label
 _atom_site_symmetry_multiplicity
 _atom_site_fract_x
 _atom_site_fract_y
 _atom_site_fract_z
 _atom_site_occupancy
  Tb  Tb0  1  0.000000  0.103578  0.683516  1
  Tb  Tb1  1  0.000000  0.896201  0.182602  1
  Tb  Tb2  1  0.500000  0.388392  0.318005  1
  Ho  Ho3  1  0.500000  0.611979  0.817858  1
  Pd  Pd4  1  0.000000  0.592148  0.543573  1
  Pd  Pd5  1  0.000000  0.408665  0.041974  1
  Pt  Pt6  1  0.500000  0.899181  0.457083  1
  Pt  Pt7  1  0.500000  0.099857  0.955388  1
