# generated using pymatgen
data_GaTcCl8
_symmetry_space_group_name_H-M   'P 1'
_cell_length_a   9.78426669
_cell_length_b   9.78426671
_cell_length_c   8.67556000
_cell_angle_alpha   90.00000000
_cell_angle_beta   90.00000000
_cell_angle_gamma   128.35054797
_symmetry_Int_Tables_number   1
_chemical_formula_structural   GaTcCl8
_chemical_formula_sum   'Ga2 Tc2 Cl16'
_cell_volume   651.32407946
_cell_formula_units_Z   2
loop_
 _symmetry_equiv_pos_site_id
 _symmetry_equiv_pos_as_xyz
  1  'x, y, z'
loop_
 _atom_site_type_symbol
 _atom_site_label
 _atom_site_symmetry_multiplicity
 _atom_site_fract_x
 _atom_site_fract_y
 _atom_site_fract_z
 _atom_site_occupancy
  Ga  Ga0  1  0.315382  0.684618  0.750000  1
  Ga  Ga1  1  0.684618  0.315382  0.250000  1
  Tc  Tc2  1  0.883820  0.116180  0.250000  1
  Tc  Tc3  1  0.116180  0.883820  0.750000  1
  Cl  Cl4  1  0.378506  0.621494  0.538582  1
  Cl  Cl5  1  0.621494  0.378506  0.461418  1
  Cl  Cl6  1  0.423985  0.971129  0.750000  1
  Cl  Cl7  1  0.971129  0.423985  0.250000  1
  Cl  Cl8  1  0.576015  0.028871  0.250000  1
  Cl  Cl9  1  0.028871  0.576015  0.750000  1
  Cl  Cl10  1  0.224969  0.163046  0.750000  1
  Cl  Cl11  1  0.163046  0.224969  0.250000  1
  Cl  Cl12  1  0.775031  0.836954  0.250000  1
  Cl  Cl13  1  0.836954  0.775031  0.750000  1
  Cl  Cl14  1  0.134229  0.865771  0.491122  1
  Cl  Cl15  1  0.865771  0.134229  0.508878  1
  Cl  Cl16  1  0.865771  0.134229  0.991122  1
  Cl  Cl17  1  0.134229  0.865771  0.008878  1
  Cl  Cl18  1  0.378506  0.621494  0.961418  1
  Cl  Cl19  1  0.621494  0.378506  0.038582  1
