# generated using pymatgen
data_Zr5(PaPd5)2
_symmetry_space_group_name_H-M   'P 1'
_cell_length_a   8.29855771
_cell_length_b   8.29854792
_cell_length_c   9.82922650
_cell_angle_alpha   90.17808506
_cell_angle_beta   90.17688301
_cell_angle_gamma   107.26212369
_symmetry_Int_Tables_number   1
_chemical_formula_structural   Zr5(PaPd5)2
_chemical_formula_sum   'Zr10 Pa4 Pd20'
_cell_volume   646.40102726
_cell_formula_units_Z   2
loop_
 _symmetry_equiv_pos_site_id
 _symmetry_equiv_pos_as_xyz
  1  'x, y, z'
loop_
 _atom_site_type_symbol
 _atom_site_label
 _atom_site_symmetry_multiplicity
 _atom_site_fract_x
 _atom_site_fract_y
 _atom_site_fract_z
 _atom_site_occupancy
  Zr  Zr0  1  0.810568  0.189435  0.000003  1
  Zr  Zr1  1  0.996655  0.502567  0.751966  1
  Zr  Zr2  1  0.005335  0.494791  0.247023  1
  Zr  Zr3  1  0.809099  0.812288  0.809573  1
  Zr  Zr4  1  0.501176  0.498790  0.999976  1
  Zr  Zr5  1  0.497407  0.003377  0.248022  1
  Zr  Zr6  1  0.304951  0.695030  0.500006  1
  Zr  Zr7  1  0.505208  0.994685  0.752966  1
  Zr  Zr8  1  0.187697  0.190897  0.190443  1
  Zr  Zr9  1  0.001299  0.998754  0.500017  1
  Pa  Pa10  1  0.188976  0.811036  0.000003  1
  Pa  Pa11  1  0.694296  0.305684  0.500000  1
  Pa  Pa12  1  0.309007  0.313444  0.688433  1
  Pa  Pa13  1  0.686578  0.691005  0.311561  1
  Pd  Pd14  1  0.893180  0.895674  0.104587  1
  Pd  Pd15  1  0.647355  0.353260  0.206561  1
  Pd  Pd16  1  0.061726  0.353803  0.498732  1
  Pd  Pd17  1  0.646765  0.352658  0.793446  1
  Pd  Pd18  1  0.852434  0.143587  0.292327  1
  Pd  Pd19  1  0.143349  0.850759  0.291006  1
  Pd  Pd20  1  0.601816  0.604216  0.603826  1
  Pd  Pd21  1  0.437014  0.144941  0.997669  1
  Pd  Pd22  1  0.354205  0.645807  0.793070  1
  Pd  Pd23  1  0.149243  0.856682  0.709002  1
  Pd  Pd24  1  0.147186  0.438562  0.997667  1
  Pd  Pd25  1  0.561453  0.852818  0.002339  1
  Pd  Pd26  1  0.938897  0.644814  0.500204  1
  Pd  Pd27  1  0.646211  0.938271  0.501249  1
  Pd  Pd28  1  0.104254  0.106765  0.895476  1
  Pd  Pd29  1  0.395798  0.398195  0.396175  1
  Pd  Pd30  1  0.855061  0.562971  0.002304  1
  Pd  Pd31  1  0.355194  0.061082  0.499786  1
  Pd  Pd32  1  0.856404  0.147547  0.707665  1
  Pd  Pd33  1  0.354204  0.645807  0.206919  1
