# generated using pymatgen
data_Er2Al2Ag5
_symmetry_space_group_name_H-M   'P 1'
_cell_length_a   5.45523954
_cell_length_b   5.37013455
_cell_length_c   13.91992100
_cell_angle_alpha   90.00000000
_cell_angle_beta   90.00000000
_cell_angle_gamma   120.19391265
_symmetry_Int_Tables_number   1
_chemical_formula_structural   Er2Al2Ag5
_chemical_formula_sum   'Er4 Al4 Ag10'
_cell_volume   352.46375699
_cell_formula_units_Z   2
loop_
 _symmetry_equiv_pos_site_id
 _symmetry_equiv_pos_as_xyz
  1  'x, y, z'
loop_
 _atom_site_type_symbol
 _atom_site_label
 _atom_site_symmetry_multiplicity
 _atom_site_fract_x
 _atom_site_fract_y
 _atom_site_fract_z
 _atom_site_occupancy
  Er  Er0  1  0.817727  0.818674  0.115226  1
  Er  Er1  1  0.179566  0.177660  0.877050  1
  Er  Er2  1  0.817727  0.818674  0.384774  1
  Er  Er3  1  0.179566  0.177660  0.622950  1
  Al  Al4  1  0.173529  0.674026  0.750000  1
  Al  Al5  1  0.676326  0.174313  0.750000  1
  Al  Al6  1  0.676384  0.673477  0.750000  1
  Al  Al7  1  0.322474  0.832018  0.250000  1
  Ag  Ag8  1  0.165889  0.491419  0.071832  1
  Ag  Ag9  1  0.522197  0.841380  0.915996  1
  Ag  Ag10  1  0.474516  0.151475  0.072961  1
  Ag  Ag11  1  0.837017  0.513454  0.581867  1
  Ag  Ag12  1  0.474516  0.151475  0.427039  1
  Ag  Ag13  1  0.837017  0.513454  0.918133  1
  Ag  Ag14  1  0.827976  0.325254  0.250000  1
  Ag  Ag15  1  0.522197  0.841380  0.584004  1
  Ag  Ag16  1  0.165889  0.491419  0.428168  1
  Ag  Ag17  1  0.329488  0.332785  0.250000  1
