# generated using pymatgen
data_Ta4Mn4FeOs3
_symmetry_space_group_name_H-M   'P 1'
_cell_length_a   4.87124176
_cell_length_b   4.92330943
_cell_length_c   8.21596100
_cell_angle_alpha   90.00000000
_cell_angle_beta   90.00000000
_cell_angle_gamma   60.48085436
_symmetry_Int_Tables_number   1
_chemical_formula_structural   Ta4Mn4FeOs3
_chemical_formula_sum   'Ta4 Mn4 Fe1 Os3'
_cell_volume   171.46276526
_cell_formula_units_Z   1
loop_
 _symmetry_equiv_pos_site_id
 _symmetry_equiv_pos_as_xyz
  1  'x, y, z'
loop_
 _atom_site_type_symbol
 _atom_site_label
 _atom_site_symmetry_multiplicity
 _atom_site_fract_x
 _atom_site_fract_y
 _atom_site_fract_z
 _atom_site_occupancy
  Ta  Ta0  1  0.332489  0.334291  0.564433  1
  Ta  Ta1  1  0.664238  0.670275  0.431862  1
  Ta  Ta2  1  0.664238  0.670275  0.068138  1
  Ta  Ta3  1  0.332489  0.334291  0.935567  1
  Mn  Mn4  1  0.825829  0.833941  0.750000  1
  Mn  Mn5  1  0.179736  0.640952  0.250000  1
  Mn  Mn6  1  0.645481  0.176804  0.250000  1
  Mn  Mn7  1  0.177017  0.175169  0.250000  1
  Fe  Fe8  1  0.342149  0.836530  0.750000  1
  Os  Os9  1  0.005246  0.988771  0.493456  1
  Os  Os10  1  0.005246  0.988771  0.006544  1
  Os  Os11  1  0.825845  0.349932  0.750000  1
