# generated using pymatgen
data_Cr(FeMo)6
_symmetry_space_group_name_H-M   'P 1'
_cell_length_a   9.00882884
_cell_length_b   9.00882853
_cell_length_c   9.00882884
_cell_angle_alpha   30.71132441
_cell_angle_beta   30.71132981
_cell_angle_gamma   30.71132966
_symmetry_Int_Tables_number   1
_chemical_formula_structural   Cr(FeMo)6
_chemical_formula_sum   'Cr1 Fe6 Mo6'
_cell_volume   169.10191708
_cell_formula_units_Z   1
loop_
 _symmetry_equiv_pos_site_id
 _symmetry_equiv_pos_as_xyz
  1  'x, y, z'
loop_
 _atom_site_type_symbol
 _atom_site_label
 _atom_site_symmetry_multiplicity
 _atom_site_fract_x
 _atom_site_fract_y
 _atom_site_fract_z
 _atom_site_occupancy
  Cr  Cr0  1  0.000000  0.000000  0.000000  1
  Fe  Fe1  1  0.585371  0.093676  0.093676  1
  Fe  Fe2  1  0.093676  0.093676  0.585371  1
  Fe  Fe3  1  0.906324  0.906324  0.414629  1
  Fe  Fe4  1  0.906324  0.414629  0.906324  1
  Fe  Fe5  1  0.093676  0.585371  0.093676  1
  Fe  Fe6  1  0.414629  0.906324  0.906324  1
  Mo  Mo7  1  0.348911  0.348911  0.348911  1
  Mo  Mo8  1  0.166210  0.166210  0.166210  1
  Mo  Mo9  1  0.548932  0.548932  0.548932  1
  Mo  Mo10  1  0.651089  0.651089  0.651089  1
  Mo  Mo11  1  0.451068  0.451068  0.451068  1
  Mo  Mo12  1  0.833790  0.833790  0.833790  1
