# generated using pymatgen
data_Cu7PSe8
_symmetry_space_group_name_H-M   'P 1'
_cell_length_a   5.54109629
_cell_length_b   6.69802377
_cell_length_c   10.35517537
_cell_angle_alpha   77.82161723
_cell_angle_beta   74.93308489
_cell_angle_gamma   66.15326048
_symmetry_Int_Tables_number   1
_chemical_formula_structural   Cu7PSe8
_chemical_formula_sum   'Cu7 P1 Se8'
_cell_volume   336.98494338
_cell_formula_units_Z   1
loop_
 _symmetry_equiv_pos_site_id
 _symmetry_equiv_pos_as_xyz
  1  'x, y, z'
loop_
 _atom_site_type_symbol
 _atom_site_label
 _atom_site_symmetry_multiplicity
 _atom_site_fract_x
 _atom_site_fract_y
 _atom_site_fract_z
 _atom_site_occupancy
  Cu  Cu0  1  0.254177  0.877194  0.624664  1
  Cu  Cu1  1  0.513159  0.252024  0.750762  1
  Cu  Cu2  1  0.487307  0.748167  0.250566  1
  Cu  Cu3  1  0.749482  0.622820  0.873598  1
  Cu  Cu4  1  0.748272  0.123327  0.378255  1
  Cu  Cu5  1  0.985573  0.997545  0.000291  1
  Cu  Cu6  1  0.011990  0.497723  0.501403  1
  P  P7  1  0.242965  0.374635  0.125677  1
  Se  Se8  1  0.365048  0.681388  0.061216  1
  Se  Se9  1  0.383164  0.189701  0.565547  1
  Se  Se10  1  0.881392  0.441288  0.309387  1
  Se  Se11  1  0.878840  0.933586  0.809192  1
  Se  Se12  1  0.131987  0.307564  0.941002  1
  Se  Se13  1  0.125976  0.816438  0.438685  1
  Se  Se14  1  0.632151  0.567392  0.681667  1
  Se  Se15  1  0.608517  0.069210  0.188086  1
