# generated using pymatgen
data_SrLi2YSi4
_symmetry_space_group_name_H-M   'P 1'
_cell_length_a   3.84273700
_cell_length_b   7.92625202
_cell_length_c   10.64846026
_cell_angle_alpha   89.37004564
_cell_angle_beta   90.00000000
_cell_angle_gamma   90.00000000
_symmetry_Int_Tables_number   1
_chemical_formula_structural   SrLi2YSi4
_chemical_formula_sum   'Sr2 Li4 Y2 Si8'
_cell_volume   324.31654376
_cell_formula_units_Z   2
loop_
 _symmetry_equiv_pos_site_id
 _symmetry_equiv_pos_as_xyz
  1  'x, y, z'
loop_
 _atom_site_type_symbol
 _atom_site_label
 _atom_site_symmetry_multiplicity
 _atom_site_fract_x
 _atom_site_fract_y
 _atom_site_fract_z
 _atom_site_occupancy
  Sr  Sr0  1  0.250000  0.640009  0.635081  1
  Sr  Sr1  1  0.750000  0.359991  0.364919  1
  Li  Li2  1  0.250000  0.001121  0.388015  1
  Li  Li3  1  0.750000  0.998879  0.611985  1
  Li  Li4  1  0.250000  0.491600  0.107594  1
  Li  Li5  1  0.750000  0.508400  0.892406  1
  Y  Y6  1  0.250000  0.126616  0.867252  1
  Y  Y7  1  0.750000  0.873384  0.132748  1
  Si  Si8  1  0.750000  0.259510  0.059571  1
  Si  Si9  1  0.250000  0.740490  0.940429  1
  Si  Si10  1  0.750000  0.781664  0.418344  1
  Si  Si11  1  0.250000  0.218336  0.581656  1
  Si  Si12  1  0.750000  0.845033  0.832356  1
  Si  Si13  1  0.250000  0.154967  0.167644  1
  Si  Si14  1  0.750000  0.322174  0.688929  1
  Si  Si15  1  0.250000  0.677826  0.311071  1
