# generated using pymatgen
data_Nb6Ga4CuPdN2
_symmetry_space_group_name_H-M   'P 1'
_cell_length_a   8.30798244
_cell_length_b   8.31114039
_cell_length_c   8.30798219
_cell_angle_alpha   59.98742017
_cell_angle_beta   59.94626630
_cell_angle_gamma   59.98742514
_symmetry_Int_Tables_number   1
_chemical_formula_structural   Nb6Ga4CuPdN2
_chemical_formula_sum   'Nb12 Ga8 Cu2 Pd2 N4'
_cell_volume   405.39421958
_cell_formula_units_Z   2
loop_
 _symmetry_equiv_pos_site_id
 _symmetry_equiv_pos_as_xyz
  1  'x, y, z'
loop_
 _atom_site_type_symbol
 _atom_site_label
 _atom_site_symmetry_multiplicity
 _atom_site_fract_x
 _atom_site_fract_y
 _atom_site_fract_z
 _atom_site_occupancy
  Nb  Nb0  1  0.434550  0.435107  0.067911  1
  Nb  Nb1  1  0.060984  0.439016  0.060984  1
  Nb  Nb2  1  0.434550  0.062432  0.067911  1
  Nb  Nb3  1  0.067911  0.062432  0.434550  1
  Nb  Nb4  1  0.430788  0.069212  0.430788  1
  Nb  Nb5  1  0.067911  0.435107  0.434550  1
  Nb  Nb6  1  0.815450  0.814893  0.182089  1
  Nb  Nb7  1  0.189016  0.810984  0.189016  1
  Nb  Nb8  1  0.815450  0.187568  0.182089  1
  Nb  Nb9  1  0.182089  0.187568  0.815450  1
  Nb  Nb10  1  0.819212  0.180788  0.819212  1
  Nb  Nb11  1  0.182089  0.814893  0.815450  1
  Ga  Ga12  1  0.841062  0.833727  0.491485  1
  Ga  Ga13  1  0.836853  0.495047  0.836853  1
  Ga  Ga14  1  0.491485  0.833727  0.841062  1
  Ga  Ga15  1  0.836853  0.831248  0.836853  1
  Ga  Ga16  1  0.408938  0.416273  0.758515  1
  Ga  Ga17  1  0.413147  0.754953  0.413147  1
  Ga  Ga18  1  0.758515  0.416273  0.408938  1
  Ga  Ga19  1  0.413147  0.418752  0.413147  1
  Cu  Cu20  1  0.625000  0.625000  0.125000  1
  Cu  Cu21  1  0.125000  0.625000  0.625000  1
  Pd  Pd22  1  0.625000  0.125000  0.625000  1
  Pd  Pd23  1  0.625000  0.625000  0.625000  1
  N  N24  1  0.125000  0.125000  0.625000  1
  N  N25  1  0.125000  0.625000  0.125000  1
  N  N26  1  0.625000  0.125000  0.125000  1
  N  N27  1  0.125000  0.125000  0.125000  1
