# generated using pymatgen
data_Ce3MgAu5
_symmetry_space_group_name_H-M   'P 1'
_cell_length_a   8.11599804
_cell_length_b   8.11599845
_cell_length_c   8.11599900
_cell_angle_alpha   65.87802957
_cell_angle_beta   65.87802828
_cell_angle_gamma   65.87802016
_symmetry_Int_Tables_number   1
_chemical_formula_structural   Ce3MgAu5
_chemical_formula_sum   'Ce6 Mg2 Au10'
_cell_volume   426.15605904
_cell_formula_units_Z   2
loop_
 _symmetry_equiv_pos_site_id
 _symmetry_equiv_pos_as_xyz
  1  'x, y, z'
loop_
 _atom_site_type_symbol
 _atom_site_label
 _atom_site_symmetry_multiplicity
 _atom_site_fract_x
 _atom_site_fract_y
 _atom_site_fract_z
 _atom_site_occupancy
  Ce  Ce0  1  0.893905  0.190767  0.621725  1
  Ce  Ce1  1  0.621725  0.893905  0.190767  1
  Ce  Ce2  1  0.190767  0.621725  0.893905  1
  Ce  Ce3  1  0.104401  0.811246  0.379543  1
  Ce  Ce4  1  0.379543  0.104401  0.811246  1
  Ce  Ce5  1  0.811246  0.379543  0.104401  1
  Mg  Mg6  1  0.345026  0.345026  0.345026  1
  Mg  Mg7  1  0.654179  0.654179  0.654179  1
  Au  Au8  1  0.999153  0.999153  0.999153  1
  Au  Au9  1  0.499218  0.499218  0.499218  1
  Au  Au10  1  0.800555  0.800555  0.800555  1
  Au  Au11  1  0.199593  0.199593  0.199593  1
  Au  Au12  1  0.939505  0.551400  0.318473  1
  Au  Au13  1  0.318473  0.939505  0.551400  1
  Au  Au14  1  0.551400  0.318473  0.939505  1
  Au  Au15  1  0.062523  0.448226  0.680562  1
  Au  Au16  1  0.680562  0.062523  0.448226  1
  Au  Au17  1  0.448226  0.680562  0.062523  1
