# generated using pymatgen
data_Ac3Hg3Pb2
_symmetry_space_group_name_H-M   'P 1'
_cell_length_a   6.86088143
_cell_length_b   6.86088126
_cell_length_c   11.36930100
_cell_angle_alpha   90.00000000
_cell_angle_beta   90.00000000
_cell_angle_gamma   101.92001961
_symmetry_Int_Tables_number   1
_chemical_formula_structural   Ac3Hg3Pb2
_chemical_formula_sum   'Ac6 Hg6 Pb4'
_cell_volume   523.63225869
_cell_formula_units_Z   2
loop_
 _symmetry_equiv_pos_site_id
 _symmetry_equiv_pos_as_xyz
  1  'x, y, z'
loop_
 _atom_site_type_symbol
 _atom_site_label
 _atom_site_symmetry_multiplicity
 _atom_site_fract_x
 _atom_site_fract_y
 _atom_site_fract_z
 _atom_site_occupancy
  Ac  Ac0  1  0.637441  0.637441  0.250000  1
  Ac  Ac1  1  0.362559  0.362559  0.750000  1
  Ac  Ac2  1  0.200066  0.799934  0.500000  1
  Ac  Ac3  1  0.200066  0.799934  0.000000  1
  Ac  Ac4  1  0.799934  0.200066  0.500000  1
  Ac  Ac5  1  0.799934  0.200066  0.000000  1
  Hg  Hg6  1  0.024585  0.024585  0.250000  1
  Hg  Hg7  1  0.975415  0.975415  0.750000  1
  Hg  Hg8  1  0.499637  0.078406  0.250000  1
  Hg  Hg9  1  0.921594  0.500363  0.750000  1
  Hg  Hg10  1  0.500363  0.921594  0.750000  1
  Hg  Hg11  1  0.078406  0.499637  0.250000  1
  Pb  Pb12  1  0.314509  0.314509  0.049700  1
  Pb  Pb13  1  0.685491  0.685491  0.950300  1
  Pb  Pb14  1  0.314509  0.314509  0.450300  1
  Pb  Pb15  1  0.685491  0.685491  0.549700  1
