# generated using pymatgen
data_Y6Cd22PPd
_symmetry_space_group_name_H-M   'P 1'
_cell_length_a   9.86894158
_cell_length_b   9.86894244
_cell_length_c   9.86894200
_cell_angle_alpha   60.00000149
_cell_angle_beta   59.99999861
_cell_angle_gamma   60.00000195
_symmetry_Int_Tables_number   1
_chemical_formula_structural   Y6Cd22PPd
_chemical_formula_sum   'Y6 Cd22 P1 Pd1'
_cell_volume   679.66796385
_cell_formula_units_Z   1
loop_
 _symmetry_equiv_pos_site_id
 _symmetry_equiv_pos_as_xyz
  1  'x, y, z'
loop_
 _atom_site_type_symbol
 _atom_site_label
 _atom_site_symmetry_multiplicity
 _atom_site_fract_x
 _atom_site_fract_y
 _atom_site_fract_z
 _atom_site_occupancy
  Y  Y0  1  0.799781  0.799781  0.200219  1
  Y  Y1  1  0.200219  0.799781  0.200219  1
  Y  Y2  1  0.799781  0.200219  0.200219  1
  Y  Y3  1  0.200219  0.200219  0.799781  1
  Y  Y4  1  0.799781  0.200219  0.799781  1
  Y  Y5  1  0.200219  0.799781  0.799781  1
  Cd  Cd6  1  0.834183  0.834183  0.497451  1
  Cd  Cd7  1  0.834183  0.497451  0.834183  1
  Cd  Cd8  1  0.497451  0.834183  0.834183  1
  Cd  Cd9  1  0.834183  0.834183  0.834183  1
  Cd  Cd10  1  0.165817  0.165817  0.502549  1
  Cd  Cd11  1  0.165817  0.502549  0.165817  1
  Cd  Cd12  1  0.502549  0.165817  0.165817  1
  Cd  Cd13  1  0.165817  0.165817  0.165817  1
  Cd  Cd14  1  0.616253  0.616253  0.151240  1
  Cd  Cd15  1  0.616253  0.151240  0.616253  1
  Cd  Cd16  1  0.151240  0.616253  0.616253  1
  Cd  Cd17  1  0.616253  0.616253  0.616253  1
  Cd  Cd18  1  0.383747  0.383747  0.848760  1
  Cd  Cd19  1  0.383747  0.848760  0.383747  1
  Cd  Cd20  1  0.848760  0.383747  0.383747  1
  Cd  Cd21  1  0.383747  0.383747  0.383747  1
  Cd  Cd22  1  0.000000  0.000000  0.500000  1
  Cd  Cd23  1  0.500000  0.000000  0.500000  1
  Cd  Cd24  1  0.000000  0.500000  0.500000  1
  Cd  Cd25  1  0.500000  0.500000  0.000000  1
  Cd  Cd26  1  0.000000  0.500000  0.000000  1
  Cd  Cd27  1  0.500000  0.000000  0.000000  1
  P  P28  1  0.000000  0.000000  0.000000  1
  Pd  Pd29  1  0.500000  0.500000  0.500000  1
