# generated using pymatgen
data_Rb2BaBi2O7
_symmetry_space_group_name_H-M   'P 1'
_cell_length_a   4.32377137
_cell_length_b   4.32278655
_cell_length_c   11.92995878
_cell_angle_alpha   100.42449687
_cell_angle_beta   100.42725426
_cell_angle_gamma   90.00834350
_symmetry_Int_Tables_number   1
_chemical_formula_structural   Rb2BaBi2O7
_chemical_formula_sum   'Rb2 Ba1 Bi2 O7'
_cell_volume   215.55293771
_cell_formula_units_Z   1
loop_
 _symmetry_equiv_pos_site_id
 _symmetry_equiv_pos_as_xyz
  1  'x, y, z'
loop_
 _atom_site_type_symbol
 _atom_site_label
 _atom_site_symmetry_multiplicity
 _atom_site_fract_x
 _atom_site_fract_y
 _atom_site_fract_z
 _atom_site_occupancy
  Rb  Rb0  1  0.192456  0.192446  0.383147  1
  Rb  Rb1  1  0.807544  0.807554  0.616853  1
  Ba  Ba2  1  0.000000  0.000000  0.000000  1
  Bi  Bi3  1  0.596494  0.596494  0.193505  1
  Bi  Bi4  1  0.403506  0.403506  0.806495  1
  O  O5  1  0.500001  0.500001  0.000000  1
  O  O6  1  0.581804  0.082382  0.165676  1
  O  O7  1  0.082382  0.581802  0.165671  1
  O  O8  1  0.685047  0.685044  0.370576  1
  O  O9  1  0.314953  0.314956  0.629425  1
  O  O10  1  0.917620  0.418199  0.834328  1
  O  O11  1  0.418197  0.917620  0.834323  1
