# generated using pymatgen
data_Yb4FeCo(CN)4
_symmetry_space_group_name_H-M   'P 1'
_cell_length_a   6.50547711
_cell_length_b   6.50547669
_cell_length_c   6.50547637
_cell_angle_alpha   135.75156426
_cell_angle_beta   111.76423201
_cell_angle_gamma   85.00268026
_symmetry_Int_Tables_number   1
_chemical_formula_structural   Yb4FeCo(CN)4
_chemical_formula_sum   'Yb4 Fe1 Co1 C4 N4'
_cell_volume   171.51456356
_cell_formula_units_Z   1
loop_
 _symmetry_equiv_pos_site_id
 _symmetry_equiv_pos_as_xyz
  1  'x, y, z'
loop_
 _atom_site_type_symbol
 _atom_site_label
 _atom_site_symmetry_multiplicity
 _atom_site_fract_x
 _atom_site_fract_y
 _atom_site_fract_z
 _atom_site_occupancy
  Yb  Yb0  1  0.193673  0.350311  0.842259  1
  Yb  Yb1  1  0.806327  0.648585  0.156639  1
  Yb  Yb2  1  0.508052  0.851413  0.657741  1
  Yb  Yb3  1  0.491948  0.149689  0.343361  1
  Fe  Fe4  1  0.000002  0.750002  0.750000  1
  Co  Co5  1  0.000000  0.250000  0.250000  1
  C  C6  1  0.904740  0.067303  0.820774  1
  C  C7  1  0.095260  0.916033  0.162563  1
  C  C8  1  0.246528  0.583966  0.679226  1
  C  C9  1  0.753471  0.432697  0.337437  1
  N  N10  1  0.789037  0.127001  0.664513  1
  N  N11  1  0.210961  0.875475  0.337962  1
  N  N12  1  0.462489  0.624525  0.835487  1
  N  N13  1  0.537512  0.372999  0.162038  1
