# generated using pymatgen
data_Rb4ZrO4
_symmetry_space_group_name_H-M   'P 1'
_cell_length_a   7.63009548
_cell_length_b   10.29988353
_cell_length_c   11.65191277
_cell_angle_alpha   73.11011345
_cell_angle_beta   90.04992224
_cell_angle_gamma   82.87765928
_symmetry_Int_Tables_number   1
_chemical_formula_structural   Rb4ZrO4
_chemical_formula_sum   'Rb16 Zr4 O16'
_cell_volume   868.79608966
_cell_formula_units_Z   4
loop_
 _symmetry_equiv_pos_site_id
 _symmetry_equiv_pos_as_xyz
  1  'x, y, z'
loop_
 _atom_site_type_symbol
 _atom_site_label
 _atom_site_symmetry_multiplicity
 _atom_site_fract_x
 _atom_site_fract_y
 _atom_site_fract_z
 _atom_site_occupancy
  Rb  Rb0  1  0.632714  0.380794  0.409820  1
  Rb  Rb1  1  0.132707  0.380786  0.909838  1
  Rb  Rb2  1  0.367293  0.619213  0.590164  1
  Rb  Rb3  1  0.867286  0.619206  0.090180  1
  Rb  Rb4  1  0.921613  0.164290  0.669859  1
  Rb  Rb5  1  0.421618  0.164286  0.169859  1
  Rb  Rb6  1  0.078383  0.835715  0.330144  1
  Rb  Rb7  1  0.578388  0.835709  0.830140  1
  Rb  Rb8  1  0.259837  0.026944  0.504765  1
  Rb  Rb9  1  0.759842  0.026944  0.004771  1
  Rb  Rb10  1  0.740156  0.973056  0.495229  1
  Rb  Rb11  1  0.240164  0.973057  0.995235  1
  Rb  Rb12  1  0.120506  0.440093  0.392658  1
  Rb  Rb13  1  0.620511  0.440102  0.892660  1
  Rb  Rb14  1  0.879491  0.559898  0.607340  1
  Rb  Rb15  1  0.379493  0.559907  0.107342  1
  Zr  Zr16  1  0.439724  0.246056  0.713667  1
  Zr  Zr17  1  0.060278  0.753944  0.786332  1
  Zr  Zr18  1  0.939764  0.246059  0.213665  1
  Zr  Zr19  1  0.560235  0.753942  0.286335  1
  O  O20  1  0.120169  0.376171  0.166822  1
  O  O21  1  0.620064  0.376102  0.666842  1
  O  O22  1  0.879938  0.623898  0.833157  1
  O  O23  1  0.379835  0.623834  0.333176  1
  O  O24  1  0.800007  0.652374  0.349469  1
  O  O25  1  0.299902  0.652429  0.849438  1
  O  O26  1  0.200099  0.347571  0.650561  1
  O  O27  1  0.699981  0.347630  0.150530  1
  O  O28  1  0.940088  0.189984  0.393923  1
  O  O29  1  0.440080  0.190025  0.893832  1
  O  O30  1  0.059921  0.809977  0.606168  1
  O  O31  1  0.559911  0.810013  0.106083  1
  O  O32  1  0.016330  0.090130  0.146587  1
  O  O33  1  0.516274  0.090222  0.646629  1
  O  O34  1  0.983728  0.909777  0.853372  1
  O  O35  1  0.483671  0.909865  0.353411  1
