# generated using pymatgen
data_Li2LaHoSi4
_symmetry_space_group_name_H-M   'P 1'
_cell_length_a   3.85935200
_cell_length_b   7.71168983
_cell_length_c   10.40533440
_cell_angle_alpha   89.56724708
_cell_angle_beta   90.00000000
_cell_angle_gamma   90.00000000
_symmetry_Int_Tables_number   1
_chemical_formula_structural   Li2LaHoSi4
_chemical_formula_sum   'Li4 La2 Ho2 Si8'
_cell_volume   309.67603581
_cell_formula_units_Z   2
loop_
 _symmetry_equiv_pos_site_id
 _symmetry_equiv_pos_as_xyz
  1  'x, y, z'
loop_
 _atom_site_type_symbol
 _atom_site_label
 _atom_site_symmetry_multiplicity
 _atom_site_fract_x
 _atom_site_fract_y
 _atom_site_fract_z
 _atom_site_occupancy
  Li  Li0  1  0.250000  0.996150  0.388470  1
  Li  Li1  1  0.750000  0.003850  0.611530  1
  Li  Li2  1  0.250000  0.490595  0.106218  1
  Li  Li3  1  0.750000  0.509405  0.893782  1
  La  La4  1  0.250000  0.641177  0.636945  1
  La  La5  1  0.750000  0.358823  0.363055  1
  Ho  Ho6  1  0.250000  0.131881  0.865869  1
  Ho  Ho7  1  0.750000  0.868119  0.134131  1
  Si  Si8  1  0.750000  0.262786  0.062453  1
  Si  Si9  1  0.250000  0.737214  0.937547  1
  Si  Si10  1  0.750000  0.779944  0.421865  1
  Si  Si11  1  0.250000  0.220056  0.578135  1
  Si  Si12  1  0.750000  0.844535  0.827940  1
  Si  Si13  1  0.250000  0.155465  0.172060  1
  Si  Si14  1  0.750000  0.330416  0.685413  1
  Si  Si15  1  0.250000  0.669584  0.314587  1
