# generated using pymatgen
data_CrFe11(Mo3N)4
_symmetry_space_group_name_H-M   'P 1'
_cell_length_a   7.81584127
_cell_length_b   7.82514199
_cell_length_c   7.82514200
_cell_angle_alpha   59.99999995
_cell_angle_beta   59.96062780
_cell_angle_gamma   59.96063545
_symmetry_Int_Tables_number   1
_chemical_formula_structural   CrFe11(Mo3N)4
_chemical_formula_sum   'Cr1 Fe11 Mo12 N4'
_cell_volume   338.21004475
_cell_formula_units_Z   1
loop_
 _symmetry_equiv_pos_site_id
 _symmetry_equiv_pos_as_xyz
  1  'x, y, z'
loop_
 _atom_site_type_symbol
 _atom_site_label
 _atom_site_symmetry_multiplicity
 _atom_site_fract_x
 _atom_site_fract_y
 _atom_site_fract_z
 _atom_site_occupancy
  Cr  Cr0  1  0.125000  0.625000  0.625000  1
  Fe  Fe1  1  0.625000  0.125000  0.625000  1
  Fe  Fe2  1  0.625000  0.625000  0.125000  1
  Fe  Fe3  1  0.625000  0.625000  0.625000  1
  Fe  Fe4  1  0.731361  0.422880  0.422880  1
  Fe  Fe5  1  0.420685  0.732711  0.423302  1
  Fe  Fe6  1  0.420685  0.423302  0.732711  1
  Fe  Fe7  1  0.420685  0.423302  0.423302  1
  Fe  Fe8  1  0.518639  0.827120  0.827120  1
  Fe  Fe9  1  0.829315  0.517289  0.826698  1
  Fe  Fe10  1  0.829315  0.826698  0.517289  1
  Fe  Fe11  1  0.829315  0.826698  0.826698  1
  Mo  Mo12  1  0.797499  0.796943  0.202779  1
  Mo  Mo13  1  0.201668  0.198971  0.799681  1
  Mo  Mo14  1  0.797499  0.202779  0.796943  1
  Mo  Mo15  1  0.201668  0.799681  0.198971  1
  Mo  Mo16  1  0.201668  0.799681  0.799681  1
  Mo  Mo17  1  0.797499  0.202779  0.202779  1
  Mo  Mo18  1  0.452501  0.453057  0.047221  1
  Mo  Mo19  1  0.048332  0.051029  0.450319  1
  Mo  Mo20  1  0.452501  0.047221  0.453057  1
  Mo  Mo21  1  0.048332  0.450319  0.051029  1
  Mo  Mo22  1  0.048332  0.450319  0.450319  1
  Mo  Mo23  1  0.452501  0.047221  0.047221  1
  N  N24  1  0.625000  0.125000  0.125000  1
  N  N25  1  0.125000  0.625000  0.125000  1
  N  N26  1  0.125000  0.125000  0.625000  1
  N  N27  1  0.125000  0.125000  0.125000  1
