# generated using pymatgen
data_LiPa2As4Pd7
_symmetry_space_group_name_H-M   'P 1'
_cell_length_a   7.97608632
_cell_length_b   7.97608670
_cell_length_c   9.64600112
_cell_angle_alpha   55.58857284
_cell_angle_beta   55.58857106
_cell_angle_gamma   29.98636505
_symmetry_Int_Tables_number   1
_chemical_formula_structural   LiPa2As4Pd7
_chemical_formula_sum   'Li1 Pa2 As4 Pd7'
_cell_volume   248.73555716
_cell_formula_units_Z   1
loop_
 _symmetry_equiv_pos_site_id
 _symmetry_equiv_pos_as_xyz
  1  'x, y, z'
loop_
 _atom_site_type_symbol
 _atom_site_label
 _atom_site_symmetry_multiplicity
 _atom_site_fract_x
 _atom_site_fract_y
 _atom_site_fract_z
 _atom_site_occupancy
  Li  Li0  1  0.183247  0.183247  0.820458  1
  Pa  Pa1  1  0.494936  0.494936  0.509550  1
  Pa  Pa2  1  0.822965  0.822965  0.168996  1
  As  As3  1  0.396084  0.396084  0.326304  1
  As  As4  1  0.607892  0.607892  0.679334  1
  As  As5  1  0.841271  0.841271  0.747998  1
  As  As6  1  0.151597  0.151597  0.259302  1
  Pd  Pd7  1  0.671755  0.671755  0.061899  1
  Pd  Pd8  1  0.012899  0.012899  0.193692  1
  Pd  Pd9  1  0.987370  0.987370  0.803399  1
  Pd  Pd10  1  0.498667  0.498667  0.997294  1
  Pd  Pd11  1  0.190641  0.190641  0.476255  1
  Pd  Pd12  1  0.808687  0.808687  0.520984  1
  Pd  Pd13  1  0.331990  0.331990  0.934536  1
