# generated using pymatgen
data_LuNi3Ge2
_symmetry_space_group_name_H-M   'P 1'
_cell_length_a   17.99684700
_cell_length_b   17.99684715
_cell_length_c   3.79588900
_cell_angle_alpha   90.00000000
_cell_angle_beta   90.00000000
_cell_angle_gamma   120.00000523
_symmetry_Int_Tables_number   1
_chemical_formula_structural   LuNi3Ge2
_chemical_formula_sum   'Lu12 Ni36 Ge24'
_cell_volume   1064.72380905
_cell_formula_units_Z   12
loop_
 _symmetry_equiv_pos_site_id
 _symmetry_equiv_pos_as_xyz
  1  'x, y, z'
loop_
 _atom_site_type_symbol
 _atom_site_label
 _atom_site_symmetry_multiplicity
 _atom_site_fract_x
 _atom_site_fract_y
 _atom_site_fract_z
 _atom_site_occupancy
  Lu  Lu0  1  0.500000  0.000000  0.000000  1
  Lu  Lu1  1  0.000000  0.500000  0.000000  1
  Lu  Lu2  1  0.234521  0.327091  0.000000  1
  Lu  Lu3  1  0.327091  0.092570  0.000000  1
  Lu  Lu4  1  0.500000  0.500000  0.000000  1
  Lu  Lu5  1  0.333333  0.666667  0.500000  1
  Lu  Lu6  1  0.672909  0.907430  0.000000  1
  Lu  Lu7  1  0.907430  0.234521  0.000000  1
  Lu  Lu8  1  0.092570  0.765479  0.000000  1
  Lu  Lu9  1  0.765479  0.672909  0.000000  1
  Lu  Lu10  1  0.000000  0.000000  0.000000  1
  Lu  Lu11  1  0.666667  0.333333  0.500000  1
  Ni  Ni12  1  0.839988  0.952883  0.500000  1
  Ni  Ni13  1  0.611628  0.701305  0.000000  1
  Ni  Ni14  1  0.487250  0.731827  0.000000  1
  Ni  Ni15  1  0.723171  0.789920  0.500000  1
  Ni  Ni16  1  0.513105  0.379685  0.500000  1
  Ni  Ni17  1  0.160012  0.047117  0.500000  1
  Ni  Ni18  1  0.066750  0.276829  0.500000  1
  Ni  Ni19  1  0.518946  0.858793  0.500000  1
  Ni  Ni20  1  0.701305  0.089677  0.000000  1
  Ni  Ni21  1  0.388372  0.298695  0.000000  1
  Ni  Ni22  1  0.789920  0.066750  0.500000  1
  Ni  Ni23  1  0.244576  0.512750  0.000000  1
  Ni  Ni24  1  0.755424  0.487250  0.000000  1
  Ni  Ni25  1  0.339847  0.481054  0.500000  1
  Ni  Ni26  1  0.210080  0.933250  0.500000  1
  Ni  Ni27  1  0.481054  0.141207  0.500000  1
  Ni  Ni28  1  0.620315  0.133420  0.500000  1
  Ni  Ni29  1  0.268173  0.755424  0.000000  1
  Ni  Ni30  1  0.731827  0.244576  0.000000  1
  Ni  Ni31  1  0.298695  0.910323  0.000000  1
  Ni  Ni32  1  0.276829  0.210080  0.500000  1
  Ni  Ni33  1  0.952883  0.112895  0.500000  1
  Ni  Ni34  1  0.933250  0.723171  0.500000  1
  Ni  Ni35  1  0.660153  0.518946  0.500000  1
  Ni  Ni36  1  0.866580  0.486895  0.500000  1
  Ni  Ni37  1  0.112895  0.160012  0.500000  1
  Ni  Ni38  1  0.910323  0.611628  0.000000  1
  Ni  Ni39  1  0.512750  0.268173  0.000000  1
  Ni  Ni40  1  0.858793  0.339847  0.500000  1
  Ni  Ni41  1  0.379685  0.866580  0.500000  1
  Ni  Ni42  1  0.133420  0.513105  0.500000  1
  Ni  Ni43  1  0.141207  0.660153  0.500000  1
  Ni  Ni44  1  0.887105  0.839988  0.500000  1
  Ni  Ni45  1  0.486895  0.620315  0.500000  1
  Ni  Ni46  1  0.047117  0.887105  0.500000  1
  Ni  Ni47  1  0.089677  0.388372  0.000000  1
  Ge  Ge48  1  0.811407  0.581277  0.500000  1
  Ge  Ge49  1  0.630776  0.003164  0.500000  1
  Ge  Ge50  1  0.856434  0.046788  0.000000  1
  Ge  Ge51  1  0.419502  0.812412  0.000000  1
  Ge  Ge52  1  0.143566  0.953212  0.000000  1
  Ge  Ge53  1  0.581277  0.769870  0.500000  1
  Ge  Ge54  1  0.769870  0.188593  0.500000  1
  Ge  Ge55  1  0.953212  0.809647  0.000000  1
  Ge  Ge56  1  0.392910  0.580498  0.000000  1
  Ge  Ge57  1  0.812412  0.392910  0.000000  1
  Ge  Ge58  1  0.190353  0.143566  0.000000  1
  Ge  Ge59  1  0.996836  0.627612  0.500000  1
  Ge  Ge60  1  0.369224  0.996836  0.500000  1
  Ge  Ge61  1  0.046788  0.190353  0.000000  1
  Ge  Ge62  1  0.230130  0.811407  0.500000  1
  Ge  Ge63  1  0.187588  0.607090  0.000000  1
  Ge  Ge64  1  0.372388  0.369224  0.500000  1
  Ge  Ge65  1  0.418723  0.230130  0.500000  1
  Ge  Ge66  1  0.627612  0.630776  0.500000  1
  Ge  Ge67  1  0.809647  0.856434  0.000000  1
  Ge  Ge68  1  0.188593  0.418723  0.500000  1
  Ge  Ge69  1  0.003164  0.372388  0.500000  1
  Ge  Ge70  1  0.607090  0.419502  0.000000  1
  Ge  Ge71  1  0.580498  0.187588  0.000000  1
