# generated using pymatgen
data_Yb6CrReO12
_symmetry_space_group_name_H-M   'P 1'
_cell_length_a   5.75836095
_cell_length_b   5.41508282
_cell_length_c   9.51300000
_cell_angle_alpha   55.30679197
_cell_angle_beta   89.01440238
_cell_angle_gamma   90.39678230
_symmetry_Int_Tables_number   1
_chemical_formula_structural   Yb6CrReO12
_chemical_formula_sum   'Yb6 Cr1 Re1 O12'
_cell_volume   243.80970426
_cell_formula_units_Z   1
loop_
 _symmetry_equiv_pos_site_id
 _symmetry_equiv_pos_as_xyz
  1  'x, y, z'
loop_
 _atom_site_type_symbol
 _atom_site_label
 _atom_site_symmetry_multiplicity
 _atom_site_fract_x
 _atom_site_fract_y
 _atom_site_fract_z
 _atom_site_occupancy
  Yb  Yb0  1  0.571736  0.251068  0.226575  1
  Yb  Yb1  1  0.061114  0.795282  0.219045  1
  Yb  Yb2  1  0.500000  0.000000  0.000000  1
  Yb  Yb3  1  0.000000  0.000000  0.500000  1
  Yb  Yb4  1  0.938886  0.204718  0.780955  1
  Yb  Yb5  1  0.428264  0.748932  0.773425  1
  Cr  Cr6  1  0.000000  0.500000  0.000000  1
  Re  Re7  1  0.500000  0.500000  0.500000  1
  O  O8  1  0.551923  0.399134  0.723495  1
  O  O9  1  0.042757  0.620284  0.775449  1
  O  O10  1  0.448077  0.600866  0.276505  1
  O  O11  1  0.957243  0.379716  0.224551  1
  O  O12  1  0.778630  0.739769  0.420718  1
  O  O13  1  0.280411  0.269960  0.056915  1
  O  O14  1  0.221370  0.260231  0.579282  1
  O  O15  1  0.719589  0.730040  0.943085  1
  O  O16  1  0.179555  0.834528  0.953395  1
  O  O17  1  0.668225  0.157861  0.556052  1
  O  O18  1  0.820445  0.165472  0.046605  1
  O  O19  1  0.331775  0.842139  0.443948  1
