# generated using pymatgen
data_Nd2Lu2Al17GaIr6
_symmetry_space_group_name_H-M   'P 1'
_cell_length_a   7.57100235
_cell_length_b   7.57100358
_cell_length_c   9.54071000
_cell_angle_alpha   90.00000000
_cell_angle_beta   90.00000000
_cell_angle_gamma   119.38446220
_symmetry_Int_Tables_number   1
_chemical_formula_structural   Nd2Lu2Al17GaIr6
_chemical_formula_sum   'Nd2 Lu2 Al17 Ga1 Ir6'
_cell_volume   476.51724368
_cell_formula_units_Z   1
loop_
 _symmetry_equiv_pos_site_id
 _symmetry_equiv_pos_as_xyz
  1  'x, y, z'
loop_
 _atom_site_type_symbol
 _atom_site_label
 _atom_site_symmetry_multiplicity
 _atom_site_fract_x
 _atom_site_fract_y
 _atom_site_fract_z
 _atom_site_occupancy
  Nd  Nd0  1  0.993887  0.673913  0.250000  1
  Nd  Nd1  1  0.673913  0.993887  0.250000  1
  Lu  Lu2  1  0.005350  0.326726  0.750000  1
  Lu  Lu3  1  0.326726  0.005350  0.750000  1
  Al  Al4  1  0.871016  0.871016  0.750000  1
  Al  Al5  1  0.003086  0.335639  0.067838  1
  Al  Al6  1  0.999749  0.663866  0.921446  1
  Al  Al7  1  0.999749  0.663866  0.578554  1
  Al  Al8  1  0.335639  0.003086  0.432162  1
  Al  Al9  1  0.003086  0.335639  0.432162  1
  Al  Al10  1  0.663866  0.999749  0.578554  1
  Al  Al11  1  0.663866  0.999749  0.921446  1
  Al  Al12  1  0.335639  0.003086  0.067838  1
  Al  Al13  1  0.332571  0.332571  0.558463  1
  Al  Al14  1  0.664705  0.664705  0.456520  1
  Al  Al15  1  0.664705  0.664705  0.043480  1
  Al  Al16  1  0.332571  0.332571  0.941537  1
  Al  Al17  1  0.338178  0.546337  0.250000  1
  Al  Al18  1  0.660348  0.449287  0.750000  1
  Al  Al19  1  0.546337  0.338178  0.250000  1
  Al  Al20  1  0.449287  0.660348  0.750000  1
  Ga  Ga21  1  0.137382  0.137382  0.250000  1
  Ir  Ir22  1  0.670494  0.327177  0.997486  1
  Ir  Ir23  1  0.327177  0.670494  0.997486  1
  Ir  Ir24  1  0.327177  0.670494  0.502514  1
  Ir  Ir25  1  0.670494  0.327177  0.502514  1
  Ir  Ir26  1  0.001500  0.001500  0.994082  1
  Ir  Ir27  1  0.001500  0.001500  0.505918  1
