# generated using pymatgen
data_Er2Lu3P12Ru16Pt3
_symmetry_space_group_name_H-M   'P 1'
_cell_length_a   12.56329705
_cell_length_b   12.56329796
_cell_length_c   3.96924400
_cell_angle_alpha   90.00000000
_cell_angle_beta   90.00000000
_cell_angle_gamma   120.01035833
_symmetry_Int_Tables_number   1
_chemical_formula_structural   Er2Lu3P12Ru16Pt3
_chemical_formula_sum   'Er2 Lu3 P12 Ru16 Pt3'
_cell_volume   542.50079250
_cell_formula_units_Z   1
loop_
 _symmetry_equiv_pos_site_id
 _symmetry_equiv_pos_as_xyz
  1  'x, y, z'
loop_
 _atom_site_type_symbol
 _atom_site_label
 _atom_site_symmetry_multiplicity
 _atom_site_fract_x
 _atom_site_fract_y
 _atom_site_fract_z
 _atom_site_occupancy
  Er  Er0  1  0.818254  0.000052  0.500000  1
  Er  Er1  1  0.000052  0.818254  0.500000  1
  Lu  Lu2  1  0.181643  0.181643  0.500000  1
  Lu  Lu3  1  0.333312  0.666655  0.000000  1
  Lu  Lu4  1  0.666655  0.333312  0.000000  1
  P  P5  1  0.815885  0.815885  0.000000  1
  P  P6  1  0.184147  0.000156  0.000000  1
  P  P7  1  0.000156  0.184147  0.000000  1
  P  P8  1  0.180471  0.481188  0.500000  1
  P  P9  1  0.518806  0.699327  0.500000  1
  P  P10  1  0.300675  0.819563  0.500000  1
  P  P11  1  0.699327  0.518806  0.500000  1
  P  P12  1  0.819563  0.300675  0.500000  1
  P  P13  1  0.481188  0.180471  0.500000  1
  P  P14  1  0.364486  0.364486  0.000000  1
  P  P15  1  0.635253  0.000005  0.000000  1
  P  P16  1  0.000005  0.635253  0.000000  1
  Ru  Ru17  1  0.711821  0.711821  0.500000  1
  Ru  Ru18  1  0.288059  0.000194  0.500000  1
  Ru  Ru19  1  0.000194  0.288059  0.500000  1
  Ru  Ru20  1  0.185189  0.377836  0.000000  1
  Ru  Ru21  1  0.621683  0.806798  0.000000  1
  Ru  Ru22  1  0.193237  0.814926  0.000000  1
  Ru  Ru23  1  0.806798  0.621683  0.000000  1
  Ru  Ru24  1  0.814926  0.193237  0.000000  1
  Ru  Ru25  1  0.377836  0.185189  0.000000  1
  Ru  Ru26  1  0.369071  0.494731  0.500000  1
  Ru  Ru27  1  0.505219  0.874318  0.500000  1
  Ru  Ru28  1  0.125659  0.630881  0.500000  1
  Ru  Ru29  1  0.874318  0.505219  0.500000  1
  Ru  Ru30  1  0.630881  0.125659  0.500000  1
  Ru  Ru31  1  0.494731  0.369071  0.500000  1
  Ru  Ru32  1  0.000576  0.000576  0.000000  1
  Pt  Pt33  1  0.551498  0.551498  0.000000  1
  Pt  Pt34  1  0.448456  0.999971  0.000000  1
  Pt  Pt35  1  0.999971  0.448456  0.000000  1
