# generated using pymatgen
data_Dy6Ho2Re(B8Ru)3
_symmetry_space_group_name_H-M   'P 1'
_cell_length_a   3.66818800
_cell_length_b   9.14227118
_cell_length_c   11.52762004
_cell_angle_alpha   90.13676790
_cell_angle_beta   90.00000000
_cell_angle_gamma   90.00000000
_symmetry_Int_Tables_number   1
_chemical_formula_structural   Dy6Ho2Re(B8Ru)3
_chemical_formula_sum   'Dy6 Ho2 Re1 B24 Ru3'
_cell_volume   386.58420096
_cell_formula_units_Z   1
loop_
 _symmetry_equiv_pos_site_id
 _symmetry_equiv_pos_as_xyz
  1  'x, y, z'
loop_
 _atom_site_type_symbol
 _atom_site_label
 _atom_site_symmetry_multiplicity
 _atom_site_fract_x
 _atom_site_fract_y
 _atom_site_fract_z
 _atom_site_occupancy
  Dy  Dy0  1  0.000000  0.323151  0.415062  1
  Dy  Dy1  1  0.000000  0.679788  0.588039  1
  Dy  Dy2  1  0.000000  0.822750  0.083472  1
  Dy  Dy3  1  0.000000  0.176155  0.913499  1
  Dy  Dy4  1  0.000000  0.943042  0.370861  1
  Dy  Dy5  1  0.000000  0.056521  0.627834  1
  Ho  Ho6  1  0.000000  0.442590  0.128677  1
  Ho  Ho7  1  0.000000  0.556004  0.872408  1
  Re  Re8  1  0.000000  0.862144  0.821330  1
  B  B9  1  0.500000  0.554098  0.433127  1
  B  B10  1  0.500000  0.446194  0.567218  1
  B  B11  1  0.500000  0.053878  0.067565  1
  B  B12  1  0.500000  0.947009  0.933168  1
  B  B13  1  0.500000  0.748132  0.419327  1
  B  B14  1  0.500000  0.252218  0.580430  1
  B  B15  1  0.500000  0.248124  0.080892  1
  B  B16  1  0.500000  0.751275  0.919213  1
  B  B17  1  0.500000  0.789949  0.265796  1
  B  B18  1  0.500000  0.209578  0.733243  1
  B  B19  1  0.500000  0.290756  0.234160  1
  B  B20  1  0.500000  0.708324  0.765955  1
  B  B21  1  0.500000  0.630828  0.185298  1
  B  B22  1  0.500000  0.368464  0.814371  1
  B  B23  1  0.500000  0.131902  0.314732  1
  B  B24  1  0.500000  0.868646  0.685541  1
  B  B25  1  0.500000  0.983772  0.212308  1
  B  B26  1  0.500000  0.017598  0.787487  1
  B  B27  1  0.500000  0.483366  0.287979  1
  B  B28  1  0.500000  0.516579  0.712662  1
  B  B29  1  0.500000  0.605231  0.029974  1
  B  B30  1  0.500000  0.392685  0.970910  1
  B  B31  1  0.500000  0.107576  0.469750  1
  B  B32  1  0.500000  0.893336  0.528814  1
  Ru  Ru33  1  0.000000  0.637487  0.321057  1
  Ru  Ru34  1  0.000000  0.362659  0.678580  1
  Ru  Ru35  1  0.000000  0.138186  0.179259  1
