# generated using pymatgen
data_Zr10In3Cu2Te3
_symmetry_space_group_name_H-M   'P 1'
_cell_length_a   8.67466800
_cell_length_b   8.67466899
_cell_length_c   5.84619800
_cell_angle_alpha   90.00000000
_cell_angle_beta   90.00000000
_cell_angle_gamma   119.99999623
_symmetry_Int_Tables_number   1
_chemical_formula_structural   Zr10In3Cu2Te3
_chemical_formula_sum   'Zr10 In3 Cu2 Te3'
_cell_volume   380.98681175
_cell_formula_units_Z   1
loop_
 _symmetry_equiv_pos_site_id
 _symmetry_equiv_pos_as_xyz
  1  'x, y, z'
loop_
 _atom_site_type_symbol
 _atom_site_label
 _atom_site_symmetry_multiplicity
 _atom_site_fract_x
 _atom_site_fract_y
 _atom_site_fract_z
 _atom_site_occupancy
  Zr  Zr0  1  0.742901  0.742901  0.250000  1
  Zr  Zr1  1  0.257099  0.000000  0.250000  1
  Zr  Zr2  1  0.000000  0.257099  0.250000  1
  Zr  Zr3  1  0.271489  0.271489  0.750000  1
  Zr  Zr4  1  0.728511  0.000000  0.750000  1
  Zr  Zr5  1  0.000000  0.728511  0.750000  1
  Zr  Zr6  1  0.666667  0.333333  0.503755  1
  Zr  Zr7  1  0.333333  0.666667  0.503755  1
  Zr  Zr8  1  0.333333  0.666667  0.996245  1
  Zr  Zr9  1  0.666667  0.333333  0.996245  1
  In  In10  1  0.620090  0.620090  0.750000  1
  In  In11  1  0.379910  0.000000  0.750000  1
  In  In12  1  0.000000  0.379910  0.750000  1
  Cu  Cu13  1  0.000000  0.000000  0.522881  1
  Cu  Cu14  1  0.000000  0.000000  0.977119  1
  Te  Te15  1  0.388896  0.388896  0.250000  1
  Te  Te16  1  0.611104  0.000000  0.250000  1
  Te  Te17  1  0.000000  0.611104  0.250000  1
