# generated using pymatgen
data_Dy3LuMnTc7
_symmetry_space_group_name_H-M   'P 1'
_cell_length_a   5.32846203
_cell_length_b   5.32860891
_cell_length_c   8.93570000
_cell_angle_alpha   89.99353240
_cell_angle_beta   90.00573696
_cell_angle_gamma   119.99589574
_symmetry_Int_Tables_number   1
_chemical_formula_structural   Dy3LuMnTc7
_chemical_formula_sum   'Dy3 Lu1 Mn1 Tc7'
_cell_volume   219.73178814
_cell_formula_units_Z   1
loop_
 _symmetry_equiv_pos_site_id
 _symmetry_equiv_pos_as_xyz
  1  'x, y, z'
loop_
 _atom_site_type_symbol
 _atom_site_label
 _atom_site_symmetry_multiplicity
 _atom_site_fract_x
 _atom_site_fract_y
 _atom_site_fract_z
 _atom_site_occupancy
  Dy  Dy0  1  0.333327  0.666657  0.435958  1
  Dy  Dy1  1  0.333333  0.666669  0.063598  1
  Dy  Dy2  1  0.666659  0.333323  0.935929  1
  Lu  Lu3  1  0.666687  0.333337  0.564912  1
  Mn  Mn4  1  0.000003  0.000003  0.999784  1
  Tc  Tc5  1  0.000000  0.000000  0.500174  1
  Tc  Tc6  1  0.170297  0.340656  0.751521  1
  Tc  Tc7  1  0.170264  0.829694  0.751535  1
  Tc  Tc8  1  0.659317  0.829674  0.751553  1
  Tc  Tc9  1  0.829627  0.659218  0.248354  1
  Tc  Tc10  1  0.829656  0.170358  0.248352  1
  Tc  Tc11  1  0.340831  0.170410  0.248330  1
