# generated using pymatgen
data_CeY3Ti3AlIr4
_symmetry_space_group_name_H-M   'P 1'
_cell_length_a   6.98802311
_cell_length_b   4.35558400
_cell_length_c   8.02318369
_cell_angle_alpha   90.00000000
_cell_angle_beta   93.25396026
_cell_angle_gamma   90.00000000
_symmetry_Int_Tables_number   1
_chemical_formula_structural   CeY3Ti3AlIr4
_chemical_formula_sum   'Ce1 Y3 Ti3 Al1 Ir4'
_cell_volume   243.80730000
_cell_formula_units_Z   1
loop_
 _symmetry_equiv_pos_site_id
 _symmetry_equiv_pos_as_xyz
  1  'x, y, z'
loop_
 _atom_site_type_symbol
 _atom_site_label
 _atom_site_symmetry_multiplicity
 _atom_site_fract_x
 _atom_site_fract_y
 _atom_site_fract_z
 _atom_site_occupancy
  Ce  Ce0  1  0.524519  0.750000  0.691383  1
  Y  Y1  1  0.980571  0.250000  0.172290  1
  Y  Y2  1  0.471025  0.250000  0.313938  1
  Y  Y3  1  0.029739  0.750000  0.823296  1
  Ti  Ti4  1  0.873504  0.250000  0.565331  1
  Ti  Ti5  1  0.137458  0.750000  0.429884  1
  Ti  Ti6  1  0.627704  0.750000  0.062933  1
  Al  Al7  1  0.351785  0.250000  0.936911  1
  Ir  Ir8  1  0.721289  0.250000  0.883536  1
  Ir  Ir9  1  0.228021  0.250000  0.600689  1
  Ir  Ir10  1  0.274566  0.750000  0.120357  1
  Ir  Ir11  1  0.779819  0.750000  0.399453  1
