# generated using pymatgen
data_TbY4Hf5(Si5Ir2)4
_symmetry_space_group_name_H-M   'P 1'
_cell_length_a   12.50029510
_cell_length_b   12.50054910
_cell_length_c   4.17203500
_cell_angle_alpha   90.00000000
_cell_angle_beta   90.00000000
_cell_angle_gamma   90.01442888
_symmetry_Int_Tables_number   1
_chemical_formula_structural   TbY4Hf5(Si5Ir2)4
_chemical_formula_sum   'Tb1 Y4 Hf5 Si20 Ir8'
_cell_volume   651.92447406
_cell_formula_units_Z   1
loop_
 _symmetry_equiv_pos_site_id
 _symmetry_equiv_pos_as_xyz
  1  'x, y, z'
loop_
 _atom_site_type_symbol
 _atom_site_label
 _atom_site_symmetry_multiplicity
 _atom_site_fract_x
 _atom_site_fract_y
 _atom_site_fract_z
 _atom_site_occupancy
  Tb  Tb0  1  0.884197  0.384976  0.500000  1
  Y  Y1  1  0.999995  0.999980  0.000000  1
  Y  Y2  1  0.115770  0.614995  0.500000  1
  Y  Y3  1  0.385006  0.115780  0.500000  1
  Y  Y4  1  0.615000  0.884231  0.500000  1
  Hf  Hf5  1  0.499993  0.499996  0.000000  1
  Hf  Hf6  1  0.673732  0.175688  0.500000  1
  Hf  Hf7  1  0.326288  0.824328  0.500000  1
  Hf  Hf8  1  0.175694  0.326327  0.500000  1
  Hf  Hf9  1  0.824372  0.673745  0.500000  1
  Si  Si10  1  0.565853  0.068165  0.000000  1
  Si  Si11  1  0.434152  0.931836  0.000000  1
  Si  Si12  1  0.068152  0.434105  0.000000  1
  Si  Si13  1  0.931793  0.565855  0.000000  1
  Si  Si14  1  0.665175  0.701511  0.000000  1
  Si  Si15  1  0.334809  0.298506  0.000000  1
  Si  Si16  1  0.163752  0.800317  0.000000  1
  Si  Si17  1  0.836235  0.199720  0.000000  1
  Si  Si18  1  0.298533  0.665173  0.000000  1
  Si  Si19  1  0.701503  0.334819  0.000000  1
  Si  Si20  1  0.199721  0.163748  0.000000  1
  Si  Si21  1  0.800290  0.836236  0.000000  1
  Si  Si22  1  0.650923  0.508273  0.500000  1
  Si  Si23  1  0.349089  0.491668  0.500000  1
  Si  Si24  1  0.157369  0.992249  0.500000  1
  Si  Si25  1  0.842640  0.007752  0.500000  1
  Si  Si26  1  0.491680  0.650921  0.500000  1
  Si  Si27  1  0.508319  0.349083  0.500000  1
  Si  Si28  1  0.007718  0.157356  0.500000  1
  Si  Si29  1  0.992235  0.842645  0.500000  1
  Ir  Ir30  1  0.741378  0.522208  0.000000  1
  Ir  Ir31  1  0.258485  0.477948  0.000000  1
  Ir  Ir32  1  0.246569  0.977390  0.000000  1
  Ir  Ir33  1  0.753438  0.022594  0.000000  1
  Ir  Ir34  1  0.477927  0.741553  0.000000  1
  Ir  Ir35  1  0.522052  0.258449  0.000000  1
  Ir  Ir36  1  0.022750  0.246402  0.000000  1
  Ir  Ir37  1  0.977416  0.753472  0.000000  1
