# generated using pymatgen
data_Zr6BeZn22Cu
_symmetry_space_group_name_H-M   'P 1'
_cell_length_a   8.75208120
_cell_length_b   8.75208164
_cell_length_c   8.75208100
_cell_angle_alpha   60.00000618
_cell_angle_beta   60.00000453
_cell_angle_gamma   60.00000031
_symmetry_Int_Tables_number   1
_chemical_formula_structural   Zr6BeZn22Cu
_chemical_formula_sum   'Zr6 Be1 Zn22 Cu1'
_cell_volume   474.04444838
_cell_formula_units_Z   1
loop_
 _symmetry_equiv_pos_site_id
 _symmetry_equiv_pos_as_xyz
  1  'x, y, z'
loop_
 _atom_site_type_symbol
 _atom_site_label
 _atom_site_symmetry_multiplicity
 _atom_site_fract_x
 _atom_site_fract_y
 _atom_site_fract_z
 _atom_site_occupancy
  Zr  Zr0  1  0.703050  0.296950  0.296950  1
  Zr  Zr1  1  0.296950  0.703050  0.703050  1
  Zr  Zr2  1  0.296950  0.703050  0.296950  1
  Zr  Zr3  1  0.703050  0.296950  0.703050  1
  Zr  Zr4  1  0.296950  0.296950  0.703050  1
  Zr  Zr5  1  0.703050  0.703050  0.296950  1
  Be  Be6  1  0.500000  0.500000  0.500000  1
  Zn  Zn7  1  0.120187  0.120187  0.120187  1
  Zn  Zn8  1  0.879813  0.879813  0.879813  1
  Zn  Zn9  1  0.120187  0.120187  0.639440  1
  Zn  Zn10  1  0.120187  0.639440  0.120187  1
  Zn  Zn11  1  0.879813  0.879813  0.360560  1
  Zn  Zn12  1  0.879813  0.360560  0.879813  1
  Zn  Zn13  1  0.639440  0.120187  0.120187  1
  Zn  Zn14  1  0.360560  0.879813  0.879813  1
  Zn  Zn15  1  0.500000  0.000000  0.000000  1
  Zn  Zn16  1  0.000000  0.500000  0.500000  1
  Zn  Zn17  1  0.000000  0.500000  0.000000  1
  Zn  Zn18  1  0.500000  0.000000  0.500000  1
  Zn  Zn19  1  0.000000  0.000000  0.500000  1
  Zn  Zn20  1  0.500000  0.500000  0.000000  1
  Zn  Zn21  1  0.335554  0.335554  0.335554  1
  Zn  Zn22  1  0.664446  0.664446  0.664446  1
  Zn  Zn23  1  0.335554  0.335554  0.993336  1
  Zn  Zn24  1  0.335554  0.993336  0.335554  1
  Zn  Zn25  1  0.664446  0.664446  0.006664  1
  Zn  Zn26  1  0.664446  0.006664  0.664446  1
  Zn  Zn27  1  0.993336  0.335554  0.335554  1
  Zn  Zn28  1  0.006664  0.664446  0.664446  1
  Cu  Cu29  1  0.000000  0.000000  0.000000  1
