# generated using pymatgen
data_Er16In6RePt
_symmetry_space_group_name_H-M   'P 1'
_cell_length_a   10.36428900
_cell_length_b   10.36428826
_cell_length_c   6.99086400
_cell_angle_alpha   90.00000000
_cell_angle_beta   90.00000000
_cell_angle_gamma   119.99999917
_symmetry_Int_Tables_number   1
_chemical_formula_structural   Er16In6RePt
_chemical_formula_sum   'Er16 In6 Re1 Pt1'
_cell_volume   650.34002991
_cell_formula_units_Z   1
loop_
 _symmetry_equiv_pos_site_id
 _symmetry_equiv_pos_as_xyz
  1  'x, y, z'
loop_
 _atom_site_type_symbol
 _atom_site_label
 _atom_site_symmetry_multiplicity
 _atom_site_fract_x
 _atom_site_fract_y
 _atom_site_fract_z
 _atom_site_occupancy
  Er  Er0  1  0.528287  0.056573  0.794740  1
  Er  Er1  1  0.943427  0.471713  0.794740  1
  Er  Er2  1  0.528287  0.471713  0.794740  1
  Er  Er3  1  0.467869  0.935739  0.293264  1
  Er  Er4  1  0.064261  0.532131  0.293264  1
  Er  Er5  1  0.467869  0.532131  0.293264  1
  Er  Er6  1  0.824558  0.649115  0.501535  1
  Er  Er7  1  0.350885  0.175442  0.501535  1
  Er  Er8  1  0.824558  0.175442  0.501535  1
  Er  Er9  1  0.175976  0.351952  0.002714  1
  Er  Er10  1  0.648048  0.824024  0.002714  1
  Er  Er11  1  0.175976  0.824024  0.002714  1
  Er  Er12  1  0.666667  0.333333  0.170022  1
  Er  Er13  1  0.333333  0.666667  0.665419  1
  Er  Er14  1  0.000000  0.000000  0.777205  1
  Er  Er15  1  0.000000  0.000000  0.277096  1
  In  In16  1  0.835957  0.671914  0.039100  1
  In  In17  1  0.328086  0.164043  0.039100  1
  In  In18  1  0.835957  0.164043  0.039100  1
  In  In19  1  0.162987  0.325974  0.538455  1
  In  In20  1  0.674026  0.837013  0.538455  1
  In  In21  1  0.162987  0.837013  0.538455  1
  Re  Re22  1  0.333333  0.666667  0.067052  1
  Pt  Pt23  1  0.666667  0.333333  0.569682  1
