# generated using pymatgen
data_Tm2Lu2SiSe3
_symmetry_space_group_name_H-M   'P 1'
_cell_length_a   6.99002538
_cell_length_b   6.99002453
_cell_length_c   6.99002406
_cell_angle_alpha   132.07200722
_cell_angle_beta   132.07200055
_cell_angle_gamma   70.11532923
_symmetry_Int_Tables_number   1
_chemical_formula_structural   Tm2Lu2SiSe3
_chemical_formula_sum   'Tm2 Lu2 Si1 Se3'
_cell_volume   184.48198904
_cell_formula_units_Z   1
loop_
 _symmetry_equiv_pos_site_id
 _symmetry_equiv_pos_as_xyz
  1  'x, y, z'
loop_
 _atom_site_type_symbol
 _atom_site_label
 _atom_site_symmetry_multiplicity
 _atom_site_fract_x
 _atom_site_fract_y
 _atom_site_fract_z
 _atom_site_occupancy
  Tm  Tm0  1  0.239975  0.239975  0.000000  1
  Tm  Tm1  1  0.760025  0.760025  0.000000  1
  Lu  Lu2  1  0.500000  0.000000  0.500000  1
  Lu  Lu3  1  0.000000  0.500000  0.500000  1
  Si  Si4  1  0.000000  0.000000  0.000000  1
  Se  Se5  1  0.500000  0.500000  0.000000  1
  Se  Se6  1  0.750000  0.250000  0.500000  1
  Se  Se7  1  0.250000  0.750000  0.500000  1
