# generated using pymatgen
data_TaTiNb4(B2Ru5)2
_symmetry_space_group_name_H-M   'P 1'
_cell_length_a   9.42132800
_cell_length_b   9.42132800
_cell_length_c   3.02097900
_cell_angle_alpha   90.00000000
_cell_angle_beta   90.00000000
_cell_angle_gamma   90.00000000
_symmetry_Int_Tables_number   1
_chemical_formula_structural   TaTiNb4(B2Ru5)2
_chemical_formula_sum   'Ta1 Ti1 Nb4 B4 Ru10'
_cell_volume   268.14638971
_cell_formula_units_Z   1
loop_
 _symmetry_equiv_pos_site_id
 _symmetry_equiv_pos_as_xyz
  1  'x, y, z'
loop_
 _atom_site_type_symbol
 _atom_site_label
 _atom_site_symmetry_multiplicity
 _atom_site_fract_x
 _atom_site_fract_y
 _atom_site_fract_z
 _atom_site_occupancy
  Ta  Ta0  1  0.000000  0.000000  0.000000  1
  Ti  Ti1  1  0.500000  0.500000  0.000000  1
  Nb  Nb2  1  0.821507  0.674795  0.000000  1
  Nb  Nb3  1  0.178493  0.325205  0.000000  1
  Nb  Nb4  1  0.325205  0.821507  0.000000  1
  Nb  Nb5  1  0.674795  0.178493  0.000000  1
  B  B6  1  0.618819  0.874213  0.000000  1
  B  B7  1  0.381181  0.125787  0.000000  1
  B  B8  1  0.125787  0.618819  0.000000  1
  B  B9  1  0.874213  0.381181  0.000000  1
  Ru  Ru10  1  0.569492  0.715728  0.500000  1
  Ru  Ru11  1  0.430508  0.284272  0.500000  1
  Ru  Ru12  1  0.071706  0.780756  0.500000  1
  Ru  Ru13  1  0.928294  0.219244  0.500000  1
  Ru  Ru14  1  0.284272  0.569492  0.500000  1
  Ru  Ru15  1  0.715728  0.430508  0.500000  1
  Ru  Ru16  1  0.219244  0.071706  0.500000  1
  Ru  Ru17  1  0.780756  0.928294  0.500000  1
  Ru  Ru18  1  0.500000  0.000000  0.500000  1
  Ru  Ru19  1  0.000000  0.500000  0.500000  1
