# generated using pymatgen
data_Tm20IrPt10Rh
_symmetry_space_group_name_H-M   'P 1'
_cell_length_a   10.91790100
_cell_length_b   10.91790100
_cell_length_c   6.34072500
_cell_angle_alpha   90.00000000
_cell_angle_beta   90.00000000
_cell_angle_gamma   90.00000000
_symmetry_Int_Tables_number   1
_chemical_formula_structural   Tm20IrPt10Rh
_chemical_formula_sum   'Tm20 Ir1 Pt10 Rh1'
_cell_volume   755.81798505
_cell_formula_units_Z   1
loop_
 _symmetry_equiv_pos_site_id
 _symmetry_equiv_pos_as_xyz
  1  'x, y, z'
loop_
 _atom_site_type_symbol
 _atom_site_label
 _atom_site_symmetry_multiplicity
 _atom_site_fract_x
 _atom_site_fract_y
 _atom_site_fract_z
 _atom_site_occupancy
  Tm  Tm0  1  0.292152  0.087859  0.377061  1
  Tm  Tm1  1  0.292226  0.911630  0.876671  1
  Tm  Tm2  1  0.707774  0.088370  0.876671  1
  Tm  Tm3  1  0.707848  0.912141  0.377061  1
  Tm  Tm4  1  0.588370  0.792226  0.876671  1
  Tm  Tm5  1  0.587859  0.207848  0.377061  1
  Tm  Tm6  1  0.412141  0.792152  0.377061  1
  Tm  Tm7  1  0.411630  0.207774  0.876671  1
  Tm  Tm8  1  0.205852  0.412607  0.622135  1
  Tm  Tm9  1  0.206104  0.587364  0.125328  1
  Tm  Tm10  1  0.793896  0.412636  0.125328  1
  Tm  Tm11  1  0.794148  0.587393  0.622135  1
  Tm  Tm12  1  0.912636  0.706104  0.125328  1
  Tm  Tm13  1  0.912607  0.294148  0.622135  1
  Tm  Tm14  1  0.087393  0.705852  0.622135  1
  Tm  Tm15  1  0.087364  0.293896  0.125328  1
  Tm  Tm16  1  0.000000  0.000000  0.500522  1
  Tm  Tm17  1  0.000000  0.000000  0.000485  1
  Tm  Tm18  1  0.500000  0.500000  0.000485  1
  Tm  Tm19  1  0.500000  0.500000  0.500522  1
  Ir  Ir20  1  0.000000  0.500000  0.379351  1
  Pt  Pt21  1  0.845709  0.153023  0.249851  1
  Pt  Pt22  1  0.846186  0.846274  0.749981  1
  Pt  Pt23  1  0.153814  0.153726  0.749981  1
  Pt  Pt24  1  0.154291  0.846977  0.249851  1
  Pt  Pt25  1  0.653726  0.346186  0.749981  1
  Pt  Pt26  1  0.653023  0.654291  0.249851  1
  Pt  Pt27  1  0.346977  0.345709  0.249851  1
  Pt  Pt28  1  0.346274  0.653814  0.749981  1
  Pt  Pt29  1  0.500000  0.000000  0.116805  1
  Pt  Pt30  1  0.500000  0.000000  0.617171  1
  Rh  Rh31  1  0.000000  0.500000  0.880548  1
