# generated using pymatgen
data_TbLu5(Al3Os)8
_symmetry_space_group_name_H-M   'P 1'
_cell_length_a   8.76247439
_cell_length_b   8.76247501
_cell_length_c   9.58344100
_cell_angle_alpha   90.00000000
_cell_angle_beta   90.00000000
_cell_angle_gamma   119.91528879
_symmetry_Int_Tables_number   1
_chemical_formula_structural   TbLu5(Al3Os)8
_chemical_formula_sum   'Tb1 Lu5 Al24 Os8'
_cell_volume   637.78711861
_cell_formula_units_Z   1
loop_
 _symmetry_equiv_pos_site_id
 _symmetry_equiv_pos_as_xyz
  1  'x, y, z'
loop_
 _atom_site_type_symbol
 _atom_site_label
 _atom_site_symmetry_multiplicity
 _atom_site_fract_x
 _atom_site_fract_y
 _atom_site_fract_z
 _atom_site_occupancy
  Tb  Tb0  1  0.807731  0.192269  0.750000  1
  Lu  Lu1  1  0.194875  0.391004  0.250000  1
  Lu  Lu2  1  0.804241  0.608637  0.750000  1
  Lu  Lu3  1  0.608996  0.805125  0.250000  1
  Lu  Lu4  1  0.391363  0.195759  0.750000  1
  Lu  Lu5  1  0.194885  0.805115  0.250000  1
  Al  Al6  1  0.333145  0.666855  0.023064  1
  Al  Al7  1  0.666568  0.333432  0.978889  1
  Al  Al8  1  0.666568  0.333432  0.521111  1
  Al  Al9  1  0.333145  0.666855  0.476936  1
  Al  Al10  1  0.164363  0.327602  0.575797  1
  Al  Al11  1  0.836327  0.673350  0.423182  1
  Al  Al12  1  0.672398  0.835637  0.575797  1
  Al  Al13  1  0.836327  0.673350  0.076818  1
  Al  Al14  1  0.326650  0.163673  0.423182  1
  Al  Al15  1  0.164363  0.327602  0.924203  1
  Al  Al16  1  0.163485  0.836515  0.575963  1
  Al  Al17  1  0.326650  0.163673  0.076818  1
  Al  Al18  1  0.836384  0.163616  0.422091  1
  Al  Al19  1  0.672398  0.835637  0.924203  1
  Al  Al20  1  0.836384  0.163616  0.077909  1
  Al  Al21  1  0.163485  0.836515  0.924037  1
  Al  Al22  1  0.560903  0.123348  0.250000  1
  Al  Al23  1  0.437227  0.875968  0.750000  1
  Al  Al24  1  0.876652  0.439097  0.250000  1
  Al  Al25  1  0.124032  0.562773  0.750000  1
  Al  Al26  1  0.561105  0.438895  0.250000  1
  Al  Al27  1  0.438367  0.561633  0.750000  1
  Al  Al28  1  0.999528  0.000472  0.250000  1
  Al  Al29  1  0.002771  0.997229  0.750000  1
  Os  Os30  1  0.499165  0.999596  0.000858  1
  Os  Os31  1  0.000404  0.500835  0.000858  1
  Os  Os32  1  0.499165  0.999596  0.499142  1
  Os  Os33  1  0.499864  0.500136  0.000183  1
  Os  Os34  1  0.000404  0.500835  0.499142  1
  Os  Os35  1  0.499864  0.500136  0.499817  1
  Os  Os36  1  0.999908  0.000092  0.000096  1
  Os  Os37  1  0.999908  0.000092  0.499904  1
