# generated using pymatgen
data_Ac8TbNi6
_symmetry_space_group_name_H-M   'P 1'
_cell_length_a   7.80941265
_cell_length_b   7.80941233
_cell_length_c   7.80941334
_cell_angle_alpha   74.36135051
_cell_angle_beta   74.36134446
_cell_angle_gamma   74.36135920
_symmetry_Int_Tables_number   1
_chemical_formula_structural   Ac8TbNi6
_chemical_formula_sum   'Ac8 Tb1 Ni6'
_cell_volume   431.59158582
_cell_formula_units_Z   1
loop_
 _symmetry_equiv_pos_site_id
 _symmetry_equiv_pos_as_xyz
  1  'x, y, z'
loop_
 _atom_site_type_symbol
 _atom_site_label
 _atom_site_symmetry_multiplicity
 _atom_site_fract_x
 _atom_site_fract_y
 _atom_site_fract_z
 _atom_site_occupancy
  Ac  Ac0  1  0.293001  0.293001  0.293001  1
  Ac  Ac1  1  0.706999  0.706999  0.706999  1
  Ac  Ac2  1  0.817835  0.332016  0.129234  1
  Ac  Ac3  1  0.332016  0.129234  0.817835  1
  Ac  Ac4  1  0.129234  0.817835  0.332016  1
  Ac  Ac5  1  0.182165  0.667984  0.870766  1
  Ac  Ac6  1  0.667984  0.870766  0.182165  1
  Ac  Ac7  1  0.870766  0.182165  0.667984  1
  Tb  Tb8  1  0.500000  0.500000  0.500000  1
  Ni  Ni9  1  0.468368  0.625702  0.101982  1
  Ni  Ni10  1  0.625702  0.101982  0.468368  1
  Ni  Ni11  1  0.101982  0.468368  0.625702  1
  Ni  Ni12  1  0.531632  0.374298  0.898018  1
  Ni  Ni13  1  0.374298  0.898018  0.531632  1
  Ni  Ni14  1  0.898018  0.531632  0.374298  1
