# generated using pymatgen
data_LaEuIO2
_symmetry_space_group_name_H-M   'P 1'
_cell_length_a   7.40376000
_cell_length_b   7.40376029
_cell_length_c   5.86722800
_cell_angle_alpha   90.00000000
_cell_angle_beta   90.00000000
_cell_angle_gamma   133.04009141
_symmetry_Int_Tables_number   1
_chemical_formula_structural   LaEuIO2
_chemical_formula_sum   'La2 Eu2 I2 O4'
_cell_volume   235.06151552
_cell_formula_units_Z   2
loop_
 _symmetry_equiv_pos_site_id
 _symmetry_equiv_pos_as_xyz
  1  'x, y, z'
loop_
 _atom_site_type_symbol
 _atom_site_label
 _atom_site_symmetry_multiplicity
 _atom_site_fract_x
 _atom_site_fract_y
 _atom_site_fract_z
 _atom_site_occupancy
  La  La0  1  0.419646  0.580354  0.250000  1
  La  La1  1  0.580354  0.419646  0.749999  1
  Eu  Eu2  1  0.084138  0.915863  0.250000  1
  Eu  Eu3  1  0.915863  0.084138  0.749999  1
  I  I4  1  0.752960  0.247041  0.250000  1
  I  I5  1  0.247041  0.752960  0.749999  1
  O  O6  1  0.257370  0.257370  0.000000  1
  O  O7  1  0.742630  0.742630  0.000000  1
  O  O8  1  0.257370  0.257370  0.500000  1
  O  O9  1  0.742630  0.742630  0.500000  1
