# generated using pymatgen
data_Tm12ZnCo4Sb
_symmetry_space_group_name_H-M   'P 1'
_cell_length_a   8.19071929
_cell_length_b   8.19071841
_cell_length_c   8.19071911
_cell_angle_alpha   112.04621901
_cell_angle_beta   109.08474620
_cell_angle_gamma   107.31827279
_symmetry_Int_Tables_number   1
_chemical_formula_structural   Tm12ZnCo4Sb
_chemical_formula_sum   'Tm12 Zn1 Co4 Sb1'
_cell_volume   422.26397134
_cell_formula_units_Z   1
loop_
 _symmetry_equiv_pos_site_id
 _symmetry_equiv_pos_as_xyz
  1  'x, y, z'
loop_
 _atom_site_type_symbol
 _atom_site_label
 _atom_site_symmetry_multiplicity
 _atom_site_fract_x
 _atom_site_fract_y
 _atom_site_fract_z
 _atom_site_occupancy
  Tm  Tm0  1  0.430949  0.229243  0.201706  1
  Tm  Tm1  1  0.569051  0.770757  0.798294  1
  Tm  Tm2  1  0.027537  0.229243  0.798294  1
  Tm  Tm3  1  0.972463  0.770757  0.201706  1
  Tm  Tm4  1  0.179809  0.280991  0.460800  1
  Tm  Tm5  1  0.820191  0.719009  0.539200  1
  Tm  Tm6  1  0.179809  0.719009  0.898817  1
  Tm  Tm7  1  0.820191  0.280991  0.101183  1
  Tm  Tm8  1  0.323762  0.636453  0.312689  1
  Tm  Tm9  1  0.676238  0.363547  0.687311  1
  Tm  Tm10  1  0.323762  0.011073  0.687311  1
  Tm  Tm11  1  0.676238  0.988927  0.312689  1
  Zn  Zn12  1  0.000000  0.000000  0.000000  1
  Co  Co13  1  0.345635  0.000000  0.345635  1
  Co  Co14  1  0.654365  0.000000  0.654365  1
  Co  Co15  1  0.115441  0.615441  0.500000  1
  Co  Co16  1  0.884559  0.384559  0.500000  1
  Sb  Sb17  1  0.500000  0.500000  0.000000  1
