# generated using pymatgen
data_Ti8Al15Pd6Ru
_symmetry_space_group_name_H-M   'P 1'
_cell_length_a   8.70296420
_cell_length_b   8.70296455
_cell_length_c   8.70296417
_cell_angle_alpha   120.18125367
_cell_angle_beta   119.71557556
_cell_angle_gamma   90.08984762
_symmetry_Int_Tables_number   1
_chemical_formula_structural   Ti8Al15Pd6Ru
_chemical_formula_sum   'Ti8 Al15 Pd6 Ru1'
_cell_volume   466.46124006
_cell_formula_units_Z   1
loop_
 _symmetry_equiv_pos_site_id
 _symmetry_equiv_pos_as_xyz
  1  'x, y, z'
loop_
 _atom_site_type_symbol
 _atom_site_label
 _atom_site_symmetry_multiplicity
 _atom_site_fract_x
 _atom_site_fract_y
 _atom_site_fract_z
 _atom_site_occupancy
  Ti  Ti0  1  0.786811  0.288368  0.073464  1
  Ti  Ti1  1  0.214905  0.288368  0.501557  1
  Ti  Ti2  1  0.211930  0.711930  0.500000  1
  Ti  Ti3  1  0.214905  0.713348  0.926536  1
  Ti  Ti4  1  0.786811  0.713348  0.498443  1
  Ti  Ti5  1  0.783693  0.283693  0.500000  1
  Ti  Ti6  1  0.381585  0.120634  0.739049  1
  Ti  Ti7  1  0.381585  0.642537  0.260951  1
  Al  Al8  1  0.997358  0.497358  0.500000  1
  Al  Al9  1  0.156683  0.346959  0.190275  1
  Al  Al10  1  0.156683  0.966408  0.809725  1
  Al  Al11  1  0.156239  0.344662  0.811576  1
  Al  Al12  1  0.533085  0.344662  0.188424  1
  Al  Al13  1  0.845555  0.655194  0.809640  1
  Al  Al14  1  0.845555  0.035915  0.190360  1
  Al  Al15  1  0.844801  0.655994  0.188807  1
  Al  Al16  1  0.467188  0.655994  0.811193  1
  Al  Al17  1  0.380648  0.119200  0.261449  1
  Al  Al18  1  0.857752  0.119200  0.738551  1
  Al  Al19  1  0.620113  0.879537  0.259424  1
  Al  Al20  1  0.620113  0.360689  0.740576  1
  Al  Al21  1  0.620578  0.879295  0.741283  1
  Al  Al22  1  0.138010  0.879295  0.258717  1
  Pd  Pd23  1  0.997283  0.999561  0.498516  1
  Pd  Pd24  1  0.501045  0.999561  0.002278  1
  Pd  Pd25  1  0.501940  0.501940  0.000000  1
  Pd  Pd26  1  0.501045  0.498767  0.501484  1
  Pd  Pd27  1  0.997283  0.498767  0.997722  1
  Pd  Pd28  1  0.001527  0.001527  0.000000  1
  Ru  Ru29  1  0.497289  0.997289  0.500000  1
