# generated using pymatgen
data_La7Nd3Sn20(PdRh)4
_symmetry_space_group_name_H-M   'P 1'
_cell_length_a   14.34572408
_cell_length_b   14.34274404
_cell_length_c   4.68827500
_cell_angle_alpha   90.00000000
_cell_angle_beta   90.00000000
_cell_angle_gamma   90.01019740
_symmetry_Int_Tables_number   1
_chemical_formula_structural   La7Nd3Sn20(PdRh)4
_chemical_formula_sum   'La7 Nd3 Sn20 Pd4 Rh4'
_cell_volume   964.64561125
_cell_formula_units_Z   1
loop_
 _symmetry_equiv_pos_site_id
 _symmetry_equiv_pos_as_xyz
  1  'x, y, z'
loop_
 _atom_site_type_symbol
 _atom_site_label
 _atom_site_symmetry_multiplicity
 _atom_site_fract_x
 _atom_site_fract_y
 _atom_site_fract_z
 _atom_site_occupancy
  La  La0  1  0.500014  0.499909  0.000000  1
  La  La1  1  0.000020  0.000038  0.000000  1
  La  La2  1  0.822528  0.681161  0.500000  1
  La  La3  1  0.892473  0.389863  0.500000  1
  La  La4  1  0.107936  0.609720  0.500000  1
  La  La5  1  0.392415  0.109892  0.500000  1
  La  La6  1  0.607102  0.890562  0.500000  1
  Nd  Nd7  1  0.676895  0.180459  0.500000  1
  Nd  Nd8  1  0.323152  0.819484  0.500000  1
  Nd  Nd9  1  0.177163  0.319216  0.500000  1
  Sn  Sn10  1  0.567755  0.071336  0.000000  1
  Sn  Sn11  1  0.432146  0.928800  0.000000  1
  Sn  Sn12  1  0.068419  0.428156  0.000000  1
  Sn  Sn13  1  0.933293  0.570109  0.000000  1
  Sn  Sn14  1  0.650752  0.703747  0.000000  1
  Sn  Sn15  1  0.348023  0.296726  0.000000  1
  Sn  Sn16  1  0.152190  0.796616  0.000000  1
  Sn  Sn17  1  0.847923  0.203479  0.000000  1
  Sn  Sn18  1  0.301621  0.652841  0.000000  1
  Sn  Sn19  1  0.698241  0.346856  0.000000  1
  Sn  Sn20  1  0.198320  0.152787  0.000000  1
  Sn  Sn21  1  0.801277  0.848652  0.000000  1
  Sn  Sn22  1  0.663088  0.501681  0.500000  1
  Sn  Sn23  1  0.336460  0.496715  0.500000  1
  Sn  Sn24  1  0.163638  0.996817  0.500000  1
  Sn  Sn25  1  0.836095  0.002756  0.500000  1
  Sn  Sn26  1  0.496737  0.664203  0.500000  1
  Sn  Sn27  1  0.503776  0.336061  0.500000  1
  Sn  Sn28  1  0.003711  0.163967  0.500000  1
  Sn  Sn29  1  0.997964  0.836758  0.500000  1
  Pd  Pd30  1  0.745087  0.531926  0.000000  1
  Pd  Pd31  1  0.254736  0.467628  0.000000  1
  Pd  Pd32  1  0.245416  0.967624  0.000000  1
  Pd  Pd33  1  0.754439  0.033097  0.000000  1
  Rh  Rh34  1  0.467870  0.743672  0.000000  1
  Rh  Rh35  1  0.531270  0.256463  0.000000  1
  Rh  Rh36  1  0.031447  0.243374  0.000000  1
  Rh  Rh37  1  0.968612  0.756851  0.000000  1
