# generated using pymatgen
data_Ho4MnTc7
_symmetry_space_group_name_H-M   'P 1'
_cell_length_a   5.32701726
_cell_length_b   5.32686363
_cell_length_c   8.91413700
_cell_angle_alpha   90.00070878
_cell_angle_beta   89.99950232
_cell_angle_gamma   120.10696073
_symmetry_Int_Tables_number   1
_chemical_formula_structural   Ho4MnTc7
_chemical_formula_sum   'Ho4 Mn1 Tc7'
_cell_volume   218.82479147
_cell_formula_units_Z   1
loop_
 _symmetry_equiv_pos_site_id
 _symmetry_equiv_pos_as_xyz
  1  'x, y, z'
loop_
 _atom_site_type_symbol
 _atom_site_label
 _atom_site_symmetry_multiplicity
 _atom_site_fract_x
 _atom_site_fract_y
 _atom_site_fract_z
 _atom_site_occupancy
  Ho  Ho0  1  0.666570  0.333417  0.564465  1
  Ho  Ho1  1  0.333430  0.666583  0.435535  1
  Ho  Ho2  1  0.333384  0.666624  0.063755  1
  Ho  Ho3  1  0.666616  0.333376  0.936245  1
  Mn  Mn4  1  0.000000  0.000000  0.000000  1
  Tc  Tc5  1  0.000000  0.000000  0.500000  1
  Tc  Tc6  1  0.170588  0.340952  0.751982  1
  Tc  Tc7  1  0.170299  0.829690  0.751985  1
  Tc  Tc8  1  0.659054  0.829414  0.751978  1
  Tc  Tc9  1  0.829412  0.659048  0.248018  1
  Tc  Tc10  1  0.829701  0.170310  0.248015  1
  Tc  Tc11  1  0.340946  0.170586  0.248022  1
