# generated using pymatgen
data_Th4GaGeH8
_symmetry_space_group_name_H-M   'P 1'
_cell_length_a   6.23913917
_cell_length_b   6.23913808
_cell_length_c   6.23913850
_cell_angle_alpha   106.21792458
_cell_angle_beta   106.21792664
_cell_angle_gamma   116.19432068
_symmetry_Int_Tables_number   1
_chemical_formula_structural   Th4GaGeH8
_chemical_formula_sum   'Th4 Ga1 Ge1 H8'
_cell_volume   185.00881092
_cell_formula_units_Z   1
loop_
 _symmetry_equiv_pos_site_id
 _symmetry_equiv_pos_as_xyz
  1  'x, y, z'
loop_
 _atom_site_type_symbol
 _atom_site_label
 _atom_site_symmetry_multiplicity
 _atom_site_fract_x
 _atom_site_fract_y
 _atom_site_fract_z
 _atom_site_occupancy
  Th  Th0  1  0.833033  0.666967  0.500000  1
  Th  Th1  1  0.666967  0.166967  0.833933  1
  Th  Th2  1  0.166967  0.333033  0.500000  1
  Th  Th3  1  0.333033  0.833033  0.166067  1
  Ga  Ga4  1  0.750000  0.750000  0.000000  1
  Ge  Ge5  1  0.250000  0.250000  0.000000  1
  H  H6  1  0.223170  0.974061  0.499882  1
  H  H7  1  0.474179  0.723288  0.500118  1
  H  H8  1  0.723288  0.223170  0.249111  1
  H  H9  1  0.974061  0.474179  0.750889  1
  H  H10  1  0.276830  0.776712  0.750889  1
  H  H11  1  0.525939  0.276830  0.500118  1
  H  H12  1  0.025821  0.525939  0.249111  1
  H  H13  1  0.776712  0.025821  0.499882  1
