# generated using pymatgen
data_Dy7Y3(Bi2Ir)2
_symmetry_space_group_name_H-M   'P 1'
_cell_length_a   8.02522480
_cell_length_b   9.00919900
_cell_length_c   12.55278892
_cell_angle_alpha   90.00000000
_cell_angle_beta   90.11142190
_cell_angle_gamma   90.00000000
_symmetry_Int_Tables_number   1
_chemical_formula_structural   Dy7Y3(Bi2Ir)2
_chemical_formula_sum   'Dy14 Y6 Bi8 Ir4'
_cell_volume   907.57555835
_cell_formula_units_Z   2
loop_
 _symmetry_equiv_pos_site_id
 _symmetry_equiv_pos_as_xyz
  1  'x, y, z'
loop_
 _atom_site_type_symbol
 _atom_site_label
 _atom_site_symmetry_multiplicity
 _atom_site_fract_x
 _atom_site_fract_y
 _atom_site_fract_z
 _atom_site_occupancy
  Dy  Dy0  1  0.876862  0.250000  0.806973  1
  Dy  Dy1  1  0.123138  0.750000  0.193027  1
  Dy  Dy2  1  0.946081  0.750000  0.501323  1
  Dy  Dy3  1  0.053919  0.250000  0.498677  1
  Dy  Dy4  1  0.446136  0.250000  0.998722  1
  Dy  Dy5  1  0.553864  0.750000  0.001278  1
  Dy  Dy6  1  0.676337  0.041831  0.566046  1
  Dy  Dy7  1  0.323663  0.958169  0.433954  1
  Dy  Dy8  1  0.176287  0.958166  0.933971  1
  Dy  Dy9  1  0.323663  0.541831  0.433954  1
  Dy  Dy10  1  0.823713  0.041834  0.066029  1
  Dy  Dy11  1  0.676337  0.458169  0.566046  1
  Dy  Dy12  1  0.823713  0.458166  0.066029  1
  Dy  Dy13  1  0.176287  0.541834  0.933971  1
  Y  Y14  1  0.840738  0.750000  0.792738  1
  Y  Y15  1  0.159262  0.250000  0.207262  1
  Y  Y16  1  0.340683  0.250000  0.707232  1
  Y  Y17  1  0.659317  0.750000  0.292768  1
  Y  Y18  1  0.376315  0.750000  0.693582  1
  Y  Y19  1  0.623685  0.250000  0.306418  1
  Bi  Bi20  1  0.569214  0.491147  0.827497  1
  Bi  Bi21  1  0.430786  0.508853  0.172503  1
  Bi  Bi22  1  0.069150  0.508798  0.672537  1
  Bi  Bi23  1  0.430786  0.991147  0.172503  1
  Bi  Bi24  1  0.930850  0.491202  0.327463  1
  Bi  Bi25  1  0.569214  0.008853  0.827497  1
  Bi  Bi26  1  0.930850  0.008798  0.327463  1
  Bi  Bi27  1  0.069150  0.991202  0.672537  1
  Ir  Ir28  1  0.570703  0.750000  0.509037  1
  Ir  Ir29  1  0.429297  0.250000  0.490963  1
  Ir  Ir30  1  0.070107  0.250000  0.990361  1
  Ir  Ir31  1  0.929893  0.750000  0.009639  1
