# generated using pymatgen
data_Tb9YGa3Bi2Pt
_symmetry_space_group_name_H-M   'P 1'
_cell_length_a   8.66051180
_cell_length_b   8.66051213
_cell_length_c   8.80487400
_cell_angle_alpha   124.14759164
_cell_angle_beta   124.14489872
_cell_angle_gamma   81.87533656
_symmetry_Int_Tables_number   1
_chemical_formula_structural   Tb9YGa3Bi2Pt
_chemical_formula_sum   'Tb9 Y1 Ga3 Bi2 Pt1'
_cell_volume   437.54000960
_cell_formula_units_Z   1
loop_
 _symmetry_equiv_pos_site_id
 _symmetry_equiv_pos_as_xyz
  1  'x, y, z'
loop_
 _atom_site_type_symbol
 _atom_site_label
 _atom_site_symmetry_multiplicity
 _atom_site_fract_x
 _atom_site_fract_y
 _atom_site_fract_z
 _atom_site_occupancy
  Tb  Tb0  1  0.502589  0.504757  0.007344  1
  Tb  Tb1  1  0.784501  0.296304  0.799131  1
  Tb  Tb2  1  0.203670  0.715474  0.200854  1
  Tb  Tb3  1  0.485379  0.997184  0.200854  1
  Tb  Tb4  1  0.300656  0.466728  0.499999  1
  Tb  Tb5  1  0.033271  0.199343  0.499999  1
  Tb  Tb6  1  0.502828  0.014631  0.799131  1
  Tb  Tb7  1  0.705074  0.515819  0.499998  1
  Tb  Tb8  1  0.984179  0.794925  0.499998  1
  Y  Y9  1  0.995222  0.997442  0.992665  1
  Ga  Ga10  1  0.145816  0.645156  0.790973  1
  Ga  Ga11  1  0.854928  0.354119  0.209045  1
  Ga  Ga12  1  0.637827  0.862274  0.500101  1
  Bi  Bi13  1  0.245846  0.254044  0.000000  1
  Bi  Bi14  1  0.745956  0.754154  0.000000  1
  Pt  Pt15  1  0.372258  0.127649  0.499907  1
