# generated using pymatgen
data_Sc8ReSi16Tc11
_symmetry_space_group_name_H-M   'P 1'
_cell_length_a   6.63824696
_cell_length_b   6.63824696
_cell_length_c   12.38072301
_cell_angle_alpha   90.00346562
_cell_angle_beta   90.00346562
_cell_angle_gamma   90.12516907
_symmetry_Int_Tables_number   1
_chemical_formula_structural   Sc8ReSi16Tc11
_chemical_formula_sum   'Sc8 Re1 Si16 Tc11'
_cell_volume   545.57163214
_cell_formula_units_Z   1
loop_
 _symmetry_equiv_pos_site_id
 _symmetry_equiv_pos_as_xyz
  1  'x, y, z'
loop_
 _atom_site_type_symbol
 _atom_site_label
 _atom_site_symmetry_multiplicity
 _atom_site_fract_x
 _atom_site_fract_y
 _atom_site_fract_z
 _atom_site_occupancy
  Sc  Sc0  1  0.341850  0.994372  0.468741  1
  Sc  Sc1  1  0.658067  0.004938  0.968944  1
  Sc  Sc2  1  0.842715  0.505431  0.280879  1
  Sc  Sc3  1  0.157777  0.494783  0.780915  1
  Sc  Sc4  1  0.005627  0.658152  0.031259  1
  Sc  Sc5  1  0.995061  0.341935  0.531056  1
  Sc  Sc6  1  0.494568  0.157285  0.219120  1
  Sc  Sc7  1  0.505216  0.842223  0.719084  1
  Re  Re8  1  0.168114  0.831886  0.250000  1
  Si  Si9  1  0.280246  0.972854  0.063619  1
  Si  Si10  1  0.719995  0.027374  0.563732  1
  Si  Si11  1  0.780270  0.527485  0.686115  1
  Si  Si12  1  0.220741  0.472032  0.186015  1
  Si  Si13  1  0.027148  0.719754  0.436380  1
  Si  Si14  1  0.972628  0.280005  0.936267  1
  Si  Si15  1  0.472517  0.219730  0.813884  1
  Si  Si16  1  0.527970  0.779259  0.313985  1
  Si  Si17  1  0.194207  0.122145  0.682270  1
  Si  Si18  1  0.805443  0.878352  0.181914  1
  Si  Si19  1  0.693863  0.378179  0.067664  1
  Si  Si20  1  0.306106  0.622019  0.567749  1
  Si  Si21  1  0.877856  0.805793  0.817731  1
  Si  Si22  1  0.121649  0.194557  0.318087  1
  Si  Si23  1  0.621823  0.306137  0.432335  1
  Si  Si24  1  0.377983  0.693894  0.932250  1
  Tc  Tc25  1  0.331435  0.331469  0.000190  1
  Tc  Tc26  1  0.668531  0.668565  0.499810  1
  Tc  Tc27  1  0.831568  0.168432  0.749999  1
  Tc  Tc28  1  0.181614  0.979873  0.869126  1
  Tc  Tc29  1  0.817683  0.020289  0.369281  1
  Tc  Tc30  1  0.681583  0.519476  0.880552  1
  Tc  Tc31  1  0.317639  0.479847  0.380968  1
  Tc  Tc32  1  0.020127  0.818386  0.630875  1
  Tc  Tc33  1  0.979711  0.182317  0.130719  1
  Tc  Tc34  1  0.480524  0.318418  0.619448  1
  Tc  Tc35  1  0.520153  0.682362  0.119032  1
