# generated using pymatgen
data_ErTm3Mn9Fe11P12
_symmetry_space_group_name_H-M   'P 1'
_cell_length_a   3.63007500
_cell_length_b   10.27726881
_cell_length_c   12.09677595
_cell_angle_alpha   89.66528079
_cell_angle_beta   90.00000000
_cell_angle_gamma   90.00000000
_symmetry_Int_Tables_number   1
_chemical_formula_structural   ErTm3Mn9Fe11P12
_chemical_formula_sum   'Er1 Tm3 Mn9 Fe11 P12'
_cell_volume   451.28982329
_cell_formula_units_Z   1
loop_
 _symmetry_equiv_pos_site_id
 _symmetry_equiv_pos_as_xyz
  1  'x, y, z'
loop_
 _atom_site_type_symbol
 _atom_site_label
 _atom_site_symmetry_multiplicity
 _atom_site_fract_x
 _atom_site_fract_y
 _atom_site_fract_z
 _atom_site_occupancy
  Er  Er0  1  0.250000  0.580577  0.710615  1
  Tm  Tm1  1  0.250000  0.916027  0.211262  1
  Tm  Tm2  1  0.750000  0.424252  0.291520  1
  Tm  Tm3  1  0.750000  0.080162  0.788382  1
  Mn  Mn4  1  0.250000  0.705341  0.991336  1
  Mn  Mn5  1  0.250000  0.795056  0.491545  1
  Mn  Mn6  1  0.750000  0.291938  0.011369  1
  Mn  Mn7  1  0.750000  0.207074  0.507592  1
  Mn  Mn8  1  0.250000  0.410994  0.491984  1
  Mn  Mn9  1  0.250000  0.089320  0.989399  1
  Mn  Mn10  1  0.750000  0.592302  0.510200  1
  Mn  Mn11  1  0.750000  0.904700  0.008345  1
  Mn  Mn12  1  0.250000  0.218054  0.174776  1
  Fe  Fe13  1  0.250000  0.278530  0.672171  1
  Fe  Fe14  1  0.750000  0.778247  0.827275  1
  Fe  Fe15  1  0.750000  0.721945  0.328303  1
  Fe  Fe16  1  0.250000  0.878267  0.695097  1
  Fe  Fe17  1  0.250000  0.623115  0.196283  1
  Fe  Fe18  1  0.750000  0.127162  0.300043  1
  Fe  Fe19  1  0.750000  0.376036  0.805119  1
  Fe  Fe20  1  0.250000  0.461766  0.935872  1
  Fe  Fe21  1  0.250000  0.038814  0.433909  1
  Fe  Fe22  1  0.750000  0.537380  0.064174  1
  Fe  Fe23  1  0.750000  0.963511  0.563300  1
  P  P24  1  0.250000  0.425633  0.114044  1
  P  P25  1  0.250000  0.077249  0.612532  1
  P  P26  1  0.750000  0.575493  0.886104  1
  P  P27  1  0.750000  0.924188  0.385873  1
  P  P28  1  0.250000  0.267109  0.861341  1
  P  P29  1  0.250000  0.237284  0.367720  1
  P  P30  1  0.750000  0.731328  0.138859  1
  P  P31  1  0.750000  0.768734  0.638530  1
  P  P32  1  0.250000  0.604019  0.381464  1
  P  P33  1  0.250000  0.897397  0.879860  1
  P  P34  1  0.750000  0.397416  0.619970  1
  P  P35  1  0.750000  0.093579  0.113828  1
