# generated using pymatgen
data_CaYb2(AgPb)3
_symmetry_space_group_name_H-M   'P 1'
_cell_length_a   4.94691300
_cell_length_b   4.94691297
_cell_length_c   11.05172400
_cell_angle_alpha   90.00000000
_cell_angle_beta   90.00000000
_cell_angle_gamma   120.00000692
_symmetry_Int_Tables_number   1
_chemical_formula_structural   CaYb2(AgPb)3
_chemical_formula_sum   'Ca1 Yb2 Ag3 Pb3'
_cell_volume   234.22280311
_cell_formula_units_Z   1
loop_
 _symmetry_equiv_pos_site_id
 _symmetry_equiv_pos_as_xyz
  1  'x, y, z'
loop_
 _atom_site_type_symbol
 _atom_site_label
 _atom_site_symmetry_multiplicity
 _atom_site_fract_x
 _atom_site_fract_y
 _atom_site_fract_z
 _atom_site_occupancy
  Ca  Ca0  1  0.666667  0.333333  0.497918  1
  Yb  Yb1  1  0.666667  0.333333  0.832130  1
  Yb  Yb2  1  0.666667  0.333333  0.163151  1
  Ag  Ag3  1  0.333333  0.666667  0.996054  1
  Ag  Ag4  1  0.000000  0.000000  0.696580  1
  Ag  Ag5  1  0.000000  0.000000  0.296822  1
  Pb  Pb6  1  0.333333  0.666667  0.651409  1
  Pb  Pb7  1  0.333333  0.666667  0.344551  1
  Pb  Pb8  1  0.000000  0.000000  0.999286  1
