# generated using pymatgen
data_Ho5Er11(MgSn4)4
_symmetry_space_group_name_H-M   'P 1'
_cell_length_a   7.63437100
_cell_length_b   8.20108800
_cell_length_c   15.20520001
_cell_angle_alpha   89.99901033
_cell_angle_beta   89.99654803
_cell_angle_gamma   89.99968169
_symmetry_Int_Tables_number   1
_chemical_formula_structural   Ho5Er11(MgSn4)4
_chemical_formula_sum   'Ho5 Er11 Mg4 Sn16'
_cell_volume   951.99982744
_cell_formula_units_Z   1
loop_
 _symmetry_equiv_pos_site_id
 _symmetry_equiv_pos_as_xyz
  1  'x, y, z'
loop_
 _atom_site_type_symbol
 _atom_site_label
 _atom_site_symmetry_multiplicity
 _atom_site_fract_x
 _atom_site_fract_y
 _atom_site_fract_z
 _atom_site_occupancy
  Ho  Ho0  1  0.998977  0.184820  0.090662  1
  Ho  Ho1  1  0.001030  0.815187  0.909331  1
  Ho  Ho2  1  0.501025  0.684811  0.909345  1
  Ho  Ho3  1  0.001030  0.815184  0.590661  1
  Ho  Ho4  1  0.498975  0.315191  0.090656  1
  Er  Er5  1  0.999009  0.184846  0.409315  1
  Er  Er6  1  0.498987  0.315158  0.409317  1
  Er  Er7  1  0.501013  0.684832  0.590659  1
  Er  Er8  1  0.335107  0.169046  0.628751  1
  Er  Er9  1  0.664909  0.830977  0.371231  1
  Er  Er10  1  0.164927  0.669019  0.371221  1
  Er  Er11  1  0.664893  0.830953  0.128792  1
  Er  Er12  1  0.835085  0.330974  0.628754  1
  Er  Er13  1  0.335092  0.169042  0.871230  1
  Er  Er14  1  0.835110  0.330951  0.871231  1
  Er  Er15  1  0.164896  0.669036  0.128795  1
  Mg  Mg16  1  0.159291  0.505444  0.749999  1
  Mg  Mg17  1  0.840707  0.494533  0.250001  1
  Mg  Mg18  1  0.340711  0.005467  0.250003  1
  Mg  Mg19  1  0.659295  0.994535  0.749999  1
  Sn  Sn20  1  0.021365  0.091863  0.749999  1
  Sn  Sn21  1  0.978644  0.908192  0.250020  1
  Sn  Sn22  1  0.478640  0.591807  0.250023  1
  Sn  Sn23  1  0.521352  0.408199  0.749980  1
  Sn  Sn24  1  0.182675  0.462988  0.538480  1
  Sn  Sn25  1  0.817324  0.536922  0.461508  1
  Sn  Sn26  1  0.317386  0.963056  0.461505  1
  Sn  Sn27  1  0.817445  0.537005  0.038474  1
  Sn  Sn28  1  0.682570  0.037009  0.538468  1
  Sn  Sn29  1  0.182551  0.462997  0.961530  1
  Sn  Sn30  1  0.682566  0.037010  0.961532  1
  Sn  Sn31  1  0.317440  0.962992  0.038468  1
  Sn  Sn32  1  0.302678  0.846783  0.749966  1
  Sn  Sn33  1  0.697364  0.153221  0.250059  1
  Sn  Sn34  1  0.197359  0.346783  0.250054  1
  Sn  Sn35  1  0.802571  0.653171  0.749979  1
