# generated using pymatgen
data_Tb16YSc3Sn16
_symmetry_space_group_name_H-M   'P 1'
_cell_length_a   7.97083584
_cell_length_b   8.14534435
_cell_length_c   15.42465800
_cell_angle_alpha   90.00000000
_cell_angle_beta   90.00000000
_cell_angle_gamma   89.89242378
_symmetry_Int_Tables_number   1
_chemical_formula_structural   Tb16YSc3Sn16
_chemical_formula_sum   'Tb16 Y1 Sc3 Sn16'
_cell_volume   1001.44728152
_cell_formula_units_Z   1
loop_
 _symmetry_equiv_pos_site_id
 _symmetry_equiv_pos_as_xyz
  1  'x, y, z'
loop_
 _atom_site_type_symbol
 _atom_site_label
 _atom_site_symmetry_multiplicity
 _atom_site_fract_x
 _atom_site_fract_y
 _atom_site_fract_z
 _atom_site_occupancy
  Tb  Tb0  1  0.366193  0.838327  0.877740  1
  Tb  Tb1  1  0.864447  0.663008  0.621983  1
  Tb  Tb2  1  0.634467  0.161860  0.376406  1
  Tb  Tb3  1  0.134823  0.338157  0.124324  1
  Tb  Tb4  1  0.634467  0.161860  0.123594  1
  Tb  Tb5  1  0.134823  0.338157  0.375676  1
  Tb  Tb6  1  0.366193  0.838327  0.622260  1
  Tb  Tb7  1  0.864447  0.663008  0.878017  1
  Tb  Tb8  1  0.520369  0.319725  0.903884  1
  Tb  Tb9  1  0.019200  0.179113  0.596085  1
  Tb  Tb10  1  0.479518  0.679694  0.402448  1
  Tb  Tb11  1  0.979769  0.820096  0.096891  1
  Tb  Tb12  1  0.479518  0.679694  0.097552  1
  Tb  Tb13  1  0.979769  0.820096  0.403109  1
  Tb  Tb14  1  0.520369  0.319725  0.596116  1
  Tb  Tb15  1  0.019200  0.179113  0.903915  1
  Y  Y16  1  0.195987  0.501696  0.750000  1
  Sc  Sc17  1  0.697363  0.996690  0.750000  1
  Sc  Sc18  1  0.802048  0.497638  0.250000  1
  Sc  Sc19  1  0.302136  0.002125  0.250000  1
  Sn  Sn20  1  0.294154  0.035258  0.044455  1
  Sn  Sn21  1  0.794452  0.464586  0.455501  1
  Sn  Sn22  1  0.705939  0.965801  0.543741  1
  Sn  Sn23  1  0.205737  0.536362  0.958764  1
  Sn  Sn24  1  0.705939  0.965801  0.956259  1
  Sn  Sn25  1  0.205737  0.536362  0.541236  1
  Sn  Sn26  1  0.294154  0.035258  0.455545  1
  Sn  Sn27  1  0.794452  0.464586  0.044499  1
  Sn  Sn28  1  0.564623  0.620459  0.750000  1
  Sn  Sn29  1  0.057391  0.885728  0.750000  1
  Sn  Sn30  1  0.441951  0.384779  0.250000  1
  Sn  Sn31  1  0.941298  0.114798  0.250000  1
  Sn  Sn32  1  0.333207  0.145585  0.750000  1
  Sn  Sn33  1  0.825088  0.345945  0.750000  1
  Sn  Sn34  1  0.670573  0.847095  0.250000  1
  Sn  Sn35  1  0.170202  0.653491  0.250000  1
