# generated using pymatgen
data_Pr3YSb10
_symmetry_space_group_name_H-M   'P 1'
_cell_length_a   4.30802200
_cell_length_b   13.52541663
_cell_length_c   15.18632083
_cell_angle_alpha   77.96038879
_cell_angle_beta   90.00000000
_cell_angle_gamma   90.00000000
_symmetry_Int_Tables_number   1
_chemical_formula_structural   Pr3YSb10
_chemical_formula_sum   'Pr6 Y2 Sb20'
_cell_volume   865.40938555
_cell_formula_units_Z   2
loop_
 _symmetry_equiv_pos_site_id
 _symmetry_equiv_pos_as_xyz
  1  'x, y, z'
loop_
 _atom_site_type_symbol
 _atom_site_label
 _atom_site_symmetry_multiplicity
 _atom_site_fract_x
 _atom_site_fract_y
 _atom_site_fract_z
 _atom_site_occupancy
  Pr  Pr0  1  0.750000  0.333547  0.142707  1
  Pr  Pr1  1  0.250000  0.947363  0.362906  1
  Pr  Pr2  1  0.250000  0.666453  0.857293  1
  Pr  Pr3  1  0.250000  0.667330  0.576619  1
  Pr  Pr4  1  0.750000  0.052637  0.637094  1
  Pr  Pr5  1  0.750000  0.332670  0.423381  1
  Y  Y6  1  0.250000  0.398212  0.772265  1
  Y  Y7  1  0.750000  0.601788  0.227735  1
  Sb  Sb8  1  0.750000  0.854053  0.817640  1
  Sb  Sb9  1  0.250000  0.863284  0.674776  1
  Sb  Sb10  1  0.250000  0.144467  0.476434  1
  Sb  Sb11  1  0.750000  0.286422  0.933578  1
  Sb  Sb12  1  0.250000  0.149154  0.780872  1
  Sb  Sb13  1  0.750000  0.575171  0.440720  1
  Sb  Sb14  1  0.750000  0.136716  0.325224  1
  Sb  Sb15  1  0.250000  0.704012  0.351071  1
  Sb  Sb16  1  0.750000  0.295988  0.648929  1
  Sb  Sb17  1  0.750000  0.850846  0.219128  1
  Sb  Sb18  1  0.250000  0.420198  0.972359  1
  Sb  Sb19  1  0.250000  0.424829  0.559280  1
  Sb  Sb20  1  0.750000  0.572555  0.737284  1
  Sb  Sb21  1  0.250000  0.427445  0.262716  1
  Sb  Sb22  1  0.750000  0.855533  0.523566  1
  Sb  Sb23  1  0.750000  0.035210  0.888303  1
  Sb  Sb24  1  0.250000  0.713578  0.066422  1
  Sb  Sb25  1  0.250000  0.964790  0.111697  1
  Sb  Sb26  1  0.250000  0.145947  0.182360  1
  Sb  Sb27  1  0.750000  0.579802  0.027641  1
