# generated using pymatgen
data_TbLu2Zn3(GaCo)6
_symmetry_space_group_name_H-M   'P 1'
_cell_length_a   4.09082700
_cell_length_b   8.83335672
_cell_length_c   8.83431825
_cell_angle_alpha   60.02203579
_cell_angle_beta   90.00000000
_cell_angle_gamma   90.00000000
_symmetry_Int_Tables_number   1
_chemical_formula_structural   TbLu2Zn3(GaCo)6
_chemical_formula_sum   'Tb1 Lu2 Zn3 Ga6 Co6'
_cell_volume   276.52662026
_cell_formula_units_Z   1
loop_
 _symmetry_equiv_pos_site_id
 _symmetry_equiv_pos_as_xyz
  1  'x, y, z'
loop_
 _atom_site_type_symbol
 _atom_site_label
 _atom_site_symmetry_multiplicity
 _atom_site_fract_x
 _atom_site_fract_y
 _atom_site_fract_z
 _atom_site_occupancy
  Tb  Tb0  1  0.500000  0.666630  0.666620  1
  Lu  Lu1  1  0.500000  0.333230  0.333366  1
  Lu  Lu2  1  0.000000  0.000075  0.000008  1
  Zn  Zn3  1  0.500000  0.292069  0.706974  1
  Zn  Zn4  1  0.500000  0.706888  0.001039  1
  Zn  Zn5  1  0.500000  0.001020  0.292098  1
  Ga  Ga6  1  0.000000  0.493670  0.505923  1
  Ga  Ga7  1  0.000000  0.505838  0.000472  1
  Ga  Ga8  1  0.000000  0.000487  0.493551  1
  Ga  Ga9  1  0.500000  0.716252  0.283028  1
  Ga  Ga10  1  0.500000  0.283015  0.000759  1
  Ga  Ga11  1  0.500000  0.000818  0.716159  1
  Co  Co12  1  0.000000  0.189317  0.179754  1
  Co  Co13  1  0.000000  0.179689  0.631030  1
  Co  Co14  1  0.000000  0.630974  0.189370  1
  Co  Co15  1  0.000000  0.822280  0.812493  1
  Co  Co16  1  0.000000  0.365143  0.822237  1
  Co  Co17  1  0.000000  0.812507  0.365217  1
