# generated using pymatgen
data_Nd2NiRuI2
_symmetry_space_group_name_H-M   'P 1'
_cell_length_a   4.22724900
_cell_length_b   4.22725716
_cell_length_c   12.11625000
_cell_angle_alpha   90.00004868
_cell_angle_beta   90.00002774
_cell_angle_gamma   120.00001594
_symmetry_Int_Tables_number   1
_chemical_formula_structural   Nd2NiRuI2
_chemical_formula_sum   'Nd2 Ni1 Ru1 I2'
_cell_volume   187.50605042
_cell_formula_units_Z   1
loop_
 _symmetry_equiv_pos_site_id
 _symmetry_equiv_pos_as_xyz
  1  'x, y, z'
loop_
 _atom_site_type_symbol
 _atom_site_label
 _atom_site_symmetry_multiplicity
 _atom_site_fract_x
 _atom_site_fract_y
 _atom_site_fract_z
 _atom_site_occupancy
  Nd  Nd0  1  0.000000  0.000000  0.344975  1
  Nd  Nd1  1  0.000000  0.000000  0.653790  1
  Ni  Ni2  1  0.666665  0.333334  0.503546  1
  Ru  Ru3  1  0.333334  0.666667  0.498346  1
  I  I4  1  0.666666  0.333335  0.166286  1
  I  I5  1  0.333333  0.666666  0.833056  1
