# generated using pymatgen
data_Zr2P2PdRu
_symmetry_space_group_name_H-M   'P 1'
_cell_length_a   3.83211000
_cell_length_b   6.56665900
_cell_length_c   7.51850600
_cell_angle_alpha   90.00000000
_cell_angle_beta   90.00000000
_cell_angle_gamma   90.00000000
_symmetry_Int_Tables_number   1
_chemical_formula_structural   Zr2P2PdRu
_chemical_formula_sum   'Zr4 P4 Pd2 Ru2'
_cell_volume   189.19688509
_cell_formula_units_Z   2
loop_
 _symmetry_equiv_pos_site_id
 _symmetry_equiv_pos_as_xyz
  1  'x, y, z'
loop_
 _atom_site_type_symbol
 _atom_site_label
 _atom_site_symmetry_multiplicity
 _atom_site_fract_x
 _atom_site_fract_y
 _atom_site_fract_z
 _atom_site_occupancy
  Zr  Zr0  1  0.750000  0.529938  0.323587  1
  Zr  Zr1  1  0.250000  0.974460  0.819258  1
  Zr  Zr2  1  0.750000  0.029938  0.176413  1
  Zr  Zr3  1  0.250000  0.474460  0.680742  1
  P  P4  1  0.250000  0.743329  0.110896  1
  P  P5  1  0.250000  0.243329  0.389104  1
  P  P6  1  0.750000  0.264219  0.863475  1
  P  P7  1  0.750000  0.764219  0.636525  1
  Pd  Pd8  1  0.250000  0.349706  0.068331  1
  Pd  Pd9  1  0.250000  0.849706  0.431669  1
  Ru  Ru10  1  0.750000  0.138347  0.552428  1
  Ru  Ru11  1  0.750000  0.638347  0.947572  1
