# generated using pymatgen
data_Ba5In(MoH9)3
_symmetry_space_group_name_H-M   'P 1'
_cell_length_a   9.64170800
_cell_length_b   9.36034736
_cell_length_c   5.35188100
_cell_angle_alpha   90.00000000
_cell_angle_beta   90.00000000
_cell_angle_gamma   119.03930849
_symmetry_Int_Tables_number   1
_chemical_formula_structural   Ba5In(MoH9)3
_chemical_formula_sum   'Ba5 In1 Mo3 H27'
_cell_volume   422.28568114
_cell_formula_units_Z   1
loop_
 _symmetry_equiv_pos_site_id
 _symmetry_equiv_pos_as_xyz
  1  'x, y, z'
loop_
 _atom_site_type_symbol
 _atom_site_label
 _atom_site_symmetry_multiplicity
 _atom_site_fract_x
 _atom_site_fract_y
 _atom_site_fract_z
 _atom_site_occupancy
  Ba  Ba0  1  0.733909  0.737551  0.500000  1
  Ba  Ba1  1  0.266091  0.003642  0.500000  1
  Ba  Ba2  1  0.000000  0.568065  0.000000  1
  Ba  Ba3  1  0.375639  0.394656  0.000000  1
  Ba  Ba4  1  0.624361  0.019017  0.000000  1
  In  In5  1  0.000000  0.223912  0.500000  1
  Mo  Mo6  1  0.653851  0.337732  0.500000  1
  Mo  Mo7  1  0.346149  0.683884  0.500000  1
  Mo  Mo8  1  0.000000  0.980487  0.000000  1
  H  H9  1  0.769210  0.311288  0.734824  1
  H  H10  1  0.669713  0.471243  0.751774  1
  H  H11  1  0.521331  0.219627  0.745218  1
  H  H12  1  0.230790  0.542079  0.265176  1
  H  H13  1  0.521331  0.219627  0.254782  1
  H  H14  1  0.769210  0.311288  0.265176  1
  H  H15  1  0.669713  0.471243  0.248226  1
  H  H16  1  0.330287  0.801531  0.751774  1
  H  H17  1  0.478669  0.698296  0.745218  1
  H  H18  1  0.190818  0.994887  0.000000  1
  H  H19  1  0.809182  0.804068  0.000000  1
  H  H20  1  0.000000  0.166114  0.000000  1
  H  H21  1  0.874592  0.000154  0.233310  1
  H  H22  1  0.125408  0.125562  0.766690  1
  H  H23  1  0.000000  0.840407  0.770237  1
  H  H24  1  0.000000  0.840407  0.229763  1
  H  H25  1  0.125408  0.125562  0.233310  1
  H  H26  1  0.874592  0.000154  0.766690  1
  H  H27  1  0.154077  0.662906  0.500000  1
  H  H28  1  0.516208  0.877105  0.500000  1
  H  H29  1  0.372705  0.514290  0.500000  1
  H  H30  1  0.483792  0.360896  0.500000  1
  H  H31  1  0.845923  0.508829  0.500000  1
  H  H32  1  0.627295  0.141585  0.500000  1
  H  H33  1  0.230790  0.542079  0.734824  1
  H  H34  1  0.330287  0.801531  0.248226  1
  H  H35  1  0.478669  0.698296  0.254782  1
