# generated using pymatgen
data_Ca3Sm(Ni7As4)2
_symmetry_space_group_name_H-M   'P 1'
_cell_length_a   3.84358200
_cell_length_b   9.49065648
_cell_length_c   10.61760819
_cell_angle_alpha   89.77517831
_cell_angle_beta   90.00000003
_cell_angle_gamma   90.00002698
_symmetry_Int_Tables_number   1
_chemical_formula_structural   Ca3Sm(Ni7As4)2
_chemical_formula_sum   'Ca3 Sm1 Ni14 As8'
_cell_volume   387.30736616
_cell_formula_units_Z   1
loop_
 _symmetry_equiv_pos_site_id
 _symmetry_equiv_pos_as_xyz
  1  'x, y, z'
loop_
 _atom_site_type_symbol
 _atom_site_label
 _atom_site_symmetry_multiplicity
 _atom_site_fract_x
 _atom_site_fract_y
 _atom_site_fract_z
 _atom_site_occupancy
  Ca  Ca0  1  0.500000  0.058564  0.283668  1
  Ca  Ca1  1  0.500000  0.440536  0.503949  1
  Ca  Ca2  1  0.000000  0.941064  0.783689  1
  Sm  Sm3  1  0.000000  0.558465  0.003838  1
  Ni  Ni4  1  0.500000  0.309828  0.062958  1
  Ni  Ni5  1  0.000001  0.899945  0.077463  1
  Ni  Ni6  1  0.500001  0.725571  0.171258  1
  Ni  Ni7  1  0.999997  0.318727  0.261307  1
  Ni  Ni8  1  0.000001  0.581434  0.315578  1
  Ni  Ni9  1  0.500000  0.735600  0.405292  1
  Ni  Ni10  1  0.999999  0.944932  0.480943  1
  Ni  Ni11  1  0.000000  0.694062  0.565381  1
  Ni  Ni12  1  0.500002  0.100569  0.576926  1
  Ni  Ni13  1  0.000002  0.272575  0.670227  1
  Ni  Ni14  1  0.500000  0.680268  0.764937  1
  Ni  Ni15  1  0.500003  0.419237  0.820876  1
  Ni  Ni16  1  0.000001  0.263655  0.904337  1
  Ni  Ni17  1  0.500002  0.056447  0.980955  1
  As  As18  1  0.000001  0.152626  0.095163  1
  As  As19  1  0.500000  0.476188  0.220836  1
  As  As20  1  0.000000  0.820227  0.288025  1
  As  As21  1  0.000001  0.193472  0.462146  1
  As  As22  1  0.500000  0.846745  0.595052  1
  As  As23  1  0.000001  0.521740  0.718055  1
  As  As24  1  0.500000  0.180338  0.786810  1
  As  As25  1  0.500000  0.807190  0.962736  1
