# generated using pymatgen
data_Y4Hf3PdF28
_symmetry_space_group_name_H-M   'P 1'
_cell_length_a   5.67222193
_cell_length_b   9.01603560
_cell_length_c   12.12689252
_cell_angle_alpha   62.41934236
_cell_angle_beta   90.09318262
_cell_angle_gamma   90.00630984
_symmetry_Int_Tables_number   1
_chemical_formula_structural   Y4Hf3PdF28
_chemical_formula_sum   'Y4 Hf3 Pd1 F28'
_cell_volume   549.70259565
_cell_formula_units_Z   1
loop_
 _symmetry_equiv_pos_site_id
 _symmetry_equiv_pos_as_xyz
  1  'x, y, z'
loop_
 _atom_site_type_symbol
 _atom_site_label
 _atom_site_symmetry_multiplicity
 _atom_site_fract_x
 _atom_site_fract_y
 _atom_site_fract_z
 _atom_site_occupancy
  Y  Y0  1  0.259318  0.814972  0.267925  1
  Y  Y1  1  0.743017  0.186913  0.732854  1
  Y  Y2  1  0.758360  0.184212  0.234707  1
  Y  Y3  1  0.240852  0.815587  0.760511  1
  Hf  Hf4  1  0.756804  0.726626  0.043414  1
  Hf  Hf5  1  0.244262  0.275267  0.954540  1
  Hf  Hf6  1  0.256595  0.274918  0.455841  1
  Pd  Pd7  1  0.739755  0.727078  0.544409  1
  F  F8  1  0.931777  0.704357  0.419925  1
  F  F9  1  0.042265  0.289252  0.580821  1
  F  F10  1  0.459374  0.291004  0.079822  1
  F  F11  1  0.538796  0.710550  0.919505  1
  F  F12  1  0.484378  0.732148  0.147145  1
  F  F13  1  0.518924  0.268815  0.853448  1
  F  F14  1  0.980706  0.267471  0.354810  1
  F  F15  1  0.024393  0.726505  0.635084  1
  F  F16  1  0.965687  0.746724  0.171638  1
  F  F17  1  0.039254  0.252847  0.827207  1
  F  F18  1  0.464057  0.254846  0.327777  1
  F  F19  1  0.552607  0.741859  0.675001  1
  F  F20  1  0.774353  0.476579  0.140072  1
  F  F21  1  0.224160  0.525106  0.857095  1
  F  F22  1  0.268122  0.525486  0.361164  1
  F  F23  1  0.728307  0.483593  0.641623  1
  F  F24  1  0.951168  0.277369  0.048443  1
  F  F25  1  0.048264  0.723664  0.949131  1
  F  F26  1  0.448387  0.719398  0.460019  1
  F  F27  1  0.550792  0.281188  0.546845  1
  F  F28  1  0.742600  0.970633  0.452412  1
  F  F29  1  0.261525  0.025461  0.555158  1
  F  F30  1  0.242075  0.026040  0.058237  1
  F  F31  1  0.759144  0.975993  0.942301  1
  F  F32  1  0.578849  0.969976  0.235268  1
  F  F33  1  0.420901  0.028589  0.764949  1
  F  F34  1  0.079612  0.027714  0.269969  1
  F  F35  1  0.920559  0.971255  0.730931  1
