# generated using pymatgen
data_Y15Tm(ScBi3)4
_symmetry_space_group_name_H-M   'P 1'
_cell_length_a   8.14398373
_cell_length_b   9.44043002
_cell_length_c   12.00735805
_cell_angle_alpha   89.99872060
_cell_angle_beta   90.04802049
_cell_angle_gamma   90.00681723
_symmetry_Int_Tables_number   1
_chemical_formula_structural   Y15Tm(ScBi3)4
_chemical_formula_sum   'Y15 Tm1 Sc4 Bi12'
_cell_volume   923.15787773
_cell_formula_units_Z   1
loop_
 _symmetry_equiv_pos_site_id
 _symmetry_equiv_pos_as_xyz
  1  'x, y, z'
loop_
 _atom_site_type_symbol
 _atom_site_label
 _atom_site_symmetry_multiplicity
 _atom_site_fract_x
 _atom_site_fract_y
 _atom_site_fract_z
 _atom_site_occupancy
  Y  Y0  1  0.185065  0.750011  0.720669  1
  Y  Y1  1  0.685260  0.749988  0.779486  1
  Y  Y2  1  0.815054  0.250083  0.279242  1
  Y  Y3  1  0.314816  0.250422  0.220250  1
  Y  Y4  1  0.803736  0.063444  0.559129  1
  Y  Y5  1  0.695729  0.936429  0.058648  1
  Y  Y6  1  0.196498  0.563366  0.441020  1
  Y  Y7  1  0.696462  0.563289  0.058852  1
  Y  Y8  1  0.196324  0.936503  0.441111  1
  Y  Y9  1  0.303778  0.063560  0.941198  1
  Y  Y10  1  0.803662  0.436644  0.558982  1
  Y  Y11  1  0.355254  0.750429  0.215115  1
  Y  Y12  1  0.855178  0.750105  0.284860  1
  Y  Y13  1  0.644238  0.250810  0.785155  1
  Y  Y14  1  0.145751  0.250820  0.715554  1
  Tm  Tm15  1  0.302816  0.433939  0.941200  1
  Sc  Sc16  1  0.026082  0.750219  0.987928  1
  Sc  Sc17  1  0.525912  0.750261  0.512053  1
  Sc  Sc18  1  0.974972  0.250530  0.012090  1
  Sc  Sc19  1  0.473969  0.249975  0.487953  1
  Bi  Bi20  1  0.433879  0.003968  0.668307  1
  Bi  Bi21  1  0.934736  0.496366  0.832131  1
  Bi  Bi22  1  0.566052  0.503984  0.331647  1
  Bi  Bi23  1  0.066240  0.996193  0.168115  1
  Bi  Bi24  1  0.566136  0.996276  0.331786  1
  Bi  Bi25  1  0.066397  0.504218  0.167683  1
  Bi  Bi26  1  0.433702  0.496334  0.668357  1
  Bi  Bi27  1  0.933903  0.004181  0.831920  1
  Bi  Bi28  1  0.403460  0.747310  0.957257  1
  Bi  Bi29  1  0.904622  0.749913  0.542311  1
  Bi  Bi30  1  0.594981  0.250515  0.042142  1
  Bi  Bi31  1  0.095336  0.249914  0.457851  1
