# generated using pymatgen
data_La4SnPd4Au
_symmetry_space_group_name_H-M   'P 1'
_cell_length_a   7.83922100
_cell_length_b   7.83922100
_cell_length_c   3.99574500
_cell_angle_alpha   90.00000000
_cell_angle_beta   90.00000000
_cell_angle_gamma   90.00000000
_symmetry_Int_Tables_number   1
_chemical_formula_structural   La4SnPd4Au
_chemical_formula_sum   'La4 Sn1 Pd4 Au1'
_cell_volume   245.55205939
_cell_formula_units_Z   1
loop_
 _symmetry_equiv_pos_site_id
 _symmetry_equiv_pos_as_xyz
  1  'x, y, z'
loop_
 _atom_site_type_symbol
 _atom_site_label
 _atom_site_symmetry_multiplicity
 _atom_site_fract_x
 _atom_site_fract_y
 _atom_site_fract_z
 _atom_site_occupancy
  La  La0  1  0.324637  0.816936  0.500000  1
  La  La1  1  0.675363  0.183064  0.500000  1
  La  La2  1  0.816936  0.675363  0.500000  1
  La  La3  1  0.183064  0.324637  0.500000  1
  Sn  Sn4  1  0.000000  0.000000  0.000000  1
  Pd  Pd5  1  0.875879  0.369304  0.000000  1
  Pd  Pd6  1  0.630696  0.875879  0.000000  1
  Pd  Pd7  1  0.369304  0.124121  0.000000  1
  Pd  Pd8  1  0.124121  0.630696  0.000000  1
  Au  Au9  1  0.500000  0.500000  0.000000  1
