# generated using pymatgen
data_LaEuZn21Pd
_symmetry_space_group_name_H-M   'P 1'
_cell_length_a   8.32366722
_cell_length_b   8.31848901
_cell_length_c   8.31848300
_cell_angle_alpha   99.63355354
_cell_angle_beta   100.22444888
_cell_angle_gamma   130.89162892
_symmetry_Int_Tables_number   1
_chemical_formula_structural   LaEuZn21Pd
_chemical_formula_sum   'La1 Eu1 Zn21 Pd1'
_cell_volume   396.14957870
_cell_formula_units_Z   1
loop_
 _symmetry_equiv_pos_site_id
 _symmetry_equiv_pos_as_xyz
  1  'x, y, z'
loop_
 _atom_site_type_symbol
 _atom_site_label
 _atom_site_symmetry_multiplicity
 _atom_site_fract_x
 _atom_site_fract_y
 _atom_site_fract_z
 _atom_site_occupancy
  La  La0  1  0.495622  0.499947  0.995674  1
  Eu  Eu1  1  0.753565  0.249700  0.503865  1
  Zn  Zn2  1  0.845126  0.432235  0.171286  1
  Zn  Zn3  1  0.125743  0.875496  0.749729  1
  Zn  Zn4  1  0.325916  0.152609  0.583321  1
  Zn  Zn5  1  0.259171  0.432024  0.583856  1
  Zn  Zn6  1  0.325917  0.742597  0.173309  1
  Zn  Zn7  1  0.990397  0.317496  0.915840  1
  Zn  Zn8  1  0.259170  0.675312  0.827146  1
  Zn  Zn9  1  0.249414  0.754888  0.494525  1
  Zn  Zn10  1  0.990397  0.074559  0.672901  1
  Zn  Zn11  1  0.000907  0.995585  0.005323  1
  Zn  Zn12  1  0.683020  0.011708  0.085330  1
  Zn  Zn13  1  0.623937  0.874322  0.749615  1
  Zn  Zn14  1  0.404516  0.316927  0.328516  1
  Zn  Zn15  1  0.924242  0.007864  0.326529  1
  Zn  Zn16  1  0.845126  0.673840  0.412891  1
  Zn  Zn17  1  0.567713  0.738465  0.414913  1
  Zn  Zn18  1  0.683020  0.597691  0.671313  1
  Zn  Zn19  1  0.404516  0.076001  0.087588  1
  Zn  Zn20  1  0.924243  0.597712  0.916379  1
  Zn  Zn21  1  0.567713  0.152800  0.829248  1
  Zn  Zn22  1  0.125743  0.376014  0.250246  1
  Pd  Pd23  1  0.124869  0.874209  0.250659  1
