# generated using pymatgen
data_DyY3Al16(Co3Si)2
_symmetry_space_group_name_H-M   'P 1'
_cell_length_a   7.34911602
_cell_length_b   7.34903657
_cell_length_c   9.17703900
_cell_angle_alpha   89.99999760
_cell_angle_beta   89.99998596
_cell_angle_gamma   119.24535649
_symmetry_Int_Tables_number   1
_chemical_formula_structural   DyY3Al16(Co3Si)2
_chemical_formula_sum   'Dy1 Y3 Al16 Co6 Si2'
_cell_volume   432.46528068
_cell_formula_units_Z   1
loop_
 _symmetry_equiv_pos_site_id
 _symmetry_equiv_pos_as_xyz
  1  'x, y, z'
loop_
 _atom_site_type_symbol
 _atom_site_label
 _atom_site_symmetry_multiplicity
 _atom_site_fract_x
 _atom_site_fract_y
 _atom_site_fract_z
 _atom_site_occupancy
  Dy  Dy0  1  0.993459  0.676885  0.250000  1
  Y  Y1  1  0.006584  0.323158  0.750000  1
  Y  Y2  1  0.676858  0.993446  0.250000  1
  Y  Y3  1  0.323159  0.006594  0.750000  1
  Al  Al4  1  0.334615  0.334614  0.546164  1
  Al  Al5  1  0.665404  0.665383  0.046173  1
  Al  Al6  1  0.334615  0.334614  0.953836  1
  Al  Al7  1  0.665403  0.665383  0.453827  1
  Al  Al8  1  0.336173  0.554673  0.250000  1
  Al  Al9  1  0.663789  0.445325  0.750000  1
  Al  Al10  1  0.554707  0.336235  0.250000  1
  Al  Al11  1  0.445330  0.663790  0.750000  1
  Al  Al12  1  0.999112  0.336559  0.073276  1
  Al  Al13  1  0.000882  0.663463  0.573234  1
  Al  Al14  1  0.336514  0.999090  0.426724  1
  Al  Al15  1  0.663463  0.000886  0.926742  1
  Al  Al16  1  0.000882  0.663463  0.926766  1
  Al  Al17  1  0.999112  0.336559  0.426724  1
  Al  Al18  1  0.663463  0.000886  0.573258  1
  Al  Al19  1  0.336514  0.999090  0.073276  1
  Co  Co20  1  0.999991  0.999973  0.000015  1
  Co  Co21  1  0.999991  0.999973  0.499985  1
  Co  Co22  1  0.670964  0.329048  0.000007  1
  Co  Co23  1  0.329028  0.670956  0.499993  1
  Co  Co24  1  0.329028  0.670956  0.000007  1
  Co  Co25  1  0.670964  0.329048  0.499993  1
  Si  Si26  1  0.123871  0.123825  0.250000  1
  Si  Si27  1  0.876124  0.876126  0.750000  1
