# generated using pymatgen
data_TbDy2Cd3Si2Au
_symmetry_space_group_name_H-M   'P 1'
_cell_length_a   7.26063900
_cell_length_b   7.26131405
_cell_length_c   4.33943100
_cell_angle_alpha   90.00000000
_cell_angle_beta   90.00000000
_cell_angle_gamma   119.99692934
_symmetry_Int_Tables_number   1
_chemical_formula_structural   TbDy2Cd3Si2Au
_chemical_formula_sum   'Tb1 Dy2 Cd3 Si2 Au1'
_cell_volume   198.13761009
_cell_formula_units_Z   1
loop_
 _symmetry_equiv_pos_site_id
 _symmetry_equiv_pos_as_xyz
  1  'x, y, z'
loop_
 _atom_site_type_symbol
 _atom_site_label
 _atom_site_symmetry_multiplicity
 _atom_site_fract_x
 _atom_site_fract_y
 _atom_site_fract_z
 _atom_site_occupancy
  Tb  Tb0  1  0.583131  0.000000  0.000000  1
  Dy  Dy1  1  0.999955  0.583192  0.000000  1
  Dy  Dy2  1  0.416763  0.416808  0.000000  1
  Cd  Cd3  1  0.254610  0.000000  0.500000  1
  Cd  Cd4  1  0.000067  0.254751  0.500000  1
  Cd  Cd5  1  0.745316  0.745249  0.500000  1
  Si  Si6  1  0.333219  0.666479  0.500000  1
  Si  Si7  1  0.666741  0.333521  0.500000  1
  Au  Au8  1  0.000199  0.000000  0.000000  1
