# generated using pymatgen
data_Rb4Na2CaZrP4
_symmetry_space_group_name_H-M   'P 1'
_cell_length_a   9.18286861
_cell_length_b   9.18286875
_cell_length_c   9.18286888
_cell_angle_alpha   135.23971898
_cell_angle_beta   135.35897196
_cell_angle_gamma   65.06548323
_symmetry_Int_Tables_number   1
_chemical_formula_structural   Rb4Na2CaZrP4
_chemical_formula_sum   'Rb4 Na2 Ca1 Zr1 P4'
_cell_volume   377.61257166
_cell_formula_units_Z   1
loop_
 _symmetry_equiv_pos_site_id
 _symmetry_equiv_pos_as_xyz
  1  'x, y, z'
loop_
 _atom_site_type_symbol
 _atom_site_label
 _atom_site_symmetry_multiplicity
 _atom_site_fract_x
 _atom_site_fract_y
 _atom_site_fract_z
 _atom_site_occupancy
  Rb  Rb0  1  0.096209  0.314332  0.774184  1
  Rb  Rb1  1  0.459851  0.185668  0.281876  1
  Rb  Rb2  1  0.903791  0.677976  0.218124  1
  Rb  Rb3  1  0.540149  0.822024  0.725816  1
  Na  Na4  1  0.500000  0.750000  0.250000  1
  Na  Na5  1  0.500000  0.250000  0.750000  1
  Ca  Ca6  1  0.000000  0.250000  0.250000  1
  Zr  Zr7  1  0.000000  0.750000  0.750000  1
  P  P8  1  0.121775  0.880949  0.187298  1
  P  P9  1  0.878225  0.065523  0.759175  1
  P  P10  1  0.306349  0.619051  0.740825  1
  P  P11  1  0.693651  0.434477  0.312702  1
