# generated using pymatgen
data_Sc8TaV8Si16Mo3
_symmetry_space_group_name_H-M   'P 1'
_cell_length_a   6.68012408
_cell_length_b   6.68012516
_cell_length_c   12.37447290
_cell_angle_alpha   90.05104414
_cell_angle_beta   89.94895401
_cell_angle_gamma   90.11642544
_symmetry_Int_Tables_number   1
_chemical_formula_structural   Sc8TaV8Si16Mo3
_chemical_formula_sum   'Sc8 Ta1 V8 Si16 Mo3'
_cell_volume   552.19770502
_cell_formula_units_Z   1
loop_
 _symmetry_equiv_pos_site_id
 _symmetry_equiv_pos_as_xyz
  1  'x, y, z'
loop_
 _atom_site_type_symbol
 _atom_site_label
 _atom_site_symmetry_multiplicity
 _atom_site_fract_x
 _atom_site_fract_y
 _atom_site_fract_z
 _atom_site_occupancy
  Sc  Sc0  1  0.002712  0.662959  0.029691  1
  Sc  Sc1  1  0.837971  0.501809  0.279049  1
  Sc  Sc2  1  0.163012  0.497006  0.779815  1
  Sc  Sc3  1  0.501809  0.837971  0.720951  1
  Sc  Sc4  1  0.497006  0.163012  0.220185  1
  Sc  Sc5  1  0.997830  0.336481  0.530002  1
  Sc  Sc6  1  0.662959  0.002712  0.970309  1
  Sc  Sc7  1  0.336481  0.997830  0.469998  1
  Ta  Ta8  1  0.667629  0.667629  0.500000  1
  V  V9  1  0.004602  0.157492  0.126758  1
  V  V10  1  0.344613  0.504609  0.376401  1
  V  V11  1  0.657451  0.494147  0.877242  1
  V  V12  1  0.504609  0.344613  0.623599  1
  V  V13  1  0.494147  0.657451  0.122758  1
  V  V14  1  0.993247  0.841537  0.626337  1
  V  V15  1  0.157492  0.004602  0.873242  1
  V  V16  1  0.841537  0.993247  0.373663  1
  Si  Si17  1  0.294473  0.960186  0.063423  1
  Si  Si18  1  0.538785  0.795295  0.311942  1
  Si  Si19  1  0.459362  0.205847  0.813642  1
  Si  Si20  1  0.795295  0.538785  0.688058  1
  Si  Si21  1  0.205847  0.459362  0.186358  1
  Si  Si22  1  0.705005  0.043847  0.565073  1
  Si  Si23  1  0.960186  0.294473  0.936577  1
  Si  Si24  1  0.043847  0.705005  0.434927  1
  Si  Si25  1  0.706593  0.371813  0.071523  1
  Si  Si26  1  0.128036  0.205814  0.321453  1
  Si  Si27  1  0.871928  0.793576  0.821370  1
  Si  Si28  1  0.205814  0.128036  0.678547  1
  Si  Si29  1  0.793576  0.871928  0.178630  1
  Si  Si30  1  0.291010  0.628858  0.571695  1
  Si  Si31  1  0.371813  0.706593  0.928477  1
  Si  Si32  1  0.628858  0.291010  0.428305  1
  Mo  Mo33  1  0.333034  0.333034  0.000000  1
  Mo  Mo34  1  0.167819  0.833610  0.248660  1
  Mo  Mo35  1  0.833610  0.167819  0.751340  1
