# generated using pymatgen
data_Th6AsCl15
_symmetry_space_group_name_H-M   'P 1'
_cell_length_a   9.77937684
_cell_length_b   9.77937545
_cell_length_c   9.77937600
_cell_angle_alpha   109.47122178
_cell_angle_beta   109.47121890
_cell_angle_gamma   109.47121645
_symmetry_Int_Tables_number   1
_chemical_formula_structural   Th6AsCl15
_chemical_formula_sum   'Th6 As1 Cl15'
_cell_volume   719.96532473
_cell_formula_units_Z   1
loop_
 _symmetry_equiv_pos_site_id
 _symmetry_equiv_pos_as_xyz
  1  'x, y, z'
loop_
 _atom_site_type_symbol
 _atom_site_label
 _atom_site_symmetry_multiplicity
 _atom_site_fract_x
 _atom_site_fract_y
 _atom_site_fract_z
 _atom_site_occupancy
  Th  Th0  1  0.000000  0.247492  0.247492  1
  Th  Th1  1  0.000000  0.752508  0.752508  1
  Th  Th2  1  0.247492  0.000000  0.247492  1
  Th  Th3  1  0.752508  0.000000  0.752508  1
  Th  Th4  1  0.247492  0.247492  0.000000  1
  Th  Th5  1  0.752508  0.752508  0.000000  1
  As  As6  1  0.000000  0.000000  0.000000  1
  Cl  Cl7  1  0.494814  0.247407  0.247407  1
  Cl  Cl8  1  0.505186  0.752593  0.752593  1
  Cl  Cl9  1  0.000000  0.247407  0.752593  1
  Cl  Cl10  1  0.000000  0.752593  0.247407  1
  Cl  Cl11  1  0.247407  0.494814  0.247407  1
  Cl  Cl12  1  0.752593  0.000000  0.247407  1
  Cl  Cl13  1  0.752593  0.505186  0.752593  1
  Cl  Cl14  1  0.247407  0.000000  0.752593  1
  Cl  Cl15  1  0.247407  0.247407  0.494814  1
  Cl  Cl16  1  0.752593  0.752593  0.505186  1
  Cl  Cl17  1  0.752593  0.247407  0.000000  1
  Cl  Cl18  1  0.247407  0.752593  0.000000  1
  Cl  Cl19  1  0.000000  0.500000  0.500000  1
  Cl  Cl20  1  0.500000  0.000000  0.500000  1
  Cl  Cl21  1  0.500000  0.500000  0.000000  1
