# generated using pymatgen
data_Na3FeP4Ir3
_symmetry_space_group_name_H-M   'P 1'
_cell_length_a   6.27008068
_cell_length_b   6.11142072
_cell_length_c   6.27008092
_cell_angle_alpha   108.95942886
_cell_angle_beta   109.97813117
_cell_angle_gamma   108.95942824
_symmetry_Int_Tables_number   1
_chemical_formula_structural   Na3FeP4Ir3
_chemical_formula_sum   'Na3 Fe1 P4 Ir3'
_cell_volume   186.11044135
_cell_formula_units_Z   1
loop_
 _symmetry_equiv_pos_site_id
 _symmetry_equiv_pos_as_xyz
  1  'x, y, z'
loop_
 _atom_site_type_symbol
 _atom_site_label
 _atom_site_symmetry_multiplicity
 _atom_site_fract_x
 _atom_site_fract_y
 _atom_site_fract_z
 _atom_site_occupancy
  Na  Na0  1  0.483962  0.973754  0.483962  1
  Na  Na1  1  0.516038  0.489791  0.000000  1
  Na  Na2  1  0.000000  0.489791  0.516038  1
  Fe  Fe3  1  0.000000  0.739628  0.000000  1
  P  P4  1  0.000000  0.388608  0.000000  1
  P  P5  1  0.647789  0.634908  0.647789  1
  P  P6  1  0.000000  0.987119  0.352211  1
  P  P7  1  0.352211  0.987119  0.000000  1
  Ir  Ir8  1  0.000000  0.008656  0.716684  1
  Ir  Ir9  1  0.283316  0.291972  0.283316  1
  Ir  Ir10  1  0.716684  0.008656  0.000000  1
