# generated using pymatgen
data_TbHoHf3Ge4
_symmetry_space_group_name_H-M   'P 1'
_cell_length_a   7.38856030
_cell_length_b   7.38772532
_cell_length_c   13.56013902
_cell_angle_alpha   89.98560989
_cell_angle_beta   89.98634383
_cell_angle_gamma   90.02292157
_symmetry_Int_Tables_number   1
_chemical_formula_structural   TbHoHf3Ge4
_chemical_formula_sum   'Tb4 Ho4 Hf12 Ge16'
_cell_volume   740.17539289
_cell_formula_units_Z   4
loop_
 _symmetry_equiv_pos_site_id
 _symmetry_equiv_pos_as_xyz
  1  'x, y, z'
loop_
 _atom_site_type_symbol
 _atom_site_label
 _atom_site_symmetry_multiplicity
 _atom_site_fract_x
 _atom_site_fract_y
 _atom_site_fract_z
 _atom_site_occupancy
  Tb  Tb0  1  0.842306  0.503891  0.968242  1
  Tb  Tb1  1  0.496116  0.157872  0.531858  1
  Tb  Tb2  1  0.342072  0.996022  0.781892  1
  Tb  Tb3  1  0.657989  0.003859  0.281787  1
  Ho  Ho4  1  0.996958  0.342459  0.218135  1
  Ho  Ho5  1  0.003165  0.657467  0.718095  1
  Ho  Ho6  1  0.157323  0.496855  0.468180  1
  Ho  Ho7  1  0.503190  0.842560  0.031913  1
  Hf  Hf8  1  0.173352  0.173325  0.999937  1
  Hf  Hf9  1  0.826861  0.826478  0.499941  1
  Hf  Hf10  1  0.326678  0.672983  0.249985  1
  Hf  Hf11  1  0.673282  0.327059  0.749997  1
  Hf  Hf12  1  0.155534  0.996682  0.374974  1
  Hf  Hf13  1  0.844449  0.002958  0.875398  1
  Hf  Hf14  1  0.503251  0.655553  0.625089  1
  Hf  Hf15  1  0.344351  0.497118  0.874903  1
  Hf  Hf16  1  0.496915  0.344482  0.125433  1
  Hf  Hf17  1  0.655604  0.502722  0.374519  1
  Hf  Hf18  1  0.997278  0.155529  0.624593  1
  Hf  Hf19  1  0.003054  0.844435  0.124958  1
  Ge  Ge20  1  0.363953  0.302462  0.322699  1
  Ge  Ge21  1  0.635053  0.698429  0.822334  1
  Ge  Ge22  1  0.197429  0.864106  0.572582  1
  Ge  Ge23  1  0.134808  0.801620  0.927759  1
  Ge  Ge24  1  0.801822  0.134781  0.072965  1
  Ge  Ge25  1  0.866341  0.199228  0.427327  1
  Ge  Ge26  1  0.300858  0.366164  0.677391  1
  Ge  Ge27  1  0.698209  0.634831  0.176991  1
  Ge  Ge28  1  0.296692  0.037918  0.180746  1
  Ge  Ge29  1  0.703987  0.961595  0.681118  1
  Ge  Ge30  1  0.461502  0.795956  0.431115  1
  Ge  Ge31  1  0.203326  0.537833  0.069177  1
  Ge  Ge32  1  0.538288  0.203129  0.931378  1
  Ge  Ge33  1  0.797604  0.462338  0.568931  1
  Ge  Ge34  1  0.038058  0.297016  0.818668  1
  Ge  Ge35  1  0.962346  0.702288  0.318991  1
