# generated using pymatgen
data_Ta7Fe8Si14Mo
_symmetry_space_group_name_H-M   'P 1'
_cell_length_a   9.22939135
_cell_length_b   9.22939000
_cell_length_c   9.22939085
_cell_angle_alpha   94.28084805
_cell_angle_beta   94.15751468
_cell_angle_gamma   148.52367386
_symmetry_Int_Tables_number   1
_chemical_formula_structural   Ta7Fe8Si14Mo
_chemical_formula_sum   'Ta7 Fe8 Si14 Mo1'
_cell_volume   395.10886113
_cell_formula_units_Z   1
loop_
 _symmetry_equiv_pos_site_id
 _symmetry_equiv_pos_as_xyz
  1  'x, y, z'
loop_
 _atom_site_type_symbol
 _atom_site_label
 _atom_site_symmetry_multiplicity
 _atom_site_fract_x
 _atom_site_fract_y
 _atom_site_fract_z
 _atom_site_occupancy
  Ta  Ta0  1  0.690888  0.500000  0.190888  1
  Ta  Ta1  1  0.500820  0.691865  0.192678  1
  Ta  Ta2  1  0.500815  0.308135  0.808955  1
  Ta  Ta3  1  0.135018  0.133382  0.268426  1
  Ta  Ta4  1  0.864368  0.865189  0.729527  1
  Ta  Ta5  1  0.135044  0.866618  0.001636  1
  Ta  Ta6  1  0.864338  0.134811  0.999177  1
  Fe  Fe7  1  0.399391  0.898971  0.799242  1
  Fe  Fe8  1  0.101218  0.599992  0.199409  1
  Fe  Fe9  1  0.900274  0.101029  0.500420  1
  Fe  Fe10  1  0.599416  0.400008  0.501225  1
  Fe  Fe11  1  0.599404  0.098188  0.199387  1
  Fe  Fe12  1  0.900295  0.399843  0.799218  1
  Fe  Fe13  1  0.101199  0.901812  0.501215  1
  Fe  Fe14  1  0.399375  0.600157  0.500450  1
  Si  Si15  1  0.290999  0.293686  0.584662  1
  Si  Si16  1  0.709690  0.709581  0.419281  1
  Si  Si17  1  0.290976  0.706314  0.997313  1
  Si  Si18  1  0.709703  0.290419  0.000109  1
  Si  Si19  1  0.096044  0.500000  0.596044  1
  Si  Si20  1  0.905499  0.500000  0.405499  1
  Si  Si21  1  0.500146  0.905462  0.405546  1
  Si  Si22  1  0.500084  0.094538  0.594684  1
  Si  Si23  1  0.246740  0.248797  0.997958  1
  Si  Si24  1  0.749160  0.751203  0.997943  1
  Si  Si25  1  0.298992  0.000000  0.298992  1
  Si  Si26  1  0.700418  0.000000  0.700418  1
  Si  Si27  1  0.000233  0.701914  0.702136  1
  Si  Si28  1  0.000221  0.298086  0.298319  1
  Mo  Mo29  1  0.309236  0.500000  0.809236  1
