# generated using pymatgen
data_Nd5Er11Cd4Ir3Pt
_symmetry_space_group_name_H-M   'P 1'
_cell_length_a   9.68362090
_cell_length_b   9.68084846
_cell_length_c   9.68084939
_cell_angle_alpha   60.13095392
_cell_angle_beta   60.05468735
_cell_angle_gamma   60.05468901
_symmetry_Int_Tables_number   1
_chemical_formula_structural   Nd5Er11Cd4Ir3Pt
_chemical_formula_sum   'Nd5 Er11 Cd4 Ir3 Pt1'
_cell_volume   642.89026272
_cell_formula_units_Z   1
loop_
 _symmetry_equiv_pos_site_id
 _symmetry_equiv_pos_as_xyz
  1  'x, y, z'
loop_
 _atom_site_type_symbol
 _atom_site_label
 _atom_site_symmetry_multiplicity
 _atom_site_fract_x
 _atom_site_fract_y
 _atom_site_fract_z
 _atom_site_occupancy
  Nd  Nd0  1  0.558182  0.942300  0.942300  1
  Nd  Nd1  1  0.563072  0.938552  0.559441  1
  Nd  Nd2  1  0.941311  0.560098  0.937229  1
  Nd  Nd3  1  0.563072  0.559441  0.938552  1
  Nd  Nd4  1  0.941311  0.937229  0.560098  1
  Er  Er5  1  0.347662  0.346741  0.346741  1
  Er  Er6  1  0.349769  0.353272  0.954104  1
  Er  Er7  1  0.349769  0.954104  0.353272  1
  Er  Er8  1  0.951089  0.351515  0.351515  1
  Er  Er9  1  0.808006  0.188030  0.188030  1
  Er  Er10  1  0.184489  0.813309  0.813309  1
  Er  Er11  1  0.187240  0.807648  0.190436  1
  Er  Er12  1  0.812935  0.185758  0.811684  1
  Er  Er13  1  0.187240  0.190436  0.807648  1
  Er  Er14  1  0.812935  0.811684  0.185758  1
  Er  Er15  1  0.944977  0.555518  0.555518  1
  Cd  Cd16  1  0.581765  0.579230  0.579230  1
  Cd  Cd17  1  0.579241  0.579509  0.261701  1
  Cd  Cd18  1  0.579241  0.261701  0.579509  1
  Cd  Cd19  1  0.259799  0.579203  0.579203  1
  Ir  Ir20  1  0.139491  0.145627  0.575345  1
  Ir  Ir21  1  0.139491  0.575345  0.145627  1
  Ir  Ir22  1  0.575513  0.141358  0.141358  1
  Pt  Pt23  1  0.142402  0.142390  0.142390  1
