# generated using pymatgen
data_Sm2Dy4NbCo17P12
_symmetry_space_group_name_H-M   'P 1'
_cell_length_a   3.70486300
_cell_length_b   10.56643000
_cell_length_c   12.27754700
_cell_angle_alpha   90.00000000
_cell_angle_beta   90.00000000
_cell_angle_gamma   90.00000000
_symmetry_Int_Tables_number   1
_chemical_formula_structural   Sm2Dy4NbCo17P12
_chemical_formula_sum   'Sm2 Dy4 Nb1 Co17 P12'
_cell_volume   480.63128772
_cell_formula_units_Z   1
loop_
 _symmetry_equiv_pos_site_id
 _symmetry_equiv_pos_as_xyz
  1  'x, y, z'
loop_
 _atom_site_type_symbol
 _atom_site_label
 _atom_site_symmetry_multiplicity
 _atom_site_fract_x
 _atom_site_fract_y
 _atom_site_fract_z
 _atom_site_occupancy
  Sm  Sm0  1  0.000000  0.500000  0.527332  1
  Sm  Sm1  1  0.500000  0.000000  0.477487  1
  Dy  Dy2  1  0.500000  0.819477  0.206640  1
  Dy  Dy3  1  0.500000  0.180523  0.206640  1
  Dy  Dy4  1  0.000000  0.683146  0.796328  1
  Dy  Dy5  1  0.000000  0.316854  0.796328  1
  Nb  Nb6  1  0.500000  0.500000  0.153353  1
  Co  Co7  1  0.000000  0.000000  0.839588  1
  Co  Co8  1  0.500000  0.500000  0.703918  1
  Co  Co9  1  0.000000  0.000000  0.294605  1
  Co  Co10  1  0.000000  0.500000  0.984283  1
  Co  Co11  1  0.500000  0.000000  0.014078  1
  Co  Co12  1  0.500000  0.329521  0.989609  1
  Co  Co13  1  0.500000  0.670479  0.989609  1
  Co  Co14  1  0.000000  0.163721  0.003767  1
  Co  Co15  1  0.000000  0.836279  0.003767  1
  Co  Co16  1  0.500000  0.295073  0.432230  1
  Co  Co17  1  0.500000  0.704927  0.432230  1
  Co  Co18  1  0.000000  0.202816  0.570485  1
  Co  Co19  1  0.000000  0.797184  0.570485  1
  Co  Co20  1  0.500000  0.880058  0.709676  1
  Co  Co21  1  0.500000  0.119942  0.709676  1
  Co  Co22  1  0.000000  0.622621  0.293165  1
  Co  Co23  1  0.000000  0.377379  0.293165  1
  P  P24  1  0.500000  0.500000  0.881651  1
  P  P25  1  0.000000  0.000000  0.116273  1
  P  P26  1  0.500000  0.500000  0.353653  1
  P  P27  1  0.000000  0.000000  0.657968  1
  P  P28  1  0.500000  0.307784  0.618107  1
  P  P29  1  0.500000  0.692216  0.618107  1
  P  P30  1  0.000000  0.190240  0.385062  1
  P  P31  1  0.000000  0.809760  0.385062  1
  P  P32  1  0.500000  0.851116  0.890625  1
  P  P33  1  0.500000  0.148884  0.890625  1
  P  P34  1  0.000000  0.661024  0.102211  1
  P  P35  1  0.000000  0.338976  0.102211  1
