# generated using pymatgen
data_Th3MgAl2Pt3
_symmetry_space_group_name_H-M   'P 1'
_cell_length_a   7.35427963
_cell_length_b   7.35427863
_cell_length_c   4.18992600
_cell_angle_alpha   90.00000000
_cell_angle_beta   90.00000000
_cell_angle_gamma   119.14726123
_symmetry_Int_Tables_number   1
_chemical_formula_structural   Th3MgAl2Pt3
_chemical_formula_sum   'Th3 Mg1 Al2 Pt3'
_cell_volume   197.91796721
_cell_formula_units_Z   1
loop_
 _symmetry_equiv_pos_site_id
 _symmetry_equiv_pos_as_xyz
  1  'x, y, z'
loop_
 _atom_site_type_symbol
 _atom_site_label
 _atom_site_symmetry_multiplicity
 _atom_site_fract_x
 _atom_site_fract_y
 _atom_site_fract_z
 _atom_site_occupancy
  Th  Th0  1  0.413184  0.413184  0.500000  1
  Th  Th1  1  0.579701  0.000533  0.500000  1
  Th  Th2  1  0.000533  0.579701  0.500000  1
  Mg  Mg3  1  0.765281  0.765281  0.000000  1
  Al  Al4  1  0.233743  0.999968  0.000000  1
  Al  Al5  1  0.999968  0.233743  0.000000  1
  Pt  Pt6  1  0.667539  0.327499  0.000000  1
  Pt  Pt7  1  0.327499  0.667539  0.000000  1
  Pt  Pt8  1  0.012552  0.012552  0.500000  1
