# generated using pymatgen
data_TbHo(Fe5P3)2
_symmetry_space_group_name_H-M   'P 1'
_cell_length_a   3.65683700
_cell_length_b   10.31579200
_cell_length_c   11.83514800
_cell_angle_alpha   90.00000000
_cell_angle_beta   90.00000000
_cell_angle_gamma   90.00000000
_symmetry_Int_Tables_number   1
_chemical_formula_structural   TbHo(Fe5P3)2
_chemical_formula_sum   'Tb2 Ho2 Fe20 P12'
_cell_volume   446.45929844
_cell_formula_units_Z   2
loop_
 _symmetry_equiv_pos_site_id
 _symmetry_equiv_pos_as_xyz
  1  'x, y, z'
loop_
 _atom_site_type_symbol
 _atom_site_label
 _atom_site_symmetry_multiplicity
 _atom_site_fract_x
 _atom_site_fract_y
 _atom_site_fract_z
 _atom_site_occupancy
  Tb  Tb0  1  0.250000  0.581007  0.704523  1
  Tb  Tb1  1  0.250000  0.918993  0.204523  1
  Ho  Ho2  1  0.750000  0.419112  0.295459  1
  Ho  Ho3  1  0.750000  0.080888  0.795459  1
  Fe  Fe4  1  0.250000  0.707981  0.988413  1
  Fe  Fe5  1  0.250000  0.792019  0.488413  1
  Fe  Fe6  1  0.750000  0.292023  0.011498  1
  Fe  Fe7  1  0.750000  0.207977  0.511498  1
  Fe  Fe8  1  0.250000  0.405155  0.490122  1
  Fe  Fe9  1  0.250000  0.094845  0.990122  1
  Fe  Fe10  1  0.750000  0.594710  0.509219  1
  Fe  Fe11  1  0.750000  0.905290  0.009219  1
  Fe  Fe12  1  0.250000  0.219359  0.176689  1
  Fe  Fe13  1  0.250000  0.280641  0.676689  1
  Fe  Fe14  1  0.750000  0.781172  0.823308  1
  Fe  Fe15  1  0.750000  0.718828  0.323308  1
  Fe  Fe16  1  0.250000  0.876446  0.701117  1
  Fe  Fe17  1  0.250000  0.623554  0.201117  1
  Fe  Fe18  1  0.750000  0.124403  0.299173  1
  Fe  Fe19  1  0.750000  0.375597  0.799173  1
  Fe  Fe20  1  0.250000  0.463025  0.932790  1
  Fe  Fe21  1  0.250000  0.036975  0.432790  1
  Fe  Fe22  1  0.750000  0.536292  0.067675  1
  Fe  Fe23  1  0.750000  0.963708  0.567675  1
  P  P24  1  0.250000  0.421788  0.112766  1
  P  P25  1  0.250000  0.078212  0.612766  1
  P  P26  1  0.750000  0.578251  0.888149  1
  P  P27  1  0.750000  0.921749  0.388149  1
  P  P28  1  0.250000  0.265994  0.871742  1
  P  P29  1  0.250000  0.234006  0.371742  1
  P  P30  1  0.750000  0.733211  0.127832  1
  P  P31  1  0.750000  0.766789  0.627832  1
  P  P32  1  0.250000  0.600575  0.396225  1
  P  P33  1  0.250000  0.899425  0.896225  1
  P  P34  1  0.750000  0.398534  0.603299  1
  P  P35  1  0.750000  0.101466  0.103299  1
