# generated using pymatgen
data_Pr3Mg2(AgSn)2
_symmetry_space_group_name_H-M   'P 1'
_cell_length_a   7.64202961
_cell_length_b   7.64202992
_cell_length_c   4.68439500
_cell_angle_alpha   90.00000000
_cell_angle_beta   90.00000000
_cell_angle_gamma   120.01087266
_symmetry_Int_Tables_number   1
_chemical_formula_structural   Pr3Mg2(AgSn)2
_chemical_formula_sum   'Pr3 Mg2 Ag2 Sn2'
_cell_volume   236.89396575
_cell_formula_units_Z   1
loop_
 _symmetry_equiv_pos_site_id
 _symmetry_equiv_pos_as_xyz
  1  'x, y, z'
loop_
 _atom_site_type_symbol
 _atom_site_label
 _atom_site_symmetry_multiplicity
 _atom_site_fract_x
 _atom_site_fract_y
 _atom_site_fract_z
 _atom_site_occupancy
  Pr  Pr0  1  0.419263  0.419263  0.500000  1
  Pr  Pr1  1  0.588837  0.996008  0.500000  1
  Pr  Pr2  1  0.996008  0.588837  0.500000  1
  Mg  Mg3  1  0.228523  0.995819  0.000000  1
  Mg  Mg4  1  0.995819  0.228523  0.000000  1
  Ag  Ag5  1  0.762316  0.762316  0.000000  1
  Ag  Ag6  1  0.009671  0.009671  0.500000  1
  Sn  Sn7  1  0.667024  0.332539  0.000000  1
  Sn  Sn8  1  0.332539  0.667024  0.000000  1
