# generated using pymatgen
data_Tm8CdInNi2
_symmetry_space_group_name_H-M   'P 1'
_cell_length_a   9.47240288
_cell_length_b   9.47239578
_cell_length_c   9.46600400
_cell_angle_alpha   60.02017125
_cell_angle_beta   60.02035996
_cell_angle_gamma   60.06010383
_symmetry_Int_Tables_number   1
_chemical_formula_structural   Tm8CdInNi2
_chemical_formula_sum   'Tm16 Cd2 In2 Ni4'
_cell_volume   601.03761160
_cell_formula_units_Z   2
loop_
 _symmetry_equiv_pos_site_id
 _symmetry_equiv_pos_as_xyz
  1  'x, y, z'
loop_
 _atom_site_type_symbol
 _atom_site_label
 _atom_site_symmetry_multiplicity
 _atom_site_fract_x
 _atom_site_fract_y
 _atom_site_fract_z
 _atom_site_occupancy
  Tm  Tm0  1  0.348198  0.348190  0.347651  1
  Tm  Tm1  1  0.348221  0.348213  0.955942  1
  Tm  Tm2  1  0.348881  0.955005  0.348082  1
  Tm  Tm3  1  0.954998  0.348879  0.348086  1
  Tm  Tm4  1  0.811982  0.187561  0.187948  1
  Tm  Tm5  1  0.187550  0.812018  0.812479  1
  Tm  Tm6  1  0.187555  0.811991  0.187950  1
  Tm  Tm7  1  0.812008  0.187556  0.812484  1
  Tm  Tm8  1  0.186748  0.186757  0.813218  1
  Tm  Tm9  1  0.811350  0.811362  0.188642  1
  Tm  Tm10  1  0.938117  0.564281  0.562577  1
  Tm  Tm11  1  0.564280  0.938115  0.935017  1
  Tm  Tm12  1  0.564284  0.938109  0.562589  1
  Tm  Tm13  1  0.938124  0.564278  0.935024  1
  Tm  Tm14  1  0.563646  0.563656  0.936346  1
  Tm  Tm15  1  0.936832  0.936830  0.563168  1
  Cd  Cd16  1  0.581239  0.252934  0.582911  1
  Cd  Cd17  1  0.252939  0.581240  0.582908  1
  In  In18  1  0.581589  0.581590  0.583620  1
  In  In19  1  0.581587  0.581589  0.253210  1
  Ni  Ni20  1  0.142453  0.142459  0.142891  1
  Ni  Ni21  1  0.142449  0.142452  0.572211  1
  Ni  Ni22  1  0.142232  0.572716  0.142527  1
  Ni  Ni23  1  0.572740  0.142220  0.142521  1
