# generated using pymatgen
data_FeBi(BrO3)6
_symmetry_space_group_name_H-M   'P 1'
_cell_length_a   9.56919600
_cell_length_b   9.56919478
_cell_length_c   5.90266600
_cell_angle_alpha   90.00000000
_cell_angle_beta   90.00000000
_cell_angle_gamma   119.99999730
_symmetry_Int_Tables_number   1
_chemical_formula_structural   FeBi(BrO3)6
_chemical_formula_sum   'Fe1 Bi1 Br6 O18'
_cell_volume   468.09036070
_cell_formula_units_Z   1
loop_
 _symmetry_equiv_pos_site_id
 _symmetry_equiv_pos_as_xyz
  1  'x, y, z'
loop_
 _atom_site_type_symbol
 _atom_site_label
 _atom_site_symmetry_multiplicity
 _atom_site_fract_x
 _atom_site_fract_y
 _atom_site_fract_z
 _atom_site_occupancy
  Fe  Fe0  1  0.333333  0.666667  0.199835  1
  Bi  Bi1  1  0.666667  0.333333  0.690172  1
  Br  Br2  1  0.663940  0.004065  0.353156  1
  Br  Br3  1  0.308653  0.957718  0.878352  1
  Br  Br4  1  0.042282  0.350934  0.878352  1
  Br  Br5  1  0.340125  0.336060  0.353156  1
  Br  Br6  1  0.995935  0.659875  0.353156  1
  Br  Br7  1  0.649066  0.691347  0.878352  1
  O  O8  1  0.764779  0.844788  0.041752  1
  O  O9  1  0.959769  0.768143  0.532575  1
  O  O10  1  0.808371  0.040231  0.532575  1
  O  O11  1  0.155212  0.919990  0.041752  1
  O  O12  1  0.080010  0.235221  0.041752  1
  O  O13  1  0.231857  0.191629  0.532575  1
  O  O14  1  0.708755  0.552314  0.931177  1
  O  O15  1  0.194765  0.714950  0.409897  1
  O  O16  1  0.535194  0.432078  0.458964  1
  O  O17  1  0.134941  0.543192  0.996591  1
  O  O18  1  0.408249  0.865059  0.996591  1
  O  O19  1  0.567922  0.103115  0.458964  1
  O  O20  1  0.896885  0.464806  0.458964  1
  O  O21  1  0.456808  0.591751  0.996591  1
  O  O22  1  0.285050  0.479816  0.409897  1
  O  O23  1  0.843559  0.291245  0.931177  1
  O  O24  1  0.447686  0.156441  0.931177  1
  O  O25  1  0.520184  0.805235  0.409897  1
