# generated using pymatgen
data_Ca10SnMoN10
_symmetry_space_group_name_H-M   'P 1'
_cell_length_a   6.98106810
_cell_length_b   6.98106729
_cell_length_c   8.86720243
_cell_angle_alpha   80.60484506
_cell_angle_beta   80.60484242
_cell_angle_gamma   59.97710165
_symmetry_Int_Tables_number   1
_chemical_formula_structural   Ca10SnMoN10
_chemical_formula_sum   'Ca10 Sn1 Mo1 N10'
_cell_volume   367.45716135
_cell_formula_units_Z   1
loop_
 _symmetry_equiv_pos_site_id
 _symmetry_equiv_pos_as_xyz
  1  'x, y, z'
loop_
 _atom_site_type_symbol
 _atom_site_label
 _atom_site_symmetry_multiplicity
 _atom_site_fract_x
 _atom_site_fract_y
 _atom_site_fract_z
 _atom_site_occupancy
  Ca  Ca0  1  0.876217  0.359022  0.833467  1
  Ca  Ca1  1  0.872497  0.872497  0.820377  1
  Ca  Ca2  1  0.734849  0.734849  0.533225  1
  Ca  Ca3  1  0.745620  0.257910  0.514545  1
  Ca  Ca4  1  0.621923  0.141025  0.148390  1
  Ca  Ca5  1  0.359022  0.876217  0.833467  1
  Ca  Ca6  1  0.257910  0.745620  0.514545  1
  Ca  Ca7  1  0.240903  0.240903  0.500475  1
  Ca  Ca8  1  0.143382  0.143382  0.161638  1
  Ca  Ca9  1  0.141025  0.621923  0.148390  1
  Sn  Sn10  1  0.369571  0.369571  0.772977  1
  Mo  Mo11  1  0.632660  0.632660  0.225136  1
  N  N12  1  0.909186  0.471200  0.317141  1
  N  N13  1  0.993451  0.993451  0.029934  1
  N  N14  1  0.677625  0.677625  0.013325  1
  N  N15  1  0.547719  0.547719  0.685374  1
  N  N16  1  0.471200  0.909186  0.317141  1
  N  N17  1  0.551827  0.066939  0.663341  1
  N  N18  1  0.472791  0.472791  0.297112  1
  N  N19  1  0.316565  0.316565  0.004182  1
  N  N20  1  0.059405  0.059405  0.648279  1
  N  N21  1  0.066939  0.551827  0.663341  1
