# generated using pymatgen
data_Sr2Ga(PtO3)6
_symmetry_space_group_name_H-M   'P 1'
_cell_length_a   6.80089029
_cell_length_b   7.10992489
_cell_length_c   7.53009899
_cell_angle_alpha   92.12574272
_cell_angle_beta   96.54156875
_cell_angle_gamma   114.39911762
_symmetry_Int_Tables_number   1
_chemical_formula_structural   Sr2Ga(PtO3)6
_chemical_formula_sum   'Sr2 Ga1 Pt6 O18'
_cell_volume   328.00355231
_cell_formula_units_Z   1
loop_
 _symmetry_equiv_pos_site_id
 _symmetry_equiv_pos_as_xyz
  1  'x, y, z'
loop_
 _atom_site_type_symbol
 _atom_site_label
 _atom_site_symmetry_multiplicity
 _atom_site_fract_x
 _atom_site_fract_y
 _atom_site_fract_z
 _atom_site_occupancy
  Sr  Sr0  1  0.678239  0.308636  0.377768  1
  Sr  Sr1  1  0.323703  0.689576  0.611919  1
  Ga  Ga2  1  0.602555  0.726334  0.122718  1
  Pt  Pt3  1  0.192419  0.876619  0.183147  1
  Pt  Pt4  1  0.180755  0.384406  0.197079  1
  Pt  Pt5  1  0.001324  0.999581  0.499715  1
  Pt  Pt6  1  0.821891  0.619815  0.803943  1
  Pt  Pt7  1  0.806316  0.121945  0.817264  1
  Pt  Pt8  1  0.399242  0.287183  0.885998  1
  O  O9  1  0.688034  0.488272  0.021101  1
  O  O10  1  0.883932  0.220948  0.072580  1
  O  O11  1  0.305299  0.179760  0.125221  1
  O  O12  1  0.500563  0.931474  0.174190  1
  O  O13  1  0.904060  0.876306  0.241294  1
  O  O14  1  0.090696  0.600984  0.279620  1
  O  O15  1  0.480297  0.559693  0.319255  1
  O  O16  1  0.075953  0.283902  0.429487  1
  O  O17  1  0.283483  0.003207  0.437936  1
  O  O18  1  0.718916  0.996627  0.561178  1
  O  O19  1  0.926219  0.716550  0.571181  1
  O  O20  1  0.517360  0.444449  0.679222  1
  O  O21  1  0.903917  0.397249  0.719466  1
  O  O22  1  0.091762  0.106568  0.763562  1
  O  O23  1  0.497016  0.070552  0.820001  1
  O  O24  1  0.700781  0.822818  0.882984  1
  O  O25  1  0.117133  0.778348  0.928003  1
  O  O26  1  0.308136  0.508197  0.974166  1
