# generated using pymatgen
data_Tm10GaBi2Ru3
_symmetry_space_group_name_H-M   'P 1'
_cell_length_a   8.74248400
_cell_length_b   8.74248409
_cell_length_c   8.69593324
_cell_angle_alpha   127.67363040
_cell_angle_beta   127.67363142
_cell_angle_gamma   77.53653303
_symmetry_Int_Tables_number   1
_chemical_formula_structural   Tm10GaBi2Ru3
_chemical_formula_sum   'Tm10 Ga1 Bi2 Ru3'
_cell_volume   402.97467834
_cell_formula_units_Z   1
loop_
 _symmetry_equiv_pos_site_id
 _symmetry_equiv_pos_as_xyz
  1  'x, y, z'
loop_
 _atom_site_type_symbol
 _atom_site_label
 _atom_site_symmetry_multiplicity
 _atom_site_fract_x
 _atom_site_fract_y
 _atom_site_fract_z
 _atom_site_occupancy
  Tm  Tm0  1  0.997246  0.999798  0.997044  1
  Tm  Tm1  1  0.500202  0.502754  0.002956  1
  Tm  Tm2  1  0.802764  0.291604  0.824840  1
  Tm  Tm3  1  0.208396  0.697236  0.175160  1
  Tm  Tm4  1  0.477924  0.966763  0.175160  1
  Tm  Tm5  1  0.276549  0.484952  0.500000  1
  Tm  Tm6  1  0.015048  0.223451  0.500000  1
  Tm  Tm7  1  0.533237  0.022076  0.824840  1
  Tm  Tm8  1  0.712397  0.528720  0.500000  1
  Tm  Tm9  1  0.971280  0.787603  0.500000  1
  Ga  Ga10  1  0.365404  0.134596  0.500000  1
  Bi  Bi11  1  0.255360  0.244640  0.000000  1
  Bi  Bi12  1  0.755360  0.744640  0.000000  1
  Ru  Ru13  1  0.141849  0.639333  0.781183  1
  Ru  Ru14  1  0.860667  0.358151  0.218817  1
  Ru  Ru15  1  0.626316  0.873684  0.500000  1
