# generated using pymatgen
data_Lu2U(CoSn)3
_symmetry_space_group_name_H-M   'P 1'
_cell_length_a   7.39752800
_cell_length_b   7.21984848
_cell_length_c   3.72730600
_cell_angle_alpha   90.00000000
_cell_angle_beta   90.00000000
_cell_angle_gamma   120.81748256
_symmetry_Int_Tables_number   1
_chemical_formula_structural   Lu2U(CoSn)3
_chemical_formula_sum   'Lu2 U1 Co3 Sn3'
_cell_volume   170.96358457
_cell_formula_units_Z   1
loop_
 _symmetry_equiv_pos_site_id
 _symmetry_equiv_pos_as_xyz
  1  'x, y, z'
loop_
 _atom_site_type_symbol
 _atom_site_label
 _atom_site_symmetry_multiplicity
 _atom_site_fract_x
 _atom_site_fract_y
 _atom_site_fract_z
 _atom_site_occupancy
  Lu  Lu0  1  0.995728  0.592215  0.500000  1
  Lu  Lu1  1  0.403514  0.407785  0.500000  1
  U  U2  1  0.583628  0.000000  0.500000  1
  Co  Co3  1  0.369671  0.706969  0.000000  1
  Co  Co4  1  0.986081  0.000000  0.500000  1
  Co  Co5  1  0.662703  0.293031  0.000000  1
  Sn  Sn6  1  0.742831  0.730414  0.000000  1
  Sn  Sn7  1  0.012417  0.269586  0.000000  1
  Sn  Sn8  1  0.243427  0.000000  0.000000  1
