# generated using pymatgen
data_TmAl2(Fe4Re)2
_symmetry_space_group_name_H-M   'P 1'
_cell_length_a   4.75204829
_cell_length_b   6.49573688
_cell_length_c   6.49573658
_cell_angle_alpha   96.86502760
_cell_angle_beta   111.45571994
_cell_angle_gamma   68.54426488
_symmetry_Int_Tables_number   1
_chemical_formula_structural   TmAl2(Fe4Re)2
_chemical_formula_sum   'Tm1 Al2 Fe8 Re2'
_cell_volume   173.65954109
_cell_formula_units_Z   1
loop_
 _symmetry_equiv_pos_site_id
 _symmetry_equiv_pos_as_xyz
  1  'x, y, z'
loop_
 _atom_site_type_symbol
 _atom_site_label
 _atom_site_symmetry_multiplicity
 _atom_site_fract_x
 _atom_site_fract_y
 _atom_site_fract_z
 _atom_site_occupancy
  Tm  Tm0  1  0.000000  0.000000  0.000000  1
  Al  Al1  1  0.710463  0.789537  0.210463  1
  Al  Al2  1  0.289537  0.210463  0.789537  1
  Fe  Fe3  1  0.500000  0.000000  0.500000  1
  Fe  Fe4  1  0.000000  0.000000  0.500000  1
  Fe  Fe5  1  0.500000  0.500000  0.000000  1
  Fe  Fe6  1  0.000000  0.500000  0.000000  1
  Fe  Fe7  1  0.500000  0.771019  0.771019  1
  Fe  Fe8  1  0.500000  0.228981  0.228981  1
  Fe  Fe9  1  0.639020  0.360980  0.639020  1
  Fe  Fe10  1  0.360980  0.639020  0.360980  1
  Re  Re11  1  0.000000  0.356662  0.356662  1
  Re  Re12  1  0.000000  0.643338  0.643338  1
