# generated using pymatgen
data_Tm3Nb(P3Rh4)2
_symmetry_space_group_name_H-M   'P 1'
_cell_length_a   3.92290200
_cell_length_b   11.12768000
_cell_length_c   12.81027100
_cell_angle_alpha   90.00000000
_cell_angle_beta   90.00000000
_cell_angle_gamma   90.00000000
_symmetry_Int_Tables_number   1
_chemical_formula_structural   Tm3Nb(P3Rh4)2
_chemical_formula_sum   'Tm6 Nb2 P12 Rh16'
_cell_volume   559.20417392
_cell_formula_units_Z   2
loop_
 _symmetry_equiv_pos_site_id
 _symmetry_equiv_pos_as_xyz
  1  'x, y, z'
loop_
 _atom_site_type_symbol
 _atom_site_label
 _atom_site_symmetry_multiplicity
 _atom_site_fract_x
 _atom_site_fract_y
 _atom_site_fract_z
 _atom_site_occupancy
  Tm  Tm0  1  0.000000  0.500000  0.523200  1
  Tm  Tm1  1  0.500000  0.000000  0.476800  1
  Tm  Tm2  1  0.500000  0.819375  0.202662  1
  Tm  Tm3  1  0.500000  0.180625  0.202662  1
  Tm  Tm4  1  0.000000  0.680625  0.797338  1
  Tm  Tm5  1  0.000000  0.319375  0.797338  1
  Nb  Nb6  1  0.500000  0.500000  0.158920  1
  Nb  Nb7  1  0.000000  0.000000  0.841080  1
  P  P8  1  0.500000  0.500000  0.875579  1
  P  P9  1  0.000000  0.000000  0.124421  1
  P  P10  1  0.500000  0.500000  0.353439  1
  P  P11  1  0.000000  0.000000  0.646561  1
  P  P12  1  0.500000  0.315085  0.617355  1
  P  P13  1  0.500000  0.684915  0.617355  1
  P  P14  1  0.000000  0.184915  0.382645  1
  P  P15  1  0.000000  0.815085  0.382645  1
  P  P16  1  0.500000  0.844624  0.886961  1
  P  P17  1  0.500000  0.155376  0.886961  1
  P  P18  1  0.000000  0.655376  0.113039  1
  P  P19  1  0.000000  0.344624  0.113039  1
  Rh  Rh20  1  0.500000  0.500000  0.698548  1
  Rh  Rh21  1  0.000000  0.000000  0.301452  1
  Rh  Rh22  1  0.000000  0.500000  0.986684  1
  Rh  Rh23  1  0.500000  0.000000  0.013316  1
  Rh  Rh24  1  0.500000  0.331412  0.984579  1
  Rh  Rh25  1  0.500000  0.668588  0.984579  1
  Rh  Rh26  1  0.000000  0.168588  0.015421  1
  Rh  Rh27  1  0.000000  0.831412  0.015421  1
  Rh  Rh28  1  0.500000  0.295191  0.432882  1
  Rh  Rh29  1  0.500000  0.704809  0.432882  1
  Rh  Rh30  1  0.000000  0.204809  0.567118  1
  Rh  Rh31  1  0.000000  0.795191  0.567118  1
  Rh  Rh32  1  0.500000  0.873122  0.706437  1
  Rh  Rh33  1  0.500000  0.126878  0.706437  1
  Rh  Rh34  1  0.000000  0.626878  0.293563  1
  Rh  Rh35  1  0.000000  0.373122  0.293563  1
