# generated using pymatgen
data_TbErNpO6
_symmetry_space_group_name_H-M   'P 1'
_cell_length_a   5.53325600
_cell_length_b   7.82912724
_cell_length_c   11.79108590
_cell_angle_alpha   73.91500075
_cell_angle_beta   90.00000000
_cell_angle_gamma   90.00000000
_symmetry_Int_Tables_number   1
_chemical_formula_structural   TbErNpO6
_chemical_formula_sum   'Tb4 Er4 Np4 O24'
_cell_volume   490.79970489
_cell_formula_units_Z   4
loop_
 _symmetry_equiv_pos_site_id
 _symmetry_equiv_pos_as_xyz
  1  'x, y, z'
loop_
 _atom_site_type_symbol
 _atom_site_label
 _atom_site_symmetry_multiplicity
 _atom_site_fract_x
 _atom_site_fract_y
 _atom_site_fract_z
 _atom_site_occupancy
  Tb  Tb0  1  0.698641  0.500000  0.250000  1
  Tb  Tb1  1  0.301359  0.500000  0.750000  1
  Tb  Tb2  1  0.746848  0.000000  0.250000  1
  Tb  Tb3  1  0.253152  0.000000  0.750000  1
  Er  Er4  1  0.184629  0.206696  0.419730  1
  Er  Er5  1  0.184629  0.793304  0.080270  1
  Er  Er6  1  0.815371  0.793304  0.580270  1
  Er  Er7  1  0.815371  0.206696  0.919730  1
  Np  Np8  1  0.256646  0.279255  0.112838  1
  Np  Np9  1  0.256646  0.720745  0.387162  1
  Np  Np10  1  0.743354  0.720745  0.887162  1
  Np  Np11  1  0.743354  0.279255  0.612838  1
  O  O12  1  0.447933  0.198876  0.274219  1
  O  O13  1  0.447933  0.801124  0.225781  1
  O  O14  1  0.552067  0.801124  0.725781  1
  O  O15  1  0.552067  0.198876  0.774219  1
  O  O16  1  0.049600  0.055792  0.101695  1
  O  O17  1  0.049600  0.944208  0.398305  1
  O  O18  1  0.950400  0.944208  0.898305  1
  O  O19  1  0.950400  0.055792  0.601695  1
  O  O20  1  0.965321  0.284265  0.234212  1
  O  O21  1  0.965321  0.715735  0.265788  1
  O  O22  1  0.034679  0.715735  0.765788  1
  O  O23  1  0.034679  0.284265  0.734212  1
  O  O24  1  0.875794  0.373485  0.444549  1
  O  O25  1  0.875794  0.626515  0.055451  1
  O  O26  1  0.124206  0.626515  0.555451  1
  O  O27  1  0.124206  0.373485  0.944549  1
  O  O28  1  0.614791  0.519382  0.616509  1
  O  O29  1  0.614791  0.480618  0.883491  1
  O  O30  1  0.385209  0.480618  0.383491  1
  O  O31  1  0.385209  0.519382  0.116509  1
  O  O32  1  0.441796  0.154632  0.567254  1
  O  O33  1  0.441796  0.845368  0.932746  1
  O  O34  1  0.558204  0.845368  0.432746  1
  O  O35  1  0.558204  0.154632  0.067254  1
