# generated using pymatgen
data_Nb8CuS20
_symmetry_space_group_name_H-M   'P 1'
_cell_length_a   10.19604523
_cell_length_b   10.19604568
_cell_length_c   18.84604884
_cell_angle_alpha   75.88782420
_cell_angle_beta   75.88782363
_cell_angle_gamma   19.08931566
_symmetry_Int_Tables_number   1
_chemical_formula_structural   Nb8CuS20
_chemical_formula_sum   'Nb8 Cu1 S20'
_cell_volume   620.85444375
_cell_formula_units_Z   1
loop_
 _symmetry_equiv_pos_site_id
 _symmetry_equiv_pos_as_xyz
  1  'x, y, z'
loop_
 _atom_site_type_symbol
 _atom_site_label
 _atom_site_symmetry_multiplicity
 _atom_site_fract_x
 _atom_site_fract_y
 _atom_site_fract_z
 _atom_site_occupancy
  Nb  Nb0  1  0.080054  0.080054  0.094735  1
  Nb  Nb1  1  0.919946  0.919946  0.905265  1
  Nb  Nb2  1  0.331986  0.331986  0.812194  1
  Nb  Nb3  1  0.668014  0.668014  0.187806  1
  Nb  Nb4  1  0.268412  0.268412  0.280007  1
  Nb  Nb5  1  0.731588  0.731588  0.719993  1
  Nb  Nb6  1  0.158673  0.158673  0.555168  1
  Nb  Nb7  1  0.841327  0.841327  0.444832  1
  Cu  Cu8  1  0.500000  0.500000  0.000000  1
  S  S9  1  0.437580  0.437580  0.400233  1
  S  S10  1  0.562420  0.562420  0.599767  1
  S  S11  1  0.400004  0.400004  0.511461  1
  S  S12  1  0.599996  0.599996  0.488539  1
  S  S13  1  0.148419  0.148419  0.693358  1
  S  S14  1  0.851581  0.851581  0.306642  1
  S  S15  1  0.387484  0.387484  0.005267  1
  S  S16  1  0.612516  0.612516  0.994733  1
  S  S17  1  0.205451  0.205451  0.820826  1
  S  S18  1  0.794549  0.794549  0.179174  1
  S  S19  1  0.253454  0.253454  0.429210  1
  S  S20  1  0.746546  0.746546  0.570790  1
  S  S21  1  0.326395  0.326395  0.680415  1
  S  S22  1  0.673605  0.673605  0.319585  1
  S  S23  1  0.485701  0.485701  0.122259  1
  S  S24  1  0.514299  0.514299  0.877741  1
  S  S25  1  0.203372  0.203372  0.089042  1
  S  S26  1  0.796628  0.796628  0.910958  1
  S  S27  1  0.075214  0.075214  0.226898  1
  S  S28  1  0.924786  0.924786  0.773102  1
