# generated using pymatgen
data_Tb12Dy8(Ir3Pt)3
_symmetry_space_group_name_H-M   'P 1'
_cell_length_a   11.00153888
_cell_length_b   11.00003206
_cell_length_c   6.35839903
_cell_angle_alpha   89.98272613
_cell_angle_beta   89.98295526
_cell_angle_gamma   90.19882795
_symmetry_Int_Tables_number   1
_chemical_formula_structural   Tb12Dy8(Ir3Pt)3
_chemical_formula_sum   'Tb12 Dy8 Ir9 Pt3'
_cell_volume   769.47145566
_cell_formula_units_Z   1
loop_
 _symmetry_equiv_pos_site_id
 _symmetry_equiv_pos_as_xyz
  1  'x, y, z'
loop_
 _atom_site_type_symbol
 _atom_site_label
 _atom_site_symmetry_multiplicity
 _atom_site_fract_x
 _atom_site_fract_y
 _atom_site_fract_z
 _atom_site_occupancy
  Tb  Tb0  1  0.293537  0.087322  0.372736  1
  Tb  Tb1  1  0.292817  0.908265  0.877749  1
  Tb  Tb2  1  0.705477  0.090321  0.874542  1
  Tb  Tb3  1  0.704660  0.909502  0.374113  1
  Tb  Tb4  1  0.585580  0.790957  0.879159  1
  Tb  Tb5  1  0.585930  0.209048  0.379180  1
  Tb  Tb6  1  0.410489  0.791197  0.378938  1
  Tb  Tb7  1  0.413819  0.209124  0.879069  1
  Tb  Tb8  1  0.208868  0.414439  0.620852  1
  Tb  Tb9  1  0.208624  0.589484  0.121113  1
  Tb  Tb10  1  0.791134  0.414104  0.120852  1
  Tb  Tb11  1  0.791050  0.586146  0.620945  1
  Dy  Dy12  1  0.912864  0.706231  0.127047  1
  Dy  Dy13  1  0.909832  0.294775  0.625223  1
  Dy  Dy14  1  0.091572  0.706973  0.621975  1
  Dy  Dy15  1  0.090338  0.295586  0.125649  1
  Dy  Dy16  1  0.001212  0.998086  0.499572  1
  Dy  Dy17  1  0.001902  0.998791  0.000537  1
  Dy  Dy18  1  0.499757  0.499915  0.000426  1
  Dy  Dy19  1  0.500089  0.500253  0.499617  1
  Ir  Ir20  1  0.151803  0.847766  0.250222  1
  Ir  Ir21  1  0.654467  0.345719  0.749941  1
  Ir  Ir22  1  0.654855  0.654253  0.249536  1
  Ir  Ir23  1  0.345560  0.345314  0.250336  1
  Ir  Ir24  1  0.346416  0.653396  0.749939  1
  Ir  Ir25  1  0.500509  0.000075  0.123709  1
  Ir  Ir26  1  0.500273  0.000306  0.624863  1
  Ir  Ir27  1  0.999696  0.499710  0.875124  1
  Ir  Ir28  1  0.999923  0.499498  0.376264  1
  Pt  Pt29  1  0.847383  0.153004  0.250254  1
  Pt  Pt30  1  0.846161  0.846202  0.750184  1
  Pt  Pt31  1  0.153400  0.154240  0.750337  1
