# generated using pymatgen
data_DyYMn9Fe3P7
_symmetry_space_group_name_H-M   'P 1'
_cell_length_a   9.26759800
_cell_length_b   9.26759637
_cell_length_c   3.56628500
_cell_angle_alpha   90.00000000
_cell_angle_beta   90.00000000
_cell_angle_gamma   119.99999866
_symmetry_Int_Tables_number   1
_chemical_formula_structural   DyYMn9Fe3P7
_chemical_formula_sum   'Dy1 Y1 Mn9 Fe3 P7'
_cell_volume   265.26562983
_cell_formula_units_Z   1
loop_
 _symmetry_equiv_pos_site_id
 _symmetry_equiv_pos_as_xyz
  1  'x, y, z'
loop_
 _atom_site_type_symbol
 _atom_site_label
 _atom_site_symmetry_multiplicity
 _atom_site_fract_x
 _atom_site_fract_y
 _atom_site_fract_z
 _atom_site_occupancy
  Dy  Dy0  1  0.333333  0.666667  0.000000  1
  Y  Y1  1  0.000000  0.000000  0.500000  1
  Mn  Mn2  1  0.716250  0.760771  0.000000  1
  Mn  Mn3  1  0.239229  0.955479  0.000000  1
  Mn  Mn4  1  0.044521  0.283750  0.000000  1
  Mn  Mn5  1  0.104203  0.725679  0.500000  1
  Mn  Mn6  1  0.274321  0.378524  0.500000  1
  Mn  Mn7  1  0.621476  0.895797  0.500000  1
  Mn  Mn8  1  0.770587  0.563702  0.500000  1
  Mn  Mn9  1  0.436298  0.206886  0.500000  1
  Mn  Mn10  1  0.793114  0.229413  0.500000  1
  Fe  Fe11  1  0.939550  0.488597  0.000000  1
  Fe  Fe12  1  0.511403  0.450952  0.000000  1
  Fe  Fe13  1  0.549048  0.060450  0.000000  1
  P  P14  1  0.955541  0.740799  0.000000  1
  P  P15  1  0.259201  0.214741  0.000000  1
  P  P16  1  0.785259  0.044459  0.000000  1
  P  P17  1  0.071825  0.459615  0.500000  1
  P  P18  1  0.540385  0.612209  0.500000  1
  P  P19  1  0.387791  0.928175  0.500000  1
  P  P20  1  0.666667  0.333333  0.000000  1
