# generated using pymatgen
data_Ac2PrY(Zn5Si)2
_symmetry_space_group_name_H-M   'P 1'
_cell_length_a   8.44502443
_cell_length_b   8.44502545
_cell_length_c   8.95078300
_cell_angle_alpha   90.00000000
_cell_angle_beta   90.00000000
_cell_angle_gamma   149.05468128
_symmetry_Int_Tables_number   1
_chemical_formula_structural   Ac2PrY(Zn5Si)2
_chemical_formula_sum   'Ac2 Pr1 Y1 Zn10 Si2'
_cell_volume   328.25525373
_cell_formula_units_Z   1
loop_
 _symmetry_equiv_pos_site_id
 _symmetry_equiv_pos_as_xyz
  1  'x, y, z'
loop_
 _atom_site_type_symbol
 _atom_site_label
 _atom_site_symmetry_multiplicity
 _atom_site_fract_x
 _atom_site_fract_y
 _atom_site_fract_z
 _atom_site_occupancy
  Ac  Ac0  1  0.000379  0.999621  0.499030  1
  Ac  Ac1  1  0.000379  0.999621  0.000970  1
  Pr  Pr2  1  0.794513  0.205487  0.750000  1
  Y  Y3  1  0.204875  0.795125  0.250000  1
  Zn  Zn4  1  0.811136  0.188864  0.389325  1
  Zn  Zn5  1  0.187818  0.812182  0.606986  1
  Zn  Zn6  1  0.811136  0.188864  0.110675  1
  Zn  Zn7  1  0.187818  0.812182  0.893014  1
  Zn  Zn8  1  0.654626  0.345374  0.475979  1
  Zn  Zn9  1  0.345894  0.654106  0.520139  1
  Zn  Zn10  1  0.654626  0.345374  0.024021  1
  Zn  Zn11  1  0.345894  0.654106  0.979861  1
  Zn  Zn12  1  0.405098  0.594902  0.250000  1
  Zn  Zn13  1  0.594508  0.405492  0.750000  1
  Si  Si14  1  0.564189  0.435811  0.250000  1
  Si  Si15  1  0.437108  0.562892  0.750000  1
