# generated using pymatgen
data_Li2Ho8GaPd22
_symmetry_space_group_name_H-M   'P 1'
_cell_length_a   8.38510000
_cell_length_b   8.35782489
_cell_length_c   8.35646900
_cell_angle_alpha   89.97360006
_cell_angle_beta   90.00000000
_cell_angle_gamma   90.00000000
_symmetry_Int_Tables_number   1
_chemical_formula_structural   Li2Ho8GaPd22
_chemical_formula_sum   'Li2 Ho8 Ga1 Pd22'
_cell_volume   585.63129191
_cell_formula_units_Z   1
loop_
 _symmetry_equiv_pos_site_id
 _symmetry_equiv_pos_as_xyz
  1  'x, y, z'
loop_
 _atom_site_type_symbol
 _atom_site_label
 _atom_site_symmetry_multiplicity
 _atom_site_fract_x
 _atom_site_fract_y
 _atom_site_fract_z
 _atom_site_occupancy
  Li  Li0  1  0.000000  0.501630  0.730380  1
  Li  Li1  1  0.500000  0.267154  0.004121  1
  Ho  Ho2  1  0.254339  0.246325  0.739768  1
  Ho  Ho3  1  0.251111  0.746657  0.250328  1
  Ho  Ho4  1  0.755855  0.253287  0.260543  1
  Ho  Ho5  1  0.738698  0.753592  0.750041  1
  Ho  Ho6  1  0.748889  0.746657  0.250328  1
  Ho  Ho7  1  0.745661  0.246325  0.739768  1
  Ho  Ho8  1  0.261302  0.753592  0.750041  1
  Ho  Ho9  1  0.244145  0.253287  0.260543  1
  Ga  Ga10  1  0.000000  0.994425  0.005199  1
  Pd  Pd11  1  0.500000  0.496271  0.747975  1
  Pd  Pd12  1  0.500000  0.253425  0.497556  1
  Pd  Pd13  1  0.252523  0.501867  0.503801  1
  Pd  Pd14  1  0.500000  0.496202  0.252278  1
  Pd  Pd15  1  0.500000  0.745737  0.498173  1
  Pd  Pd16  1  0.747477  0.501867  0.503801  1
  Pd  Pd17  1  0.000000  0.997360  0.713611  1
  Pd  Pd18  1  0.000000  0.291340  0.987385  1
  Pd  Pd19  1  0.293978  0.013293  0.002023  1
  Pd  Pd20  1  0.000000  0.997974  0.295908  1
  Pd  Pd21  1  0.000000  0.698588  0.984543  1
  Pd  Pd22  1  0.706022  0.013293  0.002023  1
  Pd  Pd23  1  0.259687  0.996718  0.499730  1
  Pd  Pd24  1  0.000000  0.262951  0.506925  1
  Pd  Pd25  1  0.500000  0.003527  0.740376  1
  Pd  Pd26  1  0.264868  0.493588  0.997805  1
  Pd  Pd27  1  0.000000  0.500853  0.256628  1
  Pd  Pd28  1  0.500000  0.743871  0.003469  1
  Pd  Pd29  1  0.000000  0.735399  0.506352  1
  Pd  Pd30  1  0.500000  0.002638  0.261041  1
  Pd  Pd31  1  0.740313  0.996718  0.499730  1
  Pd  Pd32  1  0.735132  0.493588  0.997805  1
