# generated using pymatgen
data_NdLu(ScSb)3
_symmetry_space_group_name_H-M   'P 1'
_cell_length_a   7.84679800
_cell_length_b   8.95655200
_cell_length_c   11.67753500
_cell_angle_alpha   90.00000000
_cell_angle_beta   90.00000000
_cell_angle_gamma   90.00000000
_symmetry_Int_Tables_number   1
_chemical_formula_structural   NdLu(ScSb)3
_chemical_formula_sum   'Nd4 Lu4 Sc12 Sb12'
_cell_volume   820.70012964
_cell_formula_units_Z   4
loop_
 _symmetry_equiv_pos_site_id
 _symmetry_equiv_pos_as_xyz
  1  'x, y, z'
loop_
 _atom_site_type_symbol
 _atom_site_label
 _atom_site_symmetry_multiplicity
 _atom_site_fract_x
 _atom_site_fract_y
 _atom_site_fract_z
 _atom_site_occupancy
  Nd  Nd0  1  0.182417  0.750000  0.721684  1
  Nd  Nd1  1  0.682417  0.750000  0.778316  1
  Nd  Nd2  1  0.817583  0.250000  0.278316  1
  Nd  Nd3  1  0.317583  0.250000  0.221684  1
  Lu  Lu4  1  0.849925  0.750000  0.281409  1
  Lu  Lu5  1  0.349925  0.750000  0.218591  1
  Lu  Lu6  1  0.150075  0.250000  0.718591  1
  Lu  Lu7  1  0.650075  0.250000  0.781409  1
  Sc  Sc8  1  0.193035  0.562156  0.438674  1
  Sc  Sc9  1  0.693035  0.937844  0.061326  1
  Sc  Sc10  1  0.806965  0.062156  0.561326  1
  Sc  Sc11  1  0.306965  0.437844  0.938674  1
  Sc  Sc12  1  0.806965  0.437844  0.561326  1
  Sc  Sc13  1  0.306965  0.062156  0.938674  1
  Sc  Sc14  1  0.193035  0.937844  0.438674  1
  Sc  Sc15  1  0.693035  0.562156  0.061326  1
  Sc  Sc16  1  0.024331  0.750000  0.989694  1
  Sc  Sc17  1  0.524331  0.750000  0.510306  1
  Sc  Sc18  1  0.975669  0.250000  0.010306  1
  Sc  Sc19  1  0.475669  0.250000  0.489694  1
  Sb  Sb20  1  0.936770  0.489593  0.835316  1
  Sb  Sb21  1  0.436770  0.010407  0.664684  1
  Sb  Sb22  1  0.063230  0.989593  0.164684  1
  Sb  Sb23  1  0.563230  0.510407  0.335316  1
  Sb  Sb24  1  0.063230  0.510407  0.164684  1
  Sb  Sb25  1  0.563230  0.989593  0.335316  1
  Sb  Sb26  1  0.936770  0.010407  0.835316  1
  Sb  Sb27  1  0.436770  0.489593  0.664684  1
  Sb  Sb28  1  0.907461  0.750000  0.531963  1
  Sb  Sb29  1  0.407461  0.750000  0.968037  1
  Sb  Sb30  1  0.092539  0.250000  0.468037  1
  Sb  Sb31  1  0.592539  0.250000  0.031963  1
