# generated using pymatgen
data_Y3Er2Ni19
_symmetry_space_group_name_H-M   'P 1'
_cell_length_a   4.89422498
_cell_length_b   4.89422500
_cell_length_c   16.25470800
_cell_angle_alpha   81.34131217
_cell_angle_beta   81.34131214
_cell_angle_gamma   59.99999317
_symmetry_Int_Tables_number   1
_chemical_formula_structural   Y3Er2Ni19
_chemical_formula_sum   'Y3 Er2 Ni19'
_cell_volume   332.05829391
_cell_formula_units_Z   1
loop_
 _symmetry_equiv_pos_site_id
 _symmetry_equiv_pos_as_xyz
  1  'x, y, z'
loop_
 _atom_site_type_symbol
 _atom_site_label
 _atom_site_symmetry_multiplicity
 _atom_site_fract_x
 _atom_site_fract_y
 _atom_site_fract_z
 _atom_site_occupancy
  Y  Y0  1  0.000000  0.000000  0.000000  1
  Y  Y1  1  0.921231  0.921231  0.236310  1
  Y  Y2  1  0.078769  0.078769  0.763690  1
  Er  Er3  1  0.847914  0.847914  0.456260  1
  Er  Er4  1  0.152086  0.152086  0.543740  1
  Ni  Ni5  1  0.500000  0.500000  0.500000  1
  Ni  Ni6  1  0.749688  0.749689  0.750934  1
  Ni  Ni7  1  0.250311  0.250311  0.249067  1
  Ni  Ni8  1  0.666733  0.666733  0.999803  1
  Ni  Ni9  1  0.333267  0.333267  0.000197  1
  Ni  Ni10  1  0.583865  0.583865  0.248404  1
  Ni  Ni11  1  0.416135  0.416135  0.751596  1
  Ni  Ni12  1  0.375270  0.375270  0.372619  1
  Ni  Ni13  1  0.876840  0.375270  0.372619  1
  Ni  Ni14  1  0.375270  0.876840  0.372619  1
  Ni  Ni15  1  0.624730  0.624730  0.627381  1
  Ni  Ni16  1  0.123160  0.624730  0.627381  1
  Ni  Ni17  1  0.624730  0.123160  0.627381  1
  Ni  Ni18  1  0.458823  0.458823  0.123467  1
  Ni  Ni19  1  0.958886  0.458823  0.123467  1
  Ni  Ni20  1  0.458823  0.958886  0.123467  1
  Ni  Ni21  1  0.541177  0.541177  0.876533  1
  Ni  Ni22  1  0.041114  0.541177  0.876533  1
  Ni  Ni23  1  0.541177  0.041114  0.876533  1
