# generated using pymatgen
data_La9U3S20
_symmetry_space_group_name_H-M   'P 1'
_cell_length_a   7.59355175
_cell_length_b   8.26351300
_cell_length_c   12.08058974
_cell_angle_alpha   90.00000000
_cell_angle_beta   90.15628969
_cell_angle_gamma   90.00000000
_symmetry_Int_Tables_number   1
_chemical_formula_structural   La9U3S20
_chemical_formula_sum   'La9 U3 S20'
_cell_volume   758.04710222
_cell_formula_units_Z   1
loop_
 _symmetry_equiv_pos_site_id
 _symmetry_equiv_pos_as_xyz
  1  'x, y, z'
loop_
 _atom_site_type_symbol
 _atom_site_label
 _atom_site_symmetry_multiplicity
 _atom_site_fract_x
 _atom_site_fract_y
 _atom_site_fract_z
 _atom_site_occupancy
  La  La0  1  0.928659  0.750000  0.492496  1
  La  La1  1  0.471616  0.997969  0.323468  1
  La  La2  1  0.974977  0.000248  0.175534  1
  La  La3  1  0.525785  0.497968  0.676015  1
  La  La4  1  0.028176  0.500489  0.825333  1
  La  La5  1  0.525785  0.002032  0.676015  1
  La  La6  1  0.028176  0.999511  0.825333  1
  La  La7  1  0.471616  0.502031  0.323468  1
  La  La8  1  0.974977  0.499752  0.175534  1
  U  U9  1  0.436500  0.250000  0.009029  1
  U  U10  1  0.059532  0.250000  0.504922  1
  U  U11  1  0.570557  0.750000  0.989350  1
  S  S12  1  0.172555  0.750000  0.303672  1
  S  S13  1  0.662546  0.250000  0.184607  1
  S  S14  1  0.834464  0.250000  0.686247  1
  S  S15  1  0.336106  0.750000  0.814073  1
  S  S16  1  0.536756  0.750000  0.498243  1
  S  S17  1  0.051198  0.250000  0.002501  1
  S  S18  1  0.447369  0.250000  0.500555  1
  S  S19  1  0.952070  0.750000  0.999560  1
  S  S20  1  0.802511  0.750000  0.722471  1
  S  S21  1  0.313424  0.250000  0.793466  1
  S  S22  1  0.192516  0.250000  0.286370  1
  S  S23  1  0.691340  0.750000  0.211317  1
  S  S24  1  0.163388  0.523918  0.599518  1
  S  S25  1  0.662225  0.459267  0.908932  1
  S  S26  1  0.837658  0.050676  0.402472  1
  S  S27  1  0.342125  0.961363  0.089290  1
  S  S28  1  0.837658  0.449324  0.402472  1
  S  S29  1  0.342125  0.538637  0.089290  1
  S  S30  1  0.163388  0.976082  0.599518  1
  S  S31  1  0.662225  0.040733  0.908932  1
