# generated using pymatgen
data_Th2Al9ReNi2
_symmetry_space_group_name_H-M   'P 1'
_cell_length_a   7.64528700
_cell_length_b   7.64528664
_cell_length_c   9.56965200
_cell_angle_alpha   90.00000000
_cell_angle_beta   90.00000000
_cell_angle_gamma   118.03236310
_symmetry_Int_Tables_number   1
_chemical_formula_structural   Th2Al9ReNi2
_chemical_formula_sum   'Th4 Al18 Re2 Ni4'
_cell_volume   493.72840815
_cell_formula_units_Z   2
loop_
 _symmetry_equiv_pos_site_id
 _symmetry_equiv_pos_as_xyz
  1  'x, y, z'
loop_
 _atom_site_type_symbol
 _atom_site_label
 _atom_site_symmetry_multiplicity
 _atom_site_fract_x
 _atom_site_fract_y
 _atom_site_fract_z
 _atom_site_occupancy
  Th  Th0  1  0.995163  0.688146  0.750000  1
  Th  Th1  1  0.004837  0.311854  0.250000  1
  Th  Th2  1  0.688146  0.995163  0.750000  1
  Th  Th3  1  0.311854  0.004837  0.250000  1
  Al  Al4  1  0.147718  0.147718  0.750000  1
  Al  Al5  1  0.852282  0.852282  0.250000  1
  Al  Al6  1  0.005237  0.344076  0.574974  1
  Al  Al7  1  0.994763  0.655924  0.425026  1
  Al  Al8  1  0.994763  0.655924  0.074974  1
  Al  Al9  1  0.344076  0.005237  0.925026  1
  Al  Al10  1  0.005237  0.344076  0.925026  1
  Al  Al11  1  0.655924  0.994763  0.074974  1
  Al  Al12  1  0.655924  0.994763  0.425026  1
  Al  Al13  1  0.344076  0.005237  0.574974  1
  Al  Al14  1  0.337596  0.337596  0.039054  1
  Al  Al15  1  0.662404  0.662404  0.960946  1
  Al  Al16  1  0.662404  0.662404  0.539054  1
  Al  Al17  1  0.337596  0.337596  0.460946  1
  Al  Al18  1  0.347302  0.559516  0.750000  1
  Al  Al19  1  0.652698  0.440484  0.250000  1
  Al  Al20  1  0.559516  0.347302  0.750000  1
  Al  Al21  1  0.440484  0.652698  0.250000  1
  Re  Re22  1  0.000000  0.000000  0.500000  1
  Re  Re23  1  0.000000  0.000000  0.000000  1
  Ni  Ni24  1  0.671090  0.328910  0.500000  1
  Ni  Ni25  1  0.328910  0.671090  0.500000  1
  Ni  Ni26  1  0.328910  0.671090  0.000000  1
  Ni  Ni27  1  0.671090  0.328910  0.000000  1
