# generated using pymatgen
data_Ho4Al16GaSiIr6
_symmetry_space_group_name_H-M   'P 1'
_cell_length_a   7.54152725
_cell_length_b   7.54151930
_cell_length_c   9.41547900
_cell_angle_alpha   90.00000000
_cell_angle_beta   90.00000000
_cell_angle_gamma   119.61152165
_symmetry_Int_Tables_number   1
_chemical_formula_structural   Ho4Al16GaSiIr6
_chemical_formula_sum   'Ho4 Al16 Ga1 Si1 Ir6'
_cell_volume   465.56250960
_cell_formula_units_Z   1
loop_
 _symmetry_equiv_pos_site_id
 _symmetry_equiv_pos_as_xyz
  1  'x, y, z'
loop_
 _atom_site_type_symbol
 _atom_site_label
 _atom_site_symmetry_multiplicity
 _atom_site_fract_x
 _atom_site_fract_y
 _atom_site_fract_z
 _atom_site_occupancy
  Ho  Ho0  1  0.994496  0.676260  0.250000  1
  Ho  Ho1  1  0.004040  0.328480  0.750000  1
  Ho  Ho2  1  0.676260  0.994496  0.250000  1
  Ho  Ho3  1  0.328480  0.004039  0.750000  1
  Al  Al4  1  0.000924  0.337421  0.076896  1
  Al  Al5  1  0.998587  0.665411  0.925587  1
  Al  Al6  1  0.998587  0.665411  0.574413  1
  Al  Al7  1  0.337420  0.000924  0.423104  1
  Al  Al8  1  0.000924  0.337421  0.423104  1
  Al  Al9  1  0.665412  0.998588  0.574413  1
  Al  Al10  1  0.665412  0.998588  0.925587  1
  Al  Al11  1  0.337420  0.000924  0.076896  1
  Al  Al12  1  0.332587  0.332587  0.556803  1
  Al  Al13  1  0.663220  0.663220  0.446312  1
  Al  Al14  1  0.663220  0.663220  0.053688  1
  Al  Al15  1  0.332587  0.332587  0.943197  1
  Al  Al16  1  0.336426  0.549355  0.250000  1
  Al  Al17  1  0.662038  0.451349  0.750000  1
  Al  Al18  1  0.549356  0.336427  0.250000  1
  Al  Al19  1  0.451350  0.662038  0.750000  1
  Ga  Ga20  1  0.871314  0.871314  0.750000  1
  Si  Si21  1  0.132052  0.132052  0.250000  1
  Ir  Ir22  1  0.670739  0.327226  0.000006  1
  Ir  Ir23  1  0.327226  0.670738  0.000005  1
  Ir  Ir24  1  0.327226  0.670738  0.499995  1
  Ir  Ir25  1  0.670739  0.327226  0.499994  1
  Ir  Ir26  1  0.000977  0.000977  0.010158  1
  Ir  Ir27  1  0.000977  0.000977  0.489842  1
