# generated using pymatgen
data_TbDy3TcPt3F28
_symmetry_space_group_name_H-M   'P 1'
_cell_length_a   5.56397304
_cell_length_b   8.91932943
_cell_length_c   12.02389091
_cell_angle_alpha   62.36683930
_cell_angle_beta   90.04570658
_cell_angle_gamma   90.05915509
_symmetry_Int_Tables_number   1
_chemical_formula_structural   TbDy3TcPt3F28
_chemical_formula_sum   'Tb1 Dy3 Tc1 Pt3 F28'
_cell_volume   528.64483339
_cell_formula_units_Z   1
loop_
 _symmetry_equiv_pos_site_id
 _symmetry_equiv_pos_as_xyz
  1  'x, y, z'
loop_
 _atom_site_type_symbol
 _atom_site_label
 _atom_site_symmetry_multiplicity
 _atom_site_fract_x
 _atom_site_fract_y
 _atom_site_fract_z
 _atom_site_occupancy
  Tb  Tb0  1  0.239849  0.813942  0.763631  1
  Dy  Dy1  1  0.259524  0.813828  0.265149  1
  Dy  Dy2  1  0.739638  0.185848  0.736186  1
  Dy  Dy3  1  0.760854  0.184726  0.236649  1
  Tc  Tc4  1  0.757504  0.726123  0.043238  1
  Pt  Pt5  1  0.241042  0.272445  0.957571  1
  Pt  Pt6  1  0.259044  0.272858  0.457253  1
  Pt  Pt7  1  0.741193  0.726478  0.542893  1
  F  F8  1  0.936044  0.704395  0.414734  1
  F  F9  1  0.063253  0.295245  0.584987  1
  F  F10  1  0.437255  0.295231  0.085288  1
  F  F11  1  0.554837  0.708597  0.916812  1
  F  F12  1  0.473257  0.729751  0.138665  1
  F  F13  1  0.532712  0.272745  0.864949  1
  F  F14  1  0.967047  0.273115  0.364400  1
  F  F15  1  0.033322  0.726285  0.635050  1
  F  F16  1  0.956447  0.744945  0.172051  1
  F  F17  1  0.050001  0.256355  0.825237  1
  F  F18  1  0.451092  0.256675  0.325190  1
  F  F19  1  0.552058  0.742618  0.675375  1
  F  F20  1  0.770559  0.478202  0.140748  1
  F  F21  1  0.229369  0.520589  0.858761  1
  F  F22  1  0.269766  0.521450  0.358535  1
  F  F23  1  0.730202  0.477969  0.641883  1
  F  F24  1  0.942264  0.279758  0.043793  1
  F  F25  1  0.052345  0.720808  0.954190  1
  F  F26  1  0.441574  0.719046  0.457434  1
  F  F27  1  0.557708  0.280110  0.543390  1
  F  F28  1  0.741896  0.975069  0.449223  1
  F  F29  1  0.258599  0.024525  0.550460  1
  F  F30  1  0.241679  0.023937  0.051562  1
  F  F31  1  0.758913  0.973357  0.946092  1
  F  F32  1  0.585454  0.969481  0.232202  1
  F  F33  1  0.414848  0.031915  0.767417  1
  F  F34  1  0.085672  0.030360  0.268416  1
  F  F35  1  0.913182  0.971223  0.730582  1
