# generated using pymatgen
data_Ho6GaNiRh
_symmetry_space_group_name_H-M   'P 1'
_cell_length_a   8.32487913
_cell_length_b   8.32589299
_cell_length_c   8.32487794
_cell_angle_alpha   112.86660158
_cell_angle_beta   109.54161526
_cell_angle_gamma   106.07172834
_symmetry_Int_Tables_number   1
_chemical_formula_structural   Ho6GaNiRh
_chemical_formula_sum   'Ho12 Ga2 Ni2 Rh2'
_cell_volume   442.65243540
_cell_formula_units_Z   2
loop_
 _symmetry_equiv_pos_site_id
 _symmetry_equiv_pos_as_xyz
  1  'x, y, z'
loop_
 _atom_site_type_symbol
 _atom_site_label
 _atom_site_symmetry_multiplicity
 _atom_site_fract_x
 _atom_site_fract_y
 _atom_site_fract_z
 _atom_site_occupancy
  Ho  Ho0  1  0.434203  0.241177  0.192994  1
  Ho  Ho1  1  0.565797  0.758823  0.807006  1
  Ho  Ho2  1  0.048183  0.241177  0.806973  1
  Ho  Ho3  1  0.951817  0.758823  0.193027  1
  Ho  Ho4  1  0.178321  0.282664  0.460973  1
  Ho  Ho5  1  0.821679  0.717336  0.539027  1
  Ho  Ho6  1  0.178310  0.717336  0.895657  1
  Ho  Ho7  1  0.821690  0.282664  0.104343  1
  Ho  Ho8  1  0.326286  0.635239  0.308954  1
  Ho  Ho9  1  0.673714  0.364761  0.691046  1
  Ho  Ho10  1  0.326277  0.017313  0.691035  1
  Ho  Ho11  1  0.673723  0.982687  0.308965  1
  Ga  Ga12  1  0.500000  0.500000  0.000000  1
  Ga  Ga13  1  0.000000  0.000000  0.000000  1
  Ni  Ni14  1  0.121412  0.621423  0.500011  1
  Ni  Ni15  1  0.878588  0.378577  0.499989  1
  Rh  Rh16  1  0.336024  0.000000  0.336024  1
  Rh  Rh17  1  0.663976  0.000000  0.663976  1
