# generated using pymatgen
data_Y3Ho6Sc7(In3Co)2
_symmetry_space_group_name_H-M   'P 1'
_cell_length_a   9.94150000
_cell_length_b   9.94149989
_cell_length_c   7.03731200
_cell_angle_alpha   90.00000000
_cell_angle_beta   90.00000000
_cell_angle_gamma   119.99999372
_symmetry_Int_Tables_number   1
_chemical_formula_structural   Y3Ho6Sc7(In3Co)2
_chemical_formula_sum   'Y3 Ho6 Sc7 In6 Co2'
_cell_volume   602.33943044
_cell_formula_units_Z   1
loop_
 _symmetry_equiv_pos_site_id
 _symmetry_equiv_pos_as_xyz
  1  'x, y, z'
loop_
 _atom_site_type_symbol
 _atom_site_label
 _atom_site_symmetry_multiplicity
 _atom_site_fract_x
 _atom_site_fract_y
 _atom_site_fract_z
 _atom_site_occupancy
  Y  Y0  1  0.333333  0.666667  0.679162  1
  Y  Y1  1  0.000000  0.000000  0.782077  1
  Y  Y2  1  0.000000  0.000000  0.283926  1
  Ho  Ho3  1  0.535974  0.071948  0.788378  1
  Ho  Ho4  1  0.928052  0.464026  0.788378  1
  Ho  Ho5  1  0.535974  0.464026  0.788378  1
  Ho  Ho6  1  0.467459  0.934917  0.285446  1
  Ho  Ho7  1  0.065083  0.532541  0.285446  1
  Ho  Ho8  1  0.467459  0.532541  0.285446  1
  Sc  Sc9  1  0.818999  0.637999  0.492825  1
  Sc  Sc10  1  0.362001  0.181001  0.492825  1
  Sc  Sc11  1  0.818999  0.181001  0.492825  1
  Sc  Sc12  1  0.180047  0.360094  0.997029  1
  Sc  Sc13  1  0.639906  0.819953  0.997029  1
  Sc  Sc14  1  0.180047  0.819953  0.997029  1
  Sc  Sc15  1  0.666667  0.333333  0.191213  1
  In  In16  1  0.836299  0.672598  0.051660  1
  In  In17  1  0.327402  0.163701  0.051660  1
  In  In18  1  0.836299  0.163701  0.051660  1
  In  In19  1  0.160234  0.320469  0.547315  1
  In  In20  1  0.679531  0.839766  0.547315  1
  In  In21  1  0.160234  0.839766  0.547315  1
  Co  Co22  1  0.666667  0.333333  0.551495  1
  Co  Co23  1  0.333333  0.666667  0.060067  1
