# generated using pymatgen
data_PIrRh2S7
_symmetry_space_group_name_H-M   'P 1'
_cell_length_a   5.70052149
_cell_length_b   5.70037794
_cell_length_c   5.70890901
_cell_angle_alpha   90.30301231
_cell_angle_beta   90.25209893
_cell_angle_gamma   90.24321177
_symmetry_Int_Tables_number   1
_chemical_formula_structural   PIrRh2S7
_chemical_formula_sum   'P1 Ir1 Rh2 S7'
_cell_volume   185.50564329
_cell_formula_units_Z   1
loop_
 _symmetry_equiv_pos_site_id
 _symmetry_equiv_pos_as_xyz
  1  'x, y, z'
loop_
 _atom_site_type_symbol
 _atom_site_label
 _atom_site_symmetry_multiplicity
 _atom_site_fract_x
 _atom_site_fract_y
 _atom_site_fract_z
 _atom_site_occupancy
  P  P0  1  0.611575  0.611910  0.612721  1
  Ir  Ir1  1  0.501222  0.501226  0.993976  1
  Rh  Rh2  1  0.993811  0.501601  0.501183  1
  Rh  Rh3  1  0.501446  0.993770  0.501248  1
  S  S4  1  0.396706  0.889543  0.106045  1
  S  S5  1  0.107485  0.397152  0.890789  1
  S  S6  1  0.891179  0.105615  0.397644  1
  S  S7  1  0.605223  0.109499  0.893100  1
  S  S8  1  0.891096  0.604607  0.108938  1
  S  S9  1  0.108249  0.893287  0.604337  1
  S  S10  1  0.392007  0.391791  0.390017  1
