# generated using pymatgen
data_Y8Nb11Si16Mo
_symmetry_space_group_name_H-M   'P 1'
_cell_length_a   7.06075756
_cell_length_b   7.06071945
_cell_length_c   13.05820373
_cell_angle_alpha   89.93870267
_cell_angle_beta   89.93653412
_cell_angle_gamma   90.01625529
_symmetry_Int_Tables_number   1
_chemical_formula_structural   Y8Nb11Si16Mo
_chemical_formula_sum   'Y8 Nb11 Si16 Mo1'
_cell_volume   651.00325904
_cell_formula_units_Z   1
loop_
 _symmetry_equiv_pos_site_id
 _symmetry_equiv_pos_as_xyz
  1  'x, y, z'
loop_
 _atom_site_type_symbol
 _atom_site_label
 _atom_site_symmetry_multiplicity
 _atom_site_fract_x
 _atom_site_fract_y
 _atom_site_fract_z
 _atom_site_occupancy
  Y  Y0  1  0.999068  0.340834  0.219353  1
  Y  Y1  1  0.001497  0.659367  0.716942  1
  Y  Y2  1  0.159167  0.499305  0.467491  1
  Y  Y3  1  0.500636  0.841373  0.033088  1
  Y  Y4  1  0.840670  0.501936  0.968004  1
  Y  Y5  1  0.498382  0.158473  0.531060  1
  Y  Y6  1  0.340948  0.999523  0.781717  1
  Y  Y7  1  0.659452  0.001228  0.282300  1
  Nb  Nb8  1  0.170915  0.170975  0.000838  1
  Nb  Nb9  1  0.829246  0.829964  0.499669  1
  Nb  Nb10  1  0.328825  0.669831  0.250494  1
  Nb  Nb11  1  0.670607  0.329235  0.750230  1
  Nb  Nb12  1  0.845315  0.007937  0.875766  1
  Nb  Nb13  1  0.506503  0.655843  0.624951  1
  Nb  Nb14  1  0.345420  0.492370  0.873319  1
  Nb  Nb15  1  0.490352  0.343766  0.127058  1
  Nb  Nb16  1  0.654543  0.507595  0.373830  1
  Nb  Nb17  1  0.993032  0.154487  0.623540  1
  Nb  Nb18  1  0.006796  0.846460  0.123827  1
  Si  Si19  1  0.292246  0.042823  0.189413  1
  Si  Si20  1  0.707016  0.955087  0.686690  1
  Si  Si21  1  0.452551  0.793935  0.435847  1
  Si  Si22  1  0.206753  0.545402  0.063320  1
  Si  Si23  1  0.544453  0.206430  0.937439  1
  Si  Si24  1  0.792751  0.454429  0.562615  1
  Si  Si25  1  0.044805  0.293984  0.813078  1
  Si  Si26  1  0.957534  0.710542  0.313447  1
  Si  Si27  1  0.367492  0.292415  0.319086  1
  Si  Si28  1  0.632060  0.704650  0.817078  1
  Si  Si29  1  0.203008  0.868858  0.565506  1
  Si  Si30  1  0.132515  0.796559  0.932741  1
  Si  Si31  1  0.795919  0.132677  0.068027  1
  Si  Si32  1  0.872056  0.200946  0.431742  1
  Si  Si33  1  0.296686  0.367529  0.681693  1
  Si  Si34  1  0.704908  0.631373  0.183017  1
  Mo  Mo35  1  0.155878  0.991860  0.375782  1
