# generated using pymatgen
data_Hf4Zr4Co5Ni7P12
_symmetry_space_group_name_H-M   'P 1'
_cell_length_a   3.61537300
_cell_length_b   10.00989280
_cell_length_c   12.17915767
_cell_angle_alpha   89.96901189
_cell_angle_beta   90.00000000
_cell_angle_gamma   90.00000000
_symmetry_Int_Tables_number   1
_chemical_formula_structural   Hf4Zr4Co5Ni7P12
_chemical_formula_sum   'Hf4 Zr4 Co5 Ni7 P12'
_cell_volume   440.75751532
_cell_formula_units_Z   1
loop_
 _symmetry_equiv_pos_site_id
 _symmetry_equiv_pos_as_xyz
  1  'x, y, z'
loop_
 _atom_site_type_symbol
 _atom_site_label
 _atom_site_symmetry_multiplicity
 _atom_site_fract_x
 _atom_site_fract_y
 _atom_site_fract_z
 _atom_site_occupancy
  Hf  Hf0  1  0.250000  0.339517  0.995570  1
  Hf  Hf1  1  0.250000  0.159866  0.495077  1
  Hf  Hf2  1  0.250000  0.422095  0.706936  1
  Hf  Hf3  1  0.250000  0.074926  0.205755  1
  Zr  Zr4  1  0.750000  0.660163  0.003951  1
  Zr  Zr5  1  0.750000  0.839597  0.503905  1
  Zr  Zr6  1  0.750000  0.574321  0.294435  1
  Zr  Zr7  1  0.750000  0.928387  0.793078  1
  Co  Co8  1  0.250000  0.907544  0.984307  1
  Co  Co9  1  0.250000  0.592510  0.485042  1
  Co  Co10  1  0.750000  0.095178  0.017219  1
  Co  Co11  1  0.750000  0.403570  0.519190  1
  Co  Co12  1  0.250000  0.139173  0.719581  1
  Ni  Ni13  1  0.250000  0.361640  0.220556  1
  Ni  Ni14  1  0.750000  0.866001  0.277121  1
  Ni  Ni15  1  0.750000  0.634439  0.777914  1
  Ni  Ni16  1  0.250000  0.769626  0.165643  1
  Ni  Ni17  1  0.250000  0.731953  0.666039  1
  Ni  Ni18  1  0.750000  0.231037  0.836174  1
  Ni  Ni19  1  0.750000  0.270522  0.334692  1
  P  P20  1  0.250000  0.102841  0.899687  1
  P  P21  1  0.250000  0.397001  0.403312  1
  P  P22  1  0.750000  0.899585  0.097130  1
  P  P23  1  0.750000  0.600087  0.598287  1
  P  P24  1  0.250000  0.738101  0.856539  1
  P  P25  1  0.250000  0.763071  0.357141  1
  P  P26  1  0.750000  0.262864  0.142023  1
  P  P27  1  0.750000  0.231450  0.643673  1
  P  P28  1  0.250000  0.550224  0.129669  1
  P  P29  1  0.250000  0.952076  0.629267  1
  P  P30  1  0.750000  0.448268  0.870775  1
  P  P31  1  0.750000  0.052365  0.370311  1
