# generated using pymatgen
data_Al10CoIrRh2
_symmetry_space_group_name_H-M   'P 1'
_cell_length_a   7.87810371
_cell_length_b   7.86910316
_cell_length_c   7.82569500
_cell_angle_alpha   90.00000000
_cell_angle_beta   90.00000000
_cell_angle_gamma   119.96222139
_symmetry_Int_Tables_number   1
_chemical_formula_structural   Al10CoIrRh2
_chemical_formula_sum   'Al20 Co2 Ir2 Rh4'
_cell_volume   420.30609156
_cell_formula_units_Z   2
loop_
 _symmetry_equiv_pos_site_id
 _symmetry_equiv_pos_as_xyz
  1  'x, y, z'
loop_
 _atom_site_type_symbol
 _atom_site_label
 _atom_site_symmetry_multiplicity
 _atom_site_fract_x
 _atom_site_fract_y
 _atom_site_fract_z
 _atom_site_occupancy
  Al  Al0  1  0.000000  0.000034  0.000000  1
  Al  Al1  1  0.000000  0.000034  0.500000  1
  Al  Al2  1  0.473831  0.947997  0.250000  1
  Al  Al3  1  0.526169  0.474165  0.750000  1
  Al  Al4  1  0.949253  0.476110  0.750000  1
  Al  Al5  1  0.050747  0.526857  0.250000  1
  Al  Al6  1  0.476024  0.526518  0.250000  1
  Al  Al7  1  0.523976  0.050495  0.750000  1
  Al  Al8  1  0.196637  0.394116  0.937967  1
  Al  Al9  1  0.803363  0.197479  0.437967  1
  Al  Al10  1  0.394849  0.197726  0.438768  1
  Al  Al11  1  0.605151  0.802877  0.938768  1
  Al  Al12  1  0.197715  0.802150  0.939514  1
  Al  Al13  1  0.802285  0.604436  0.060486  1
  Al  Al14  1  0.803363  0.197479  0.062033  1
  Al  Al15  1  0.802285  0.604436  0.439514  1
  Al  Al16  1  0.394849  0.197726  0.061232  1
  Al  Al17  1  0.605151  0.802877  0.561232  1
  Al  Al18  1  0.196637  0.394116  0.562033  1
  Al  Al19  1  0.197715  0.802150  0.560486  1
  Co  Co20  1  0.333467  0.666630  0.750000  1
  Co  Co21  1  0.666533  0.333162  0.250000  1
  Ir  Ir22  1  0.130328  0.260231  0.250000  1
  Ir  Ir23  1  0.869672  0.129902  0.750000  1
  Rh  Rh24  1  0.259685  0.129458  0.750000  1
  Rh  Rh25  1  0.740315  0.869774  0.250000  1
  Rh  Rh26  1  0.129478  0.870272  0.250000  1
  Rh  Rh27  1  0.870522  0.740792  0.750000  1
