# generated using pymatgen
data_K3VSeO3
_symmetry_space_group_name_H-M   'P 1'
_cell_length_a   6.01883600
_cell_length_b   7.03998874
_cell_length_c   9.07252401
_cell_angle_alpha   74.91674464
_cell_angle_beta   90.00000000
_cell_angle_gamma   90.00000000
_symmetry_Int_Tables_number   1
_chemical_formula_structural   K3VSeO3
_chemical_formula_sum   'K6 V2 Se2 O6'
_cell_volume   371.18190273
_cell_formula_units_Z   2
loop_
 _symmetry_equiv_pos_site_id
 _symmetry_equiv_pos_as_xyz
  1  'x, y, z'
loop_
 _atom_site_type_symbol
 _atom_site_label
 _atom_site_symmetry_multiplicity
 _atom_site_fract_x
 _atom_site_fract_y
 _atom_site_fract_z
 _atom_site_occupancy
  K  K0  1  0.750000  0.685744  0.467918  1
  K  K1  1  0.250000  0.214301  0.982954  1
  K  K2  1  0.250000  0.314256  0.532082  1
  K  K3  1  0.750000  0.785699  0.017046  1
  K  K4  1  0.250000  0.756833  0.732679  1
  K  K5  1  0.750000  0.243167  0.267321  1
  V  V6  1  0.750000  0.304492  0.790008  1
  V  V7  1  0.250000  0.695508  0.209992  1
  Se  Se8  1  0.750000  0.053078  0.654219  1
  Se  Se9  1  0.250000  0.946922  0.345781  1
  O  O10  1  0.250000  0.807454  0.016609  1
  O  O11  1  0.750000  0.192546  0.983391  1
  O  O12  1  0.984417  0.445874  0.737199  1
  O  O13  1  0.015583  0.554126  0.262801  1
  O  O14  1  0.515583  0.445874  0.737199  1
  O  O15  1  0.484417  0.554126  0.262801  1
