# generated using pymatgen
data_Zr3TaFe2N
_symmetry_space_group_name_H-M   'P 1'
_cell_length_a   8.53047657
_cell_length_b   8.53047683
_cell_length_c   8.53047600
_cell_angle_alpha   59.99999546
_cell_angle_beta   59.99999444
_cell_angle_gamma   59.99999955
_symmetry_Int_Tables_number   1
_chemical_formula_structural   Zr3TaFe2N
_chemical_formula_sum   'Zr12 Ta4 Fe8 N4'
_cell_volume   438.93967224
_cell_formula_units_Z   4
loop_
 _symmetry_equiv_pos_site_id
 _symmetry_equiv_pos_as_xyz
  1  'x, y, z'
loop_
 _atom_site_type_symbol
 _atom_site_label
 _atom_site_symmetry_multiplicity
 _atom_site_fract_x
 _atom_site_fract_y
 _atom_site_fract_z
 _atom_site_occupancy
  Zr  Zr0  1  0.811509  0.811509  0.188491  1
  Zr  Zr1  1  0.188491  0.188491  0.811509  1
  Zr  Zr2  1  0.811509  0.188491  0.811509  1
  Zr  Zr3  1  0.188491  0.811509  0.188491  1
  Zr  Zr4  1  0.188491  0.811509  0.811509  1
  Zr  Zr5  1  0.811509  0.188491  0.188491  1
  Zr  Zr6  1  0.438491  0.438491  0.061509  1
  Zr  Zr7  1  0.061509  0.061509  0.438491  1
  Zr  Zr8  1  0.438491  0.061509  0.438491  1
  Zr  Zr9  1  0.061509  0.438491  0.061509  1
  Zr  Zr10  1  0.061509  0.438491  0.438491  1
  Zr  Zr11  1  0.438491  0.061509  0.061509  1
  Ta  Ta12  1  0.125000  0.625000  0.625000  1
  Ta  Ta13  1  0.625000  0.125000  0.625000  1
  Ta  Ta14  1  0.625000  0.625000  0.125000  1
  Ta  Ta15  1  0.625000  0.625000  0.625000  1
  Fe  Fe16  1  0.739369  0.420210  0.420210  1
  Fe  Fe17  1  0.420210  0.739369  0.420210  1
  Fe  Fe18  1  0.420210  0.420210  0.739369  1
  Fe  Fe19  1  0.420210  0.420210  0.420210  1
  Fe  Fe20  1  0.510631  0.829790  0.829790  1
  Fe  Fe21  1  0.829790  0.510631  0.829790  1
  Fe  Fe22  1  0.829790  0.829790  0.510631  1
  Fe  Fe23  1  0.829790  0.829790  0.829790  1
  N  N24  1  0.625000  0.125000  0.125000  1
  N  N25  1  0.125000  0.625000  0.125000  1
  N  N26  1  0.125000  0.125000  0.625000  1
  N  N27  1  0.125000  0.125000  0.125000  1
