# generated using pymatgen
data_La5Tl3Br
_symmetry_space_group_name_H-M   'P 1'
_cell_length_a   9.83981700
_cell_length_b   9.83981633
_cell_length_c   6.94525000
_cell_angle_alpha   90.00000000
_cell_angle_beta   90.00000000
_cell_angle_gamma   119.99999891
_symmetry_Int_Tables_number   1
_chemical_formula_structural   La5Tl3Br
_chemical_formula_sum   'La10 Tl6 Br2'
_cell_volume   582.36133497
_cell_formula_units_Z   2
loop_
 _symmetry_equiv_pos_site_id
 _symmetry_equiv_pos_as_xyz
  1  'x, y, z'
loop_
 _atom_site_type_symbol
 _atom_site_label
 _atom_site_symmetry_multiplicity
 _atom_site_fract_x
 _atom_site_fract_y
 _atom_site_fract_z
 _atom_site_occupancy
  La  La0  1  0.266737  0.000000  0.250000  1
  La  La1  1  0.000000  0.733263  0.750000  1
  La  La2  1  0.733263  0.733263  0.250000  1
  La  La3  1  0.266737  0.266737  0.750000  1
  La  La4  1  0.733263  0.000000  0.750000  1
  La  La5  1  0.000000  0.266737  0.250000  1
  La  La6  1  0.666667  0.333333  0.500000  1
  La  La7  1  0.333333  0.666667  0.000000  1
  La  La8  1  0.333333  0.666667  0.500000  1
  La  La9  1  0.666667  0.333333  0.000000  1
  Tl  Tl10  1  0.614482  0.614482  0.750000  1
  Tl  Tl11  1  0.000000  0.614482  0.250000  1
  Tl  Tl12  1  0.614482  0.000000  0.250000  1
  Tl  Tl13  1  0.385518  0.000000  0.750000  1
  Tl  Tl14  1  0.000000  0.385518  0.750000  1
  Tl  Tl15  1  0.385518  0.385518  0.250000  1
  Br  Br16  1  0.000000  0.000000  0.500000  1
  Br  Br17  1  0.000000  0.000000  0.000000  1
