# generated using pymatgen
data_Y8Sc12Si15Os
_symmetry_space_group_name_H-M   'P 1'
_cell_length_a   7.09739810
_cell_length_b   7.45610659
_cell_length_c   13.99654000
_cell_angle_alpha   90.00000000
_cell_angle_beta   90.00000000
_cell_angle_gamma   90.21205584
_symmetry_Int_Tables_number   1
_chemical_formula_structural   Y8Sc12Si15Os
_chemical_formula_sum   'Y8 Sc12 Si15 Os1'
_cell_volume   740.67722161
_cell_formula_units_Z   1
loop_
 _symmetry_equiv_pos_site_id
 _symmetry_equiv_pos_as_xyz
  1  'x, y, z'
loop_
 _atom_site_type_symbol
 _atom_site_label
 _atom_site_symmetry_multiplicity
 _atom_site_fract_x
 _atom_site_fract_y
 _atom_site_fract_z
 _atom_site_occupancy
  Y  Y0  1  0.011198  0.178388  0.096211  1
  Y  Y1  1  0.990926  0.827466  0.903645  1
  Y  Y2  1  0.488578  0.676407  0.904080  1
  Y  Y3  1  0.990926  0.827466  0.596355  1
  Y  Y4  1  0.510885  0.323257  0.096268  1
  Y  Y5  1  0.011198  0.178388  0.403789  1
  Y  Y6  1  0.510885  0.323257  0.403732  1
  Y  Y7  1  0.488578  0.676407  0.595920  1
  Sc  Sc8  1  0.155441  0.496229  0.750000  1
  Sc  Sc9  1  0.838412  0.495753  0.250000  1
  Sc  Sc10  1  0.339228  0.004857  0.250000  1
  Sc  Sc11  1  0.669048  0.998868  0.750000  1
  Sc  Sc12  1  0.318160  0.172276  0.627492  1
  Sc  Sc13  1  0.671895  0.825282  0.373824  1
  Sc  Sc14  1  0.171269  0.678100  0.374035  1
  Sc  Sc15  1  0.671895  0.825282  0.126176  1
  Sc  Sc16  1  0.837288  0.318886  0.627648  1
  Sc  Sc17  1  0.318160  0.172276  0.872508  1
  Sc  Sc18  1  0.837288  0.318886  0.872352  1
  Sc  Sc19  1  0.171269  0.678100  0.125965  1
  Si  Si20  1  0.968541  0.884373  0.250000  1
  Si  Si21  1  0.468937  0.614685  0.250000  1
  Si  Si22  1  0.529488  0.389144  0.750000  1
  Si  Si23  1  0.286210  0.868015  0.750000  1
  Si  Si24  1  0.713507  0.129225  0.250000  1
  Si  Si25  1  0.213800  0.371553  0.250000  1
  Si  Si26  1  0.778585  0.626492  0.750000  1
  Si  Si27  1  0.159372  0.468763  0.536945  1
  Si  Si28  1  0.844661  0.536135  0.461403  1
  Si  Si29  1  0.345242  0.965569  0.459981  1
  Si  Si30  1  0.844661  0.536135  0.038597  1
  Si  Si31  1  0.655199  0.034329  0.538321  1
  Si  Si32  1  0.159372  0.468763  0.963055  1
  Si  Si33  1  0.655199  0.034329  0.961679  1
  Si  Si34  1  0.345242  0.965569  0.040019  1
  Os  Os35  1  0.029459  0.111092  0.750000  1
