# generated using pymatgen
data_Ac3(Sn2Rh)2
_symmetry_space_group_name_H-M   'P 1'
_cell_length_a   7.90687400
_cell_length_b   7.90687372
_cell_length_c   4.43738800
_cell_angle_alpha   90.00000000
_cell_angle_beta   90.00000000
_cell_angle_gamma   119.99999281
_symmetry_Int_Tables_number   1
_chemical_formula_structural   Ac3(Sn2Rh)2
_chemical_formula_sum   'Ac3 Sn4 Rh2'
_cell_volume   240.25237443
_cell_formula_units_Z   1
loop_
 _symmetry_equiv_pos_site_id
 _symmetry_equiv_pos_as_xyz
  1  'x, y, z'
loop_
 _atom_site_type_symbol
 _atom_site_label
 _atom_site_symmetry_multiplicity
 _atom_site_fract_x
 _atom_site_fract_y
 _atom_site_fract_z
 _atom_site_occupancy
  Ac  Ac0  1  0.415071  0.019175  0.500000  1
  Ac  Ac1  1  0.980825  0.395896  0.500000  1
  Ac  Ac2  1  0.604104  0.584929  0.500000  1
  Sn  Sn3  1  0.770598  0.011960  0.000000  1
  Sn  Sn4  1  0.988040  0.758637  0.000000  1
  Sn  Sn5  1  0.241363  0.229402  0.000000  1
  Sn  Sn6  1  0.333333  0.666667  0.000000  1
  Rh  Rh7  1  0.666667  0.333333  0.000000  1
  Rh  Rh8  1  0.000000  0.000000  0.500000  1
