# generated using pymatgen
data_HoEr11Tc3Ni
_symmetry_space_group_name_H-M   'P 1'
_cell_length_a   6.21931814
_cell_length_b   7.29231073
_cell_length_c   9.09150300
_cell_angle_alpha   90.00000000
_cell_angle_beta   90.00000000
_cell_angle_gamma   90.19647069
_symmetry_Int_Tables_number   1
_chemical_formula_structural   HoEr11Tc3Ni
_chemical_formula_sum   'Ho1 Er11 Tc3 Ni1'
_cell_volume   412.32633339
_cell_formula_units_Z   1
loop_
 _symmetry_equiv_pos_site_id
 _symmetry_equiv_pos_as_xyz
  1  'x, y, z'
loop_
 _atom_site_type_symbol
 _atom_site_label
 _atom_site_symmetry_multiplicity
 _atom_site_fract_x
 _atom_site_fract_y
 _atom_site_fract_z
 _atom_site_occupancy
  Ho  Ho0  1  0.139840  0.457987  0.750000  1
  Er  Er1  1  0.329284  0.677623  0.066466  1
  Er  Er2  1  0.163171  0.176681  0.437449  1
  Er  Er3  1  0.665947  0.322966  0.562507  1
  Er  Er4  1  0.834809  0.823469  0.938606  1
  Er  Er5  1  0.665947  0.322966  0.937493  1
  Er  Er6  1  0.834809  0.823469  0.561394  1
  Er  Er7  1  0.329284  0.677623  0.433534  1
  Er  Er8  1  0.163171  0.176681  0.062551  1
  Er  Er9  1  0.872156  0.540335  0.250000  1
  Er  Er10  1  0.623346  0.039738  0.250000  1
  Er  Er11  1  0.373882  0.957928  0.750000  1
  Tc  Tc12  1  0.037416  0.885390  0.250000  1
  Tc  Tc13  1  0.461093  0.387768  0.250000  1
  Tc  Tc14  1  0.961377  0.113585  0.750000  1
  Ni  Ni15  1  0.544468  0.615792  0.750000  1
