# generated using pymatgen
data_PrDy3(ScPt)4
_symmetry_space_group_name_H-M   'P 1'
_cell_length_a   4.65542400
_cell_length_b   7.03293704
_cell_length_c   8.48639800
_cell_angle_alpha   90.24830644
_cell_angle_beta   90.00000000
_cell_angle_gamma   90.00000000
_symmetry_Int_Tables_number   1
_chemical_formula_structural   PrDy3(ScPt)4
_chemical_formula_sum   'Pr1 Dy3 Sc4 Pt4'
_cell_volume   277.85312673
_cell_formula_units_Z   1
loop_
 _symmetry_equiv_pos_site_id
 _symmetry_equiv_pos_as_xyz
  1  'x, y, z'
loop_
 _atom_site_type_symbol
 _atom_site_label
 _atom_site_symmetry_multiplicity
 _atom_site_fract_x
 _atom_site_fract_y
 _atom_site_fract_z
 _atom_site_occupancy
  Pr  Pr0  1  0.750000  0.514079  0.822330  1
  Dy  Dy1  1  0.250000  0.983711  0.322755  1
  Dy  Dy2  1  0.750000  0.016570  0.673695  1
  Dy  Dy3  1  0.250000  0.483446  0.179075  1
  Sc  Sc4  1  0.750000  0.641329  0.424263  1
  Sc  Sc5  1  0.250000  0.359633  0.568771  1
  Sc  Sc6  1  0.750000  0.139240  0.075537  1
  Sc  Sc7  1  0.250000  0.860907  0.926743  1
  Pt  Pt8  1  0.250000  0.238004  0.908483  1
  Pt  Pt9  1  0.750000  0.759253  0.102238  1
  Pt  Pt10  1  0.250000  0.746687  0.592311  1
  Pt  Pt11  1  0.750000  0.257142  0.403800  1
