# generated using pymatgen
data_Sr6SbIO12
_symmetry_space_group_name_H-M   'P 1'
_cell_length_a   6.15388825
_cell_length_b   5.91505949
_cell_length_c   10.35765700
_cell_angle_alpha   54.81693098
_cell_angle_beta   89.77312113
_cell_angle_gamma   89.79532880
_symmetry_Int_Tables_number   1
_chemical_formula_structural   Sr6SbIO12
_chemical_formula_sum   'Sr6 Sb1 I1 O12'
_cell_volume   308.14553293
_cell_formula_units_Z   1
loop_
 _symmetry_equiv_pos_site_id
 _symmetry_equiv_pos_as_xyz
  1  'x, y, z'
loop_
 _atom_site_type_symbol
 _atom_site_label
 _atom_site_symmetry_multiplicity
 _atom_site_fract_x
 _atom_site_fract_y
 _atom_site_fract_z
 _atom_site_occupancy
  Sr  Sr0  1  0.500000  0.500000  0.500000  1
  Sr  Sr1  1  0.955809  0.723389  0.267979  1
  Sr  Sr2  1  0.447332  0.254122  0.262534  1
  Sr  Sr3  1  0.000000  0.500000  0.000000  1
  Sr  Sr4  1  0.552668  0.745878  0.737466  1
  Sr  Sr5  1  0.044191  0.276611  0.732021  1
  Sb  Sb6  1  0.000000  0.000000  0.500000  1
  I  I7  1  0.500000  0.000000  0.000000  1
  O  O8  1  0.456827  0.111124  0.788356  1
  O  O9  1  0.243590  0.774039  0.063638  1
  O  O10  1  0.184290  0.317299  0.457711  1
  O  O11  1  0.670676  0.691487  0.046455  1
  O  O12  1  0.730525  0.240022  0.438549  1
  O  O13  1  0.951443  0.872741  0.726398  1
  O  O14  1  0.048557  0.127259  0.273602  1
  O  O15  1  0.269475  0.759978  0.561451  1
  O  O16  1  0.329324  0.308513  0.953545  1
  O  O17  1  0.815710  0.682701  0.542289  1
  O  O18  1  0.756410  0.225961  0.936362  1
  O  O19  1  0.543173  0.888876  0.211644  1
