# generated using pymatgen
data_Th5Co12P12Ru7
_symmetry_space_group_name_H-M   'P 1'
_cell_length_a   12.35982924
_cell_length_b   12.32799848
_cell_length_c   3.84730100
_cell_angle_alpha   90.00000000
_cell_angle_beta   90.00000000
_cell_angle_gamma   119.96305967
_symmetry_Int_Tables_number   1
_chemical_formula_structural   Th5Co12P12Ru7
_chemical_formula_sum   'Th5 Co12 P12 Ru7'
_cell_volume   507.87095849
_cell_formula_units_Z   1
loop_
 _symmetry_equiv_pos_site_id
 _symmetry_equiv_pos_as_xyz
  1  'x, y, z'
loop_
 _atom_site_type_symbol
 _atom_site_label
 _atom_site_symmetry_multiplicity
 _atom_site_fract_x
 _atom_site_fract_y
 _atom_site_fract_z
 _atom_site_occupancy
  Th  Th0  1  0.665740  0.332254  0.000000  1
  Th  Th1  1  0.336899  0.667207  0.000000  1
  Th  Th2  1  0.185407  0.185137  0.500000  1
  Th  Th3  1  0.815950  0.001099  0.500000  1
  Th  Th4  1  0.999039  0.816023  0.500000  1
  Co  Co5  1  0.822730  0.196105  0.000000  1
  Co  Co6  1  0.801571  0.626483  0.000000  1
  Co  Co7  1  0.373468  0.175038  0.000000  1
  Co  Co8  1  0.195722  0.822774  0.000000  1
  Co  Co9  1  0.624808  0.805862  0.000000  1
  Co  Co10  1  0.181719  0.376252  0.000000  1
  Co  Co11  1  0.513160  0.870589  0.500000  1
  Co  Co12  1  0.360773  0.490148  0.500000  1
  Co  Co13  1  0.716701  0.718257  0.500000  1
  Co  Co14  1  0.282055  0.998230  0.500000  1
  Co  Co15  1  0.001660  0.283183  0.500000  1
  Co  Co16  1  0.000163  0.999833  0.000000  1
  P  P17  1  0.366617  0.372067  0.000000  1
  P  P18  1  0.629715  0.995701  0.000000  1
  P  P19  1  0.000675  0.631376  0.000000  1
  P  P20  1  0.837304  0.306723  0.500000  1
  P  P21  1  0.689350  0.529040  0.500000  1
  P  P22  1  0.469922  0.162487  0.500000  1
  P  P23  1  0.315713  0.840258  0.500000  1
  P  P24  1  0.527883  0.691412  0.500000  1
  P  P25  1  0.166334  0.471002  0.500000  1
  P  P26  1  0.816466  0.817870  0.000000  1
  P  P27  1  0.182334  0.999786  0.000000  1
  P  P28  1  0.000991  0.183379  0.000000  1
  Ru  Ru29  1  0.552735  0.560093  0.000000  1
  Ru  Ru30  1  0.440520  0.991969  0.000000  1
  Ru  Ru31  1  0.002580  0.444176  0.000000  1
  Ru  Ru32  1  0.637399  0.119737  0.500000  1
  Ru  Ru33  1  0.874233  0.514602  0.500000  1
  Ru  Ru34  1  0.480703  0.361554  0.500000  1
  Ru  Ru35  1  0.130959  0.642294  0.500000  1
