# generated using pymatgen
data_Tb4Dy5Er11Bi12
_symmetry_space_group_name_H-M   'P 1'
_cell_length_a   8.23998305
_cell_length_b   9.48363917
_cell_length_c   12.03740501
_cell_angle_alpha   89.99013305
_cell_angle_beta   90.03139937
_cell_angle_gamma   90.00479123
_symmetry_Int_Tables_number   1
_chemical_formula_structural   Tb4Dy5Er11Bi12
_chemical_formula_sum   'Tb4 Dy5 Er11 Bi12'
_cell_volume   940.66316916
_cell_formula_units_Z   1
loop_
 _symmetry_equiv_pos_site_id
 _symmetry_equiv_pos_as_xyz
  1  'x, y, z'
loop_
 _atom_site_type_symbol
 _atom_site_label
 _atom_site_symmetry_multiplicity
 _atom_site_fract_x
 _atom_site_fract_y
 _atom_site_fract_z
 _atom_site_occupancy
  Tb  Tb0  1  0.353147  0.750367  0.216226  1
  Tb  Tb1  1  0.852439  0.750313  0.283467  1
  Tb  Tb2  1  0.647351  0.250098  0.783691  1
  Tb  Tb3  1  0.147446  0.250276  0.716378  1
  Dy  Dy4  1  0.192092  0.563836  0.441200  1
  Dy  Dy5  1  0.312762  0.250042  0.218261  1
  Dy  Dy6  1  0.812890  0.250024  0.281719  1
  Dy  Dy7  1  0.687216  0.750069  0.781828  1
  Dy  Dy8  1  0.187359  0.750206  0.718407  1
  Er  Er9  1  0.692316  0.565026  0.058823  1
  Er  Er10  1  0.192263  0.934758  0.441004  1
  Er  Er11  1  0.307626  0.065133  0.941176  1
  Er  Er12  1  0.807981  0.434750  0.558829  1
  Er  Er13  1  0.307756  0.434899  0.941124  1
  Er  Er14  1  0.807424  0.065009  0.559032  1
  Er  Er15  1  0.692336  0.935015  0.058781  1
  Er  Er16  1  0.476071  0.250040  0.488113  1
  Er  Er17  1  0.975887  0.250174  0.011743  1
  Er  Er18  1  0.524270  0.750164  0.511952  1
  Er  Er19  1  0.024109  0.749999  0.988136  1
  Bi  Bi20  1  0.406099  0.749981  0.957337  1
  Bi  Bi21  1  0.905840  0.750342  0.542757  1
  Bi  Bi22  1  0.593909  0.250022  0.042578  1
  Bi  Bi23  1  0.093483  0.248498  0.457660  1
  Bi  Bi24  1  0.565471  0.995833  0.326097  1
  Bi  Bi25  1  0.065314  0.504474  0.173643  1
  Bi  Bi26  1  0.434507  0.495747  0.673965  1
  Bi  Bi27  1  0.934483  0.004549  0.826197  1
  Bi  Bi28  1  0.434562  0.004517  0.673877  1
  Bi  Bi29  1  0.934389  0.495706  0.826237  1
  Bi  Bi30  1  0.565772  0.504432  0.326029  1
  Bi  Bi31  1  0.065431  0.995702  0.173732  1
