# generated using pymatgen
data_Hf18Ti2Re6RuSe
_symmetry_space_group_name_H-M   'P 1'
_cell_length_a   8.69286500
_cell_length_b   8.69286532
_cell_length_c   8.54541300
_cell_angle_alpha   90.00000000
_cell_angle_beta   90.00000000
_cell_angle_gamma   120.00000260
_symmetry_Int_Tables_number   1
_chemical_formula_structural   Hf18Ti2Re6RuSe
_chemical_formula_sum   'Hf18 Ti2 Re6 Ru1 Se1'
_cell_volume   559.22884400
_cell_formula_units_Z   1
loop_
 _symmetry_equiv_pos_site_id
 _symmetry_equiv_pos_as_xyz
  1  'x, y, z'
loop_
 _atom_site_type_symbol
 _atom_site_label
 _atom_site_symmetry_multiplicity
 _atom_site_fract_x
 _atom_site_fract_y
 _atom_site_fract_z
 _atom_site_occupancy
  Hf  Hf0  1  0.197632  0.802368  0.445085  1
  Hf  Hf1  1  0.197632  0.395263  0.445085  1
  Hf  Hf2  1  0.604737  0.802368  0.445085  1
  Hf  Hf3  1  0.807403  0.192597  0.547900  1
  Hf  Hf4  1  0.807403  0.614807  0.547900  1
  Hf  Hf5  1  0.385193  0.192597  0.547900  1
  Hf  Hf6  1  0.807403  0.192597  0.952100  1
  Hf  Hf7  1  0.807403  0.614807  0.952100  1
  Hf  Hf8  1  0.385193  0.192597  0.952100  1
  Hf  Hf9  1  0.197632  0.802368  0.054915  1
  Hf  Hf10  1  0.197632  0.395263  0.054915  1
  Hf  Hf11  1  0.604737  0.802368  0.054915  1
  Hf  Hf12  1  0.542297  0.457703  0.250000  1
  Hf  Hf13  1  0.542297  0.084596  0.250000  1
  Hf  Hf14  1  0.915404  0.457703  0.250000  1
  Hf  Hf15  1  0.455071  0.544929  0.750000  1
  Hf  Hf16  1  0.455071  0.910140  0.750000  1
  Hf  Hf17  1  0.089860  0.544929  0.750000  1
  Ti  Ti18  1  0.000000  0.000000  0.498695  1
  Ti  Ti19  1  0.000000  0.000000  0.001305  1
  Re  Re20  1  0.886729  0.113271  0.250000  1
  Re  Re21  1  0.886729  0.773457  0.250000  1
  Re  Re22  1  0.226543  0.113271  0.250000  1
  Re  Re23  1  0.112282  0.887718  0.750000  1
  Re  Re24  1  0.112282  0.224564  0.750000  1
  Re  Re25  1  0.775436  0.887718  0.750000  1
  Ru  Ru26  1  0.333333  0.666667  0.250000  1
  Se  Se27  1  0.666667  0.333333  0.750000  1
