# generated using pymatgen
data_NdTh2Ga3PdPt2
_symmetry_space_group_name_H-M   'P 1'
_cell_length_a   7.38874346
_cell_length_b   7.38874344
_cell_length_c   4.09399600
_cell_angle_alpha   90.00000000
_cell_angle_beta   90.00000000
_cell_angle_gamma   120.19877816
_symmetry_Int_Tables_number   1
_chemical_formula_structural   NdTh2Ga3PdPt2
_chemical_formula_sum   'Nd1 Th2 Ga3 Pd1 Pt2'
_cell_volume   193.17273563
_cell_formula_units_Z   1
loop_
 _symmetry_equiv_pos_site_id
 _symmetry_equiv_pos_as_xyz
  1  'x, y, z'
loop_
 _atom_site_type_symbol
 _atom_site_label
 _atom_site_symmetry_multiplicity
 _atom_site_fract_x
 _atom_site_fract_y
 _atom_site_fract_z
 _atom_site_occupancy
  Nd  Nd0  1  0.414507  0.414507  0.500000  1
  Th  Th1  1  0.583243  0.000684  0.500000  1
  Th  Th2  1  0.000684  0.583243  0.500000  1
  Ga  Ga3  1  0.753602  0.753602  0.000000  1
  Ga  Ga4  1  0.241316  0.005982  0.000000  1
  Ga  Ga5  1  0.005982  0.241316  0.000000  1
  Pd  Pd6  1  0.992196  0.992196  0.500000  1
  Pt  Pt7  1  0.677045  0.331426  0.000000  1
  Pt  Pt8  1  0.331426  0.677045  0.000000  1
