# generated using pymatgen
data_HoPu4Pd15
_symmetry_space_group_name_H-M   'P 1'
_cell_length_a   4.15535500
_cell_length_b   4.15535500
_cell_length_c   20.78178000
_cell_angle_alpha   90.00000000
_cell_angle_beta   90.00000000
_cell_angle_gamma   90.00000000
_symmetry_Int_Tables_number   1
_chemical_formula_structural   HoPu4Pd15
_chemical_formula_sum   'Ho1 Pu4 Pd15'
_cell_volume   358.83847937
_cell_formula_units_Z   1
loop_
 _symmetry_equiv_pos_site_id
 _symmetry_equiv_pos_as_xyz
  1  'x, y, z'
loop_
 _atom_site_type_symbol
 _atom_site_label
 _atom_site_symmetry_multiplicity
 _atom_site_fract_x
 _atom_site_fract_y
 _atom_site_fract_z
 _atom_site_occupancy
  Ho  Ho0  1  0.000000  0.000000  0.000000  1
  Pu  Pu1  1  0.000000  0.000000  0.198659  1
  Pu  Pu2  1  0.000000  0.000000  0.399759  1
  Pu  Pu3  1  0.000000  0.000000  0.600241  1
  Pu  Pu4  1  0.000000  0.000000  0.801341  1
  Pd  Pd5  1  0.500000  0.500000  0.000000  1
  Pd  Pd6  1  0.500000  0.500000  0.201072  1
  Pd  Pd7  1  0.500000  0.500000  0.400349  1
  Pd  Pd8  1  0.500000  0.500000  0.599651  1
  Pd  Pd9  1  0.500000  0.500000  0.798928  1
  Pd  Pd10  1  0.500000  0.000000  0.099710  1
  Pd  Pd11  1  0.500000  0.000000  0.301391  1
  Pd  Pd12  1  0.500000  0.000000  0.500000  1
  Pd  Pd13  1  0.500000  0.000000  0.698609  1
  Pd  Pd14  1  0.500000  0.000000  0.900290  1
  Pd  Pd15  1  0.000000  0.500000  0.099710  1
  Pd  Pd16  1  0.000000  0.500000  0.301391  1
  Pd  Pd17  1  0.000000  0.500000  0.500000  1
  Pd  Pd18  1  0.000000  0.500000  0.698609  1
  Pd  Pd19  1  0.000000  0.500000  0.900290  1
