# generated using pymatgen
data_Dy3Tm5CdInNi2
_symmetry_space_group_name_H-M   'P 1'
_cell_length_a   9.50056268
_cell_length_b   9.50669167
_cell_length_c   9.51045197
_cell_angle_alpha   59.94543933
_cell_angle_beta   60.00953339
_cell_angle_gamma   60.09317046
_symmetry_Int_Tables_number   1
_chemical_formula_structural   Dy3Tm5CdInNi2
_chemical_formula_sum   'Dy6 Tm10 Cd2 In2 Ni4'
_cell_volume   607.60510428
_cell_formula_units_Z   2
loop_
 _symmetry_equiv_pos_site_id
 _symmetry_equiv_pos_as_xyz
  1  'x, y, z'
loop_
 _atom_site_type_symbol
 _atom_site_label
 _atom_site_symmetry_multiplicity
 _atom_site_fract_x
 _atom_site_fract_y
 _atom_site_fract_z
 _atom_site_occupancy
  Dy  Dy0  1  0.347276  0.348103  0.348559  1
  Dy  Dy1  1  0.348014  0.347297  0.956109  1
  Dy  Dy2  1  0.350938  0.951346  0.348281  1
  Dy  Dy3  1  0.951371  0.350933  0.349449  1
  Dy  Dy4  1  0.812914  0.188377  0.186994  1
  Dy  Dy5  1  0.188369  0.812897  0.811712  1
  Tm  Tm6  1  0.189939  0.810876  0.188318  1
  Tm  Tm7  1  0.810900  0.189949  0.810812  1
  Tm  Tm8  1  0.188284  0.188288  0.811716  1
  Tm  Tm9  1  0.810223  0.810249  0.189744  1
  Tm  Tm10  1  0.937225  0.565067  0.564633  1
  Tm  Tm11  1  0.565042  0.937233  0.933075  1
  Tm  Tm12  1  0.564908  0.937704  0.563740  1
  Tm  Tm13  1  0.937676  0.564935  0.933642  1
  Tm  Tm14  1  0.565270  0.565257  0.934727  1
  Tm  Tm15  1  0.937654  0.937651  0.562321  1
  Cd  Cd16  1  0.580386  0.252523  0.583699  1
  Cd  Cd17  1  0.252519  0.580389  0.583388  1
  In  In18  1  0.582175  0.582001  0.583937  1
  In  In19  1  0.582031  0.582138  0.251912  1
  Ni  Ni20  1  0.142286  0.140278  0.143525  1
  Ni  Ni21  1  0.140420  0.142313  0.573884  1
  Ni  Ni22  1  0.139168  0.574957  0.143799  1
  Ni  Ni23  1  0.575013  0.139242  0.142025  1
