# generated using pymatgen
data_Th3Al2ZnCoCu2
_symmetry_space_group_name_H-M   'P 1'
_cell_length_a   7.10701208
_cell_length_b   7.08200502
_cell_length_c   4.11604700
_cell_angle_alpha   90.00000000
_cell_angle_beta   90.00000000
_cell_angle_gamma   120.13397118
_symmetry_Int_Tables_number   1
_chemical_formula_structural   Th3Al2ZnCoCu2
_chemical_formula_sum   'Th3 Al2 Zn1 Co1 Cu2'
_cell_volume   179.17044269
_cell_formula_units_Z   1
loop_
 _symmetry_equiv_pos_site_id
 _symmetry_equiv_pos_as_xyz
  1  'x, y, z'
loop_
 _atom_site_type_symbol
 _atom_site_label
 _atom_site_symmetry_multiplicity
 _atom_site_fract_x
 _atom_site_fract_y
 _atom_site_fract_z
 _atom_site_occupancy
  Th  Th0  1  0.576414  0.012873  0.000000  1
  Th  Th1  1  0.992610  0.572419  0.000000  1
  Th  Th2  1  0.430632  0.415439  0.000000  1
  Al  Al3  1  0.994855  0.230618  0.500000  1
  Al  Al4  1  0.766411  0.765346  0.500000  1
  Zn  Zn5  1  0.233478  0.000859  0.500000  1
  Co  Co6  1  0.680805  0.344113  0.500000  1
  Cu  Cu7  1  0.335300  0.658449  0.500000  1
  Cu  Cu8  1  0.989496  0.999884  0.000000  1
