# generated using pymatgen
data_Nd3Al3Ga2Pd
_symmetry_space_group_name_H-M   'P 1'
_cell_length_a   7.17348600
_cell_length_b   7.17348591
_cell_length_c   4.42392000
_cell_angle_alpha   90.00000000
_cell_angle_beta   90.00000000
_cell_angle_gamma   120.00000044
_symmetry_Int_Tables_number   1
_chemical_formula_structural   Nd3Al3Ga2Pd
_chemical_formula_sum   'Nd3 Al3 Ga2 Pd1'
_cell_volume   197.15073429
_cell_formula_units_Z   1
loop_
 _symmetry_equiv_pos_site_id
 _symmetry_equiv_pos_as_xyz
  1  'x, y, z'
loop_
 _atom_site_type_symbol
 _atom_site_label
 _atom_site_symmetry_multiplicity
 _atom_site_fract_x
 _atom_site_fract_y
 _atom_site_fract_z
 _atom_site_occupancy
  Nd  Nd0  1  0.583255  0.000000  0.000000  1
  Nd  Nd1  1  0.000000  0.583255  0.000000  1
  Nd  Nd2  1  0.416745  0.416745  0.000000  1
  Al  Al3  1  0.230456  0.000000  0.500000  1
  Al  Al4  1  0.000000  0.230456  0.500000  1
  Al  Al5  1  0.769544  0.769544  0.500000  1
  Ga  Ga6  1  0.333333  0.666667  0.500000  1
  Ga  Ga7  1  0.666667  0.333333  0.500000  1
  Pd  Pd8  1  0.000000  0.000000  0.000000  1
