# generated using pymatgen
data_ErLu(WF7)2
_symmetry_space_group_name_H-M   'P 1'
_cell_length_a   5.56085200
_cell_length_b   8.85453622
_cell_length_c   12.00358800
_cell_angle_alpha   62.79736012
_cell_angle_beta   90.00000000
_cell_angle_gamma   90.00000000
_symmetry_Int_Tables_number   1
_chemical_formula_structural   ErLu(WF7)2
_chemical_formula_sum   'Er2 Lu2 W4 F28'
_cell_volume   525.66985394
_cell_formula_units_Z   2
loop_
 _symmetry_equiv_pos_site_id
 _symmetry_equiv_pos_as_xyz
  1  'x, y, z'
loop_
 _atom_site_type_symbol
 _atom_site_label
 _atom_site_symmetry_multiplicity
 _atom_site_fract_x
 _atom_site_fract_y
 _atom_site_fract_z
 _atom_site_occupancy
  Er  Er0  1  0.243533  0.186400  0.234718  1
  Er  Er1  1  0.743533  0.813600  0.265282  1
  Lu  Lu2  1  0.755657  0.816223  0.765461  1
  Lu  Lu3  1  0.255657  0.183777  0.734539  1
  W  W4  1  0.756617  0.274021  0.954826  1
  W  W5  1  0.256617  0.725979  0.545174  1
  W  W6  1  0.243927  0.728494  0.040773  1
  W  W7  1  0.743927  0.271506  0.459227  1
  F  F8  1  0.454143  0.704874  0.914542  1
  F  F9  1  0.954143  0.295126  0.585458  1
  F  F10  1  0.542452  0.295656  0.084951  1
  F  F11  1  0.042452  0.704344  0.415049  1
  F  F12  1  0.434148  0.271304  0.551934  1
  F  F13  1  0.934148  0.728696  0.948066  1
  F  F14  1  0.559461  0.724046  0.454201  1
  F  F15  1  0.059461  0.275954  0.045799  1
  F  F16  1  0.776497  0.526140  0.856622  1
  F  F17  1  0.276497  0.473860  0.643378  1
  F  F18  1  0.223968  0.476893  0.141542  1
  F  F19  1  0.723968  0.523107  0.358458  1
  F  F20  1  0.760009  0.022508  0.052896  1
  F  F21  1  0.260009  0.977492  0.447104  1
  F  F22  1  0.242380  0.980541  0.943005  1
  F  F23  1  0.742380  0.019459  0.556995  1
  F  F24  1  0.967331  0.730299  0.643012  1
  F  F25  1  0.467331  0.269701  0.856988  1
  F  F26  1  0.038695  0.272931  0.358258  1
  F  F27  1  0.538695  0.727069  0.141742  1
  F  F28  1  0.043060  0.749393  0.172262  1
  F  F29  1  0.543060  0.250607  0.327738  1
  F  F30  1  0.964346  0.251697  0.821945  1
  F  F31  1  0.464346  0.748303  0.678055  1
  F  F32  1  0.420134  0.969042  0.233589  1
  F  F33  1  0.920134  0.030958  0.266411  1
  F  F34  1  0.573641  0.026436  0.767338  1
  F  F35  1  0.073641  0.973564  0.732662  1
