# generated using pymatgen
data_Eu2GaRu2
_symmetry_space_group_name_H-M   'P 1'
_cell_length_a   4.35194006
_cell_length_b   5.37286798
_cell_length_c   5.86394970
_cell_angle_alpha   117.26630541
_cell_angle_beta   111.78199188
_cell_angle_gamma   89.99999758
_symmetry_Int_Tables_number   1
_chemical_formula_structural   Eu2GaRu2
_chemical_formula_sum   'Eu2 Ga1 Ru2'
_cell_volume   110.74999934
_cell_formula_units_Z   1
loop_
 _symmetry_equiv_pos_site_id
 _symmetry_equiv_pos_as_xyz
  1  'x, y, z'
loop_
 _atom_site_type_symbol
 _atom_site_label
 _atom_site_symmetry_multiplicity
 _atom_site_fract_x
 _atom_site_fract_y
 _atom_site_fract_z
 _atom_site_occupancy
  Eu  Eu0  1  0.801762  0.301762  0.603526  1
  Eu  Eu1  1  0.198238  0.698238  0.396474  1
  Ga  Ga2  1  0.000000  0.000000  0.000000  1
  Ru  Ru3  1  0.500000  0.268351  0.000000  1
  Ru  Ru4  1  0.500000  0.731649  0.000000  1
