# generated using pymatgen
data_Tb2Ho3Er11Cd3InNi4
_symmetry_space_group_name_H-M   'P 1'
_cell_length_a   9.49513881
_cell_length_b   9.48820767
_cell_length_c   9.48962000
_cell_angle_alpha   59.98866740
_cell_angle_beta   60.00932518
_cell_angle_gamma   60.09327671
_symmetry_Int_Tables_number   1
_chemical_formula_structural   Tb2Ho3Er11Cd3InNi4
_chemical_formula_sum   'Tb2 Ho3 Er11 Cd3 In1 Ni4'
_cell_volume   604.94781646
_cell_formula_units_Z   1
loop_
 _symmetry_equiv_pos_site_id
 _symmetry_equiv_pos_as_xyz
  1  'x, y, z'
loop_
 _atom_site_type_symbol
 _atom_site_label
 _atom_site_symmetry_multiplicity
 _atom_site_fract_x
 _atom_site_fract_y
 _atom_site_fract_z
 _atom_site_occupancy
  Tb  Tb0  1  0.345273  0.345790  0.346455  1
  Tb  Tb1  1  0.350752  0.350973  0.949250  1
  Ho  Ho2  1  0.352225  0.948854  0.352182  1
  Ho  Ho3  1  0.949088  0.352393  0.351997  1
  Ho  Ho4  1  0.812729  0.189077  0.188295  1
  Er  Er5  1  0.189495  0.811932  0.811412  1
  Er  Er6  1  0.189595  0.811800  0.188459  1
  Er  Er7  1  0.811710  0.189621  0.811319  1
  Er  Er8  1  0.188551  0.188217  0.812558  1
  Er  Er9  1  0.811541  0.811639  0.189146  1
  Er  Er10  1  0.936232  0.566520  0.566026  1
  Er  Er11  1  0.563189  0.937265  0.937509  1
  Er  Er12  1  0.566158  0.936529  0.566012  1
  Er  Er13  1  0.937291  0.563628  0.937369  1
  Er  Er14  1  0.566058  0.566272  0.935950  1
  Er  Er15  1  0.937729  0.937371  0.563389  1
  Cd  Cd16  1  0.580238  0.580027  0.254031  1
  Cd  Cd17  1  0.580490  0.254099  0.579752  1
  Cd  Cd18  1  0.253881  0.580351  0.579667  1
  In  In19  1  0.582502  0.582522  0.580796  1
  Ni  Ni20  1  0.143506  0.142132  0.145125  1
  Ni  Ni21  1  0.138437  0.138954  0.574072  1
  Ni  Ni22  1  0.138405  0.575294  0.139440  1
  Ni  Ni23  1  0.574928  0.138745  0.139792  1
