# generated using pymatgen
data_Er3Lu5Ta4(TiSi2)8
_symmetry_space_group_name_H-M   'P 1'
_cell_length_a   6.99244056
_cell_length_b   6.99375029
_cell_length_c   12.85945301
_cell_angle_alpha   89.99606210
_cell_angle_beta   90.02006970
_cell_angle_gamma   89.96096414
_symmetry_Int_Tables_number   1
_chemical_formula_structural   Er3Lu5Ta4(TiSi2)8
_chemical_formula_sum   'Er3 Lu5 Ta4 Ti8 Si16'
_cell_volume   628.87057308
_cell_formula_units_Z   1
loop_
 _symmetry_equiv_pos_site_id
 _symmetry_equiv_pos_as_xyz
  1  'x, y, z'
loop_
 _atom_site_type_symbol
 _atom_site_label
 _atom_site_symmetry_multiplicity
 _atom_site_fract_x
 _atom_site_fract_y
 _atom_site_fract_z
 _atom_site_occupancy
  Er  Er0  1  0.658927  0.997695  0.966964  1
  Er  Er1  1  0.002428  0.340939  0.532864  1
  Er  Er2  1  0.997659  0.658916  0.033088  1
  Lu  Lu3  1  0.341535  0.001281  0.466915  1
  Lu  Lu4  1  0.498759  0.841243  0.716923  1
  Lu  Lu5  1  0.501059  0.158839  0.217294  1
  Lu  Lu6  1  0.841175  0.498728  0.283120  1
  Lu  Lu7  1  0.158933  0.501134  0.782745  1
  Ta  Ta8  1  0.326737  0.326708  0.999975  1
  Ta  Ta9  1  0.173337  0.826958  0.250302  1
  Ta  Ta10  1  0.826752  0.173123  0.749779  1
  Ta  Ta11  1  0.672995  0.673514  0.499948  1
  Ti  Ti12  1  0.152534  0.007847  0.874772  1
  Ti  Ti13  1  0.491628  0.651558  0.125222  1
  Ti  Ti14  1  0.507991  0.348489  0.624727  1
  Ti  Ti15  1  0.651429  0.491626  0.874864  1
  Ti  Ti16  1  0.348604  0.508507  0.375111  1
  Ti  Ti17  1  0.847964  0.992288  0.375090  1
  Ti  Ti18  1  0.007975  0.152415  0.125300  1
  Ti  Ti19  1  0.992065  0.847954  0.624776  1
  Si  Si20  1  0.203907  0.131254  0.683249  1
  Si  Si21  1  0.367982  0.702796  0.932570  1
  Si  Si22  1  0.631292  0.296376  0.432508  1
  Si  Si23  1  0.702799  0.367943  0.067456  1
  Si  Si24  1  0.297409  0.633000  0.567212  1
  Si  Si25  1  0.796258  0.868863  0.183846  1
  Si  Si26  1  0.132148  0.203092  0.317109  1
  Si  Si27  1  0.868776  0.796326  0.816211  1
  Si  Si28  1  0.293290  0.953844  0.064498  1
  Si  Si29  1  0.546362  0.794026  0.314240  1
  Si  Si30  1  0.453271  0.206528  0.813687  1
  Si  Si31  1  0.793440  0.546684  0.686030  1
  Si  Si32  1  0.206547  0.453018  0.186349  1
  Si  Si33  1  0.705564  0.046043  0.564153  1
  Si  Si34  1  0.953855  0.293263  0.935500  1
  Si  Si35  1  0.046618  0.707184  0.435602  1
