# generated using pymatgen
data_NaZr(Si7Rh3)2
_symmetry_space_group_name_H-M   'P 1'
_cell_length_a   7.93601283
_cell_length_b   7.93601221
_cell_length_c   7.93601279
_cell_angle_alpha   57.23930660
_cell_angle_beta   57.23929866
_cell_angle_gamma   57.23930132
_symmetry_Int_Tables_number   1
_chemical_formula_structural   NaZr(Si7Rh3)2
_chemical_formula_sum   'Na1 Zr1 Si14 Rh6'
_cell_volume   330.95053593
_cell_formula_units_Z   1
loop_
 _symmetry_equiv_pos_site_id
 _symmetry_equiv_pos_as_xyz
  1  'x, y, z'
loop_
 _atom_site_type_symbol
 _atom_site_label
 _atom_site_symmetry_multiplicity
 _atom_site_fract_x
 _atom_site_fract_y
 _atom_site_fract_z
 _atom_site_occupancy
  Na  Na0  1  0.000000  0.000000  0.000000  1
  Zr  Zr1  1  0.500000  0.500000  0.500000  1
  Si  Si2  1  0.749675  0.749675  0.749675  1
  Si  Si3  1  0.250325  0.250325  0.250325  1
  Si  Si4  1  0.852677  0.066528  0.674076  1
  Si  Si5  1  0.674076  0.852677  0.066528  1
  Si  Si6  1  0.066528  0.674076  0.852677  1
  Si  Si7  1  0.649889  0.827835  0.433144  1
  Si  Si8  1  0.433144  0.649889  0.827835  1
  Si  Si9  1  0.827835  0.433144  0.649889  1
  Si  Si10  1  0.172165  0.566856  0.350111  1
  Si  Si11  1  0.566856  0.350111  0.172165  1
  Si  Si12  1  0.350111  0.172165  0.566856  1
  Si  Si13  1  0.933472  0.325924  0.147323  1
  Si  Si14  1  0.325924  0.147323  0.933472  1
  Si  Si15  1  0.147323  0.933472  0.325924  1
  Rh  Rh16  1  0.075630  0.433686  0.745210  1
  Rh  Rh17  1  0.254790  0.924370  0.566314  1
  Rh  Rh18  1  0.566314  0.254790  0.924370  1
  Rh  Rh19  1  0.924370  0.566314  0.254790  1
  Rh  Rh20  1  0.433686  0.745210  0.075630  1
  Rh  Rh21  1  0.745210  0.075630  0.433686  1
