# generated using pymatgen
data_Zr6C3O2
_symmetry_space_group_name_H-M   'P 1'
_cell_length_a   5.72605639
_cell_length_b   5.72605819
_cell_length_c   5.74864149
_cell_angle_alpha   99.61454825
_cell_angle_beta   99.61454677
_cell_angle_gamma   119.79123247
_symmetry_Int_Tables_number   1
_chemical_formula_structural   Zr6C3O2
_chemical_formula_sum   'Zr6 C3 O2'
_cell_volume   154.23997969
_cell_formula_units_Z   1
loop_
 _symmetry_equiv_pos_site_id
 _symmetry_equiv_pos_as_xyz
  1  'x, y, z'
loop_
 _atom_site_type_symbol
 _atom_site_label
 _atom_site_symmetry_multiplicity
 _atom_site_fract_x
 _atom_site_fract_y
 _atom_site_fract_z
 _atom_site_occupancy
  Zr  Zr0  1  0.428607  0.087363  0.261666  1
  Zr  Zr1  1  0.087363  0.428607  0.261666  1
  Zr  Zr2  1  0.747440  0.747440  0.268646  1
  Zr  Zr3  1  0.252560  0.252560  0.731354  1
  Zr  Zr4  1  0.912638  0.571394  0.738334  1
  Zr  Zr5  1  0.571394  0.912638  0.738334  1
  C  C6  1  0.832877  0.167122  0.500000  1
  C  C7  1  0.500000  0.500000  0.500000  1
  C  C8  1  0.167122  0.832877  0.500000  1
  O  O9  1  0.665237  0.334762  0.000000  1
  O  O10  1  0.334762  0.665237  0.000000  1
