# generated using pymatgen
data_PrSm11Fe2I17
_symmetry_space_group_name_H-M   'P 1'
_cell_length_a   9.95678829
_cell_length_b   11.96106225
_cell_length_c   11.95845657
_cell_angle_alpha   93.66490200
_cell_angle_beta   104.92473282
_cell_angle_gamma   114.23576771
_symmetry_Int_Tables_number   1
_chemical_formula_structural   PrSm11Fe2I17
_chemical_formula_sum   'Pr1 Sm11 Fe2 I17'
_cell_volume   1231.36806167
_cell_formula_units_Z   1
loop_
 _symmetry_equiv_pos_site_id
 _symmetry_equiv_pos_as_xyz
  1  'x, y, z'
loop_
 _atom_site_type_symbol
 _atom_site_label
 _atom_site_symmetry_multiplicity
 _atom_site_fract_x
 _atom_site_fract_y
 _atom_site_fract_z
 _atom_site_occupancy
  Pr  Pr0  1  0.856794  0.713192  0.846752  1
  Sm  Sm1  1  0.052290  0.502765  0.320284  1
  Sm  Sm2  1  0.986670  0.808037  0.583021  1
  Sm  Sm3  1  0.653622  0.241436  0.281979  1
  Sm  Sm4  1  0.011897  0.194535  0.411695  1
  Sm  Sm5  1  0.221844  0.671862  0.987806  1
  Sm  Sm6  1  0.255796  0.982637  0.890263  1
  Sm  Sm7  1  0.337900  0.757857  0.720585  1
  Sm  Sm8  1  0.944717  0.491571  0.678490  1
  Sm  Sm9  1  0.747592  0.022736  0.111343  1
  Sm  Sm10  1  0.145834  0.287357  0.152586  1
  Sm  Sm11  1  0.781017  0.326737  0.017203  1
  Fe  Fe12  1  0.101373  0.737622  0.785821  1
  Fe  Fe13  1  0.897659  0.262356  0.214402  1
  I  I14  1  0.784658  0.527040  0.418692  1
  I  I15  1  0.647310  0.415147  0.761071  1
  I  I16  1  0.846949  0.899808  0.325947  1
  I  I17  1  0.328059  0.215434  0.368193  1
  I  I18  1  0.156492  0.100753  0.672675  1
  I  I19  1  0.582326  0.050106  0.844616  1
  I  I20  1  0.761990  0.188673  0.537705  1
  I  I21  1  0.546139  0.713127  0.953914  1
  I  I22  1  0.353997  0.580330  0.238841  1
  I  I23  1  0.214857  0.473570  0.583912  1
  I  I24  1  0.057789  0.370599  0.898238  1
  I  I25  1  0.451381  0.287901  0.045769  1
  I  I26  1  0.001095  0.001780  0.999409  1
  I  I27  1  0.237703  0.809436  0.463590  1
  I  I28  1  0.414660  0.948224  0.154773  1
  I  I29  1  0.673247  0.787251  0.627072  1
  I  I30  1  0.946342  0.630122  0.103356  1
