# generated using pymatgen
data_Nd3YTh6(Si3C)2
_symmetry_space_group_name_H-M   'P 1'
_cell_length_a   8.84987400
_cell_length_b   8.84984934
_cell_length_c   6.44267600
_cell_angle_alpha   89.99959831
_cell_angle_beta   90.00036718
_cell_angle_gamma   119.99791967
_symmetry_Int_Tables_number   1
_chemical_formula_structural   Nd3YTh6(Si3C)2
_chemical_formula_sum   'Nd3 Y1 Th6 Si6 C2'
_cell_volume   436.99753929
_cell_formula_units_Z   1
loop_
 _symmetry_equiv_pos_site_id
 _symmetry_equiv_pos_as_xyz
  1  'x, y, z'
loop_
 _atom_site_type_symbol
 _atom_site_label
 _atom_site_symmetry_multiplicity
 _atom_site_fract_x
 _atom_site_fract_y
 _atom_site_fract_z
 _atom_site_occupancy
  Nd  Nd0  1  0.666636  0.333347  0.499999  1
  Nd  Nd1  1  0.333361  0.666645  0.499999  1
  Nd  Nd2  1  0.333351  0.666640  0.999998  1
  Y  Y3  1  0.666642  0.333358  0.999997  1
  Th  Th4  1  0.768983  0.768789  0.249394  1
  Th  Th5  1  0.231187  0.000166  0.249374  1
  Th  Th6  1  0.999761  0.230985  0.249387  1
  Th  Th7  1  0.231215  0.231008  0.750604  1
  Th  Th8  1  0.769015  0.000235  0.750631  1
  Th  Th9  1  0.999841  0.768813  0.750613  1
  Si  Si10  1  0.400619  0.397040  0.245665  1
  Si  Si11  1  0.602892  0.003578  0.245661  1
  Si  Si12  1  0.996403  0.599304  0.245664  1
  Si  Si13  1  0.602963  0.599382  0.754333  1
  Si  Si14  1  0.400700  0.003598  0.754336  1
  Si  Si15  1  0.996423  0.397111  0.754335  1
  C  C16  1  0.000004  0.000001  0.500004  1
  C  C17  1  0.000002  0.000001  0.000004  1
