# generated using pymatgen
data_Pr3NdGa4IrPd3
_symmetry_space_group_name_H-M   'P 1'
_cell_length_a   4.55544400
_cell_length_b   7.18408987
_cell_length_c   7.84799413
_cell_angle_alpha   90.27649939
_cell_angle_beta   90.00000000
_cell_angle_gamma   90.00000000
_symmetry_Int_Tables_number   1
_chemical_formula_structural   Pr3NdGa4IrPd3
_chemical_formula_sum   'Pr3 Nd1 Ga4 Ir1 Pd3'
_cell_volume   256.83610873
_cell_formula_units_Z   1
loop_
 _symmetry_equiv_pos_site_id
 _symmetry_equiv_pos_as_xyz
  1  'x, y, z'
loop_
 _atom_site_type_symbol
 _atom_site_label
 _atom_site_symmetry_multiplicity
 _atom_site_fract_x
 _atom_site_fract_y
 _atom_site_fract_z
 _atom_site_occupancy
  Pr  Pr0  1  0.250000  0.030064  0.690884  1
  Pr  Pr1  1  0.250000  0.526273  0.806388  1
  Pr  Pr2  1  0.750000  0.981920  0.305784  1
  Nd  Nd3  1  0.750000  0.471933  0.199086  1
  Ga  Ga4  1  0.250000  0.171975  0.076244  1
  Ga  Ga5  1  0.250000  0.659762  0.426125  1
  Ga  Ga6  1  0.750000  0.832365  0.927744  1
  Ga  Ga7  1  0.750000  0.330835  0.571027  1
  Ir  Ir8  1  0.250000  0.280746  0.396654  1
  Pd  Pd9  1  0.250000  0.784431  0.101253  1
  Pd  Pd10  1  0.750000  0.714697  0.599910  1
  Pd  Pd11  1  0.750000  0.214999  0.898904  1
