# generated using pymatgen
data_Tm4Tc2MoO12
_symmetry_space_group_name_H-M   'P 1'
_cell_length_a   6.71809491
_cell_length_b   6.71809583
_cell_length_c   7.22431190
_cell_angle_alpha   73.92400397
_cell_angle_beta   73.92400212
_cell_angle_gamma   49.41797079
_symmetry_Int_Tables_number   1
_chemical_formula_structural   Tm4Tc2MoO12
_chemical_formula_sum   'Tm4 Tc2 Mo1 O12'
_cell_volume   235.84482603
_cell_formula_units_Z   1
loop_
 _symmetry_equiv_pos_site_id
 _symmetry_equiv_pos_as_xyz
  1  'x, y, z'
loop_
 _atom_site_type_symbol
 _atom_site_label
 _atom_site_symmetry_multiplicity
 _atom_site_fract_x
 _atom_site_fract_y
 _atom_site_fract_z
 _atom_site_occupancy
  Tm  Tm0  1  0.802896  0.802896  0.355706  1
  Tm  Tm1  1  0.197104  0.197104  0.644294  1
  Tm  Tm2  1  0.183581  0.183581  0.173610  1
  Tm  Tm3  1  0.816419  0.816419  0.826390  1
  Tc  Tc4  1  0.284921  0.715079  0.000000  1
  Tc  Tc5  1  0.715079  0.284921  0.000000  1
  Mo  Mo6  1  0.500000  0.500000  0.500000  1
  O  O7  1  0.414527  0.923083  0.910662  1
  O  O8  1  0.076917  0.585473  0.089338  1
  O  O9  1  0.585473  0.076917  0.089338  1
  O  O10  1  0.923083  0.414527  0.910662  1
  O  O11  1  0.597668  0.108485  0.566668  1
  O  O12  1  0.891515  0.402332  0.433332  1
  O  O13  1  0.402332  0.891515  0.433332  1
  O  O14  1  0.001831  0.001831  0.815672  1
  O  O15  1  0.998169  0.998169  0.184328  1
  O  O16  1  0.497392  0.497392  0.781595  1
  O  O17  1  0.502608  0.502608  0.218405  1
  O  O18  1  0.108485  0.597668  0.566668  1
