# generated using pymatgen
data_DyScB6Mo
_symmetry_space_group_name_H-M   'P 1'
_cell_length_a   3.52256700
_cell_length_b   9.16438500
_cell_length_c   11.55125500
_cell_angle_alpha   90.00000000
_cell_angle_beta   90.00000000
_cell_angle_gamma   90.00000000
_symmetry_Int_Tables_number   1
_chemical_formula_structural   DyScB6Mo
_chemical_formula_sum   'Dy4 Sc4 B24 Mo4'
_cell_volume   372.89946415
_cell_formula_units_Z   4
loop_
 _symmetry_equiv_pos_site_id
 _symmetry_equiv_pos_as_xyz
  1  'x, y, z'
loop_
 _atom_site_type_symbol
 _atom_site_label
 _atom_site_symmetry_multiplicity
 _atom_site_fract_x
 _atom_site_fract_y
 _atom_site_fract_z
 _atom_site_occupancy
  Dy  Dy0  1  0.500000  0.320760  0.414217  1
  Dy  Dy1  1  0.500000  0.679240  0.585783  1
  Dy  Dy2  1  0.500000  0.179240  0.914217  1
  Dy  Dy3  1  0.500000  0.820760  0.085783  1
  Sc  Sc4  1  0.500000  0.445113  0.128113  1
  Sc  Sc5  1  0.500000  0.554887  0.871887  1
  Sc  Sc6  1  0.500000  0.054887  0.628113  1
  Sc  Sc7  1  0.500000  0.945113  0.371887  1
  B  B8  1  0.000000  0.095214  0.473859  1
  B  B9  1  0.000000  0.904786  0.526141  1
  B  B10  1  0.000000  0.404786  0.973859  1
  B  B11  1  0.000000  0.595214  0.026141  1
  B  B12  1  0.000000  0.129312  0.319490  1
  B  B13  1  0.000000  0.870688  0.680510  1
  B  B14  1  0.000000  0.370688  0.819490  1
  B  B15  1  0.000000  0.629312  0.180510  1
  B  B16  1  0.000000  0.052601  0.065849  1
  B  B17  1  0.000000  0.947399  0.934151  1
  B  B18  1  0.000000  0.447399  0.565849  1
  B  B19  1  0.000000  0.552601  0.434151  1
  B  B20  1  0.000000  0.479112  0.285125  1
  B  B21  1  0.000000  0.520888  0.714875  1
  B  B22  1  0.000000  0.020888  0.785125  1
  B  B23  1  0.000000  0.979112  0.214875  1
  B  B24  1  0.000000  0.256880  0.079347  1
  B  B25  1  0.000000  0.743120  0.920653  1
  B  B26  1  0.000000  0.243120  0.579347  1
  B  B27  1  0.000000  0.756880  0.420653  1
  B  B28  1  0.000000  0.298026  0.235906  1
  B  B29  1  0.000000  0.701974  0.764094  1
  B  B30  1  0.000000  0.201974  0.735906  1
  B  B31  1  0.000000  0.798026  0.264094  1
  Mo  Mo32  1  0.500000  0.141901  0.181565  1
  Mo  Mo33  1  0.500000  0.858099  0.818435  1
  Mo  Mo34  1  0.500000  0.358099  0.681565  1
  Mo  Mo35  1  0.500000  0.641901  0.318435  1
