# generated using pymatgen
data_La7DySc12Si15Pt
_symmetry_space_group_name_H-M   'P 1'
_cell_length_a   7.29224328
_cell_length_b   7.64322299
_cell_length_c   14.27149447
_cell_angle_alpha   89.79652460
_cell_angle_beta   90.09342863
_cell_angle_gamma   90.15980489
_symmetry_Int_Tables_number   1
_chemical_formula_structural   La7DySc12Si15Pt
_chemical_formula_sum   'La7 Dy1 Sc12 Si15 Pt1'
_cell_volume   795.43030699
_cell_formula_units_Z   1
loop_
 _symmetry_equiv_pos_site_id
 _symmetry_equiv_pos_as_xyz
  1  'x, y, z'
loop_
 _atom_site_type_symbol
 _atom_site_label
 _atom_site_symmetry_multiplicity
 _atom_site_fract_x
 _atom_site_fract_y
 _atom_site_fract_z
 _atom_site_occupancy
  La  La0  1  0.012280  0.175844  0.097561  1
  La  La1  1  0.991167  0.826603  0.902447  1
  La  La2  1  0.487819  0.671483  0.904202  1
  La  La3  1  0.991511  0.825707  0.595847  1
  La  La4  1  0.511657  0.327561  0.096857  1
  La  La5  1  0.014240  0.174768  0.404260  1
  La  La6  1  0.511987  0.325808  0.405297  1
  Dy  Dy7  1  0.487416  0.677884  0.599121  1
  Sc  Sc8  1  0.156028  0.497726  0.748656  1
  Sc  Sc9  1  0.841035  0.503490  0.250317  1
  Sc  Sc10  1  0.340882  0.997366  0.250845  1
  Sc  Sc11  1  0.662445  0.004288  0.748235  1
  Sc  Sc12  1  0.323379  0.174140  0.626104  1
  Sc  Sc13  1  0.672884  0.825045  0.375115  1
  Sc  Sc14  1  0.174269  0.674428  0.375118  1
  Sc  Sc15  1  0.672214  0.828679  0.126581  1
  Sc  Sc16  1  0.827722  0.323777  0.625791  1
  Sc  Sc17  1  0.323526  0.172740  0.871347  1
  Sc  Sc18  1  0.827544  0.324076  0.871808  1
  Sc  Sc19  1  0.171629  0.675871  0.125645  1
  Si  Si20  1  0.970017  0.871804  0.250794  1
  Si  Si21  1  0.469556  0.626188  0.250649  1
  Si  Si22  1  0.528720  0.382068  0.747237  1
  Si  Si23  1  0.292124  0.878324  0.747771  1
  Si  Si24  1  0.709918  0.116488  0.250908  1
  Si  Si25  1  0.210556  0.384420  0.250701  1
  Si  Si26  1  0.779040  0.617020  0.746846  1
  Si  Si27  1  0.157885  0.467797  0.541235  1
  Si  Si28  1  0.849976  0.537107  0.461943  1
  Si  Si29  1  0.353174  0.957211  0.462892  1
  Si  Si30  1  0.850286  0.538755  0.038810  1
  Si  Si31  1  0.649042  0.030001  0.541574  1
  Si  Si32  1  0.149520  0.463889  0.959685  1
  Si  Si33  1  0.650029  0.037014  0.959709  1
  Si  Si34  1  0.351623  0.964043  0.039290  1
  Pt  Pt35  1  0.026901  0.120583  0.748805  1
