# generated using pymatgen
data_Hf4MnCu2Si4Ir
_symmetry_space_group_name_H-M   'P 1'
_cell_length_a   3.84915400
_cell_length_b   6.48809260
_cell_length_c   7.43241734
_cell_angle_alpha   89.79420097
_cell_angle_beta   90.00000000
_cell_angle_gamma   90.00000000
_symmetry_Int_Tables_number   1
_chemical_formula_structural   Hf4MnCu2Si4Ir
_chemical_formula_sum   'Hf4 Mn1 Cu2 Si4 Ir1'
_cell_volume   185.61352258
_cell_formula_units_Z   1
loop_
 _symmetry_equiv_pos_site_id
 _symmetry_equiv_pos_as_xyz
  1  'x, y, z'
loop_
 _atom_site_type_symbol
 _atom_site_label
 _atom_site_symmetry_multiplicity
 _atom_site_fract_x
 _atom_site_fract_y
 _atom_site_fract_z
 _atom_site_occupancy
  Hf  Hf0  1  0.250000  0.520884  0.679021  1
  Hf  Hf1  1  0.750000  0.474190  0.321089  1
  Hf  Hf2  1  0.250000  0.015543  0.818720  1
  Hf  Hf3  1  0.750000  0.987084  0.183539  1
  Mn  Mn4  1  0.250000  0.147113  0.435392  1
  Cu  Cu5  1  0.750000  0.348039  0.932783  1
  Cu  Cu6  1  0.250000  0.653466  0.065933  1
  Si  Si7  1  0.250000  0.271763  0.118901  1
  Si  Si8  1  0.750000  0.727318  0.883816  1
  Si  Si9  1  0.250000  0.770083  0.379384  1
  Si  Si10  1  0.750000  0.228665  0.618568  1
  Ir  Ir11  1  0.750000  0.855852  0.562853  1
