# generated using pymatgen
data_CaLa5DyOsBr12
_symmetry_space_group_name_H-M   'P 1'
_cell_length_a   9.71565745
_cell_length_b   9.49799014
_cell_length_c   9.76962474
_cell_angle_alpha   107.67862095
_cell_angle_beta   107.70505107
_cell_angle_gamma   106.02137945
_symmetry_Int_Tables_number   1
_chemical_formula_structural   CaLa5DyOsBr12
_chemical_formula_sum   'Ca1 La5 Dy1 Os1 Br12'
_cell_volume   747.86010093
_cell_formula_units_Z   1
loop_
 _symmetry_equiv_pos_site_id
 _symmetry_equiv_pos_as_xyz
  1  'x, y, z'
loop_
 _atom_site_type_symbol
 _atom_site_label
 _atom_site_symmetry_multiplicity
 _atom_site_fract_x
 _atom_site_fract_y
 _atom_site_fract_z
 _atom_site_occupancy
  Ca  Ca0  1  0.501310  0.498583  0.496961  1
  La  La1  1  0.022985  0.301901  0.101974  1
  La  La2  1  0.115241  0.029880  0.327363  1
  La  La3  1  0.892926  0.972555  0.676314  1
  La  La4  1  0.973882  0.698413  0.899036  1
  La  La5  1  0.671902  0.889921  0.968953  1
  Dy  Dy6  1  0.312239  0.107169  0.031632  1
  Os  Os7  1  0.999268  0.001009  0.002136  1
  Br  Br8  1  0.672405  0.219493  0.068929  1
  Br  Br9  1  0.383183  0.447103  0.163772  1
  Br  Br10  1  0.069609  0.681751  0.220891  1
  Br  Br11  1  0.783233  0.930633  0.314820  1
  Br  Br12  1  0.460927  0.163162  0.368630  1
  Br  Br13  1  0.175139  0.386756  0.461680  1
  Br  Br14  1  0.828699  0.614303  0.539308  1
  Br  Br15  1  0.540639  0.833166  0.614657  1
  Br  Br16  1  0.230628  0.074024  0.702863  1
  Br  Br17  1  0.932061  0.318617  0.779840  1
  Br  Br18  1  0.615876  0.536634  0.824463  1
  Br  Br19  1  0.317854  0.794931  0.935781  1
