# generated using pymatgen
data_Li5Sm4(P4Rh5)3
_symmetry_space_group_name_H-M   'P 1'
_cell_length_a   3.95662200
_cell_length_b   10.78425649
_cell_length_c   12.84543895
_cell_angle_alpha   90.00057824
_cell_angle_beta   90.00000000
_cell_angle_gamma   90.00000000
_symmetry_Int_Tables_number   1
_chemical_formula_structural   Li5Sm4(P4Rh5)3
_chemical_formula_sum   'Li5 Sm4 P12 Rh15'
_cell_volume   548.10494365
_cell_formula_units_Z   1
loop_
 _symmetry_equiv_pos_site_id
 _symmetry_equiv_pos_as_xyz
  1  'x, y, z'
loop_
 _atom_site_type_symbol
 _atom_site_label
 _atom_site_symmetry_multiplicity
 _atom_site_fract_x
 _atom_site_fract_y
 _atom_site_fract_z
 _atom_site_occupancy
  Li  Li0  1  0.250000  0.708590  0.993086  1
  Li  Li1  1  0.250000  0.791435  0.492224  1
  Li  Li2  1  0.750000  0.291841  0.008446  1
  Li  Li3  1  0.750000  0.206077  0.512311  1
  Li  Li4  1  0.250000  0.408741  0.493971  1
  Sm  Sm5  1  0.250000  0.578369  0.706118  1
  Sm  Sm6  1  0.250000  0.923884  0.202197  1
  Sm  Sm7  1  0.750000  0.426207  0.296666  1
  Sm  Sm8  1  0.750000  0.074264  0.796877  1
  P  P9  1  0.250000  0.428808  0.115590  1
  P  P10  1  0.250000  0.075765  0.614600  1
  P  P11  1  0.750000  0.572334  0.884705  1
  P  P12  1  0.750000  0.929019  0.383669  1
  P  P13  1  0.250000  0.262405  0.858804  1
  P  P14  1  0.250000  0.232814  0.346630  1
  P  P15  1  0.750000  0.736111  0.142691  1
  P  P16  1  0.750000  0.764664  0.641372  1
  P  P17  1  0.250000  0.605595  0.389794  1
  P  P18  1  0.250000  0.894417  0.889534  1
  P  P19  1  0.750000  0.397368  0.618016  1
  P  P20  1  0.750000  0.101200  0.104414  1
  Rh  Rh21  1  0.250000  0.092065  0.975683  1
  Rh  Rh22  1  0.750000  0.586495  0.519641  1
  Rh  Rh23  1  0.750000  0.903044  0.022305  1
  Rh  Rh24  1  0.250000  0.226489  0.165725  1
  Rh  Rh25  1  0.250000  0.277478  0.671799  1
  Rh  Rh26  1  0.750000  0.772950  0.826093  1
  Rh  Rh27  1  0.750000  0.727766  0.328495  1
  Rh  Rh28  1  0.250000  0.877033  0.697191  1
  Rh  Rh29  1  0.250000  0.624521  0.200598  1
  Rh  Rh30  1  0.750000  0.124259  0.297798  1
  Rh  Rh31  1  0.750000  0.373834  0.803663  1
  Rh  Rh32  1  0.250000  0.461270  0.934676  1
  Rh  Rh33  1  0.250000  0.040930  0.432215  1
  Rh  Rh34  1  0.750000  0.539005  0.067296  1
  Rh  Rh35  1  0.750000  0.962956  0.565111  1
