# generated using pymatgen
data_La8Hg2OsRh
_symmetry_space_group_name_H-M   'P 1'
_cell_length_a   10.08748607
_cell_length_b   10.08748701
_cell_length_c   10.16779500
_cell_angle_alpha   59.73629930
_cell_angle_beta   59.73629619
_cell_angle_gamma   59.54477706
_symmetry_Int_Tables_number   1
_chemical_formula_structural   La8Hg2OsRh
_chemical_formula_sum   'La16 Hg4 Os2 Rh2'
_cell_volume   726.15717688
_cell_formula_units_Z   2
loop_
 _symmetry_equiv_pos_site_id
 _symmetry_equiv_pos_as_xyz
  1  'x, y, z'
loop_
 _atom_site_type_symbol
 _atom_site_label
 _atom_site_symmetry_multiplicity
 _atom_site_fract_x
 _atom_site_fract_y
 _atom_site_fract_z
 _atom_site_occupancy
  La  La0  1  0.346232  0.346232  0.350968  1
  La  La1  1  0.346232  0.346232  0.956568  1
  La  La2  1  0.345442  0.956658  0.348951  1
  La  La3  1  0.956658  0.345442  0.348951  1
  La  La4  1  0.812224  0.190291  0.190218  1
  La  La5  1  0.190291  0.812224  0.807267  1
  La  La6  1  0.190291  0.812223  0.190218  1
  La  La7  1  0.812224  0.190292  0.807267  1
  La  La8  1  0.189722  0.189722  0.810278  1
  La  La9  1  0.808581  0.808582  0.191419  1
  La  La10  1  0.941252  0.557056  0.561302  1
  La  La11  1  0.557056  0.941252  0.940391  1
  La  La12  1  0.557056  0.941252  0.561302  1
  La  La13  1  0.941252  0.557056  0.940391  1
  La  La14  1  0.561333  0.561333  0.938667  1
  La  La15  1  0.942864  0.942864  0.557136  1
  Hg  Hg16  1  0.583200  0.583200  0.583344  1
  Hg  Hg17  1  0.583200  0.583200  0.250257  1
  Hg  Hg18  1  0.583026  0.250334  0.583321  1
  Hg  Hg19  1  0.250334  0.583026  0.583321  1
  Os  Os20  1  0.139842  0.139842  0.137832  1
  Os  Os21  1  0.139842  0.139842  0.582484  1
  Rh  Rh22  1  0.140645  0.581203  0.139076  1
  Rh  Rh23  1  0.581203  0.140645  0.139076  1
