# generated using pymatgen
data_CeDy(ZnRh)2
_symmetry_space_group_name_H-M   'P 1'
_cell_length_a   3.98036200
_cell_length_b   7.01787646
_cell_length_c   8.30243805
_cell_angle_alpha   91.16962241
_cell_angle_beta   90.00000000
_cell_angle_gamma   90.00000000
_symmetry_Int_Tables_number   1
_chemical_formula_structural   CeDy(ZnRh)2
_chemical_formula_sum   'Ce2 Dy2 Zn4 Rh4'
_cell_volume   231.86939984
_cell_formula_units_Z   2
loop_
 _symmetry_equiv_pos_site_id
 _symmetry_equiv_pos_as_xyz
  1  'x, y, z'
loop_
 _atom_site_type_symbol
 _atom_site_label
 _atom_site_symmetry_multiplicity
 _atom_site_fract_x
 _atom_site_fract_y
 _atom_site_fract_z
 _atom_site_occupancy
  Ce  Ce0  1  0.250000  0.540704  0.190353  1
  Ce  Ce1  1  0.750000  0.459296  0.809647  1
  Dy  Dy2  1  0.250000  0.044688  0.316072  1
  Dy  Dy3  1  0.750000  0.955312  0.683928  1
  Zn  Zn4  1  0.250000  0.125325  0.937099  1
  Zn  Zn5  1  0.750000  0.874675  0.062901  1
  Zn  Zn6  1  0.250000  0.639543  0.560132  1
  Zn  Zn7  1  0.750000  0.360457  0.439868  1
  Rh  Rh8  1  0.750000  0.744903  0.366867  1
  Rh  Rh9  1  0.250000  0.255097  0.633133  1
  Rh  Rh10  1  0.750000  0.260798  0.122691  1
  Rh  Rh11  1  0.250000  0.739202  0.877309  1
