# generated using pymatgen
data_La16MgHg3Ir4
_symmetry_space_group_name_H-M   'P 1'
_cell_length_a   10.15660033
_cell_length_b   10.15660071
_cell_length_c   10.10939324
_cell_angle_alpha   59.84541032
_cell_angle_beta   59.84541003
_cell_angle_gamma   60.00000196
_symmetry_Int_Tables_number   1
_chemical_formula_structural   La16MgHg3Ir4
_chemical_formula_sum   'La16 Mg1 Hg3 Ir4'
_cell_volume   735.67855445
_cell_formula_units_Z   1
loop_
 _symmetry_equiv_pos_site_id
 _symmetry_equiv_pos_as_xyz
  1  'x, y, z'
loop_
 _atom_site_type_symbol
 _atom_site_label
 _atom_site_symmetry_multiplicity
 _atom_site_fract_x
 _atom_site_fract_y
 _atom_site_fract_z
 _atom_site_occupancy
  La  La0  1  0.439648  0.059524  0.441305  1
  La  La1  1  0.808357  0.808357  0.192148  1
  La  La2  1  0.061055  0.439544  0.059857  1
  La  La3  1  0.191138  0.808357  0.192148  1
  La  La4  1  0.808357  0.191138  0.192148  1
  La  La5  1  0.059524  0.059524  0.441305  1
  La  La6  1  0.653853  0.653853  0.653132  1
  La  La7  1  0.653853  0.039161  0.653132  1
  La  La8  1  0.188244  0.810356  0.813157  1
  La  La9  1  0.039161  0.653853  0.653132  1
  La  La10  1  0.059524  0.439648  0.441305  1
  La  La11  1  0.188244  0.188244  0.813157  1
  La  La12  1  0.651068  0.651068  0.046796  1
  La  La13  1  0.439544  0.061055  0.059857  1
  La  La14  1  0.810356  0.188244  0.813157  1
  La  La15  1  0.439544  0.439544  0.059857  1
  Mg  Mg16  1  0.429758  0.429758  0.710726  1
  Hg  Hg17  1  0.752279  0.413860  0.420000  1
  Hg  Hg18  1  0.413860  0.413860  0.420000  1
  Hg  Hg19  1  0.413860  0.752279  0.420000  1
  Ir  Ir20  1  0.858121  0.858121  0.859801  1
  Ir  Ir21  1  0.858121  0.423958  0.859801  1
  Ir  Ir22  1  0.858574  0.858574  0.424278  1
  Ir  Ir23  1  0.423958  0.858121  0.859801  1
