# generated using pymatgen
data_YbThFeIr3
_symmetry_space_group_name_H-M   'P 1'
_cell_length_a   5.17550212
_cell_length_b   5.51524306
_cell_length_c   5.51524300
_cell_angle_alpha   59.99999435
_cell_angle_beta   57.80366702
_cell_angle_gamma   57.80367498
_symmetry_Int_Tables_number   1
_chemical_formula_structural   YbThFeIr3
_chemical_formula_sum   'Yb1 Th1 Fe1 Ir3'
_cell_volume   107.47851044
_cell_formula_units_Z   1
loop_
 _symmetry_equiv_pos_site_id
 _symmetry_equiv_pos_as_xyz
  1  'x, y, z'
loop_
 _atom_site_type_symbol
 _atom_site_label
 _atom_site_symmetry_multiplicity
 _atom_site_fract_x
 _atom_site_fract_y
 _atom_site_fract_z
 _atom_site_occupancy
  Yb  Yb0  1  0.744227  0.751924  0.751924  1
  Th  Th1  1  0.502204  0.499265  0.499265  1
  Fe  Fe2  1  0.625600  0.124800  0.124800  1
  Ir  Ir3  1  0.125990  0.123614  0.123614  1
  Ir  Ir4  1  0.125990  0.123614  0.626783  1
  Ir  Ir5  1  0.125990  0.626783  0.123614  1
