# generated using pymatgen
data_Y2TcWC3
_symmetry_space_group_name_H-M   'P 1'
_cell_length_a   6.13655687
_cell_length_b   6.13655639
_cell_length_c   5.73971018
_cell_angle_alpha   112.69733802
_cell_angle_beta   112.69733645
_cell_angle_gamma   31.41900865
_symmetry_Int_Tables_number   1
_chemical_formula_structural   Y2TcWC3
_chemical_formula_sum   'Y2 Tc1 W1 C3'
_cell_volume   103.22567777
_cell_formula_units_Z   1
loop_
 _symmetry_equiv_pos_site_id
 _symmetry_equiv_pos_as_xyz
  1  'x, y, z'
loop_
 _atom_site_type_symbol
 _atom_site_label
 _atom_site_symmetry_multiplicity
 _atom_site_fract_x
 _atom_site_fract_y
 _atom_site_fract_z
 _atom_site_occupancy
  Y  Y0  1  0.609684  0.609684  0.316160  1
  Y  Y1  1  0.390417  0.390417  0.674685  1
  Tc  Tc2  1  0.843561  0.843561  0.180866  1
  W  W3  1  0.158460  0.158460  0.826262  1
  C  C4  1  0.246995  0.246995  0.231930  1
  C  C5  1  0.999217  0.999217  0.501616  1
  C  C6  1  0.751666  0.751666  0.768479  1
