# generated using pymatgen
data_NdBiRh2O7
_symmetry_space_group_name_H-M   'P 1'
_cell_length_a   7.36656467
_cell_length_b   7.32973796
_cell_length_c   7.36656520
_cell_angle_alpha   60.16523937
_cell_angle_beta   60.41110220
_cell_angle_gamma   60.16523825
_symmetry_Int_Tables_number   1
_chemical_formula_structural   NdBiRh2O7
_chemical_formula_sum   'Nd2 Bi2 Rh4 O14'
_cell_volume   282.82747515
_cell_formula_units_Z   2
loop_
 _symmetry_equiv_pos_site_id
 _symmetry_equiv_pos_as_xyz
  1  'x, y, z'
loop_
 _atom_site_type_symbol
 _atom_site_label
 _atom_site_symmetry_multiplicity
 _atom_site_fract_x
 _atom_site_fract_y
 _atom_site_fract_z
 _atom_site_occupancy
  Nd  Nd0  1  0.125000  0.125000  0.125000  1
  Nd  Nd1  1  0.125000  0.625000  0.125000  1
  Bi  Bi2  1  0.625000  0.125000  0.125000  1
  Bi  Bi3  1  0.125000  0.125000  0.625000  1
  Rh  Rh4  1  0.625000  0.625000  0.625000  1
  Rh  Rh5  1  0.625000  0.625000  0.125000  1
  Rh  Rh6  1  0.125000  0.625000  0.625000  1
  Rh  Rh7  1  0.625000  0.125000  0.625000  1
  O  O8  1  0.254675  0.245325  0.254675  1
  O  O9  1  0.291053  0.708947  0.291053  1
  O  O10  1  0.957157  0.958652  0.541850  1
  O  O11  1  0.545761  0.954239  0.545761  1
  O  O12  1  0.708150  0.707659  0.292843  1
  O  O13  1  0.957157  0.542341  0.541850  1
  O  O14  1  0.704239  0.295761  0.704239  1
  O  O15  1  0.292843  0.291348  0.708150  1
  O  O16  1  0.708150  0.291348  0.292843  1
  O  O17  1  0.292843  0.707659  0.708150  1
  O  O18  1  0.958947  0.541053  0.958947  1
  O  O19  1  0.541850  0.542341  0.957157  1
  O  O20  1  0.995325  0.004675  0.995325  1
  O  O21  1  0.541850  0.958652  0.957157  1
