# generated using pymatgen
data_Tm7LuHg3BiAu8
_symmetry_space_group_name_H-M   'P 1'
_cell_length_a   7.90746200
_cell_length_b   7.90949078
_cell_length_c   7.29762600
_cell_angle_alpha   89.99666779
_cell_angle_beta   90.00068835
_cell_angle_gamma   89.90548123
_symmetry_Int_Tables_number   1
_chemical_formula_structural   Tm7LuHg3BiAu8
_chemical_formula_sum   'Tm7 Lu1 Hg3 Bi1 Au8'
_cell_volume   456.42208229
_cell_formula_units_Z   1
loop_
 _symmetry_equiv_pos_site_id
 _symmetry_equiv_pos_as_xyz
  1  'x, y, z'
loop_
 _atom_site_type_symbol
 _atom_site_label
 _atom_site_symmetry_multiplicity
 _atom_site_fract_x
 _atom_site_fract_y
 _atom_site_fract_z
 _atom_site_occupancy
  Tm  Tm0  1  0.160870  0.844316  0.501156  1
  Tm  Tm1  1  0.344249  0.338814  0.998790  1
  Tm  Tm2  1  0.656086  0.660917  0.998805  1
  Tm  Tm3  1  0.679311  0.686458  0.501258  1
  Tm  Tm4  1  0.320687  0.313620  0.501242  1
  Tm  Tm5  1  0.186274  0.820904  0.998737  1
  Tm  Tm6  1  0.813563  0.179315  0.998746  1
  Lu  Lu7  1  0.838973  0.155517  0.501222  1
  Hg  Hg8  1  0.499934  0.000018  0.249988  1
  Hg  Hg9  1  0.999985  0.500076  0.749974  1
  Hg  Hg10  1  0.499935  0.000032  0.750025  1
  Bi  Bi11  1  0.999964  0.500024  0.250035  1
  Au  Au12  1  0.626877  0.371301  0.275762  1
  Au  Au13  1  0.373873  0.627954  0.274645  1
  Au  Au14  1  0.126742  0.128992  0.773495  1
  Au  Au15  1  0.872545  0.871743  0.773439  1
  Au  Au16  1  0.371459  0.627133  0.726028  1
  Au  Au17  1  0.629373  0.372148  0.725005  1
  Au  Au18  1  0.871640  0.874215  0.225787  1
  Au  Au19  1  0.127660  0.126505  0.225864  1
