# generated using pymatgen
data_LaGd(ZnGa)2
_symmetry_space_group_name_H-M   'P 1'
_cell_length_a   4.49046900
_cell_length_b   4.49046905
_cell_length_c   7.63961800
_cell_angle_alpha   90.00000000
_cell_angle_beta   90.00000000
_cell_angle_gamma   120.00000699
_symmetry_Int_Tables_number   1
_chemical_formula_structural   LaGd(ZnGa)2
_chemical_formula_sum   'La1 Gd1 Zn2 Ga2'
_cell_volume   133.40916151
_cell_formula_units_Z   1
loop_
 _symmetry_equiv_pos_site_id
 _symmetry_equiv_pos_as_xyz
  1  'x, y, z'
loop_
 _atom_site_type_symbol
 _atom_site_label
 _atom_site_symmetry_multiplicity
 _atom_site_fract_x
 _atom_site_fract_y
 _atom_site_fract_z
 _atom_site_occupancy
  La  La0  1  0.000000  0.000000  0.500000  1
  Gd  Gd1  1  0.000000  0.000000  0.000000  1
  Zn  Zn2  1  0.333333  0.666667  0.778806  1
  Zn  Zn3  1  0.666667  0.333333  0.221194  1
  Ga  Ga4  1  0.333333  0.666667  0.226966  1
  Ga  Ga5  1  0.666667  0.333333  0.773034  1
