# generated using pymatgen
data_Tb19Th(Ir2Ru)4
_symmetry_space_group_name_H-M   'P 1'
_cell_length_a   10.91160411
_cell_length_b   10.89966729
_cell_length_c   6.46731189
_cell_angle_alpha   90.11838678
_cell_angle_beta   89.71154273
_cell_angle_gamma   90.03372607
_symmetry_Int_Tables_number   1
_chemical_formula_structural   Tb19Th(Ir2Ru)4
_chemical_formula_sum   'Tb19 Th1 Ir8 Ru4'
_cell_volume   769.16434461
_cell_formula_units_Z   1
loop_
 _symmetry_equiv_pos_site_id
 _symmetry_equiv_pos_as_xyz
  1  'x, y, z'
loop_
 _atom_site_type_symbol
 _atom_site_label
 _atom_site_symmetry_multiplicity
 _atom_site_fract_x
 _atom_site_fract_y
 _atom_site_fract_z
 _atom_site_occupancy
  Tb  Tb0  1  0.292855  0.910884  0.878456  1
  Tb  Tb1  1  0.706314  0.087086  0.880357  1
  Tb  Tb2  1  0.706412  0.912095  0.380620  1
  Tb  Tb3  1  0.587022  0.793653  0.880876  1
  Tb  Tb4  1  0.592601  0.208654  0.379806  1
  Tb  Tb5  1  0.414714  0.788933  0.378439  1
  Tb  Tb6  1  0.414387  0.208405  0.878708  1
  Tb  Tb7  1  0.206259  0.413913  0.620371  1
  Tb  Tb8  1  0.205437  0.586372  0.120349  1
  Tb  Tb9  1  0.793346  0.413876  0.119608  1
  Tb  Tb10  1  0.793088  0.586851  0.620388  1
  Tb  Tb11  1  0.913368  0.706379  0.119864  1
  Tb  Tb12  1  0.913060  0.294150  0.618822  1
  Tb  Tb13  1  0.086886  0.706133  0.621090  1
  Tb  Tb14  1  0.085400  0.294358  0.119149  1
  Tb  Tb15  1  0.996652  0.998965  0.500795  1
  Tb  Tb16  1  0.000641  0.000271  0.000844  1
  Tb  Tb17  1  0.499495  0.500102  0.002004  1
  Tb  Tb18  1  0.501104  0.499149  0.502165  1
  Th  Th19  1  0.295844  0.086816  0.380640  1
  Ir  Ir20  1  0.847120  0.153196  0.248347  1
  Ir  Ir21  1  0.847003  0.847577  0.752064  1
  Ir  Ir22  1  0.153543  0.150561  0.742456  1
  Ir  Ir23  1  0.154560  0.850488  0.253637  1
  Ir  Ir24  1  0.653341  0.348110  0.751127  1
  Ir  Ir25  1  0.652237  0.652797  0.248762  1
  Ir  Ir26  1  0.347255  0.345276  0.253266  1
  Ir  Ir27  1  0.348172  0.651367  0.751114  1
  Ru  Ru28  1  0.494935  0.001314  0.125928  1
  Ru  Ru29  1  0.497841  0.001068  0.617815  1
  Ru  Ru30  1  0.999662  0.500294  0.876009  1
  Ru  Ru31  1  0.999445  0.500906  0.376124  1
