# generated using pymatgen
data_Sr6YB6MoO18
_symmetry_space_group_name_H-M   'P 1'
_cell_length_a   7.83341462
_cell_length_b   7.83341532
_cell_length_c   7.83341517
_cell_angle_alpha   105.35574367
_cell_angle_beta   105.35575158
_cell_angle_gamma   105.35573948
_symmetry_Int_Tables_number   1
_chemical_formula_structural   Sr6YB6MoO18
_chemical_formula_sum   'Sr6 Y1 B6 Mo1 O18'
_cell_volume   416.96761928
_cell_formula_units_Z   1
loop_
 _symmetry_equiv_pos_site_id
 _symmetry_equiv_pos_as_xyz
  1  'x, y, z'
loop_
 _atom_site_type_symbol
 _atom_site_label
 _atom_site_symmetry_multiplicity
 _atom_site_fract_x
 _atom_site_fract_y
 _atom_site_fract_z
 _atom_site_occupancy
  Sr  Sr0  1  0.649757  0.267744  0.159195  1
  Sr  Sr1  1  0.159195  0.649757  0.267743  1
  Sr  Sr2  1  0.732256  0.840805  0.350243  1
  Sr  Sr3  1  0.267744  0.159195  0.649757  1
  Sr  Sr4  1  0.840805  0.350243  0.732256  1
  Sr  Sr5  1  0.350243  0.732256  0.840805  1
  Y  Y6  1  0.000000  0.000000  0.000000  1
  B  B7  1  0.293160  0.382527  0.042790  1
  B  B8  1  0.382527  0.042791  0.293160  1
  B  B9  1  0.042791  0.293160  0.382527  1
  B  B10  1  0.957209  0.706840  0.617473  1
  B  B11  1  0.617473  0.957209  0.706840  1
  B  B12  1  0.706840  0.617473  0.957209  1
  Mo  Mo13  1  0.500000  0.500000  0.500000  1
  O  O14  1  0.728954  0.809022  0.014632  1
  O  O15  1  0.811507  0.547259  0.071022  1
  O  O16  1  0.985368  0.271046  0.190978  1
  O  O17  1  0.452740  0.928977  0.188493  1
  O  O18  1  0.432617  0.507585  0.217845  1
  O  O19  1  0.190978  0.985368  0.271046  1
  O  O20  1  0.507585  0.217845  0.432616  1
  O  O21  1  0.928977  0.188494  0.452740  1
  O  O22  1  0.217845  0.432617  0.507585  1
  O  O23  1  0.782155  0.567383  0.492415  1
  O  O24  1  0.071023  0.811506  0.547260  1
  O  O25  1  0.492415  0.782155  0.567384  1
  O  O26  1  0.809022  0.014632  0.728954  1
  O  O27  1  0.567383  0.492415  0.782155  1
  O  O28  1  0.547260  0.071023  0.811507  1
  O  O29  1  0.014632  0.728954  0.809022  1
  O  O30  1  0.188493  0.452741  0.928978  1
  O  O31  1  0.271046  0.190978  0.985368  1
