# generated using pymatgen
data_NdFe7NiP5
_symmetry_space_group_name_H-M   'P 1'
_cell_length_a   3.57825200
_cell_length_b   9.20220600
_cell_length_c   10.47601100
_cell_angle_alpha   90.00000000
_cell_angle_beta   90.00000000
_cell_angle_gamma   90.00000000
_symmetry_Int_Tables_number   1
_chemical_formula_structural   NdFe7NiP5
_chemical_formula_sum   'Nd2 Fe14 Ni2 P10'
_cell_volume   344.95212097
_cell_formula_units_Z   2
loop_
 _symmetry_equiv_pos_site_id
 _symmetry_equiv_pos_as_xyz
  1  'x, y, z'
loop_
 _atom_site_type_symbol
 _atom_site_label
 _atom_site_symmetry_multiplicity
 _atom_site_fract_x
 _atom_site_fract_y
 _atom_site_fract_z
 _atom_site_occupancy
  Nd  Nd0  1  0.500000  0.177618  0.500000  1
  Nd  Nd1  1  0.000000  0.822382  0.000000  1
  Fe  Fe2  1  0.000000  0.520977  0.166798  1
  Fe  Fe3  1  0.500000  0.890947  0.258440  1
  Fe  Fe4  1  0.500000  0.479023  0.333202  1
  Fe  Fe5  1  0.500000  0.849576  0.500000  1
  Fe  Fe6  1  0.500000  0.303796  0.141910  1
  Fe  Fe7  1  0.000000  0.696204  0.641910  1
  Fe  Fe8  1  0.000000  0.150424  0.000000  1
  Fe  Fe9  1  0.000000  0.696204  0.358090  1
  Fe  Fe10  1  0.500000  0.479023  0.666798  1
  Fe  Fe11  1  0.500000  0.303796  0.858090  1
  Fe  Fe12  1  0.000000  0.109053  0.241560  1
  Fe  Fe13  1  0.500000  0.890947  0.741560  1
  Fe  Fe14  1  0.000000  0.520977  0.833202  1
  Fe  Fe15  1  0.000000  0.109053  0.758440  1
  Ni  Ni16  1  0.000000  0.447284  0.500000  1
  Ni  Ni17  1  0.500000  0.552716  0.000000  1
  P  P18  1  0.000000  0.337630  0.695646  1
  P  P19  1  0.000000  0.935442  0.381395  1
  P  P20  1  0.000000  0.384819  0.000000  1
  P  P21  1  0.500000  0.662370  0.195646  1
  P  P22  1  0.500000  0.064558  0.118605  1
  P  P23  1  0.500000  0.662370  0.804354  1
  P  P24  1  0.000000  0.935442  0.618605  1
  P  P25  1  0.000000  0.337630  0.304354  1
  P  P26  1  0.500000  0.615181  0.500000  1
  P  P27  1  0.500000  0.064558  0.881395  1
