# generated using pymatgen
data_Ce3UAl18IrRh5
_symmetry_space_group_name_H-M   'P 1'
_cell_length_a   7.61507631
_cell_length_b   7.62376837
_cell_length_c   9.45085820
_cell_angle_alpha   90.05686842
_cell_angle_beta   89.98481553
_cell_angle_gamma   119.61212436
_symmetry_Int_Tables_number   1
_chemical_formula_structural   Ce3UAl18IrRh5
_chemical_formula_sum   'Ce3 U1 Al18 Ir1 Rh5'
_cell_volume   477.01254926
_cell_formula_units_Z   1
loop_
 _symmetry_equiv_pos_site_id
 _symmetry_equiv_pos_as_xyz
  1  'x, y, z'
loop_
 _atom_site_type_symbol
 _atom_site_label
 _atom_site_symmetry_multiplicity
 _atom_site_fract_x
 _atom_site_fract_y
 _atom_site_fract_z
 _atom_site_occupancy
  Ce  Ce0  1  0.996789  0.670768  0.249642  1
  Ce  Ce1  1  0.002709  0.329165  0.750292  1
  Ce  Ce2  1  0.669428  0.996478  0.249629  1
  U  U3  1  0.330749  0.005482  0.750811  1
  Al  Al4  1  0.129503  0.127790  0.250128  1
  Al  Al5  1  0.873480  0.871128  0.749877  1
  Al  Al6  1  0.003135  0.335292  0.076170  1
  Al  Al7  1  0.998011  0.665110  0.923668  1
  Al  Al8  1  0.998316  0.665559  0.576319  1
  Al  Al9  1  0.334932  0.002287  0.427637  1
  Al  Al10  1  0.003050  0.335684  0.423831  1
  Al  Al11  1  0.664179  0.997380  0.576202  1
  Al  Al12  1  0.664656  0.996220  0.923930  1
  Al  Al13  1  0.334506  0.001645  0.072853  1
  Al  Al14  1  0.334161  0.334104  0.552607  1
  Al  Al15  1  0.666087  0.665893  0.448843  1
  Al  Al16  1  0.665865  0.665340  0.050811  1
  Al  Al17  1  0.333768  0.333913  0.947909  1
  Al  Al18  1  0.341909  0.548602  0.250088  1
  Al  Al19  1  0.654853  0.450366  0.748954  1
  Al  Al20  1  0.547945  0.340522  0.250373  1
  Al  Al21  1  0.451195  0.661590  0.750003  1
  Ir  Ir22  1  0.672270  0.327508  0.999105  1
  Rh  Rh23  1  0.327868  0.671497  0.999765  1
  Rh  Rh24  1  0.328014  0.671892  0.500404  1
  Rh  Rh25  1  0.672828  0.328775  0.499979  1
  Rh  Rh26  1  0.999843  0.999738  0.999875  1
  Rh  Rh27  1  0.999950  0.000269  0.500294  1
