# generated using pymatgen
data_Cs4MgMnTe4
_symmetry_space_group_name_H-M   'P 1'
_cell_length_a   9.49684351
_cell_length_b   9.49684352
_cell_length_c   9.49684327
_cell_angle_alpha   134.72965596
_cell_angle_beta   129.49506075
_cell_angle_gamma   70.13688056
_symmetry_Int_Tables_number   1
_chemical_formula_structural   Cs4MgMnTe4
_chemical_formula_sum   'Cs4 Mg1 Mn1 Te4'
_cell_volume   460.39686902
_cell_formula_units_Z   1
loop_
 _symmetry_equiv_pos_site_id
 _symmetry_equiv_pos_as_xyz
  1  'x, y, z'
loop_
 _atom_site_type_symbol
 _atom_site_label
 _atom_site_symmetry_multiplicity
 _atom_site_fract_x
 _atom_site_fract_y
 _atom_site_fract_z
 _atom_site_occupancy
  Cs  Cs0  1  0.972034  0.645893  0.326892  1
  Cs  Cs1  1  0.680999  0.854107  0.826141  1
  Cs  Cs2  1  0.319001  0.145142  0.173108  1
  Cs  Cs3  1  0.027966  0.354858  0.673859  1
  Mg  Mg4  1  0.500000  0.250000  0.750000  1
  Mn  Mn5  1  0.500000  0.750000  0.250000  1
  Te  Te6  1  0.581707  0.405761  0.186680  1
  Te  Te7  1  0.219081  0.895027  0.313320  1
  Te  Te8  1  0.780919  0.094239  0.675947  1
  Te  Te9  1  0.418293  0.604973  0.824053  1
