# generated using pymatgen
data_Dy8Tm12Si15Ru
_symmetry_space_group_name_H-M   'P 1'
_cell_length_a   7.29366758
_cell_length_b   7.69834460
_cell_length_c   14.42242400
_cell_angle_alpha   90.00000000
_cell_angle_beta   90.00000000
_cell_angle_gamma   90.06797709
_symmetry_Int_Tables_number   1
_chemical_formula_structural   Dy8Tm12Si15Ru
_chemical_formula_sum   'Dy8 Tm12 Si15 Ru1'
_cell_volume   809.80651570
_cell_formula_units_Z   1
loop_
 _symmetry_equiv_pos_site_id
 _symmetry_equiv_pos_as_xyz
  1  'x, y, z'
loop_
 _atom_site_type_symbol
 _atom_site_label
 _atom_site_symmetry_multiplicity
 _atom_site_fract_x
 _atom_site_fract_y
 _atom_site_fract_z
 _atom_site_occupancy
  Dy  Dy0  1  0.017231  0.183091  0.096385  1
  Dy  Dy1  1  0.985692  0.826430  0.905070  1
  Dy  Dy2  1  0.484361  0.679576  0.904770  1
  Dy  Dy3  1  0.985692  0.826430  0.594930  1
  Dy  Dy4  1  0.516459  0.319375  0.096119  1
  Dy  Dy5  1  0.017231  0.183091  0.403615  1
  Dy  Dy6  1  0.516459  0.319375  0.403881  1
  Dy  Dy7  1  0.484361  0.679576  0.595230  1
  Tm  Tm8  1  0.156468  0.514411  0.750000  1
  Tm  Tm9  1  0.840125  0.488101  0.250000  1
  Tm  Tm10  1  0.340945  0.014143  0.250000  1
  Tm  Tm11  1  0.667433  0.988596  0.750000  1
  Tm  Tm12  1  0.312739  0.173278  0.627379  1
  Tm  Tm13  1  0.675699  0.823981  0.375382  1
  Tm  Tm14  1  0.174484  0.680105  0.375478  1
  Tm  Tm15  1  0.675699  0.823981  0.124618  1
  Tm  Tm16  1  0.836397  0.315092  0.626639  1
  Tm  Tm17  1  0.312739  0.173278  0.872621  1
  Tm  Tm18  1  0.836397  0.315092  0.873361  1
  Tm  Tm19  1  0.174484  0.680105  0.124522  1
  Si  Si20  1  0.970272  0.893978  0.250000  1
  Si  Si21  1  0.471700  0.607843  0.250000  1
  Si  Si22  1  0.528287  0.394828  0.750000  1
  Si  Si23  1  0.280980  0.866074  0.750000  1
  Si  Si24  1  0.719613  0.131125  0.250000  1
  Si  Si25  1  0.221375  0.371154  0.250000  1
  Si  Si26  1  0.770724  0.624330  0.750000  1
  Si  Si27  1  0.158104  0.472208  0.537471  1
  Si  Si28  1  0.845883  0.532161  0.462335  1
  Si  Si29  1  0.345381  0.969612  0.460935  1
  Si  Si30  1  0.845883  0.532161  0.037665  1
  Si  Si31  1  0.650760  0.031757  0.538227  1
  Si  Si32  1  0.158104  0.472208  0.962529  1
  Si  Si33  1  0.650760  0.031757  0.961773  1
  Si  Si34  1  0.345381  0.969612  0.039065  1
  Ru  Ru35  1  0.025700  0.092089  0.750000  1
