# generated using pymatgen
data_Hf3Mn(NiTe2)4
_symmetry_space_group_name_H-M   'P 1'
_cell_length_a   6.58284191
_cell_length_b   7.56921517
_cell_length_c   8.01719700
_cell_angle_alpha   90.00000000
_cell_angle_beta   90.00000000
_cell_angle_gamma   88.44335321
_symmetry_Int_Tables_number   1
_chemical_formula_structural   Hf3Mn(NiTe2)4
_chemical_formula_sum   'Hf3 Mn1 Ni4 Te8'
_cell_volume   399.32502582
_cell_formula_units_Z   1
loop_
 _symmetry_equiv_pos_site_id
 _symmetry_equiv_pos_as_xyz
  1  'x, y, z'
loop_
 _atom_site_type_symbol
 _atom_site_label
 _atom_site_symmetry_multiplicity
 _atom_site_fract_x
 _atom_site_fract_y
 _atom_site_fract_z
 _atom_site_occupancy
  Hf  Hf0  1  0.500000  0.000000  0.795562  1
  Hf  Hf1  1  0.000000  0.000000  0.705515  1
  Hf  Hf2  1  0.000000  0.000000  0.289063  1
  Mn  Mn3  1  0.500000  0.000000  0.199517  1
  Ni  Ni4  1  0.854133  0.884087  0.992174  1
  Ni  Ni5  1  0.652783  0.890116  0.496063  1
  Ni  Ni6  1  0.145867  0.115913  0.992174  1
  Ni  Ni7  1  0.347217  0.109884  0.496063  1
  Te  Te8  1  0.757541  0.211491  0.016185  1
  Te  Te9  1  0.733674  0.218820  0.511344  1
  Te  Te10  1  0.755114  0.686342  0.745605  1
  Te  Te11  1  0.738868  0.698820  0.243800  1
  Te  Te12  1  0.242459  0.788509  0.016185  1
  Te  Te13  1  0.266326  0.781180  0.511344  1
  Te  Te14  1  0.244886  0.313658  0.745605  1
  Te  Te15  1  0.261132  0.301180  0.243800  1
