# generated using pymatgen
data_Cs4Li2ErInAs4
_symmetry_space_group_name_H-M   'P 1'
_cell_length_a   9.91913286
_cell_length_b   9.91913227
_cell_length_c   9.91913167
_cell_angle_alpha   139.91356088
_cell_angle_beta   57.86704876
_cell_angle_gamma   140.06845222
_symmetry_Int_Tables_number   1
_chemical_formula_structural   Cs4Li2ErInAs4
_chemical_formula_sum   'Cs4 Li2 Er1 In1 As4'
_cell_volume   399.82335589
_cell_formula_units_Z   1
loop_
 _symmetry_equiv_pos_site_id
 _symmetry_equiv_pos_as_xyz
  1  'x, y, z'
loop_
 _atom_site_type_symbol
 _atom_site_label
 _atom_site_symmetry_multiplicity
 _atom_site_fract_x
 _atom_site_fract_y
 _atom_site_fract_z
 _atom_site_occupancy
  Cs  Cs0  1  0.333776  0.780796  0.100286  1
  Cs  Cs1  1  0.166224  0.266510  0.447021  1
  Cs  Cs2  1  0.819491  0.719206  0.552979  1
  Cs  Cs3  1  0.680509  0.233491  0.899714  1
  Li  Li4  1  0.750000  0.250000  0.500000  1
  Li  Li5  1  0.250000  0.750001  0.500001  1
  Er  Er6  1  0.250000  0.250000  0.000000  1
  In  In7  1  0.749999  0.749999  0.000000  1
  As  As8  1  0.912437  0.238957  0.157053  1
  As  As9  1  0.587563  0.744617  0.326520  1
  As  As10  1  0.418096  0.261044  0.673481  1
  As  As11  1  0.081904  0.755384  0.842947  1
