# generated using pymatgen
data_MnFe3Co4
_symmetry_space_group_name_H-M   'P 1'
_cell_length_a   7.00074526
_cell_length_b   7.00074572
_cell_length_c   7.00074584
_cell_angle_alpha   33.52954311
_cell_angle_beta   33.52954077
_cell_angle_gamma   33.52953815
_symmetry_Int_Tables_number   1
_chemical_formula_structural   MnFe3Co4
_chemical_formula_sum   'Mn1 Fe3 Co4'
_cell_volume   93.24191985
_cell_formula_units_Z   1
loop_
 _symmetry_equiv_pos_site_id
 _symmetry_equiv_pos_as_xyz
  1  'x, y, z'
loop_
 _atom_site_type_symbol
 _atom_site_label
 _atom_site_symmetry_multiplicity
 _atom_site_fract_x
 _atom_site_fract_y
 _atom_site_fract_z
 _atom_site_occupancy
  Mn  Mn0  1  0.000000  0.000000  0.000000  1
  Fe  Fe1  1  0.250397  0.250397  0.250397  1
  Fe  Fe2  1  0.749603  0.749603  0.749603  1
  Fe  Fe3  1  0.500000  0.500000  0.500000  1
  Co  Co4  1  0.623949  0.623949  0.623949  1
  Co  Co5  1  0.126052  0.126052  0.126052  1
  Co  Co6  1  0.873948  0.873948  0.873948  1
  Co  Co7  1  0.376051  0.376051  0.376051  1
