# generated using pymatgen
data_TmHf(Ga3Rh)3
_symmetry_space_group_name_H-M   'P 1'
_cell_length_a   7.51159201
_cell_length_b   7.50261262
_cell_length_c   9.39266100
_cell_angle_alpha   90.00000000
_cell_angle_beta   90.00000000
_cell_angle_gamma   119.97340105
_symmetry_Int_Tables_number   1
_chemical_formula_structural   TmHf(Ga3Rh)3
_chemical_formula_sum   'Tm2 Hf2 Ga18 Rh6'
_cell_volume   458.54307127
_cell_formula_units_Z   2
loop_
 _symmetry_equiv_pos_site_id
 _symmetry_equiv_pos_as_xyz
  1  'x, y, z'
loop_
 _atom_site_type_symbol
 _atom_site_label
 _atom_site_symmetry_multiplicity
 _atom_site_fract_x
 _atom_site_fract_y
 _atom_site_fract_z
 _atom_site_occupancy
  Tm  Tm0  1  0.668522  0.995894  0.250000  1
  Tm  Tm1  1  0.331478  0.004106  0.750000  1
  Hf  Hf2  1  0.995831  0.669240  0.250000  1
  Hf  Hf3  1  0.004169  0.330760  0.750000  1
  Ga  Ga4  1  0.124722  0.124282  0.250000  1
  Ga  Ga5  1  0.875278  0.875718  0.750000  1
  Ga  Ga6  1  0.998350  0.337187  0.080036  1
  Ga  Ga7  1  0.001650  0.662813  0.919964  1
  Ga  Ga8  1  0.001650  0.662813  0.580036  1
  Ga  Ga9  1  0.331057  0.996129  0.417059  1
  Ga  Ga10  1  0.998350  0.337187  0.419964  1
  Ga  Ga11  1  0.668943  0.003871  0.582941  1
  Ga  Ga12  1  0.668943  0.003871  0.917059  1
  Ga  Ga13  1  0.331057  0.996129  0.082941  1
  Ga  Ga14  1  0.329736  0.332425  0.569786  1
  Ga  Ga15  1  0.670264  0.667575  0.430214  1
  Ga  Ga16  1  0.670264  0.667575  0.069786  1
  Ga  Ga17  1  0.329736  0.332425  0.930214  1
  Ga  Ga18  1  0.335931  0.547112  0.250000  1
  Ga  Ga19  1  0.664069  0.452888  0.750000  1
  Ga  Ga20  1  0.551819  0.340120  0.250000  1
  Ga  Ga21  1  0.448181  0.659880  0.750000  1
  Rh  Rh22  1  0.671317  0.327684  0.999466  1
  Rh  Rh23  1  0.328683  0.672316  0.000534  1
  Rh  Rh24  1  0.328683  0.672316  0.499466  1
  Rh  Rh25  1  0.671317  0.327684  0.500534  1
  Rh  Rh26  1  0.000000  0.000000  0.000000  1
  Rh  Rh27  1  0.000000  0.000000  0.500000  1
