# generated using pymatgen
data_Eu4SnPb11
_symmetry_space_group_name_H-M   'P 1'
_cell_length_a   12.02011119
_cell_length_b   12.02668533
_cell_length_c   12.02668400
_cell_angle_alpha   33.64805575
_cell_angle_beta   33.66476116
_cell_angle_gamma   33.66476282
_symmetry_Int_Tables_number   1
_chemical_formula_structural   Eu4SnPb11
_chemical_formula_sum   'Eu4 Sn1 Pb11'
_cell_volume   475.80633117
_cell_formula_units_Z   1
loop_
 _symmetry_equiv_pos_site_id
 _symmetry_equiv_pos_as_xyz
  1  'x, y, z'
loop_
 _atom_site_type_symbol
 _atom_site_label
 _atom_site_symmetry_multiplicity
 _atom_site_fract_x
 _atom_site_fract_y
 _atom_site_fract_z
 _atom_site_occupancy
  Eu  Eu0  1  0.875451  0.874641  0.874641  1
  Eu  Eu1  1  0.123161  0.124168  0.124168  1
  Eu  Eu2  1  0.705589  0.707852  0.707852  1
  Eu  Eu3  1  0.295698  0.293922  0.293922  1
  Sn  Sn4  1  0.710308  0.207529  0.207529  1
  Pb  Pb5  1  0.289344  0.792713  0.792713  1
  Pb  Pb6  1  0.792040  0.795214  0.289247  1
  Pb  Pb7  1  0.868997  0.378502  0.378502  1
  Pb  Pb8  1  0.379631  0.377746  0.868111  1
  Pb  Pb9  1  0.379631  0.868111  0.377746  1
  Pb  Pb10  1  0.621222  0.133574  0.617294  1
  Pb  Pb11  1  0.135078  0.619403  0.619403  1
  Pb  Pb12  1  0.621222  0.617294  0.133574  1
  Pb  Pb13  1  0.792040  0.289247  0.795214  1
  Pb  Pb14  1  0.205296  0.712763  0.207321  1
  Pb  Pb15  1  0.205296  0.207321  0.712763  1
