# generated using pymatgen
data_Hf16Fe3Ir5N4
_symmetry_space_group_name_H-M   'P 1'
_cell_length_a   8.62351308
_cell_length_b   8.62437501
_cell_length_c   8.62456369
_cell_angle_alpha   60.33535394
_cell_angle_beta   60.33823417
_cell_angle_gamma   60.34138328
_symmetry_Int_Tables_number   1
_chemical_formula_structural   Hf16Fe3Ir5N4
_chemical_formula_sum   'Hf16 Fe3 Ir5 N4'
_cell_volume   457.03080578
_cell_formula_units_Z   1
loop_
 _symmetry_equiv_pos_site_id
 _symmetry_equiv_pos_as_xyz
  1  'x, y, z'
loop_
 _atom_site_type_symbol
 _atom_site_label
 _atom_site_symmetry_multiplicity
 _atom_site_fract_x
 _atom_site_fract_y
 _atom_site_fract_z
 _atom_site_occupancy
  Hf  Hf0  1  0.136550  0.624180  0.624262  1
  Hf  Hf1  1  0.624259  0.136800  0.624094  1
  Hf  Hf2  1  0.624311  0.624071  0.136731  1
  Hf  Hf3  1  0.616349  0.616080  0.616143  1
  Hf  Hf4  1  0.816150  0.816166  0.185653  1
  Hf  Hf5  1  0.186718  0.186663  0.814934  1
  Hf  Hf6  1  0.816151  0.185656  0.816150  1
  Hf  Hf7  1  0.186721  0.814941  0.186673  1
  Hf  Hf8  1  0.185697  0.816144  0.816131  1
  Hf  Hf9  1  0.814949  0.186666  0.186678  1
  Hf  Hf10  1  0.435414  0.435424  0.060207  1
  Hf  Hf11  1  0.065996  0.066112  0.434236  1
  Hf  Hf12  1  0.435425  0.060229  0.435434  1
  Hf  Hf13  1  0.066018  0.434232  0.066100  1
  Hf  Hf14  1  0.060155  0.435412  0.435413  1
  Hf  Hf15  1  0.434243  0.066061  0.066024  1
  Fe  Fe16  1  0.765223  0.408881  0.408902  1
  Fe  Fe17  1  0.408811  0.765342  0.408876  1
  Fe  Fe18  1  0.408830  0.408879  0.765299  1
  Ir  Ir19  1  0.412994  0.413067  0.413057  1
  Ir  Ir20  1  0.494758  0.833302  0.833287  1
  Ir  Ir21  1  0.833314  0.494718  0.833318  1
  Ir  Ir22  1  0.833301  0.833323  0.494722  1
  Ir  Ir23  1  0.837002  0.836989  0.837001  1
  N  N24  1  0.624092  0.125895  0.125895  1
  N  N25  1  0.125896  0.624062  0.125909  1
  N  N26  1  0.125891  0.125904  0.624074  1
  N  N27  1  0.124785  0.124801  0.124795  1
