# generated using pymatgen
data_Ho4Th2OsRu
_symmetry_space_group_name_H-M   'P 1'
_cell_length_a   6.34826000
_cell_length_b   7.27186300
_cell_length_c   9.50270100
_cell_angle_alpha   90.00000000
_cell_angle_beta   90.00000000
_cell_angle_gamma   90.00000000
_symmetry_Int_Tables_number   1
_chemical_formula_structural   Ho4Th2OsRu
_chemical_formula_sum   'Ho8 Th4 Os2 Ru2'
_cell_volume   438.67961967
_cell_formula_units_Z   2
loop_
 _symmetry_equiv_pos_site_id
 _symmetry_equiv_pos_as_xyz
  1  'x, y, z'
loop_
 _atom_site_type_symbol
 _atom_site_label
 _atom_site_symmetry_multiplicity
 _atom_site_fract_x
 _atom_site_fract_y
 _atom_site_fract_z
 _atom_site_occupancy
  Ho  Ho0  1  0.333401  0.675910  0.067012  1
  Ho  Ho1  1  0.166599  0.175910  0.432988  1
  Ho  Ho2  1  0.663985  0.324168  0.565062  1
  Ho  Ho3  1  0.836015  0.824168  0.934938  1
  Ho  Ho4  1  0.663985  0.324168  0.934938  1
  Ho  Ho5  1  0.836015  0.824168  0.565062  1
  Ho  Ho6  1  0.333401  0.675910  0.432988  1
  Ho  Ho7  1  0.166599  0.175910  0.067012  1
  Th  Th8  1  0.849947  0.542671  0.250000  1
  Th  Th9  1  0.650053  0.042671  0.250000  1
  Th  Th10  1  0.150925  0.452739  0.750000  1
  Th  Th11  1  0.349075  0.952738  0.750000  1
  Os  Os12  1  0.040128  0.872578  0.250000  1
  Os  Os13  1  0.459872  0.372578  0.250000  1
  Ru  Ru14  1  0.970040  0.131857  0.750000  1
  Ru  Ru15  1  0.529960  0.631857  0.750000  1
