# generated using pymatgen
data_CaDy(ErB8)2
_symmetry_space_group_name_H-M   'P 1'
_cell_length_a   7.10015466
_cell_length_b   7.10039787
_cell_length_c   4.01934600
_cell_angle_alpha   90.00000000
_cell_angle_beta   90.00000000
_cell_angle_gamma   90.06553011
_symmetry_Int_Tables_number   1
_chemical_formula_structural   CaDy(ErB8)2
_chemical_formula_sum   'Ca1 Dy1 Er2 B16'
_cell_volume   202.63086730
_cell_formula_units_Z   1
loop_
 _symmetry_equiv_pos_site_id
 _symmetry_equiv_pos_as_xyz
  1  'x, y, z'
loop_
 _atom_site_type_symbol
 _atom_site_label
 _atom_site_symmetry_multiplicity
 _atom_site_fract_x
 _atom_site_fract_y
 _atom_site_fract_z
 _atom_site_occupancy
  Ca  Ca0  1  0.180600  0.680535  0.000000  1
  Dy  Dy1  1  0.681799  0.818247  0.000000  1
  Er  Er2  1  0.318478  0.181465  0.000000  1
  Er  Er3  1  0.819335  0.319342  0.000000  1
  B  B4  1  0.323807  0.460261  0.500000  1
  B  B5  1  0.676863  0.536952  0.500000  1
  B  B6  1  0.538753  0.323672  0.500000  1
  B  B7  1  0.462564  0.675507  0.500000  1
  B  B8  1  0.000409  0.000130  0.202971  1
  B  B9  1  0.499141  0.499209  0.797034  1
  B  B10  1  0.000409  0.000130  0.797029  1
  B  B11  1  0.499141  0.499209  0.202966  1
  B  B12  1  0.586987  0.087286  0.500000  1
  B  B13  1  0.086016  0.412708  0.500000  1
  B  B14  1  0.912584  0.586093  0.500000  1
  B  B15  1  0.413702  0.914042  0.500000  1
  B  B16  1  0.037814  0.177500  0.500000  1
  B  B17  1  0.176213  0.963568  0.500000  1
  B  B18  1  0.824323  0.039654  0.500000  1
  B  B19  1  0.961058  0.824487  0.500000  1
