# generated using pymatgen
data_Er4Tc5Os3
_symmetry_space_group_name_H-M   'P 1'
_cell_length_a   5.31983815
_cell_length_b   5.25378055
_cell_length_c   8.94928800
_cell_angle_alpha   90.00000000
_cell_angle_beta   90.00000000
_cell_angle_gamma   119.59009142
_symmetry_Int_Tables_number   1
_chemical_formula_structural   Er4Tc5Os3
_chemical_formula_sum   'Er4 Tc5 Os3'
_cell_volume   217.50464857
_cell_formula_units_Z   1
loop_
 _symmetry_equiv_pos_site_id
 _symmetry_equiv_pos_as_xyz
  1  'x, y, z'
loop_
 _atom_site_type_symbol
 _atom_site_label
 _atom_site_symmetry_multiplicity
 _atom_site_fract_x
 _atom_site_fract_y
 _atom_site_fract_z
 _atom_site_occupancy
  Er  Er0  1  0.332799  0.666400  0.436024  1
  Er  Er1  1  0.668580  0.334289  0.565563  1
  Er  Er2  1  0.668580  0.334289  0.934437  1
  Er  Er3  1  0.332799  0.666400  0.063976  1
  Tc  Tc4  1  0.827993  0.170284  0.250000  1
  Tc  Tc5  1  0.827993  0.657709  0.250000  1
  Tc  Tc6  1  0.340975  0.170487  0.250000  1
  Tc  Tc7  1  0.168289  0.829155  0.750000  1
  Tc  Tc8  1  0.168289  0.339133  0.750000  1
  Os  Os9  1  0.004668  0.002334  0.499794  1
  Os  Os10  1  0.004668  0.002334  0.000206  1
  Os  Os11  1  0.654368  0.827184  0.750000  1
