# generated using pymatgen
data_Tb8Dy12GaCo4Bi7
_symmetry_space_group_name_H-M   'P 1'
_cell_length_a   7.99786293
_cell_length_b   8.89251633
_cell_length_c   12.32033267
_cell_angle_alpha   90.14852834
_cell_angle_beta   90.17809018
_cell_angle_gamma   90.13658959
_symmetry_Int_Tables_number   1
_chemical_formula_structural   Tb8Dy12GaCo4Bi7
_chemical_formula_sum   'Tb8 Dy12 Ga1 Co4 Bi7'
_cell_volume   876.22625773
_cell_formula_units_Z   1
loop_
 _symmetry_equiv_pos_site_id
 _symmetry_equiv_pos_as_xyz
  1  'x, y, z'
loop_
 _atom_site_type_symbol
 _atom_site_label
 _atom_site_symmetry_multiplicity
 _atom_site_fract_x
 _atom_site_fract_y
 _atom_site_fract_z
 _atom_site_occupancy
  Tb  Tb0  1  0.839650  0.742107  0.798068  1
  Tb  Tb1  1  0.151216  0.249765  0.195273  1
  Tb  Tb2  1  0.354509  0.258902  0.703950  1
  Tb  Tb3  1  0.650137  0.751542  0.300456  1
  Tb  Tb4  1  0.390258  0.739885  0.696033  1
  Tb  Tb5  1  0.616707  0.249278  0.311550  1
  Tb  Tb6  1  0.868174  0.257807  0.811838  1
  Tb  Tb7  1  0.117835  0.750000  0.188728  1
  Dy  Dy8  1  0.952771  0.752510  0.503273  1
  Dy  Dy9  1  0.051908  0.248234  0.497936  1
  Dy  Dy10  1  0.462448  0.262705  0.989723  1
  Dy  Dy11  1  0.548581  0.737179  0.995229  1
  Dy  Dy12  1  0.677373  0.035067  0.565010  1
  Dy  Dy13  1  0.324588  0.962917  0.437352  1
  Dy  Dy14  1  0.175591  0.966900  0.934526  1
  Dy  Dy15  1  0.325038  0.533992  0.436464  1
  Dy  Dy16  1  0.819738  0.030955  0.063382  1
  Dy  Dy17  1  0.674439  0.467661  0.572052  1
  Dy  Dy18  1  0.823671  0.465332  0.062171  1
  Dy  Dy19  1  0.180573  0.534658  0.933327  1
  Ga  Ga20  1  0.569287  0.495544  0.829851  1
  Co  Co21  1  0.564907  0.749384  0.509495  1
  Co  Co22  1  0.436748  0.249537  0.493976  1
  Co  Co23  1  0.056815  0.250243  0.990910  1
  Co  Co24  1  0.937882  0.749016  0.005929  1
  Bi  Bi25  1  0.427961  0.508085  0.174881  1
  Bi  Bi26  1  0.071842  0.507063  0.672402  1
  Bi  Bi27  1  0.428355  0.992691  0.168192  1
  Bi  Bi28  1  0.928577  0.491780  0.327862  1
  Bi  Bi29  1  0.571428  0.006558  0.827973  1
  Bi  Bi30  1  0.929336  0.008846  0.325817  1
  Bi  Bi31  1  0.071660  0.993856  0.676372  1
