# generated using pymatgen
data_BaNdAgS3
_symmetry_space_group_name_H-M   'P 1'
_cell_length_a   7.27050683
_cell_length_b   7.27050550
_cell_length_c   10.62337800
_cell_angle_alpha   90.00000000
_cell_angle_beta   90.00000000
_cell_angle_gamma   146.23736262
_symmetry_Int_Tables_number   1
_chemical_formula_structural   BaNdAgS3
_chemical_formula_sum   'Ba2 Nd2 Ag2 S6'
_cell_volume   312.08595380
_cell_formula_units_Z   2
loop_
 _symmetry_equiv_pos_site_id
 _symmetry_equiv_pos_as_xyz
  1  'x, y, z'
loop_
 _atom_site_type_symbol
 _atom_site_label
 _atom_site_symmetry_multiplicity
 _atom_site_fract_x
 _atom_site_fract_y
 _atom_site_fract_z
 _atom_site_occupancy
  Ba  Ba0  1  0.252790  0.747210  0.250000  1
  Ba  Ba1  1  0.747210  0.252790  0.750000  1
  Nd  Nd2  1  0.000000  0.000000  0.000000  1
  Nd  Nd3  1  0.000000  0.000000  0.500000  1
  Ag  Ag4  1  0.529713  0.470287  0.250000  1
  Ag  Ag5  1  0.470287  0.529713  0.750000  1
  S  S6  1  0.364149  0.635851  0.557457  1
  S  S7  1  0.635851  0.364149  0.442543  1
  S  S8  1  0.635851  0.364149  0.057457  1
  S  S9  1  0.078891  0.921109  0.750000  1
  S  S10  1  0.921109  0.078891  0.250000  1
  S  S11  1  0.364149  0.635851  0.942543  1
