# generated using pymatgen
data_Dy3TmTh6(Bi3C)2
_symmetry_space_group_name_H-M   'P 1'
_cell_length_a   9.33940000
_cell_length_b   9.33940030
_cell_length_c   6.46452400
_cell_angle_alpha   90.00000000
_cell_angle_beta   90.00000000
_cell_angle_gamma   119.99999895
_symmetry_Int_Tables_number   1
_chemical_formula_structural   Dy3TmTh6(Bi3C)2
_chemical_formula_sum   'Dy3 Tm1 Th6 Bi6 C2'
_cell_volume   488.32072302
_cell_formula_units_Z   1
loop_
 _symmetry_equiv_pos_site_id
 _symmetry_equiv_pos_as_xyz
  1  'x, y, z'
loop_
 _atom_site_type_symbol
 _atom_site_label
 _atom_site_symmetry_multiplicity
 _atom_site_fract_x
 _atom_site_fract_y
 _atom_site_fract_z
 _atom_site_occupancy
  Dy  Dy0  1  0.666667  0.333333  0.000000  1
  Dy  Dy1  1  0.333333  0.666667  0.000000  1
  Dy  Dy2  1  0.333333  0.666667  0.500000  1
  Tm  Tm3  1  0.666667  0.333333  0.500000  1
  Th  Th4  1  0.780285  0.780286  0.750033  1
  Th  Th5  1  0.219714  0.999999  0.750033  1
  Th  Th6  1  0.000001  0.219715  0.750033  1
  Th  Th7  1  0.219714  0.219715  0.249967  1
  Th  Th8  1  0.780285  0.999999  0.249967  1
  Th  Th9  1  0.000001  0.780286  0.249967  1
  Bi  Bi10  1  0.406259  0.405853  0.749627  1
  Bi  Bi11  1  0.594147  0.000406  0.749627  1
  Bi  Bi12  1  0.999594  0.593741  0.749627  1
  Bi  Bi13  1  0.594147  0.593741  0.250373  1
  Bi  Bi14  1  0.406259  0.000406  0.250373  1
  Bi  Bi15  1  0.999594  0.405853  0.250373  1
  C  C16  1  0.000000  0.000000  0.000000  1
  C  C17  1  0.000000  0.000000  0.500000  1
