# generated using pymatgen
data_Hf3Sc3Si2(As2Ru3)2
_symmetry_space_group_name_H-M   'P 1'
_cell_length_a   7.66038339
_cell_length_b   7.66258793
_cell_length_c   7.66038374
_cell_angle_alpha   127.90315812
_cell_angle_beta   121.70430923
_cell_angle_gamma   81.95211249
_symmetry_Int_Tables_number   1
_chemical_formula_structural   Hf3Sc3Si2(As2Ru3)2
_chemical_formula_sum   'Hf3 Sc3 Si2 As4 Ru6'
_cell_volume   290.43872078
_cell_formula_units_Z   1
loop_
 _symmetry_equiv_pos_site_id
 _symmetry_equiv_pos_as_xyz
  1  'x, y, z'
loop_
 _atom_site_type_symbol
 _atom_site_label
 _atom_site_symmetry_multiplicity
 _atom_site_fract_x
 _atom_site_fract_y
 _atom_site_fract_z
 _atom_site_occupancy
  Hf  Hf0  1  0.250230  0.840746  0.090515  1
  Hf  Hf1  1  0.054741  0.257249  0.702508  1
  Hf  Hf2  1  0.945642  0.646709  0.201067  1
  Sc  Sc3  1  0.468772  0.695848  0.727075  1
  Sc  Sc4  1  0.531823  0.256261  0.224438  1
  Sc  Sc5  1  0.748624  0.837765  0.589141  1
  Si  Si6  1  0.274701  0.269986  0.495286  1
  Si  Si7  1  0.726963  0.223335  0.996372  1
  As  As8  1  0.331214  0.586840  0.252400  1
  As  As9  1  0.670064  0.921033  0.258344  1
  As  As10  1  0.162688  0.921033  0.750969  1
  As  As11  1  0.834440  0.586840  0.755626  1
  Ru  Ru12  1  0.494925  0.493013  0.987988  1
  Ru  Ru13  1  0.005026  0.493013  0.498088  1
  Ru  Ru14  1  0.094754  0.252935  0.106177  1
  Ru  Ru15  1  0.906532  0.012029  0.159926  1
  Ru  Ru16  1  0.352103  0.012029  0.605496  1
  Ru  Ru17  1  0.646758  0.252935  0.658181  1
