# generated using pymatgen
data_Dy3Er5(InIr)2
_symmetry_space_group_name_H-M   'P 1'
_cell_length_a   9.61790743
_cell_length_b   9.61790722
_cell_length_c   9.61790800
_cell_angle_alpha   59.99999731
_cell_angle_beta   59.99999804
_cell_angle_gamma   59.99999598
_symmetry_Int_Tables_number   1
_chemical_formula_structural   Dy3Er5(InIr)2
_chemical_formula_sum   'Dy6 Er10 In4 Ir4'
_cell_volume   629.11026019
_cell_formula_units_Z   2
loop_
 _symmetry_equiv_pos_site_id
 _symmetry_equiv_pos_as_xyz
  1  'x, y, z'
loop_
 _atom_site_type_symbol
 _atom_site_label
 _atom_site_symmetry_multiplicity
 _atom_site_fract_x
 _atom_site_fract_y
 _atom_site_fract_z
 _atom_site_occupancy
  Dy  Dy0  1  0.190212  0.809788  0.809788  1
  Dy  Dy1  1  0.809788  0.190212  0.190212  1
  Dy  Dy2  1  0.809788  0.190212  0.809788  1
  Dy  Dy3  1  0.190212  0.809788  0.190212  1
  Dy  Dy4  1  0.809788  0.809788  0.190212  1
  Dy  Dy5  1  0.190212  0.190212  0.809788  1
  Er  Er6  1  0.598625  0.598625  0.598625  1
  Er  Er7  1  0.598625  0.598625  0.204124  1
  Er  Er8  1  0.598625  0.204124  0.598625  1
  Er  Er9  1  0.204124  0.598625  0.598625  1
  Er  Er10  1  0.060005  0.439995  0.439995  1
  Er  Er11  1  0.439995  0.060005  0.060005  1
  Er  Er12  1  0.439995  0.060005  0.439995  1
  Er  Er13  1  0.060005  0.439995  0.060005  1
  Er  Er14  1  0.439995  0.439995  0.060005  1
  Er  Er15  1  0.060005  0.060005  0.439995  1
  In  In16  1  0.832703  0.832703  0.832703  1
  In  In17  1  0.832703  0.832703  0.501893  1
  In  In18  1  0.832703  0.501893  0.832703  1
  In  In19  1  0.501893  0.832703  0.832703  1
  Ir  Ir20  1  0.391117  0.391117  0.391117  1
  Ir  Ir21  1  0.391117  0.391117  0.826650  1
  Ir  Ir22  1  0.391117  0.826650  0.391117  1
  Ir  Ir23  1  0.826650  0.391117  0.391117  1
