# generated using pymatgen
data_Ho8Nb11Si16Ru
_symmetry_space_group_name_H-M   'P 1'
_cell_length_a   7.04285906
_cell_length_b   7.03345099
_cell_length_c   13.01459034
_cell_angle_alpha   90.01878599
_cell_angle_beta   89.75549815
_cell_angle_gamma   89.90997352
_symmetry_Int_Tables_number   1
_chemical_formula_structural   Ho8Nb11Si16Ru
_chemical_formula_sum   'Ho8 Nb11 Si16 Ru1'
_cell_volume   644.67889153
_cell_formula_units_Z   1
loop_
 _symmetry_equiv_pos_site_id
 _symmetry_equiv_pos_as_xyz
  1  'x, y, z'
loop_
 _atom_site_type_symbol
 _atom_site_label
 _atom_site_symmetry_multiplicity
 _atom_site_fract_x
 _atom_site_fract_y
 _atom_site_fract_z
 _atom_site_occupancy
  Ho  Ho0  1  0.342687  0.002189  0.469317  1
  Ho  Ho1  1  0.500158  0.841854  0.717258  1
  Ho  Ho2  1  0.501664  0.158247  0.217303  1
  Ho  Ho3  1  0.842355  0.498798  0.283669  1
  Ho  Ho4  1  0.156994  0.501927  0.781785  1
  Ho  Ho5  1  0.658486  0.997791  0.966280  1
  Ho  Ho6  1  0.001569  0.341663  0.532622  1
  Ho  Ho7  1  0.998792  0.658073  0.031889  1
  Nb  Nb8  1  0.329407  0.329775  0.999964  1
  Nb  Nb9  1  0.171968  0.828710  0.250948  1
  Nb  Nb10  1  0.827593  0.175991  0.750367  1
  Nb  Nb11  1  0.667924  0.672330  0.499123  1
  Nb  Nb12  1  0.153017  0.004194  0.873113  1
  Nb  Nb13  1  0.493435  0.653614  0.124166  1
  Nb  Nb14  1  0.505479  0.345474  0.624232  1
  Nb  Nb15  1  0.656005  0.495004  0.874336  1
  Nb  Nb16  1  0.342575  0.509900  0.377476  1
  Nb  Nb17  1  0.845754  0.994339  0.373918  1
  Nb  Nb18  1  0.006943  0.153154  0.125728  1
  Si  Si19  1  0.197233  0.126287  0.682820  1
  Si  Si20  1  0.366340  0.703447  0.931923  1
  Si  Si21  1  0.631299  0.296223  0.433744  1
  Si  Si22  1  0.705668  0.366945  0.067428  1
  Si  Si23  1  0.292244  0.633214  0.568858  1
  Si  Si24  1  0.796225  0.866378  0.182279  1
  Si  Si25  1  0.134332  0.203520  0.317929  1
  Si  Si26  1  0.868102  0.799612  0.814299  1
  Si  Si27  1  0.293869  0.954168  0.063028  1
  Si  Si28  1  0.546020  0.793719  0.312958  1
  Si  Si29  1  0.453104  0.207795  0.813263  1
  Si  Si30  1  0.793284  0.549501  0.684466  1
  Si  Si31  1  0.205946  0.454473  0.186653  1
  Si  Si32  1  0.715879  0.040500  0.563775  1
  Si  Si33  1  0.955278  0.293107  0.937135  1
  Si  Si34  1  0.041392  0.709339  0.439736  1
  Ru  Ru35  1  0.000980  0.838745  0.626211  1
