# generated using pymatgen
data_Dy2Al6Si3Os2Rh
_symmetry_space_group_name_H-M   'P 1'
_cell_length_a   7.46346810
_cell_length_b   7.44426878
_cell_length_c   9.40537576
_cell_angle_alpha   90.09155336
_cell_angle_beta   90.06387410
_cell_angle_gamma   119.95779927
_symmetry_Int_Tables_number   1
_chemical_formula_structural   Dy2Al6Si3Os2Rh
_chemical_formula_sum   'Dy4 Al12 Si6 Os4 Rh2'
_cell_volume   452.74370366
_cell_formula_units_Z   2
loop_
 _symmetry_equiv_pos_site_id
 _symmetry_equiv_pos_as_xyz
  1  'x, y, z'
loop_
 _atom_site_type_symbol
 _atom_site_label
 _atom_site_symmetry_multiplicity
 _atom_site_fract_x
 _atom_site_fract_y
 _atom_site_fract_z
 _atom_site_occupancy
  Dy  Dy0  1  0.999738  0.664508  0.752837  1
  Dy  Dy1  1  0.000262  0.335492  0.247163  1
  Dy  Dy2  1  0.673375  0.006031  0.755721  1
  Dy  Dy3  1  0.326625  0.993969  0.244279  1
  Al  Al4  1  0.126838  0.127303  0.750208  1
  Al  Al5  1  0.873162  0.872697  0.249792  1
  Al  Al6  1  0.660736  0.995163  0.428924  1
  Al  Al7  1  0.339264  0.004837  0.571076  1
  Al  Al8  1  0.337460  0.336495  0.058765  1
  Al  Al9  1  0.662540  0.663505  0.941235  1
  Al  Al10  1  0.662686  0.665986  0.558020  1
  Al  Al11  1  0.337314  0.334014  0.441980  1
  Al  Al12  1  0.339196  0.548596  0.749988  1
  Al  Al13  1  0.660804  0.451404  0.250012  1
  Al  Al14  1  0.547772  0.341988  0.750449  1
  Al  Al15  1  0.452228  0.658012  0.249551  1
  Si  Si16  1  0.002467  0.330242  0.566604  1
  Si  Si17  1  0.997533  0.669758  0.433396  1
  Si  Si18  1  0.990202  0.663044  0.071754  1
  Si  Si19  1  0.337027  0.008231  0.923409  1
  Si  Si20  1  0.009798  0.336956  0.928246  1
  Si  Si21  1  0.662973  0.991769  0.076591  1
  Os  Os22  1  0.688424  0.335942  0.502024  1
  Os  Os23  1  0.311576  0.664058  0.497976  1
  Os  Os24  1  0.318373  0.681124  0.000303  1
  Os  Os25  1  0.681627  0.318876  0.999697  1
  Rh  Rh26  1  0.000000  0.000000  0.500000  1
  Rh  Rh27  1  0.000000  0.000000  0.000000  1
