# generated using pymatgen
data_DyY2Zn2In3Ru
_symmetry_space_group_name_H-M   'P 1'
_cell_length_a   7.72922042
_cell_length_b   7.74205706
_cell_length_c   3.89865500
_cell_angle_alpha   90.00000000
_cell_angle_beta   90.00000000
_cell_angle_gamma   120.14196848
_symmetry_Int_Tables_number   1
_chemical_formula_structural   DyY2Zn2In3Ru
_chemical_formula_sum   'Dy1 Y2 Zn2 In3 Ru1'
_cell_volume   201.75041200
_cell_formula_units_Z   1
loop_
 _symmetry_equiv_pos_site_id
 _symmetry_equiv_pos_as_xyz
  1  'x, y, z'
loop_
 _atom_site_type_symbol
 _atom_site_label
 _atom_site_symmetry_multiplicity
 _atom_site_fract_x
 _atom_site_fract_y
 _atom_site_fract_z
 _atom_site_occupancy
  Dy  Dy0  1  0.027855  0.418391  0.000000  1
  Y  Y1  1  0.582954  0.609337  0.000000  1
  Y  Y2  1  0.390694  0.973511  0.000000  1
  Zn  Zn3  1  0.000023  0.000227  0.000000  1
  Zn  Zn4  1  0.667052  0.333417  0.500000  1
  In  In5  1  0.997597  0.735010  0.500000  1
  In  In6  1  0.264501  0.262318  0.500000  1
  In  In7  1  0.737860  0.002571  0.500000  1
  Ru  Ru8  1  0.331465  0.665218  0.500000  1
