# generated using pymatgen
data_Hf3Zr3PdRh9
_symmetry_space_group_name_H-M   'P 1'
_cell_length_a   4.32101300
_cell_length_b   5.61812131
_cell_length_c   11.01413747
_cell_angle_alpha   89.18014634
_cell_angle_beta   90.00000000
_cell_angle_gamma   90.00000000
_symmetry_Int_Tables_number   1
_chemical_formula_structural   Hf3Zr3PdRh9
_chemical_formula_sum   'Hf3 Zr3 Pd1 Rh9'
_cell_volume   267.35155549
_cell_formula_units_Z   1
loop_
 _symmetry_equiv_pos_site_id
 _symmetry_equiv_pos_as_xyz
  1  'x, y, z'
loop_
 _atom_site_type_symbol
 _atom_site_label
 _atom_site_symmetry_multiplicity
 _atom_site_fract_x
 _atom_site_fract_y
 _atom_site_fract_z
 _atom_site_occupancy
  Hf  Hf0  1  0.500000  0.345250  0.146133  1
  Hf  Hf1  1  0.000000  0.492364  0.496024  1
  Hf  Hf2  1  0.000000  0.008408  0.000645  1
  Zr  Zr3  1  0.500000  0.145776  0.643692  1
  Zr  Zr4  1  0.500000  0.840354  0.353473  1
  Zr  Zr5  1  0.500000  0.666028  0.858636  1
  Pd  Pd6  1  0.000000  0.404184  0.747689  1
  Rh  Rh7  1  0.500000  0.184784  0.892853  1
  Rh  Rh8  1  0.500000  0.820573  0.106757  1
  Rh  Rh9  1  0.500000  0.669852  0.607091  1
  Rh  Rh10  1  0.500000  0.315631  0.392035  1
  Rh  Rh11  1  0.000000  0.601673  0.257935  1
  Rh  Rh12  1  0.000000  0.995310  0.498039  1
  Rh  Rh13  1  0.000000  0.504643  0.004252  1
  Rh  Rh14  1  0.000000  0.103026  0.239739  1
  Rh  Rh15  1  0.000000  0.902145  0.755005  1
