# generated using pymatgen
data_Rb2LaDy5F20
_symmetry_space_group_name_H-M   'P 1'
_cell_length_a   8.38996510
_cell_length_b   8.38996580
_cell_length_c   8.30942600
_cell_angle_alpha   60.31704534
_cell_angle_beta   60.31704263
_cell_angle_gamma   59.36590995
_symmetry_Int_Tables_number   1
_chemical_formula_structural   Rb2LaDy5F20
_chemical_formula_sum   'Rb2 La1 Dy5 F20'
_cell_volume   413.52052952
_cell_formula_units_Z   1
loop_
 _symmetry_equiv_pos_site_id
 _symmetry_equiv_pos_as_xyz
  1  'x, y, z'
loop_
 _atom_site_type_symbol
 _atom_site_label
 _atom_site_symmetry_multiplicity
 _atom_site_fract_x
 _atom_site_fract_y
 _atom_site_fract_z
 _atom_site_occupancy
  Rb  Rb0  1  0.248275  0.248275  0.251725  1
  Rb  Rb1  1  0.748275  0.748275  0.751725  1
  La  La2  1  0.757078  0.757078  0.242922  1
  Dy  Dy3  1  0.759313  0.238680  0.240687  1
  Dy  Dy4  1  0.238680  0.759313  0.761320  1
  Dy  Dy5  1  0.238680  0.759313  0.240687  1
  Dy  Dy6  1  0.759313  0.238680  0.761320  1
  Dy  Dy7  1  0.240538  0.240538  0.759462  1
  F  F8  1  0.835293  0.488647  0.511353  1
  F  F9  1  0.171575  0.500479  0.499521  1
  F  F10  1  0.488647  0.835293  0.164707  1
  F  F11  1  0.500479  0.171575  0.828425  1
  F  F12  1  0.488647  0.835293  0.511353  1
  F  F13  1  0.171575  0.500479  0.828425  1
  F  F14  1  0.500479  0.171575  0.499521  1
  F  F15  1  0.835293  0.488647  0.164707  1
  F  F16  1  0.500499  0.500499  0.824544  1
  F  F17  1  0.500499  0.500499  0.174458  1
  F  F18  1  0.175456  0.825542  0.499501  1
  F  F19  1  0.825542  0.175456  0.499501  1
  F  F20  1  0.109870  0.109870  0.110155  1
  F  F21  1  0.894096  0.894096  0.877798  1
  F  F22  1  0.109870  0.109870  0.670107  1
  F  F23  1  0.122202  0.665989  0.105904  1
  F  F24  1  0.894096  0.894096  0.334011  1
  F  F25  1  0.889845  0.329893  0.890130  1
  F  F26  1  0.665989  0.122202  0.105904  1
  F  F27  1  0.329893  0.889845  0.890130  1
