# generated using pymatgen
data_La4Ga5Br2
_symmetry_space_group_name_H-M   'P 1'
_cell_length_a   11.59868200
_cell_length_b   11.59876062
_cell_length_c   4.28048300
_cell_angle_alpha   90.00000000
_cell_angle_beta   90.00000000
_cell_angle_gamma   93.47780676
_symmetry_Int_Tables_number   1
_chemical_formula_structural   La4Ga5Br2
_chemical_formula_sum   'La8 Ga10 Br4'
_cell_volume   574.79430511
_cell_formula_units_Z   2
loop_
 _symmetry_equiv_pos_site_id
 _symmetry_equiv_pos_as_xyz
  1  'x, y, z'
loop_
 _atom_site_type_symbol
 _atom_site_label
 _atom_site_symmetry_multiplicity
 _atom_site_fract_x
 _atom_site_fract_y
 _atom_site_fract_z
 _atom_site_occupancy
  La  La0  1  0.674365  0.039757  0.500000  1
  La  La1  1  0.325635  0.960243  0.500000  1
  La  La2  1  0.039991  0.674298  0.500000  1
  La  La3  1  0.960009  0.325702  0.500000  1
  La  La4  1  0.729246  0.729478  0.000000  1
  La  La5  1  0.270754  0.270522  0.000000  1
  La  La6  1  0.368201  0.631724  0.000000  1
  La  La7  1  0.631799  0.368276  0.000000  1
  Ga  Ga8  1  0.579125  0.579179  0.500000  1
  Ga  Ga9  1  0.420875  0.420821  0.500000  1
  Ga  Ga10  1  0.537013  0.899168  0.000000  1
  Ga  Ga11  1  0.462987  0.100832  0.000000  1
  Ga  Ga12  1  0.899178  0.537292  0.000000  1
  Ga  Ga13  1  0.100822  0.462708  0.000000  1
  Ga  Ga14  1  0.510962  0.781414  0.500000  1
  Ga  Ga15  1  0.489038  0.218586  0.500000  1
  Ga  Ga16  1  0.218624  0.488860  0.500000  1
  Ga  Ga17  1  0.781376  0.511140  0.500000  1
  Br  Br18  1  0.124133  0.124182  0.500000  1
  Br  Br19  1  0.875867  0.875818  0.500000  1
  Br  Br20  1  0.824577  0.175432  0.000000  1
  Br  Br21  1  0.175423  0.824568  0.000000  1
