# generated using pymatgen
data_Dy3Y(CuP2)4
_symmetry_space_group_name_H-M   'P 1'
_cell_length_a   3.71447000
_cell_length_b   3.77519001
_cell_length_c   19.51029600
_cell_angle_alpha   90.00393082
_cell_angle_beta   90.00000000
_cell_angle_gamma   90.00000000
_symmetry_Int_Tables_number   1
_chemical_formula_structural   Dy3Y(CuP2)4
_chemical_formula_sum   'Dy3 Y1 Cu4 P8'
_cell_volume   273.58956404
_cell_formula_units_Z   1
loop_
 _symmetry_equiv_pos_site_id
 _symmetry_equiv_pos_as_xyz
  1  'x, y, z'
loop_
 _atom_site_type_symbol
 _atom_site_label
 _atom_site_symmetry_multiplicity
 _atom_site_fract_x
 _atom_site_fract_y
 _atom_site_fract_z
 _atom_site_occupancy
  Dy  Dy0  1  0.250000  0.718031  0.382218  1
  Dy  Dy1  1  0.250000  0.782257  0.882494  1
  Dy  Dy2  1  0.750000  0.281892  0.617664  1
  Y  Y3  1  0.750000  0.217024  0.117384  1
  Cu  Cu4  1  0.250000  0.218758  0.249818  1
  Cu  Cu5  1  0.750000  0.781859  0.750387  1
  Cu  Cu6  1  0.250000  0.281750  0.749828  1
  Cu  Cu7  1  0.750000  0.718862  0.250429  1
  P  P8  1  0.750000  0.807188  0.501936  1
  P  P9  1  0.750000  0.694649  0.001593  1
  P  P10  1  0.250000  0.193056  0.497853  1
  P  P11  1  0.250000  0.304793  0.997881  1
  P  P12  1  0.250000  0.718040  0.172531  1
  P  P13  1  0.750000  0.218532  0.327784  1
  P  P14  1  0.750000  0.281704  0.828059  1
  P  P15  1  0.250000  0.781608  0.672142  1
