# generated using pymatgen
data_Sc8B24Ir3Ru
_symmetry_space_group_name_H-M   'P 1'
_cell_length_a   3.47568500
_cell_length_b   8.90405422
_cell_length_c   11.21440480
_cell_angle_alpha   90.02714354
_cell_angle_beta   90.00000000
_cell_angle_gamma   90.00000000
_symmetry_Int_Tables_number   1
_chemical_formula_structural   Sc8B24Ir3Ru
_chemical_formula_sum   'Sc8 B24 Ir3 Ru1'
_cell_volume   347.05985849
_cell_formula_units_Z   1
loop_
 _symmetry_equiv_pos_site_id
 _symmetry_equiv_pos_as_xyz
  1  'x, y, z'
loop_
 _atom_site_type_symbol
 _atom_site_label
 _atom_site_symmetry_multiplicity
 _atom_site_fract_x
 _atom_site_fract_y
 _atom_site_fract_z
 _atom_site_occupancy
  Sc  Sc0  1  0.000000  0.316762  0.413636  1
  Sc  Sc1  1  0.000000  0.685242  0.588131  1
  Sc  Sc2  1  0.000000  0.817035  0.084284  1
  Sc  Sc3  1  0.000000  0.180263  0.913067  1
  Sc  Sc4  1  0.000000  0.943900  0.375257  1
  Sc  Sc5  1  0.000000  0.054453  0.625987  1
  Sc  Sc6  1  0.000000  0.443590  0.124840  1
  Sc  Sc7  1  0.000000  0.558141  0.875009  1
  B  B8  1  0.500000  0.553997  0.436603  1
  B  B9  1  0.500000  0.446727  0.563954  1
  B  B10  1  0.500000  0.053000  0.063568  1
  B  B11  1  0.500000  0.946173  0.935379  1
  B  B12  1  0.500000  0.752898  0.422494  1
  B  B13  1  0.500000  0.247309  0.577796  1
  B  B14  1  0.500000  0.252547  0.077662  1
  B  B15  1  0.500000  0.747708  0.921216  1
  B  B16  1  0.500000  0.794873  0.262875  1
  B  B17  1  0.500000  0.205078  0.736395  1
  B  B18  1  0.500000  0.295031  0.237018  1
  B  B19  1  0.500000  0.705819  0.764068  1
  B  B20  1  0.500000  0.630028  0.181037  1
  B  B21  1  0.500000  0.369692  0.818636  1
  B  B22  1  0.500000  0.130214  0.318872  1
  B  B23  1  0.500000  0.870232  0.682384  1
  B  B24  1  0.500000  0.978572  0.213077  1
  B  B25  1  0.500000  0.020318  0.786855  1
  B  B26  1  0.500000  0.478807  0.287078  1
  B  B27  1  0.500000  0.521416  0.713102  1
  B  B28  1  0.500000  0.602666  0.028110  1
  B  B29  1  0.500000  0.396740  0.971881  1
  B  B30  1  0.500000  0.102852  0.471902  1
  B  B31  1  0.500000  0.897427  0.528019  1
  Ir  Ir32  1  0.000000  0.639518  0.320535  1
  Ir  Ir33  1  0.000000  0.361043  0.679907  1
  Ir  Ir34  1  0.000000  0.138767  0.179156  1
  Ru  Ru35  1  0.000000  0.861160  0.820209  1
