# generated using pymatgen
data_Zr12TiAl3(Rh2N)4
_symmetry_space_group_name_H-M   'P 1'
_cell_length_a   8.58632498
_cell_length_b   8.60149224
_cell_length_c   8.60149700
_cell_angle_alpha   59.99983695
_cell_angle_beta   59.94147726
_cell_angle_gamma   59.94142901
_symmetry_Int_Tables_number   1
_chemical_formula_structural   Zr12TiAl3(Rh2N)4
_chemical_formula_sum   'Zr12 Ti1 Al3 Rh8 N4'
_cell_volume   448.80195918
_cell_formula_units_Z   1
loop_
 _symmetry_equiv_pos_site_id
 _symmetry_equiv_pos_as_xyz
  1  'x, y, z'
loop_
 _atom_site_type_symbol
 _atom_site_label
 _atom_site_symmetry_multiplicity
 _atom_site_fract_x
 _atom_site_fract_y
 _atom_site_fract_z
 _atom_site_occupancy
  Zr  Zr0  1  0.811221  0.810869  0.188954  1
  Zr  Zr1  1  0.193782  0.186638  0.809791  1
  Zr  Zr2  1  0.811222  0.188954  0.810869  1
  Zr  Zr3  1  0.193782  0.809791  0.186638  1
  Zr  Zr4  1  0.193781  0.809790  0.809789  1
  Zr  Zr5  1  0.811222  0.188954  0.188953  1
  Zr  Zr6  1  0.438779  0.439131  0.061046  1
  Zr  Zr7  1  0.056218  0.063362  0.440209  1
  Zr  Zr8  1  0.438778  0.061046  0.439131  1
  Zr  Zr9  1  0.056218  0.440209  0.063362  1
  Zr  Zr10  1  0.056219  0.440210  0.440211  1
  Zr  Zr11  1  0.438778  0.061046  0.061047  1
  Ti  Ti12  1  0.125000  0.625000  0.625000  1
  Al  Al13  1  0.625000  0.125000  0.625000  1
  Al  Al14  1  0.625000  0.625000  0.125000  1
  Al  Al15  1  0.625000  0.625000  0.625000  1
  Rh  Rh16  1  0.749069  0.416979  0.416978  1
  Rh  Rh17  1  0.411443  0.753495  0.417531  1
  Rh  Rh18  1  0.411445  0.417531  0.753493  1
  Rh  Rh19  1  0.411448  0.417531  0.417532  1
  Rh  Rh20  1  0.500931  0.833021  0.833022  1
  Rh  Rh21  1  0.838557  0.496505  0.832469  1
  Rh  Rh22  1  0.838555  0.832469  0.496507  1
  Rh  Rh23  1  0.838552  0.832469  0.832468  1
  N  N24  1  0.625000  0.125000  0.125000  1
  N  N25  1  0.125000  0.625000  0.125000  1
  N  N26  1  0.125000  0.125000  0.625000  1
  N  N27  1  0.125000  0.125000  0.125000  1
