# generated using pymatgen
data_Sc6MnCo12Si7Ni3
_symmetry_space_group_name_H-M   'P 1'
_cell_length_a   8.08672772
_cell_length_b   8.08672778
_cell_length_c   8.07483843
_cell_angle_alpha   59.95127872
_cell_angle_beta   59.95127585
_cell_angle_gamma   60.00000009
_symmetry_Int_Tables_number   1
_chemical_formula_structural   Sc6MnCo12Si7Ni3
_chemical_formula_sum   'Sc6 Mn1 Co12 Si7 Ni3'
_cell_volume   373.11633437
_cell_formula_units_Z   1
loop_
 _symmetry_equiv_pos_site_id
 _symmetry_equiv_pos_as_xyz
  1  'x, y, z'
loop_
 _atom_site_type_symbol
 _atom_site_label
 _atom_site_symmetry_multiplicity
 _atom_site_fract_x
 _atom_site_fract_y
 _atom_site_fract_z
 _atom_site_occupancy
  Sc  Sc0  1  0.710210  0.710210  0.287159  1
  Sc  Sc1  1  0.292423  0.710210  0.287159  1
  Sc  Sc2  1  0.710210  0.292423  0.287159  1
  Sc  Sc3  1  0.286380  0.286380  0.718204  1
  Sc  Sc4  1  0.709035  0.286380  0.718204  1
  Sc  Sc5  1  0.286380  0.709035  0.718204  1
  Mn  Mn6  1  0.877934  0.877934  0.366196  1
  Co  Co7  1  0.878893  0.363857  0.878354  1
  Co  Co8  1  0.363857  0.878893  0.878354  1
  Co  Co9  1  0.878893  0.878893  0.878354  1
  Co  Co10  1  0.120513  0.120513  0.638462  1
  Co  Co11  1  0.116453  0.643620  0.123475  1
  Co  Co12  1  0.643620  0.116453  0.123475  1
  Co  Co13  1  0.116453  0.116453  0.123475  1
  Co  Co14  1  0.672399  0.672399  0.982801  1
  Co  Co15  1  0.674611  0.981069  0.669708  1
  Co  Co16  1  0.981069  0.674611  0.669708  1
  Co  Co17  1  0.674611  0.674611  0.669708  1
  Co  Co18  1  0.332155  0.332155  0.003536  1
  Si  Si19  1  0.003545  0.003545  0.989364  1
  Si  Si20  1  0.003408  0.003408  0.502720  1
  Si  Si21  1  0.490462  0.003408  0.502720  1
  Si  Si22  1  0.003408  0.490462  0.502720  1
  Si  Si23  1  0.499416  0.499416  0.999750  1
  Si  Si24  1  0.001418  0.499416  0.999750  1
  Si  Si25  1  0.499416  0.001418  0.999750  1
  Ni  Ni26  1  0.332225  0.008375  0.327177  1
  Ni  Ni27  1  0.008375  0.332225  0.327177  1
  Ni  Ni28  1  0.332225  0.332225  0.327177  1
