# generated using pymatgen
data_Hf18VCo2Re6W
_symmetry_space_group_name_H-M   'P 1'
_cell_length_a   8.61011700
_cell_length_b   8.61011584
_cell_length_c   8.41402300
_cell_angle_alpha   90.00000000
_cell_angle_beta   90.00000000
_cell_angle_gamma   120.00000062
_symmetry_Int_Tables_number   1
_chemical_formula_structural   Hf18VCo2Re6W
_chemical_formula_sum   'Hf18 V1 Co2 Re6 W1'
_cell_volume   540.19725281
_cell_formula_units_Z   1
loop_
 _symmetry_equiv_pos_site_id
 _symmetry_equiv_pos_as_xyz
  1  'x, y, z'
loop_
 _atom_site_type_symbol
 _atom_site_label
 _atom_site_symmetry_multiplicity
 _atom_site_fract_x
 _atom_site_fract_y
 _atom_site_fract_z
 _atom_site_occupancy
  Hf  Hf0  1  0.200770  0.799230  0.440556  1
  Hf  Hf1  1  0.200770  0.401542  0.440556  1
  Hf  Hf2  1  0.598458  0.799230  0.440556  1
  Hf  Hf3  1  0.799230  0.200770  0.559444  1
  Hf  Hf4  1  0.799230  0.598458  0.559444  1
  Hf  Hf5  1  0.401542  0.200770  0.559444  1
  Hf  Hf6  1  0.800806  0.199194  0.941440  1
  Hf  Hf7  1  0.800806  0.601610  0.941440  1
  Hf  Hf8  1  0.398390  0.199194  0.941440  1
  Hf  Hf9  1  0.199194  0.800806  0.058560  1
  Hf  Hf10  1  0.199194  0.398390  0.058560  1
  Hf  Hf11  1  0.601610  0.800806  0.058560  1
  Hf  Hf12  1  0.541773  0.458227  0.249926  1
  Hf  Hf13  1  0.541773  0.083546  0.249926  1
  Hf  Hf14  1  0.916454  0.458227  0.249926  1
  Hf  Hf15  1  0.458227  0.541773  0.750074  1
  Hf  Hf16  1  0.458227  0.916454  0.750074  1
  Hf  Hf17  1  0.083546  0.541773  0.750074  1
  V  V18  1  0.000000  0.000000  0.000000  1
  Co  Co19  1  0.333333  0.666667  0.249613  1
  Co  Co20  1  0.666667  0.333333  0.750387  1
  Re  Re21  1  0.888893  0.111107  0.247417  1
  Re  Re22  1  0.888893  0.777786  0.247417  1
  Re  Re23  1  0.222214  0.111107  0.247417  1
  Re  Re24  1  0.111107  0.888893  0.752583  1
  Re  Re25  1  0.111107  0.222214  0.752583  1
  Re  Re26  1  0.777786  0.888893  0.752583  1
  W  W27  1  0.000000  0.000000  0.500000  1
