# generated using pymatgen
data_Sr8Si12Hg3Ir
_symmetry_space_group_name_H-M   'P 1'
_cell_length_a   11.90576196
_cell_length_b   10.29992272
_cell_length_c   8.44042300
_cell_angle_alpha   78.19126836
_cell_angle_beta   57.88738743
_cell_angle_gamma   43.94218247
_symmetry_Int_Tables_number   1
_chemical_formula_structural   Sr8Si12Hg3Ir
_chemical_formula_sum   'Sr8 Si12 Hg3 Ir1'
_cell_volume   579.74996434
_cell_formula_units_Z   1
loop_
 _symmetry_equiv_pos_site_id
 _symmetry_equiv_pos_as_xyz
  1  'x, y, z'
loop_
 _atom_site_type_symbol
 _atom_site_label
 _atom_site_symmetry_multiplicity
 _atom_site_fract_x
 _atom_site_fract_y
 _atom_site_fract_z
 _atom_site_occupancy
  Sr  Sr0  1  0.123705  0.134033  0.880717  1
  Sr  Sr1  1  0.880718  0.861546  0.123704  1
  Sr  Sr2  1  0.125226  0.135890  0.366460  1
  Sr  Sr3  1  0.366461  0.372423  0.125225  1
  Sr  Sr4  1  0.637131  0.618760  0.367595  1
  Sr  Sr5  1  0.367595  0.376515  0.637131  1
  Sr  Sr6  1  0.627668  0.629945  0.872496  1
  Sr  Sr7  1  0.872497  0.869892  0.627667  1
  Si  Si8  1  0.923156  0.581161  0.403901  1
  Si  Si9  1  0.060346  0.435420  0.595890  1
  Si  Si10  1  0.403901  0.091782  0.923156  1
  Si  Si11  1  0.595890  0.908344  0.060346  1
  Si  Si12  1  0.343050  0.660619  0.816581  1
  Si  Si13  1  0.654502  0.336496  0.185676  1
  Si  Si14  1  0.816581  0.179749  0.343050  1
  Si  Si15  1  0.185676  0.823326  0.654502  1
  Si  Si16  1  0.920902  0.579099  0.920901  1
  Si  Si17  1  0.593968  0.906033  0.593967  1
  Si  Si18  1  0.340492  0.659509  0.340492  1
  Si  Si19  1  0.660210  0.339790  0.660210  1
  Hg  Hg20  1  0.833514  0.166486  0.833514  1
  Hg  Hg21  1  0.167152  0.832848  0.167152  1
  Hg  Hg22  1  0.417252  0.082748  0.417252  1
  Ir  Ir23  1  0.082412  0.417588  0.082412  1
