# generated using pymatgen
data_PrSmZn5Si
_symmetry_space_group_name_H-M   'P 1'
_cell_length_a   8.33973752
_cell_length_b   8.33973807
_cell_length_c   8.80589000
_cell_angle_alpha   90.00000000
_cell_angle_beta   90.00000000
_cell_angle_gamma   149.38634305
_symmetry_Int_Tables_number   1
_chemical_formula_structural   PrSmZn5Si
_chemical_formula_sum   'Pr2 Sm2 Zn10 Si2'
_cell_volume   311.89338144
_cell_formula_units_Z   2
loop_
 _symmetry_equiv_pos_site_id
 _symmetry_equiv_pos_as_xyz
  1  'x, y, z'
loop_
 _atom_site_type_symbol
 _atom_site_label
 _atom_site_symmetry_multiplicity
 _atom_site_fract_x
 _atom_site_fract_y
 _atom_site_fract_z
 _atom_site_occupancy
  Pr  Pr0  1  0.000000  0.000000  0.500000  1
  Pr  Pr1  1  0.000000  0.000000  0.000000  1
  Sm  Sm2  1  0.203421  0.796579  0.250000  1
  Sm  Sm3  1  0.796579  0.203421  0.750000  1
  Zn  Zn4  1  0.813204  0.186796  0.393352  1
  Zn  Zn5  1  0.186796  0.813204  0.606648  1
  Zn  Zn6  1  0.813204  0.186796  0.106648  1
  Zn  Zn7  1  0.186796  0.813204  0.893352  1
  Zn  Zn8  1  0.649958  0.350042  0.475784  1
  Zn  Zn9  1  0.350042  0.649958  0.524216  1
  Zn  Zn10  1  0.649958  0.350042  0.024216  1
  Zn  Zn11  1  0.350042  0.649958  0.975784  1
  Zn  Zn12  1  0.405470  0.594530  0.250000  1
  Zn  Zn13  1  0.594530  0.405470  0.750000  1
  Si  Si14  1  0.558229  0.441771  0.250000  1
  Si  Si15  1  0.441771  0.558229  0.750000  1
