# generated using pymatgen
data_Ba12Sm3YAl6(GaO15)2
_symmetry_space_group_name_H-M   'P 1'
_cell_length_a   6.00331808
_cell_length_b   7.97314501
_cell_length_c   18.62984700
_cell_angle_alpha   88.50066570
_cell_angle_beta   89.96555563
_cell_angle_gamma   89.98504275
_symmetry_Int_Tables_number   1
_chemical_formula_structural   Ba12Sm3YAl6(GaO15)2
_chemical_formula_sum   'Ba12 Sm3 Y1 Al6 Ga2 O30'
_cell_volume   891.41820527
_cell_formula_units_Z   1
loop_
 _symmetry_equiv_pos_site_id
 _symmetry_equiv_pos_as_xyz
  1  'x, y, z'
loop_
 _atom_site_type_symbol
 _atom_site_label
 _atom_site_symmetry_multiplicity
 _atom_site_fract_x
 _atom_site_fract_y
 _atom_site_fract_z
 _atom_site_occupancy
  Ba  Ba0  1  0.756421  0.501391  0.083374  1
  Ba  Ba1  1  0.243526  0.498310  0.916969  1
  Ba  Ba2  1  0.756653  0.500308  0.416902  1
  Ba  Ba3  1  0.245508  0.501413  0.581909  1
  Ba  Ba4  1  0.748329  0.968632  0.091249  1
  Ba  Ba5  1  0.251781  0.030836  0.909124  1
  Ba  Ba6  1  0.749539  0.028602  0.409275  1
  Ba  Ba7  1  0.252148  0.970243  0.589617  1
  Ba  Ba8  1  0.726415  0.001272  0.751557  1
  Ba  Ba9  1  0.272687  0.998050  0.248960  1
  Ba  Ba10  1  0.672563  0.499530  0.750676  1
  Ba  Ba11  1  0.326211  0.501307  0.249938  1
  Sm  Sm12  1  0.748668  0.752789  0.910630  1
  Sm  Sm13  1  0.251281  0.246999  0.089692  1
  Sm  Sm14  1  0.749469  0.246077  0.591109  1
  Y  Y15  1  0.252170  0.753747  0.408599  1
  Al  Al16  1  0.747688  0.247396  0.942949  1
  Al  Al17  1  0.252122  0.752375  0.057298  1
  Al  Al18  1  0.769845  0.779828  0.267514  1
  Al  Al19  1  0.228201  0.220372  0.733980  1
  Al  Al20  1  0.770168  0.220238  0.233940  1
  Al  Al21  1  0.228956  0.779636  0.766041  1
  Ga  Ga22  1  0.748302  0.753575  0.558191  1
  Ga  Ga23  1  0.254003  0.247089  0.439223  1
  O  O24  1  0.207899  0.000061  0.750443  1
  O  O25  1  0.790793  0.999746  0.250066  1
  O  O26  1  0.500827  0.764047  0.004187  1
  O  O27  1  0.499084  0.235742  0.996152  1
  O  O28  1  0.509158  0.234359  0.496835  1
  O  O29  1  0.490631  0.765742  0.500834  1
  O  O30  1  0.767371  0.948943  0.610475  1
  O  O31  1  0.235505  0.047024  0.389270  1
  O  O32  1  0.763817  0.058563  0.892648  1
  O  O33  1  0.236445  0.940906  0.107730  1
  O  O34  1  0.018872  0.763313  0.996614  1
  O  O35  1  0.980783  0.236430  0.003803  1
  O  O36  1  0.014337  0.235680  0.504650  1
  O  O37  1  0.989373  0.764958  0.492647  1
  O  O38  1  0.318357  0.694454  0.685394  1
  O  O39  1  0.679906  0.306104  0.314265  1
  O  O40  1  0.320162  0.305001  0.814322  1
  O  O41  1  0.684217  0.693032  0.186950  1
  O  O42  1  0.443954  0.753679  0.832727  1
  O  O43  1  0.555834  0.245864  0.167266  1
  O  O44  1  0.441545  0.246603  0.667218  1
  O  O45  1  0.550541  0.754296  0.332632  1
  O  O46  1  0.971057  0.727639  0.807771  1
  O  O47  1  0.028727  0.271916  0.192635  1
  O  O48  1  0.968499  0.272950  0.694372  1
  O  O49  1  0.026819  0.729253  0.309945  1
  O  O50  1  0.755756  0.535577  0.595194  1
  O  O51  1  0.246673  0.468141  0.403801  1
  O  O52  1  0.755273  0.457877  0.906648  1
  O  O53  1  0.245127  0.542084  0.093795  1
