# generated using pymatgen
data_Li12ZnSi4
_symmetry_space_group_name_H-M   'P 1'
_cell_length_a   4.42110500
_cell_length_b   7.91117800
_cell_length_c   14.68923300
_cell_angle_alpha   90.00000000
_cell_angle_beta   90.00000000
_cell_angle_gamma   90.00000000
_symmetry_Int_Tables_number   1
_chemical_formula_structural   Li12ZnSi4
_chemical_formula_sum   'Li24 Zn2 Si8'
_cell_volume   513.77279640
_cell_formula_units_Z   2
loop_
 _symmetry_equiv_pos_site_id
 _symmetry_equiv_pos_as_xyz
  1  'x, y, z'
loop_
 _atom_site_type_symbol
 _atom_site_label
 _atom_site_symmetry_multiplicity
 _atom_site_fract_x
 _atom_site_fract_y
 _atom_site_fract_z
 _atom_site_occupancy
  Li  Li0  1  0.000000  0.767640  0.150819  1
  Li  Li1  1  0.000000  0.348992  0.523043  1
  Li  Li2  1  0.000000  0.151008  0.023043  1
  Li  Li3  1  0.500000  0.764936  0.410968  1
  Li  Li4  1  0.000000  0.232360  0.849181  1
  Li  Li5  1  0.000000  0.405076  0.691797  1
  Li  Li6  1  0.000000  0.905076  0.808203  1
  Li  Li7  1  0.500000  0.592572  0.747013  1
  Li  Li8  1  0.500000  0.900596  0.601808  1
  Li  Li9  1  0.000000  0.732360  0.650819  1
  Li  Li10  1  0.500000  0.235064  0.589032  1
  Li  Li11  1  0.500000  0.264936  0.089032  1
  Li  Li12  1  0.500000  0.099404  0.398192  1
  Li  Li13  1  0.500000  0.735064  0.910968  1
  Li  Li14  1  0.500000  0.092572  0.752987  1
  Li  Li15  1  0.000000  0.267640  0.349181  1
  Li  Li16  1  0.500000  0.407428  0.252987  1
  Li  Li17  1  0.000000  0.094924  0.191797  1
  Li  Li18  1  0.500000  0.400596  0.898192  1
  Li  Li19  1  0.000000  0.651008  0.476957  1
  Li  Li20  1  0.000000  0.848992  0.976957  1
  Li  Li21  1  0.500000  0.907428  0.247013  1
  Li  Li22  1  0.500000  0.599404  0.101808  1
  Li  Li23  1  0.000000  0.594924  0.308203  1
  Zn  Zn24  1  0.000000  0.000000  0.500000  1
  Zn  Zn25  1  0.000000  0.500000  0.000000  1
  Si  Si26  1  0.500000  0.928703  0.071831  1
  Si  Si27  1  0.000000  0.580099  0.842944  1
  Si  Si28  1  0.000000  0.419901  0.157056  1
  Si  Si29  1  0.500000  0.571297  0.571831  1
  Si  Si30  1  0.000000  0.080099  0.657056  1
  Si  Si31  1  0.500000  0.428703  0.428169  1
  Si  Si32  1  0.500000  0.071297  0.928169  1
  Si  Si33  1  0.000000  0.919901  0.342944  1
