# generated using pymatgen
data_Pr2Er3Pt4
_symmetry_space_group_name_H-M   'P 1'
_cell_length_a   7.75337600
_cell_length_b   7.68519100
_cell_length_c   14.49266700
_cell_angle_alpha   90.00000000
_cell_angle_beta   90.00000000
_cell_angle_gamma   90.00000000
_symmetry_Int_Tables_number   1
_chemical_formula_structural   Pr2Er3Pt4
_chemical_formula_sum   'Pr8 Er12 Pt16'
_cell_volume   863.56259867
_cell_formula_units_Z   4
loop_
 _symmetry_equiv_pos_site_id
 _symmetry_equiv_pos_as_xyz
  1  'x, y, z'
loop_
 _atom_site_type_symbol
 _atom_site_label
 _atom_site_symmetry_multiplicity
 _atom_site_fract_x
 _atom_site_fract_y
 _atom_site_fract_z
 _atom_site_occupancy
  Pr  Pr0  1  0.015535  0.174347  0.401883  1
  Pr  Pr1  1  0.515535  0.325653  0.401883  1
  Pr  Pr2  1  0.484465  0.674347  0.901883  1
  Pr  Pr3  1  0.484465  0.674347  0.598117  1
  Pr  Pr4  1  0.984465  0.825653  0.598117  1
  Pr  Pr5  1  0.984465  0.825653  0.901883  1
  Pr  Pr6  1  0.515535  0.325653  0.098117  1
  Pr  Pr7  1  0.015535  0.174347  0.098117  1
  Er  Er8  1  0.330425  0.165038  0.621705  1
  Er  Er9  1  0.669575  0.834962  0.378295  1
  Er  Er10  1  0.663707  0.997847  0.750000  1
  Er  Er11  1  0.169575  0.665038  0.378295  1
  Er  Er12  1  0.830425  0.334962  0.878295  1
  Er  Er13  1  0.830425  0.334962  0.621705  1
  Er  Er14  1  0.836293  0.497847  0.250000  1
  Er  Er15  1  0.336293  0.002153  0.250000  1
  Er  Er16  1  0.330425  0.165038  0.878295  1
  Er  Er17  1  0.169575  0.665038  0.121705  1
  Er  Er18  1  0.669575  0.834962  0.121705  1
  Er  Er19  1  0.163707  0.502153  0.750000  1
  Pt  Pt20  1  0.294712  0.864951  0.750000  1
  Pt  Pt21  1  0.465607  0.630768  0.250000  1
  Pt  Pt22  1  0.034393  0.130768  0.750000  1
  Pt  Pt23  1  0.534393  0.369232  0.750000  1
  Pt  Pt24  1  0.165877  0.461339  0.545805  1
  Pt  Pt25  1  0.965607  0.869232  0.250000  1
  Pt  Pt26  1  0.705288  0.135049  0.250000  1
  Pt  Pt27  1  0.834123  0.538661  0.045805  1
  Pt  Pt28  1  0.334123  0.961339  0.045805  1
  Pt  Pt29  1  0.165877  0.461339  0.954195  1
  Pt  Pt30  1  0.665877  0.038661  0.545805  1
  Pt  Pt31  1  0.334123  0.961339  0.454195  1
  Pt  Pt32  1  0.834123  0.538661  0.454195  1
  Pt  Pt33  1  0.794712  0.635049  0.750000  1
  Pt  Pt34  1  0.205288  0.364951  0.250000  1
  Pt  Pt35  1  0.665877  0.038661  0.954195  1
