# generated using pymatgen
data_Y3Tm7(TlGa2)2
_symmetry_space_group_name_H-M   'P 1'
_cell_length_a   7.67489034
_cell_length_b   7.67489015
_cell_length_c   14.24356200
_cell_angle_alpha   89.93907523
_cell_angle_beta   89.93907523
_cell_angle_gamma   90.02619832
_symmetry_Int_Tables_number   1
_chemical_formula_structural   Y3Tm7(TlGa2)2
_chemical_formula_sum   'Y6 Tm14 Tl4 Ga8'
_cell_volume   839.00088789
_cell_formula_units_Z   2
loop_
 _symmetry_equiv_pos_site_id
 _symmetry_equiv_pos_as_xyz
  1  'x, y, z'
loop_
 _atom_site_type_symbol
 _atom_site_label
 _atom_site_symmetry_multiplicity
 _atom_site_fract_x
 _atom_site_fract_y
 _atom_site_fract_z
 _atom_site_occupancy
  Y  Y0  1  0.664745  0.332262  0.605603  1
  Y  Y1  1  0.832689  0.835413  0.605569  1
  Y  Y2  1  0.667738  0.335255  0.894397  1
  Y  Y3  1  0.164587  0.167311  0.894431  1
  Y  Y4  1  0.667712  0.665077  0.393977  1
  Y  Y5  1  0.334923  0.332288  0.106023  1
  Tm  Tm6  1  0.835116  0.831788  0.893574  1
  Tm  Tm7  1  0.168212  0.164884  0.606426  1
  Tm  Tm8  1  0.835807  0.167448  0.393141  1
  Tm  Tm9  1  0.164727  0.832296  0.393359  1
  Tm  Tm10  1  0.331193  0.334758  0.393229  1
  Tm  Tm11  1  0.832552  0.164193  0.106859  1
  Tm  Tm12  1  0.331831  0.665148  0.893724  1
  Tm  Tm13  1  0.167704  0.835273  0.106641  1
  Tm  Tm14  1  0.499370  0.999010  0.752259  1
  Tm  Tm15  1  0.000209  0.500028  0.247762  1
  Tm  Tm16  1  0.334852  0.668169  0.606276  1
  Tm  Tm17  1  0.665242  0.668807  0.106771  1
  Tm  Tm18  1  0.000990  0.500630  0.747741  1
  Tm  Tm19  1  0.499972  0.999791  0.252238  1
  Tl  Tl20  1  0.999300  0.502518  0.001574  1
  Tl  Tl21  1  0.500969  0.997359  0.999486  1
  Tl  Tl22  1  0.497482  0.000700  0.498426  1
  Tl  Tl23  1  0.002641  0.499031  0.500514  1
  Ga  Ga24  1  0.625680  0.374320  0.250000  1
  Ga  Ga25  1  0.374483  0.625517  0.250000  1
  Ga  Ga26  1  0.124761  0.124645  0.250305  1
  Ga  Ga27  1  0.373888  0.375945  0.749732  1
  Ga  Ga28  1  0.125796  0.874204  0.750000  1
  Ga  Ga29  1  0.875355  0.875239  0.249695  1
  Ga  Ga30  1  0.624055  0.626112  0.750268  1
  Ga  Ga31  1  0.875418  0.124582  0.750000  1
