# generated using pymatgen
data_YbPa3(B4W)4
_symmetry_space_group_name_H-M   'P 1'
_cell_length_a   3.67227500
_cell_length_b   6.01794829
_cell_length_c   11.66103230
_cell_angle_alpha   89.92707470
_cell_angle_beta   90.00000000
_cell_angle_gamma   90.00000000
_symmetry_Int_Tables_number   1
_chemical_formula_structural   YbPa3(B4W)4
_chemical_formula_sum   'Yb1 Pa3 B16 W4'
_cell_volume   257.70348659
_cell_formula_units_Z   1
loop_
 _symmetry_equiv_pos_site_id
 _symmetry_equiv_pos_as_xyz
  1  'x, y, z'
loop_
 _atom_site_type_symbol
 _atom_site_label
 _atom_site_symmetry_multiplicity
 _atom_site_fract_x
 _atom_site_fract_y
 _atom_site_fract_z
 _atom_site_occupancy
  Yb  Yb0  1  0.000000  0.873370  0.850002  1
  Pa  Pa1  1  0.000000  0.626068  0.349177  1
  Pa  Pa2  1  0.000000  0.372990  0.652838  1
  Pa  Pa3  1  0.000000  0.125165  0.149597  1
  B  B4  1  0.500000  0.790451  0.186003  1
  B  B5  1  0.500000  0.214408  0.813250  1
  B  B6  1  0.500000  0.289722  0.312766  1
  B  B7  1  0.500000  0.710268  0.686063  1
  B  B8  1  0.500000  0.866075  0.033114  1
  B  B9  1  0.500000  0.135234  0.968595  1
  B  B10  1  0.500000  0.366055  0.468139  1
  B  B11  1  0.500000  0.633064  0.531552  1
  B  B12  1  0.500000  0.885587  0.453573  1
  B  B13  1  0.500000  0.114071  0.547075  1
  B  B14  1  0.500000  0.386513  0.046501  1
  B  B15  1  0.500000  0.615641  0.952861  1
  B  B16  1  0.500000  0.973283  0.307164  1
  B  B17  1  0.500000  0.027511  0.692106  1
  B  B18  1  0.500000  0.474111  0.192269  1
  B  B19  1  0.500000  0.521563  0.807162  1
  W  W20  1  0.000000  0.630878  0.087396  1
  W  W21  1  0.000000  0.368703  0.913674  1
  W  W22  1  0.000000  0.134550  0.411118  1
  W  W23  1  0.000000  0.864719  0.588003  1
