# generated using pymatgen
data_Dy4Tm(SiSb)2
_symmetry_space_group_name_H-M   'P 1'
_cell_length_a   8.51047987
_cell_length_b   8.51048040
_cell_length_c   7.83189200
_cell_angle_alpha   90.00000000
_cell_angle_beta   90.00000000
_cell_angle_gamma   125.42240401
_symmetry_Int_Tables_number   1
_chemical_formula_structural   Dy4Tm(SiSb)2
_chemical_formula_sum   'Dy8 Tm2 Si4 Sb4'
_cell_volume   462.25304750
_cell_formula_units_Z   2
loop_
 _symmetry_equiv_pos_site_id
 _symmetry_equiv_pos_as_xyz
  1  'x, y, z'
loop_
 _atom_site_type_symbol
 _atom_site_label
 _atom_site_symmetry_multiplicity
 _atom_site_fract_x
 _atom_site_fract_y
 _atom_site_fract_z
 _atom_site_occupancy
  Dy  Dy0  1  0.040411  0.292762  0.334272  1
  Dy  Dy1  1  0.959589  0.707238  0.665728  1
  Dy  Dy2  1  0.459589  0.207238  0.834272  1
  Dy  Dy3  1  0.792762  0.540411  0.165728  1
  Dy  Dy4  1  0.540411  0.792762  0.165728  1
  Dy  Dy5  1  0.207238  0.459589  0.834272  1
  Dy  Dy6  1  0.707238  0.959589  0.665728  1
  Dy  Dy7  1  0.292762  0.040411  0.334272  1
  Tm  Tm8  1  0.000000  0.000000  0.000000  1
  Tm  Tm9  1  0.500000  0.500000  0.500000  1
  Si  Si10  1  0.367745  0.367745  0.131209  1
  Si  Si11  1  0.632255  0.632255  0.868791  1
  Si  Si12  1  0.132255  0.132255  0.631209  1
  Si  Si13  1  0.867745  0.867745  0.368791  1
  Sb  Sb14  1  0.794449  0.205551  0.000000  1
  Sb  Sb15  1  0.205551  0.794449  0.000000  1
  Sb  Sb16  1  0.705551  0.294449  0.500000  1
  Sb  Sb17  1  0.294449  0.705551  0.500000  1
