# generated using pymatgen
data_Tb5Ho5(InSb)3
_symmetry_space_group_name_H-M   'P 1'
_cell_length_a   9.00338400
_cell_length_b   8.97338407
_cell_length_c   6.55311500
_cell_angle_alpha   90.00000000
_cell_angle_beta   90.00000000
_cell_angle_gamma   120.11065436
_symmetry_Int_Tables_number   1
_chemical_formula_structural   Tb5Ho5(InSb)3
_chemical_formula_sum   'Tb5 Ho5 In3 Sb3'
_cell_volume   457.98907688
_cell_formula_units_Z   1
loop_
 _symmetry_equiv_pos_site_id
 _symmetry_equiv_pos_as_xyz
  1  'x, y, z'
loop_
 _atom_site_type_symbol
 _atom_site_label
 _atom_site_symmetry_multiplicity
 _atom_site_fract_x
 _atom_site_fract_y
 _atom_site_fract_z
 _atom_site_occupancy
  Tb  Tb0  1  0.760273  0.000000  0.750000  1
  Tb  Tb1  1  0.762852  0.759490  0.250000  1
  Tb  Tb2  1  0.003361  0.240510  0.250000  1
  Tb  Tb3  1  0.002343  0.762697  0.750000  1
  Tb  Tb4  1  0.239647  0.237303  0.750000  1
  Ho  Ho5  1  0.331016  0.666123  0.000948  1
  Ho  Ho6  1  0.664894  0.333877  0.499052  1
  Ho  Ho7  1  0.664894  0.333877  0.000948  1
  Ho  Ho8  1  0.331016  0.666123  0.499052  1
  Ho  Ho9  1  0.238325  0.000000  0.250000  1
  In  In10  1  0.396936  0.000000  0.750000  1
  In  In11  1  0.395377  0.396173  0.250000  1
  In  In12  1  0.999203  0.603827  0.250000  1
  Sb  Sb13  1  0.997779  0.392436  0.750000  1
  Sb  Sb14  1  0.605342  0.607564  0.750000  1
  Sb  Sb15  1  0.606740  0.000000  0.250000  1
