# generated using pymatgen
data_Cs2LiTmBi2
_symmetry_space_group_name_H-M   'P 1'
_cell_length_a   10.25665909
_cell_length_b   10.25666007
_cell_length_c   10.25665900
_cell_angle_alpha   136.59574468
_cell_angle_beta   62.67639283
_cell_angle_gamma   137.09572150
_symmetry_Int_Tables_number   1
_chemical_formula_structural   Cs2LiTmBi2
_chemical_formula_sum   'Cs4 Li2 Tm2 Bi4'
_cell_volume   498.52966105
_cell_formula_units_Z   2
loop_
 _symmetry_equiv_pos_site_id
 _symmetry_equiv_pos_as_xyz
  1  'x, y, z'
loop_
 _atom_site_type_symbol
 _atom_site_label
 _atom_site_symmetry_multiplicity
 _atom_site_fract_x
 _atom_site_fract_y
 _atom_site_fract_z
 _atom_site_occupancy
  Cs  Cs0  1  0.324034  0.719741  0.043774  1
  Cs  Cs1  1  0.175966  0.219741  0.395708  1
  Cs  Cs2  1  0.824034  0.780260  0.604292  1
  Cs  Cs3  1  0.675966  0.280260  0.956226  1
  Li  Li4  1  0.249999  0.249999  0.000000  1
  Li  Li5  1  0.750000  0.750000  0.000000  1
  Tm  Tm6  1  0.749999  0.249999  0.500000  1
  Tm  Tm7  1  0.249999  0.750000  0.500000  1
  Bi  Bi8  1  0.908881  0.256485  0.165365  1
  Bi  Bi9  1  0.591119  0.756486  0.347605  1
  Bi  Bi10  1  0.408881  0.243515  0.652396  1
  Bi  Bi11  1  0.091119  0.743514  0.834634  1
