# generated using pymatgen
data_Eu2MnNiF10
_symmetry_space_group_name_H-M   'P 1'
_cell_length_a   5.74005103
_cell_length_b   5.71005370
_cell_length_c   7.85616906
_cell_angle_alpha   70.32694045
_cell_angle_beta   69.60445961
_cell_angle_gamma   72.25979521
_symmetry_Int_Tables_number   1
_chemical_formula_structural   Eu2MnNiF10
_chemical_formula_sum   'Eu2 Mn1 Ni1 F10'
_cell_volume   222.08261387
_cell_formula_units_Z   1
loop_
 _symmetry_equiv_pos_site_id
 _symmetry_equiv_pos_as_xyz
  1  'x, y, z'
loop_
 _atom_site_type_symbol
 _atom_site_label
 _atom_site_symmetry_multiplicity
 _atom_site_fract_x
 _atom_site_fract_y
 _atom_site_fract_z
 _atom_site_occupancy
  Eu  Eu0  1  0.553070  0.453381  0.743948  1
  Eu  Eu1  1  0.446930  0.546619  0.256052  1
  Mn  Mn2  1  0.000000  0.000000  0.000000  1
  Ni  Ni3  1  0.000000  0.000000  0.500000  1
  F  F4  1  0.093164  0.907221  0.250226  1
  F  F5  1  0.906836  0.092779  0.749774  1
  F  F6  1  0.213687  0.256253  0.378341  1
  F  F7  1  0.750560  0.791323  0.117907  1
  F  F8  1  0.706065  0.315646  0.030767  1
  F  F9  1  0.688917  0.292915  0.467323  1
  F  F10  1  0.293935  0.684354  0.969233  1
  F  F11  1  0.311083  0.707085  0.532677  1
  F  F12  1  0.249440  0.208677  0.882093  1
  F  F13  1  0.786313  0.743747  0.621659  1
