# generated using pymatgen
data_SrLi2La(NiAs2)2
_symmetry_space_group_name_H-M   'P 1'
_cell_length_a   4.34077500
_cell_length_b   4.34077500
_cell_length_c   10.12860400
_cell_angle_alpha   90.00000000
_cell_angle_beta   90.00000000
_cell_angle_gamma   90.00000000
_symmetry_Int_Tables_number   1
_chemical_formula_structural   SrLi2La(NiAs2)2
_chemical_formula_sum   'Sr1 Li2 La1 Ni2 As4'
_cell_volume   190.84647471
_cell_formula_units_Z   1
loop_
 _symmetry_equiv_pos_site_id
 _symmetry_equiv_pos_as_xyz
  1  'x, y, z'
loop_
 _atom_site_type_symbol
 _atom_site_label
 _atom_site_symmetry_multiplicity
 _atom_site_fract_x
 _atom_site_fract_y
 _atom_site_fract_z
 _atom_site_occupancy
  Sr  Sr0  1  0.000000  0.500000  0.759901  1
  Li  Li1  1  0.000000  0.000000  0.503322  1
  Li  Li2  1  0.500000  0.500000  0.503322  1
  La  La3  1  0.500000  0.000000  0.231616  1
  Ni  Ni4  1  0.000000  0.500000  0.107405  1
  Ni  Ni5  1  0.500000  0.000000  0.896179  1
  As  As6  1  0.000000  0.500000  0.344936  1
  As  As7  1  0.000000  0.000000  0.000423  1
  As  As8  1  0.500000  0.000000  0.652473  1
  As  As9  1  0.500000  0.500000  0.000423  1
