# generated using pymatgen
data_CaNp3(B6Ru)2
_symmetry_space_group_name_H-M   'P 1'
_cell_length_a   3.58110600
_cell_length_b   9.31223899
_cell_length_c   11.37807019
_cell_angle_alpha   89.94739596
_cell_angle_beta   90.00000000
_cell_angle_gamma   90.00000000
_symmetry_Int_Tables_number   1
_chemical_formula_structural   CaNp3(B6Ru)2
_chemical_formula_sum   'Ca2 Np6 B24 Ru4'
_cell_volume   379.43703229
_cell_formula_units_Z   2
loop_
 _symmetry_equiv_pos_site_id
 _symmetry_equiv_pos_as_xyz
  1  'x, y, z'
loop_
 _atom_site_type_symbol
 _atom_site_label
 _atom_site_symmetry_multiplicity
 _atom_site_fract_x
 _atom_site_fract_y
 _atom_site_fract_z
 _atom_site_occupancy
  Ca  Ca0  1  0.000000  0.339879  0.407606  1
  Ca  Ca1  1  0.000000  0.660121  0.592394  1
  Np  Np2  1  0.000000  0.837722  0.093382  1
  Np  Np3  1  0.000000  0.162278  0.906618  1
  Np  Np4  1  0.000000  0.958771  0.401184  1
  Np  Np5  1  0.000000  0.041229  0.598816  1
  Np  Np6  1  0.000000  0.459945  0.098551  1
  Np  Np7  1  0.000000  0.540055  0.901449  1
  B  B8  1  0.500000  0.553648  0.430642  1
  B  B9  1  0.500000  0.446352  0.569358  1
  B  B10  1  0.500000  0.051887  0.068188  1
  B  B11  1  0.500000  0.948113  0.931812  1
  B  B12  1  0.500000  0.743760  0.422512  1
  B  B13  1  0.500000  0.256240  0.577488  1
  B  B14  1  0.500000  0.242853  0.076587  1
  B  B15  1  0.500000  0.757147  0.923413  1
  B  B16  1  0.500000  0.805870  0.274325  1
  B  B17  1  0.500000  0.194130  0.725675  1
  B  B18  1  0.500000  0.304676  0.224846  1
  B  B19  1  0.500000  0.695324  0.775154  1
  B  B20  1  0.500000  0.646845  0.188717  1
  B  B21  1  0.500000  0.353155  0.811283  1
  B  B22  1  0.500000  0.145024  0.311230  1
  B  B23  1  0.500000  0.854976  0.688770  1
  B  B24  1  0.500000  0.989449  0.220493  1
  B  B25  1  0.500000  0.010551  0.779507  1
  B  B26  1  0.500000  0.490786  0.279759  1
  B  B27  1  0.500000  0.509214  0.720241  1
  B  B28  1  0.500000  0.644254  0.039850  1
  B  B29  1  0.500000  0.355746  0.960150  1
  B  B30  1  0.500000  0.141757  0.460445  1
  B  B31  1  0.500000  0.858243  0.539555  1
  Ru  Ru32  1  0.000000  0.647340  0.317356  1
  Ru  Ru33  1  0.000000  0.352660  0.682644  1
  Ru  Ru34  1  0.000000  0.147138  0.179514  1
  Ru  Ru35  1  0.000000  0.852862  0.820486  1
