# generated using pymatgen
data_Dy8Sc12Si15Au
_symmetry_space_group_name_H-M   'P 1'
_cell_length_a   7.12991282
_cell_length_b   7.38745385
_cell_length_c   14.07035973
_cell_angle_alpha   89.94053144
_cell_angle_beta   89.70115833
_cell_angle_gamma   90.15558154
_symmetry_Int_Tables_number   1
_chemical_formula_structural   Dy8Sc12Si15Au
_chemical_formula_sum   'Dy8 Sc12 Si15 Au1'
_cell_volume   741.09938423
_cell_formula_units_Z   1
loop_
 _symmetry_equiv_pos_site_id
 _symmetry_equiv_pos_as_xyz
  1  'x, y, z'
loop_
 _atom_site_type_symbol
 _atom_site_label
 _atom_site_symmetry_multiplicity
 _atom_site_fract_x
 _atom_site_fract_y
 _atom_site_fract_z
 _atom_site_occupancy
  Dy  Dy0  1  0.012549  0.175295  0.097566  1
  Dy  Dy1  1  0.987170  0.825132  0.903300  1
  Dy  Dy2  1  0.487130  0.676412  0.903140  1
  Dy  Dy3  1  0.987705  0.827918  0.597801  1
  Dy  Dy4  1  0.512286  0.324053  0.096828  1
  Dy  Dy5  1  0.010890  0.173986  0.400004  1
  Dy  Dy6  1  0.510767  0.324713  0.400910  1
  Dy  Dy7  1  0.490682  0.676004  0.598964  1
  Sc  Sc8  1  0.162504  0.501399  0.750963  1
  Sc  Sc9  1  0.837926  0.498267  0.250748  1
  Sc  Sc10  1  0.338257  0.000968  0.249381  1
  Sc  Sc11  1  0.663523  0.996268  0.750766  1
  Sc  Sc12  1  0.337130  0.175840  0.625559  1
  Sc  Sc13  1  0.667461  0.823656  0.373971  1
  Sc  Sc14  1  0.169325  0.673814  0.373712  1
  Sc  Sc15  1  0.670300  0.824114  0.125066  1
  Sc  Sc16  1  0.827950  0.325336  0.625232  1
  Sc  Sc17  1  0.328751  0.175294  0.875861  1
  Sc  Sc18  1  0.829919  0.322618  0.875774  1
  Sc  Sc19  1  0.169628  0.676761  0.125001  1
  Si  Si20  1  0.034803  0.119191  0.750655  1
  Si  Si21  1  0.966603  0.883502  0.249396  1
  Si  Si22  1  0.466723  0.616356  0.248575  1
  Si  Si23  1  0.534715  0.384157  0.752136  1
  Si  Si24  1  0.284662  0.874370  0.750725  1
  Si  Si25  1  0.713476  0.127340  0.249015  1
  Si  Si26  1  0.214793  0.371780  0.248283  1
  Si  Si27  1  0.786732  0.626764  0.752354  1
  Si  Si28  1  0.835654  0.537247  0.459391  1
  Si  Si29  1  0.341581  0.963400  0.460080  1
  Si  Si30  1  0.843813  0.535546  0.038939  1
  Si  Si31  1  0.657288  0.035998  0.538099  1
  Si  Si32  1  0.155702  0.464309  0.961466  1
  Si  Si33  1  0.656749  0.035010  0.960891  1
  Si  Si34  1  0.343191  0.964315  0.039296  1
  Au  Au35  1  0.161662  0.462868  0.540150  1
