# generated using pymatgen
data_Nb8VBTe8
_symmetry_space_group_name_H-M   'P 1'
_cell_length_a   4.82838800
_cell_length_b   10.94996800
_cell_length_c   19.06842900
_cell_angle_alpha   90.00000000
_cell_angle_beta   90.00000000
_cell_angle_gamma   90.00000000
_symmetry_Int_Tables_number   1
_chemical_formula_structural   Nb8VBTe8
_chemical_formula_sum   'Nb16 V2 B2 Te16'
_cell_volume   1008.16107647
_cell_formula_units_Z   2
loop_
 _symmetry_equiv_pos_site_id
 _symmetry_equiv_pos_as_xyz
  1  'x, y, z'
loop_
 _atom_site_type_symbol
 _atom_site_label
 _atom_site_symmetry_multiplicity
 _atom_site_fract_x
 _atom_site_fract_y
 _atom_site_fract_z
 _atom_site_occupancy
  Nb  Nb0  1  0.507140  0.563054  0.384247  1
  Nb  Nb1  1  0.507140  0.436946  0.615753  1
  Nb  Nb2  1  0.492860  0.063054  0.115753  1
  Nb  Nb3  1  0.492860  0.936946  0.884247  1
  Nb  Nb4  1  0.507287  0.702333  0.536003  1
  Nb  Nb5  1  0.507287  0.297667  0.463997  1
  Nb  Nb6  1  0.492713  0.202333  0.963997  1
  Nb  Nb7  1  0.492713  0.797667  0.036003  1
  Nb  Nb8  1  0.992832  0.687604  0.443360  1
  Nb  Nb9  1  0.992832  0.312396  0.556640  1
  Nb  Nb10  1  0.007168  0.187604  0.056640  1
  Nb  Nb11  1  0.007168  0.812396  0.943360  1
  Nb  Nb12  1  0.992934  0.401741  0.392642  1
  Nb  Nb13  1  0.992934  0.598259  0.607358  1
  Nb  Nb14  1  0.007066  0.901741  0.107358  1
  Nb  Nb15  1  0.007066  0.098259  0.892642  1
  V  V16  1  0.250139  0.500000  0.500000  1
  V  V17  1  0.749861  0.000000  0.000000  1
  B  B18  1  0.750133  0.500000  0.500000  1
  B  B19  1  0.249867  0.000000  0.000000  1
  Te  Te20  1  0.004520  0.846657  0.562078  1
  Te  Te21  1  0.004520  0.153343  0.437922  1
  Te  Te22  1  0.995480  0.346657  0.937922  1
  Te  Te23  1  0.995480  0.653343  0.062078  1
  Te  Te24  1  0.495362  0.331765  0.315849  1
  Te  Te25  1  0.495362  0.668235  0.684151  1
  Te  Te26  1  0.504638  0.831765  0.184151  1
  Te  Te27  1  0.504638  0.168235  0.815849  1
  Te  Te28  1  0.495442  0.821998  0.402975  1
  Te  Te29  1  0.495442  0.178002  0.597025  1
  Te  Te30  1  0.504558  0.321998  0.097025  1
  Te  Te31  1  0.504558  0.678002  0.902975  1
  Te  Te32  1  0.004418  0.607520  0.301027  1
  Te  Te33  1  0.004418  0.392480  0.698973  1
  Te  Te34  1  0.995582  0.107520  0.198973  1
  Te  Te35  1  0.995582  0.892480  0.801027  1
