# generated using pymatgen
data_La3Ho3(BiO7)2
_symmetry_space_group_name_H-M   'P 1'
_cell_length_a   6.67082678
_cell_length_b   6.71045629
_cell_length_c   7.85247327
_cell_angle_alpha   106.96696893
_cell_angle_beta   89.88794843
_cell_angle_gamma   99.04457162
_symmetry_Int_Tables_number   1
_chemical_formula_structural   La3Ho3(BiO7)2
_chemical_formula_sum   'La3 Ho3 Bi2 O14'
_cell_volume   331.67084093
_cell_formula_units_Z   1
loop_
 _symmetry_equiv_pos_site_id
 _symmetry_equiv_pos_as_xyz
  1  'x, y, z'
loop_
 _atom_site_type_symbol
 _atom_site_label
 _atom_site_symmetry_multiplicity
 _atom_site_fract_x
 _atom_site_fract_y
 _atom_site_fract_z
 _atom_site_occupancy
  La  La0  1  0.729809  0.464428  0.114413  1
  La  La1  1  0.739605  0.484067  0.622436  1
  La  La2  1  0.257095  0.516994  0.381643  1
  Ho  Ho3  1  0.462902  0.003776  0.252058  1
  Ho  Ho4  1  0.533207  0.993948  0.747112  1
  Ho  Ho5  1  0.272193  0.539318  0.883764  1
  Bi  Bi6  1  0.002214  0.004046  0.503192  1
  Bi  Bi7  1  0.004235  0.000626  0.997763  1
  O  O8  1  0.438324  0.655465  0.159254  1
  O  O9  1  0.538079  0.342600  0.831805  1
  O  O10  1  0.303792  0.927336  0.953498  1
  O  O11  1  0.700135  0.061905  0.046798  1
  O  O12  1  0.301396  0.934621  0.513957  1
  O  O13  1  0.701340  0.064696  0.484477  1
  O  O14  1  0.540535  0.354013  0.342482  1
  O  O15  1  0.452486  0.645754  0.666329  1
  O  O16  1  0.935860  0.666482  0.945569  1
  O  O17  1  0.084383  0.330181  0.039157  1
  O  O18  1  0.080081  0.341215  0.625389  1
  O  O19  1  0.925664  0.664096  0.387733  1
  O  O20  1  0.874826  0.921304  0.729677  1
  O  O21  1  0.121840  0.083130  0.271494  1
