# generated using pymatgen
data_Mg2MnP6BrN12
_symmetry_space_group_name_H-M   'P 1'
_cell_length_a   7.25942225
_cell_length_b   7.30579052
_cell_length_c   7.30579124
_cell_angle_alpha   110.79453892
_cell_angle_beta   109.36457437
_cell_angle_gamma   109.36454897
_symmetry_Int_Tables_number   1
_chemical_formula_structural   Mg2MnP6BrN12
_chemical_formula_sum   'Mg2 Mn1 P6 Br1 N12'
_cell_volume   294.07076797
_cell_formula_units_Z   1
loop_
 _symmetry_equiv_pos_site_id
 _symmetry_equiv_pos_as_xyz
  1  'x, y, z'
loop_
 _atom_site_type_symbol
 _atom_site_label
 _atom_site_symmetry_multiplicity
 _atom_site_fract_x
 _atom_site_fract_y
 _atom_site_fract_z
 _atom_site_occupancy
  Mg  Mg0  1  0.996297  0.360637  0.004558  1
  Mg  Mg1  1  0.996297  0.004558  0.360637  1
  Mn  Mn2  1  0.435097  0.047508  0.047508  1
  P  P3  1  0.492809  0.258907  0.733202  1
  P  P4  1  0.257170  0.756923  0.511843  1
  P  P5  1  0.745790  0.496867  0.246480  1
  P  P6  1  0.745790  0.246480  0.496867  1
  P  P7  1  0.492809  0.733202  0.258907  1
  P  P8  1  0.257170  0.511843  0.756923  1
  Br  Br9  1  0.016226  0.006723  0.006723  1
  N  N10  1  0.428682  0.707646  0.439643  1
  N  N11  1  0.642284  0.353466  0.353466  1
  N  N12  1  0.428682  0.439643  0.707646  1
  N  N13  1  0.725370  0.297895  0.720840  1
  N  N14  1  0.999029  0.556411  0.294257  1
  N  N15  1  0.273916  0.552610  0.999927  1
  N  N16  1  0.273916  0.999927  0.552610  1
  N  N17  1  0.999029  0.294257  0.556411  1
  N  N18  1  0.725370  0.720840  0.297895  1
  N  N19  1  0.566057  0.982726  0.280500  1
  N  N20  1  0.296152  0.750427  0.750427  1
  N  N21  1  0.566057  0.280500  0.982726  1
