# generated using pymatgen
data_Nd3As2S
_symmetry_space_group_name_H-M   'P 1'
_cell_length_a   7.23592407
_cell_length_b   7.23592340
_cell_length_c   7.23592300
_cell_angle_alpha   146.40745127
_cell_angle_beta   131.88136791
_cell_angle_gamma   59.96137910
_symmetry_Int_Tables_number   1
_chemical_formula_structural   Nd3As2S
_chemical_formula_sum   'Nd3 As2 S1'
_cell_volume   154.64319149
_cell_formula_units_Z   1
loop_
 _symmetry_equiv_pos_site_id
 _symmetry_equiv_pos_as_xyz
  1  'x, y, z'
loop_
 _atom_site_type_symbol
 _atom_site_label
 _atom_site_symmetry_multiplicity
 _atom_site_fract_x
 _atom_site_fract_y
 _atom_site_fract_z
 _atom_site_occupancy
  Nd  Nd0  1  0.500000  0.000000  0.500000  1
  Nd  Nd1  1  0.165970  0.665970  0.500000  1
  Nd  Nd2  1  0.834030  0.334030  0.500000  1
  As  As3  1  0.667270  0.667270  0.000000  1
  As  As4  1  0.332730  0.332730  0.000000  1
  S  S5  1  0.000000  0.000000  0.000000  1
