# generated using pymatgen
data_Er3Al3SiAu2
_symmetry_space_group_name_H-M   'P 1'
_cell_length_a   6.98218900
_cell_length_b   6.98219007
_cell_length_c   4.29245400
_cell_angle_alpha   90.00000000
_cell_angle_beta   90.00000000
_cell_angle_gamma   119.99999965
_symmetry_Int_Tables_number   1
_chemical_formula_structural   Er3Al3SiAu2
_chemical_formula_sum   'Er3 Al3 Si1 Au2'
_cell_volume   181.22560189
_cell_formula_units_Z   1
loop_
 _symmetry_equiv_pos_site_id
 _symmetry_equiv_pos_as_xyz
  1  'x, y, z'
loop_
 _atom_site_type_symbol
 _atom_site_label
 _atom_site_symmetry_multiplicity
 _atom_site_fract_x
 _atom_site_fract_y
 _atom_site_fract_z
 _atom_site_occupancy
  Er  Er0  1  0.424211  0.421522  0.500000  1
  Er  Er1  1  0.578478  0.002689  0.500000  1
  Er  Er2  1  0.997311  0.575789  0.500000  1
  Al  Al3  1  0.751822  0.757152  0.000000  1
  Al  Al4  1  0.242848  0.994671  0.000000  1
  Al  Al5  1  0.005329  0.248178  0.000000  1
  Si  Si6  1  0.666667  0.333333  0.000000  1
  Au  Au7  1  0.333333  0.666667  0.000000  1
  Au  Au8  1  0.000000  0.000000  0.500000  1
