# generated using pymatgen
data_SmGeSbO6
_symmetry_space_group_name_H-M   'P 1'
_cell_length_a   5.15987596
_cell_length_b   5.15992376
_cell_length_c   5.06853211
_cell_angle_alpha   90.04880100
_cell_angle_beta   90.04883020
_cell_angle_gamma   119.92855478
_symmetry_Int_Tables_number   1
_chemical_formula_structural   SmGeSbO6
_chemical_formula_sum   'Sm1 Ge1 Sb1 O6'
_cell_volume   116.95181389
_cell_formula_units_Z   1
loop_
 _symmetry_equiv_pos_site_id
 _symmetry_equiv_pos_as_xyz
  1  'x, y, z'
loop_
 _atom_site_type_symbol
 _atom_site_label
 _atom_site_symmetry_multiplicity
 _atom_site_fract_x
 _atom_site_fract_y
 _atom_site_fract_z
 _atom_site_occupancy
  Sm  Sm0  1  0.482580  0.517417  0.499993  1
  Ge  Ge1  1  0.815729  0.184281  0.999995  1
  Sb  Sb2  1  0.149188  0.850806  0.999999  1
  O  O3  1  0.109776  0.156284  0.215399  1
  O  O4  1  0.494474  0.891595  0.216096  1
  O  O5  1  0.845053  0.506764  0.215947  1
  O  O6  1  0.493236  0.154955  0.784046  1
  O  O7  1  0.108408  0.505536  0.783896  1
  O  O8  1  0.843710  0.890222  0.784600  1
