# generated using pymatgen
data_PuTiCo12P7
_symmetry_space_group_name_H-M   'P 1'
_cell_length_a   8.93599518
_cell_length_b   8.93469081
_cell_length_c   3.56007700
_cell_angle_alpha   90.00000000
_cell_angle_beta   90.00000000
_cell_angle_gamma   119.99096882
_symmetry_Int_Tables_number   1
_chemical_formula_structural   PuTiCo12P7
_chemical_formula_sum   'Pu1 Ti1 Co12 P7'
_cell_volume   246.17956061
_cell_formula_units_Z   1
loop_
 _symmetry_equiv_pos_site_id
 _symmetry_equiv_pos_as_xyz
  1  'x, y, z'
loop_
 _atom_site_type_symbol
 _atom_site_label
 _atom_site_symmetry_multiplicity
 _atom_site_fract_x
 _atom_site_fract_y
 _atom_site_fract_z
 _atom_site_occupancy
  Pu  Pu0  1  0.666946  0.333323  0.499999  1
  Ti  Ti1  1  0.333031  0.666365  0.000000  1
  Co  Co2  1  0.434380  0.052750  0.000000  1
  Co  Co3  1  0.946779  0.381403  0.000000  1
  Co  Co4  1  0.618332  0.565202  0.000000  1
  Co  Co5  1  0.379389  0.441161  0.499999  1
  Co  Co6  1  0.558925  0.938174  0.499999  1
  Co  Co7  1  0.061798  0.620909  0.499999  1
  Co  Co8  1  0.155211  0.275610  0.000000  1
  Co  Co9  1  0.725065  0.879607  0.000000  1
  Co  Co10  1  0.119781  0.845800  0.000000  1
  Co  Co11  1  0.239721  0.103007  0.499999  1
  Co  Co12  1  0.898297  0.136227  0.499999  1
  Co  Co13  1  0.862597  0.759713  0.499999  1
  P  P14  1  0.119229  0.411819  0.499999  1
  P  P15  1  0.588212  0.707442  0.499999  1
  P  P16  1  0.292281  0.880880  0.499999  1
  P  P17  1  0.000000  0.000776  0.000000  1
  P  P18  1  0.404271  0.289629  0.000000  1
  P  P19  1  0.710165  0.114151  0.000000  1
  P  P20  1  0.885590  0.596049  0.000000  1
