# generated using pymatgen
data_La4S3Br3N
_symmetry_space_group_name_H-M   'P 1'
_cell_length_a   9.60686400
_cell_length_b   9.60686376
_cell_length_c   7.05576100
_cell_angle_alpha   90.00000000
_cell_angle_beta   90.00000000
_cell_angle_gamma   120.00000082
_symmetry_Int_Tables_number   1
_chemical_formula_structural   La4S3Br3N
_chemical_formula_sum   'La8 S6 Br6 N2'
_cell_volume   563.94631623
_cell_formula_units_Z   2
loop_
 _symmetry_equiv_pos_site_id
 _symmetry_equiv_pos_as_xyz
  1  'x, y, z'
loop_
 _atom_site_type_symbol
 _atom_site_label
 _atom_site_symmetry_multiplicity
 _atom_site_fract_x
 _atom_site_fract_y
 _atom_site_fract_z
 _atom_site_occupancy
  La  La0  1  0.666667  0.333333  0.287990  1
  La  La1  1  0.204994  0.795006  0.255351  1
  La  La2  1  0.795006  0.590012  0.755351  1
  La  La3  1  0.795006  0.204994  0.755351  1
  La  La4  1  0.590012  0.795006  0.255351  1
  La  La5  1  0.333333  0.666667  0.787990  1
  La  La6  1  0.204994  0.409988  0.255351  1
  La  La7  1  0.409988  0.204994  0.755351  1
  S  S8  1  0.533314  0.466686  0.030501  1
  S  S9  1  0.533314  0.066628  0.030501  1
  S  S10  1  0.066628  0.533314  0.530501  1
  S  S11  1  0.933372  0.466686  0.030501  1
  S  S12  1  0.466686  0.933372  0.530501  1
  S  S13  1  0.466686  0.533314  0.530501  1
  Br  Br14  1  0.130698  0.261398  0.857968  1
  Br  Br15  1  0.738602  0.869302  0.857968  1
  Br  Br16  1  0.261398  0.130698  0.357968  1
  Br  Br17  1  0.869302  0.130698  0.357968  1
  Br  Br18  1  0.869302  0.738602  0.357968  1
  Br  Br19  1  0.130698  0.869302  0.857968  1
  N  N20  1  0.666667  0.333333  0.632956  1
  N  N21  1  0.333333  0.666667  0.132956  1
