# generated using pymatgen
data_Y13Ho3(AlPd)4
_symmetry_space_group_name_H-M   'P 1'
_cell_length_a   9.63611065
_cell_length_b   9.64012698
_cell_length_c   9.64012700
_cell_angle_alpha   60.00000336
_cell_angle_beta   59.98621477
_cell_angle_gamma   59.98621298
_symmetry_Int_Tables_number   1
_chemical_formula_structural   Y13Ho3(AlPd)4
_chemical_formula_sum   'Y13 Ho3 Al4 Pd4'
_cell_volume   633.08463409
_cell_formula_units_Z   1
loop_
 _symmetry_equiv_pos_site_id
 _symmetry_equiv_pos_as_xyz
  1  'x, y, z'
loop_
 _atom_site_type_symbol
 _atom_site_label
 _atom_site_symmetry_multiplicity
 _atom_site_fract_x
 _atom_site_fract_y
 _atom_site_fract_z
 _atom_site_occupancy
  Y  Y0  1  0.932826  0.355724  0.355724  1
  Y  Y1  1  0.806653  0.193081  0.193081  1
  Y  Y2  1  0.193394  0.806598  0.806598  1
  Y  Y3  1  0.193394  0.806598  0.193410  1
  Y  Y4  1  0.806653  0.193081  0.807186  1
  Y  Y5  1  0.193394  0.193410  0.806598  1
  Y  Y6  1  0.806653  0.807186  0.193081  1
  Y  Y7  1  0.935738  0.564465  0.564465  1
  Y  Y8  1  0.564132  0.935787  0.935787  1
  Y  Y9  1  0.564132  0.935787  0.564294  1
  Y  Y10  1  0.935738  0.564465  0.935332  1
  Y  Y11  1  0.564132  0.564294  0.935787  1
  Y  Y12  1  0.935738  0.935332  0.564465  1
  Ho  Ho13  1  0.355151  0.355102  0.355102  1
  Ho  Ho14  1  0.355151  0.355102  0.934644  1
  Ho  Ho15  1  0.355151  0.934644  0.355102  1
  Al  Al16  1  0.577484  0.577826  0.577826  1
  Al  Al17  1  0.577484  0.577826  0.266867  1
  Al  Al18  1  0.577484  0.266867  0.577826  1
  Al  Al19  1  0.266867  0.577712  0.577712  1
  Pd  Pd20  1  0.146533  0.144701  0.144701  1
  Pd  Pd21  1  0.146533  0.144701  0.564064  1
  Pd  Pd22  1  0.146533  0.564064  0.144701  1
  Pd  Pd23  1  0.563054  0.145649  0.145649  1
