# generated using pymatgen
data_Ho16Ga6NiRu
_symmetry_space_group_name_H-M   'P 1'
_cell_length_a   10.00048900
_cell_length_b   10.00048966
_cell_length_c   6.94799400
_cell_angle_alpha   90.00000000
_cell_angle_beta   90.00000000
_cell_angle_gamma   120.00000112
_symmetry_Int_Tables_number   1
_chemical_formula_structural   Ho16Ga6NiRu
_chemical_formula_sum   'Ho16 Ga6 Ni1 Ru1'
_cell_volume   601.77281305
_cell_formula_units_Z   1
loop_
 _symmetry_equiv_pos_site_id
 _symmetry_equiv_pos_as_xyz
  1  'x, y, z'
loop_
 _atom_site_type_symbol
 _atom_site_label
 _atom_site_symmetry_multiplicity
 _atom_site_fract_x
 _atom_site_fract_y
 _atom_site_fract_z
 _atom_site_occupancy
  Ho  Ho0  1  0.829680  0.659359  0.487385  1
  Ho  Ho1  1  0.340641  0.170320  0.487385  1
  Ho  Ho2  1  0.829680  0.170320  0.487385  1
  Ho  Ho3  1  0.172537  0.345076  0.989017  1
  Ho  Ho4  1  0.654924  0.827463  0.989017  1
  Ho  Ho5  1  0.172537  0.827463  0.989017  1
  Ho  Ho6  1  0.666667  0.333333  0.161604  1
  Ho  Ho7  1  0.333333  0.666667  0.672563  1
  Ho  Ho8  1  0.536198  0.072393  0.793176  1
  Ho  Ho9  1  0.927607  0.463802  0.793176  1
  Ho  Ho10  1  0.536198  0.463802  0.793176  1
  Ho  Ho11  1  0.465271  0.930543  0.296443  1
  Ho  Ho12  1  0.069457  0.534729  0.296443  1
  Ho  Ho13  1  0.465271  0.534729  0.296443  1
  Ho  Ho14  1  0.000000  0.000000  0.768792  1
  Ho  Ho15  1  0.000000  0.000000  0.260883  1
  Ga  Ga16  1  0.837554  0.675108  0.041565  1
  Ga  Ga17  1  0.324892  0.162446  0.041565  1
  Ga  Ga18  1  0.837554  0.162446  0.041565  1
  Ga  Ga19  1  0.165032  0.330064  0.544480  1
  Ga  Ga20  1  0.669936  0.834968  0.544480  1
  Ga  Ga21  1  0.165032  0.834968  0.544480  1
  Ni  Ni22  1  0.333333  0.666667  0.056636  1
  Ru  Ru23  1  0.666667  0.333333  0.549567  1
