# generated using pymatgen
data_Y20Ru5Pt7
_symmetry_space_group_name_H-M   'P 1'
_cell_length_a   11.00735113
_cell_length_b   11.00735092
_cell_length_c   6.46342051
_cell_angle_alpha   89.97307430
_cell_angle_beta   89.97307607
_cell_angle_gamma   90.48778464
_symmetry_Int_Tables_number   1
_chemical_formula_structural   Y20Ru5Pt7
_chemical_formula_sum   'Y20 Ru5 Pt7'
_cell_volume   783.09095833
_cell_formula_units_Z   1
loop_
 _symmetry_equiv_pos_site_id
 _symmetry_equiv_pos_as_xyz
  1  'x, y, z'
loop_
 _atom_site_type_symbol
 _atom_site_label
 _atom_site_symmetry_multiplicity
 _atom_site_fract_x
 _atom_site_fract_y
 _atom_site_fract_z
 _atom_site_occupancy
  Y  Y0  1  0.296523  0.084896  0.373627  1
  Y  Y1  1  0.295945  0.908923  0.873369  1
  Y  Y2  1  0.702987  0.085634  0.872617  1
  Y  Y3  1  0.703123  0.913692  0.371976  1
  Y  Y4  1  0.582456  0.794196  0.871369  1
  Y  Y5  1  0.586223  0.203945  0.374181  1
  Y  Y6  1  0.411281  0.793311  0.377449  1
  Y  Y7  1  0.413132  0.201964  0.873024  1
  Y  Y8  1  0.205804  0.417544  0.628631  1
  Y  Y9  1  0.206689  0.588719  0.122551  1
  Y  Y10  1  0.796055  0.413777  0.125819  1
  Y  Y11  1  0.798036  0.586868  0.626976  1
  Y  Y12  1  0.915104  0.703477  0.126373  1
  Y  Y13  1  0.914366  0.297013  0.627383  1
  Y  Y14  1  0.091077  0.704055  0.626631  1
  Y  Y15  1  0.086308  0.296877  0.128024  1
  Y  Y16  1  0.999385  0.999815  0.500807  1
  Y  Y17  1  0.000185  0.000615  0.999193  1
  Y  Y18  1  0.496955  0.501386  0.998415  1
  Y  Y19  1  0.498614  0.503045  0.501585  1
  Ru  Ru20  1  0.348151  0.651849  0.750000  1
  Ru  Ru21  1  0.500286  0.000349  0.124152  1
  Ru  Ru22  1  0.499748  0.000012  0.622443  1
  Ru  Ru23  1  0.999988  0.500252  0.877557  1
  Ru  Ru24  1  0.999651  0.499714  0.375848  1
  Pt  Pt25  1  0.846570  0.153430  0.250000  1
  Pt  Pt26  1  0.845154  0.846653  0.750873  1
  Pt  Pt27  1  0.153347  0.154846  0.749127  1
  Pt  Pt28  1  0.152168  0.847832  0.250000  1
  Pt  Pt29  1  0.653227  0.346773  0.750000  1
  Pt  Pt30  1  0.655170  0.653711  0.249574  1
  Pt  Pt31  1  0.346289  0.344830  0.250426  1
