# generated using pymatgen
data_Ta4Al2GaBMo
_symmetry_space_group_name_H-M   'P 1'
_cell_length_a   7.80304028
_cell_length_b   7.80303975
_cell_length_c   5.27456860
_cell_angle_alpha   90.02724231
_cell_angle_beta   90.02724776
_cell_angle_gamma   119.98602730
_symmetry_Int_Tables_number   1
_chemical_formula_structural   Ta4Al2GaBMo
_chemical_formula_sum   'Ta8 Al4 Ga2 B2 Mo2'
_cell_volume   278.16736684
_cell_formula_units_Z   2
loop_
 _symmetry_equiv_pos_site_id
 _symmetry_equiv_pos_as_xyz
  1  'x, y, z'
loop_
 _atom_site_type_symbol
 _atom_site_label
 _atom_site_symmetry_multiplicity
 _atom_site_fract_x
 _atom_site_fract_y
 _atom_site_fract_z
 _atom_site_occupancy
  Ta  Ta0  1  0.241334  0.000986  0.255486  1
  Ta  Ta1  1  0.758666  0.999014  0.744514  1
  Ta  Ta2  1  0.000986  0.241334  0.255486  1
  Ta  Ta3  1  0.999014  0.758666  0.744514  1
  Ta  Ta4  1  0.757862  0.757862  0.254175  1
  Ta  Ta5  1  0.242138  0.242138  0.745825  1
  Ta  Ta6  1  0.666268  0.333732  0.500000  1
  Ta  Ta7  1  0.333732  0.666268  0.500000  1
  Al  Al8  1  0.595159  0.000174  0.238360  1
  Al  Al9  1  0.404841  0.999826  0.761640  1
  Al  Al10  1  0.000174  0.595159  0.238360  1
  Al  Al11  1  0.999826  0.404841  0.761640  1
  Ga  Ga12  1  0.402883  0.402883  0.240005  1
  Ga  Ga13  1  0.597117  0.597117  0.759995  1
  B  B14  1  0.000000  0.000000  0.000000  1
  B  B15  1  0.000000  0.000000  0.500000  1
  Mo  Mo16  1  0.333371  0.666629  0.000000  1
  Mo  Mo17  1  0.666629  0.333371  0.000000  1
