# generated using pymatgen
data_CaY2Pa(Ga3Ir)6
_symmetry_space_group_name_H-M   'P 1'
_cell_length_a   7.62009824
_cell_length_b   7.60603638
_cell_length_c   9.48589800
_cell_angle_alpha   90.00000000
_cell_angle_beta   90.00000000
_cell_angle_gamma   119.78204449
_symmetry_Int_Tables_number   1
_chemical_formula_structural   CaY2Pa(Ga3Ir)6
_chemical_formula_sum   'Ca1 Y2 Pa1 Ga18 Ir6'
_cell_volume   477.17501172
_cell_formula_units_Z   1
loop_
 _symmetry_equiv_pos_site_id
 _symmetry_equiv_pos_as_xyz
  1  'x, y, z'
loop_
 _atom_site_type_symbol
 _atom_site_label
 _atom_site_symmetry_multiplicity
 _atom_site_fract_x
 _atom_site_fract_y
 _atom_site_fract_z
 _atom_site_occupancy
  Ca  Ca0  1  0.670083  0.996901  0.250000  1
  Y  Y1  1  0.002847  0.331382  0.750000  1
  Y  Y2  1  0.330801  0.002396  0.750000  1
  Pa  Pa3  1  0.997503  0.669395  0.250000  1
  Ga  Ga4  1  0.130739  0.129882  0.250000  1
  Ga  Ga5  1  0.872626  0.873936  0.750000  1
  Ga  Ga6  1  0.998323  0.329988  0.080102  1
  Ga  Ga7  1  0.000626  0.665158  0.916927  1
  Ga  Ga8  1  0.000626  0.665158  0.583073  1
  Ga  Ga9  1  0.339707  0.003202  0.419962  1
  Ga  Ga10  1  0.998323  0.329988  0.419898  1
  Ga  Ga11  1  0.665643  0.000988  0.579778  1
  Ga  Ga12  1  0.665643  0.000988  0.920222  1
  Ga  Ga13  1  0.339707  0.003202  0.080038  1
  Ga  Ga14  1  0.331391  0.331249  0.566548  1
  Ga  Ga15  1  0.663647  0.668393  0.435789  1
  Ga  Ga16  1  0.663647  0.668393  0.064211  1
  Ga  Ga17  1  0.331391  0.331249  0.933452  1
  Ga  Ga18  1  0.338146  0.544680  0.250000  1
  Ga  Ga19  1  0.660872  0.452994  0.750000  1
  Ga  Ga20  1  0.545094  0.341037  0.250000  1
  Ga  Ga21  1  0.453093  0.662113  0.750000  1
  Ir  Ir22  1  0.674064  0.332796  0.000906  1
  Ir  Ir23  1  0.324901  0.669815  0.001239  1
  Ir  Ir24  1  0.324901  0.669815  0.498761  1
  Ir  Ir25  1  0.674064  0.332796  0.499094  1
  Ir  Ir26  1  0.000795  0.996055  0.001959  1
  Ir  Ir27  1  0.000795  0.996055  0.498041  1
