# generated using pymatgen
data_Tb6Pr2Co3Si12Pd
_symmetry_space_group_name_H-M   'P 1'
_cell_length_a   8.07905800
_cell_length_b   8.07905896
_cell_length_c   8.25585100
_cell_angle_alpha   90.00000000
_cell_angle_beta   90.00000000
_cell_angle_gamma   120.00000425
_symmetry_Int_Tables_number   1
_chemical_formula_structural   Tb6Pr2Co3Si12Pd
_chemical_formula_sum   'Tb6 Pr2 Co3 Si12 Pd1'
_cell_volume   466.67438415
_cell_formula_units_Z   1
loop_
 _symmetry_equiv_pos_site_id
 _symmetry_equiv_pos_as_xyz
  1  'x, y, z'
loop_
 _atom_site_type_symbol
 _atom_site_label
 _atom_site_symmetry_multiplicity
 _atom_site_fract_x
 _atom_site_fract_y
 _atom_site_fract_z
 _atom_site_occupancy
  Tb  Tb0  1  0.496139  0.503861  0.753639  1
  Tb  Tb1  1  0.498363  0.501637  0.247395  1
  Tb  Tb2  1  0.007722  0.503861  0.753639  1
  Tb  Tb3  1  0.003274  0.501637  0.247395  1
  Tb  Tb4  1  0.496139  0.992278  0.753639  1
  Tb  Tb5  1  0.498363  0.996726  0.247395  1
  Pr  Pr6  1  0.000000  0.000000  0.750971  1
  Pr  Pr7  1  0.000000  0.000000  0.248127  1
  Co  Co8  1  0.666667  0.333333  0.990560  1
  Co  Co9  1  0.333333  0.666667  0.010838  1
  Co  Co10  1  0.333333  0.666667  0.488977  1
  Si  Si11  1  0.826425  0.173575  0.001399  1
  Si  Si12  1  0.172670  0.827330  0.998601  1
  Si  Si13  1  0.347151  0.173575  0.001399  1
  Si  Si14  1  0.173865  0.826135  0.502519  1
  Si  Si15  1  0.654659  0.827330  0.998601  1
  Si  Si16  1  0.834779  0.165221  0.497170  1
  Si  Si17  1  0.826425  0.652849  0.001399  1
  Si  Si18  1  0.652271  0.826135  0.502519  1
  Si  Si19  1  0.172670  0.345341  0.998601  1
  Si  Si20  1  0.330442  0.165221  0.497170  1
  Si  Si21  1  0.173865  0.347729  0.502519  1
  Si  Si22  1  0.834779  0.669558  0.497170  1
  Pd  Pd23  1  0.666667  0.333333  0.508357  1
