# generated using pymatgen
data_Lu8Ta5Ti2Si16Mo5
_symmetry_space_group_name_H-M   'P 1'
_cell_length_a   6.70743942
_cell_length_b   6.94679548
_cell_length_c   13.14426603
_cell_angle_alpha   90.03664787
_cell_angle_beta   89.95275640
_cell_angle_gamma   90.03498346
_symmetry_Int_Tables_number   1
_chemical_formula_structural   Lu8Ta5Ti2Si16Mo5
_chemical_formula_sum   'Lu8 Ta5 Ti2 Si16 Mo5'
_cell_volume   612.45938641
_cell_formula_units_Z   1
loop_
 _symmetry_equiv_pos_site_id
 _symmetry_equiv_pos_as_xyz
  1  'x, y, z'
loop_
 _atom_site_type_symbol
 _atom_site_label
 _atom_site_symmetry_multiplicity
 _atom_site_fract_x
 _atom_site_fract_y
 _atom_site_fract_z
 _atom_site_occupancy
  Lu  Lu0  1  0.501161  0.328620  0.094441  1
  Lu  Lu1  1  0.000555  0.172976  0.404584  1
  Lu  Lu2  1  0.499276  0.673046  0.594682  1
  Lu  Lu3  1  0.999325  0.829349  0.905388  1
  Lu  Lu4  1  0.498027  0.672334  0.905026  1
  Lu  Lu5  1  0.999144  0.829075  0.594439  1
  Lu  Lu6  1  0.501014  0.328389  0.405879  1
  Lu  Lu7  1  0.002311  0.173234  0.094679  1
  Ta  Ta8  1  0.836553  0.329162  0.626088  1
  Ta  Ta9  1  0.332956  0.171067  0.873513  1
  Ta  Ta10  1  0.167544  0.670592  0.125990  1
  Ta  Ta11  1  0.664094  0.829841  0.374839  1
  Ta  Ta12  1  0.167822  0.670132  0.376136  1
  Ti  Ti13  1  0.666971  0.828744  0.125631  1
  Ti  Ti14  1  0.832299  0.328776  0.873290  1
  Si  Si15  1  0.660755  0.038121  0.543731  1
  Si  Si16  1  0.163292  0.462201  0.957460  1
  Si  Si17  1  0.336386  0.961935  0.042024  1
  Si  Si18  1  0.834897  0.537450  0.458397  1
  Si  Si19  1  0.332479  0.963581  0.459765  1
  Si  Si20  1  0.834072  0.537551  0.041537  1
  Si  Si21  1  0.665773  0.037509  0.958298  1
  Si  Si22  1  0.168854  0.458354  0.543471  1
  Si  Si23  1  0.532718  0.377318  0.748133  1
  Si  Si24  1  0.036110  0.120621  0.750368  1
  Si  Si25  1  0.467160  0.619861  0.248986  1
  Si  Si26  1  0.963960  0.880605  0.249556  1
  Si  Si27  1  0.796361  0.632628  0.750727  1
  Si  Si28  1  0.298754  0.867739  0.749519  1
  Si  Si29  1  0.203797  0.365885  0.250173  1
  Si  Si30  1  0.702668  0.132833  0.248820  1
  Mo  Mo31  1  0.331980  0.167960  0.624342  1
  Mo  Mo32  1  0.663559  0.007179  0.749486  1
  Mo  Mo33  1  0.159289  0.493657  0.749260  1
  Mo  Mo34  1  0.338932  0.994145  0.250772  1
  Mo  Mo35  1  0.839154  0.507528  0.250568  1
