# generated using pymatgen
data_Ca3Ac2Si7
_symmetry_space_group_name_H-M   'P 1'
_cell_length_a   8.97564800
_cell_length_b   8.97564784
_cell_length_c   4.06928300
_cell_angle_alpha   90.00000000
_cell_angle_beta   90.00000000
_cell_angle_gamma   120.00000059
_symmetry_Int_Tables_number   1
_chemical_formula_structural   Ca3Ac2Si7
_chemical_formula_sum   'Ca3 Ac2 Si7'
_cell_volume   283.90964090
_cell_formula_units_Z   1
loop_
 _symmetry_equiv_pos_site_id
 _symmetry_equiv_pos_as_xyz
  1  'x, y, z'
loop_
 _atom_site_type_symbol
 _atom_site_label
 _atom_site_symmetry_multiplicity
 _atom_site_fract_x
 _atom_site_fract_y
 _atom_site_fract_z
 _atom_site_occupancy
  Ca  Ca0  1  0.000000  0.751425  0.500000  1
  Ca  Ca1  1  0.248575  0.248575  0.500000  1
  Ca  Ca2  1  0.751425  0.000000  0.500000  1
  Ac  Ac3  1  0.333333  0.666667  0.000000  1
  Ac  Ac4  1  0.666667  0.333333  0.000000  1
  Si  Si5  1  0.000000  0.000000  0.000000  1
  Si  Si6  1  0.000000  0.267538  0.000000  1
  Si  Si7  1  0.732462  0.732462  0.000000  1
  Si  Si8  1  0.267538  0.000000  0.000000  1
  Si  Si9  1  0.000000  0.419713  0.500000  1
  Si  Si10  1  0.580287  0.580287  0.500000  1
  Si  Si11  1  0.419713  0.000000  0.500000  1
