# generated using pymatgen
data_Nd2Lu2Ni13C4
_symmetry_space_group_name_H-M   'P 1'
_cell_length_a   8.39869132
_cell_length_b   8.39869100
_cell_length_c   3.88441800
_cell_angle_alpha   90.00000000
_cell_angle_beta   90.00000000
_cell_angle_gamma   90.58121018
_symmetry_Int_Tables_number   1
_chemical_formula_structural   Nd2Lu2Ni13C4
_chemical_formula_sum   'Nd2 Lu2 Ni13 C4'
_cell_volume   273.98503089
_cell_formula_units_Z   1
loop_
 _symmetry_equiv_pos_site_id
 _symmetry_equiv_pos_as_xyz
  1  'x, y, z'
loop_
 _atom_site_type_symbol
 _atom_site_label
 _atom_site_symmetry_multiplicity
 _atom_site_fract_x
 _atom_site_fract_y
 _atom_site_fract_z
 _atom_site_occupancy
  Nd  Nd0  1  0.346201  0.346201  0.500000  1
  Nd  Nd1  1  0.653799  0.653799  0.500000  1
  Lu  Lu2  1  0.813024  0.186976  0.500000  1
  Lu  Lu3  1  0.186976  0.813024  0.500000  1
  Ni  Ni4  1  0.000000  0.000000  0.000000  1
  Ni  Ni5  1  0.213456  0.573881  0.000000  1
  Ni  Ni6  1  0.786544  0.426119  0.000000  1
  Ni  Ni7  1  0.426119  0.786544  0.000000  1
  Ni  Ni8  1  0.573881  0.213456  0.000000  1
  Ni  Ni9  1  0.000000  0.500000  0.500000  1
  Ni  Ni10  1  0.500000  0.000000  0.500000  1
  Ni  Ni11  1  0.067067  0.288789  0.000000  1
  Ni  Ni12  1  0.932933  0.711211  0.000000  1
  Ni  Ni13  1  0.711211  0.932933  0.000000  1
  Ni  Ni14  1  0.288789  0.067067  0.000000  1
  Ni  Ni15  1  0.118284  0.118284  0.500000  1
  Ni  Ni16  1  0.881716  0.881716  0.500000  1
  C  C17  1  0.442776  0.557224  0.000000  1
  C  C18  1  0.557224  0.442776  0.000000  1
  C  C19  1  0.000000  0.500000  0.000000  1
  C  C20  1  0.500000  0.000000  0.000000  1
