# generated using pymatgen
data_Ba4InMoO8
_symmetry_space_group_name_H-M   'P 1'
_cell_length_a   7.30869785
_cell_length_b   7.30869775
_cell_length_c   6.01062300
_cell_angle_alpha   90.00000000
_cell_angle_beta   90.00000000
_cell_angle_gamma   131.49797633
_symmetry_Int_Tables_number   1
_chemical_formula_structural   Ba4InMoO8
_chemical_formula_sum   'Ba4 In1 Mo1 O8'
_cell_volume   240.47460031
_cell_formula_units_Z   1
loop_
 _symmetry_equiv_pos_site_id
 _symmetry_equiv_pos_as_xyz
  1  'x, y, z'
loop_
 _atom_site_type_symbol
 _atom_site_label
 _atom_site_symmetry_multiplicity
 _atom_site_fract_x
 _atom_site_fract_y
 _atom_site_fract_z
 _atom_site_occupancy
  Ba  Ba0  1  0.356398  0.643602  0.000000  1
  Ba  Ba1  1  0.857898  0.142102  0.500000  1
  Ba  Ba2  1  0.142102  0.857898  0.500000  1
  Ba  Ba3  1  0.643602  0.356398  0.000000  1
  In  In4  1  0.000000  0.000000  0.000000  1
  Mo  Mo5  1  0.500000  0.500000  0.500000  1
  O  O6  1  0.259227  0.259227  0.736499  1
  O  O7  1  0.740773  0.740773  0.263501  1
  O  O8  1  0.740773  0.740773  0.736499  1
  O  O9  1  0.259227  0.259227  0.263501  1
  O  O10  1  0.161728  0.838272  0.000000  1
  O  O11  1  0.648699  0.351301  0.500000  1
  O  O12  1  0.351301  0.648699  0.500000  1
  O  O13  1  0.838272  0.161728  0.000000  1
