# generated using pymatgen
data_Gd2NiB8Ir
_symmetry_space_group_name_H-M   'P 1'
_cell_length_a   6.95040223
_cell_length_b   6.95044548
_cell_length_c   6.95040469
_cell_angle_alpha   111.31401323
_cell_angle_beta   113.19894513
_cell_angle_gamma   104.03968063
_symmetry_Int_Tables_number   1
_chemical_formula_structural   Gd2NiB8Ir
_chemical_formula_sum   'Gd4 Ni2 B16 Ir2'
_cell_volume   256.67384597
_cell_formula_units_Z   2
loop_
 _symmetry_equiv_pos_site_id
 _symmetry_equiv_pos_as_xyz
  1  'x, y, z'
loop_
 _atom_site_type_symbol
 _atom_site_label
 _atom_site_symmetry_multiplicity
 _atom_site_fract_x
 _atom_site_fract_y
 _atom_site_fract_z
 _atom_site_occupancy
  Gd  Gd0  1  0.791739  0.791744  0.000005  1
  Gd  Gd1  1  0.208261  0.208256  0.999995  1
  Gd  Gd2  1  0.751690  0.251670  0.499981  1
  Gd  Gd3  1  0.248310  0.748330  0.500019  1
  Ni  Ni4  1  0.500010  0.743857  0.243847  1
  Ni  Ni5  1  0.499990  0.256143  0.756153  1
  B  B6  1  0.273340  0.108778  0.382129  1
  B  B7  1  0.726660  0.891222  0.617871  1
  B  B8  1  0.273352  0.891222  0.164562  1
  B  B9  1  0.726648  0.108778  0.835438  1
  B  B10  1  0.110914  0.730567  0.841467  1
  B  B11  1  0.889086  0.269433  0.158533  1
  B  B12  1  0.110900  0.269433  0.380347  1
  B  B13  1  0.889100  0.730567  0.619653  1
  B  B14  1  0.115039  0.109856  0.528376  1
  B  B15  1  0.581487  0.586657  0.471622  1
  B  B16  1  0.115035  0.586657  0.005169  1
  B  B17  1  0.581480  0.109856  0.994817  1
  B  B18  1  0.884961  0.890144  0.471624  1
  B  B19  1  0.418513  0.413343  0.528378  1
  B  B20  1  0.884965  0.413343  0.994831  1
  B  B21  1  0.418520  0.890144  0.005183  1
  Ir  Ir22  1  0.276858  0.500000  0.776858  1
  Ir  Ir23  1  0.723142  0.500000  0.223142  1
