# generated using pymatgen
data_BaCoReP2
_symmetry_space_group_name_H-M   'P 1'
_cell_length_a   6.88662499
_cell_length_b   6.88662564
_cell_length_c   6.88662646
_cell_angle_alpha   146.61790243
_cell_angle_beta   146.61790919
_cell_angle_gamma   47.92986454
_symmetry_Int_Tables_number   1
_chemical_formula_structural   BaCoReP2
_chemical_formula_sum   'Ba1 Co1 Re1 P2'
_cell_volume   98.47580066
_cell_formula_units_Z   1
loop_
 _symmetry_equiv_pos_site_id
 _symmetry_equiv_pos_as_xyz
  1  'x, y, z'
loop_
 _atom_site_type_symbol
 _atom_site_label
 _atom_site_symmetry_multiplicity
 _atom_site_fract_x
 _atom_site_fract_y
 _atom_site_fract_z
 _atom_site_occupancy
  Ba  Ba0  1  0.000000  0.000000  0.000000  1
  Co  Co1  1  0.250000  0.750000  0.500000  1
  Re  Re2  1  0.750000  0.250000  0.500000  1
  P  P3  1  0.655648  0.655648  0.000000  1
  P  P4  1  0.344352  0.344352  0.000000  1
