# generated using pymatgen
data_Sr2PrHg(Ir2O7)2
_symmetry_space_group_name_H-M   'P 1'
_cell_length_a   7.33859912
_cell_length_b   7.33234113
_cell_length_c   7.33234062
_cell_angle_alpha   61.20226820
_cell_angle_beta   61.49279330
_cell_angle_gamma   61.49280170
_symmetry_Int_Tables_number   1
_chemical_formula_structural   Sr2PrHg(Ir2O7)2
_chemical_formula_sum   'Sr2 Pr1 Hg1 Ir4 O14'
_cell_volume   287.73051984
_cell_formula_units_Z   1
loop_
 _symmetry_equiv_pos_site_id
 _symmetry_equiv_pos_as_xyz
  1  'x, y, z'
loop_
 _atom_site_type_symbol
 _atom_site_label
 _atom_site_symmetry_multiplicity
 _atom_site_fract_x
 _atom_site_fract_y
 _atom_site_fract_z
 _atom_site_occupancy
  Sr  Sr0  1  0.125000  0.125000  0.625000  1
  Sr  Sr1  1  0.125000  0.625000  0.125000  1
  Pr  Pr2  1  0.625000  0.125000  0.125000  1
  Hg  Hg3  1  0.125000  0.125000  0.125000  1
  Ir  Ir4  1  0.625000  0.625000  0.625000  1
  Ir  Ir5  1  0.125000  0.625000  0.625000  1
  Ir  Ir6  1  0.625000  0.125000  0.625000  1
  Ir  Ir7  1  0.625000  0.625000  0.125000  1
  O  O8  1  0.946256  0.551358  0.551358  1
  O  O9  1  0.310034  0.308357  0.691668  1
  O  O10  1  0.939966  0.558332  0.941643  1
  O  O11  1  0.688092  0.305960  0.305960  1
  O  O12  1  0.552782  0.541525  0.951412  1
  O  O13  1  0.552782  0.951412  0.541525  1
  O  O14  1  0.561908  0.944040  0.944040  1
  O  O15  1  0.250091  0.235387  0.235387  1
  O  O16  1  0.303744  0.698642  0.698642  1
  O  O17  1  0.697218  0.298588  0.708475  1
  O  O18  1  0.999909  0.014613  0.014613  1
  O  O19  1  0.939966  0.941643  0.558332  1
  O  O20  1  0.310034  0.691668  0.308357  1
  O  O21  1  0.697218  0.708475  0.298588  1
