# generated using pymatgen
data_Yb3In(Pt2O7)2
_symmetry_space_group_name_H-M   'P 1'
_cell_length_a   7.27789615
_cell_length_b   7.18955516
_cell_length_c   7.27789500
_cell_angle_alpha   59.59269725
_cell_angle_beta   60.00000070
_cell_angle_gamma   59.59270235
_symmetry_Int_Tables_number   1
_chemical_formula_structural   Yb3In(Pt2O7)2
_chemical_formula_sum   'Yb3 In1 Pt4 O14'
_cell_volume   267.60694757
_cell_formula_units_Z   1
loop_
 _symmetry_equiv_pos_site_id
 _symmetry_equiv_pos_as_xyz
  1  'x, y, z'
loop_
 _atom_site_type_symbol
 _atom_site_label
 _atom_site_symmetry_multiplicity
 _atom_site_fract_x
 _atom_site_fract_y
 _atom_site_fract_z
 _atom_site_occupancy
  Yb  Yb0  1  0.125000  0.125000  0.125000  1
  Yb  Yb1  1  0.625000  0.125000  0.125000  1
  Yb  Yb2  1  0.125000  0.125000  0.625000  1
  In  In3  1  0.125000  0.625000  0.125000  1
  Pt  Pt4  1  0.625000  0.625000  0.125000  1
  Pt  Pt5  1  0.625000  0.125000  0.625000  1
  Pt  Pt6  1  0.125000  0.625000  0.625000  1
  Pt  Pt7  1  0.625000  0.625000  0.625000  1
  O  O8  1  0.242080  0.273761  0.242080  1
  O  O9  1  0.709897  0.289567  0.290638  1
  O  O10  1  0.709897  0.289567  0.709897  1
  O  O11  1  0.293134  0.702113  0.293134  1
  O  O12  1  0.711619  0.702113  0.293134  1
  O  O13  1  0.290638  0.289567  0.709897  1
  O  O14  1  0.956866  0.547887  0.538381  1
  O  O15  1  0.293134  0.702113  0.711619  1
  O  O16  1  0.959362  0.960433  0.540103  1
  O  O17  1  0.540103  0.960433  0.540103  1
  O  O18  1  0.538381  0.547887  0.956866  1
  O  O19  1  0.956866  0.547887  0.956866  1
  O  O20  1  0.540103  0.960433  0.959362  1
  O  O21  1  0.007920  0.976239  0.007920  1
