# generated using pymatgen
data_Sc2Ni7(P2Ru)3
_symmetry_space_group_name_H-M   'P 1'
_cell_length_a   3.65758300
_cell_length_b   10.49370200
_cell_length_c   11.80214600
_cell_angle_alpha   90.00000000
_cell_angle_beta   90.00000000
_cell_angle_gamma   90.00000000
_symmetry_Int_Tables_number   1
_chemical_formula_structural   Sc2Ni7(P2Ru)3
_chemical_formula_sum   'Sc4 Ni14 P12 Ru6'
_cell_volume   452.98508218
_cell_formula_units_Z   2
loop_
 _symmetry_equiv_pos_site_id
 _symmetry_equiv_pos_as_xyz
  1  'x, y, z'
loop_
 _atom_site_type_symbol
 _atom_site_label
 _atom_site_symmetry_multiplicity
 _atom_site_fract_x
 _atom_site_fract_y
 _atom_site_fract_z
 _atom_site_occupancy
  Sc  Sc0  1  0.250000  0.590662  0.705693  1
  Sc  Sc1  1  0.250000  0.909338  0.205693  1
  Sc  Sc2  1  0.750000  0.409846  0.290634  1
  Sc  Sc3  1  0.750000  0.090154  0.790634  1
  Ni  Ni4  1  0.750000  0.593240  0.514414  1
  Ni  Ni5  1  0.750000  0.906760  0.014414  1
  Ni  Ni6  1  0.250000  0.223652  0.184841  1
  Ni  Ni7  1  0.250000  0.276349  0.684841  1
  Ni  Ni8  1  0.750000  0.778872  0.816604  1
  Ni  Ni9  1  0.750000  0.721128  0.316604  1
  Ni  Ni10  1  0.250000  0.888046  0.701200  1
  Ni  Ni11  1  0.250000  0.611954  0.201200  1
  Ni  Ni12  1  0.750000  0.108606  0.298102  1
  Ni  Ni13  1  0.750000  0.391394  0.798102  1
  Ni  Ni14  1  0.250000  0.467529  0.929053  1
  Ni  Ni15  1  0.250000  0.032471  0.429053  1
  Ni  Ni16  1  0.750000  0.536361  0.069518  1
  Ni  Ni17  1  0.750000  0.963639  0.569518  1
  P  P18  1  0.250000  0.416954  0.114728  1
  P  P19  1  0.250000  0.083046  0.614728  1
  P  P20  1  0.750000  0.585351  0.884842  1
  P  P21  1  0.750000  0.914649  0.384842  1
  P  P22  1  0.250000  0.267937  0.872821  1
  P  P23  1  0.250000  0.232063  0.372821  1
  P  P24  1  0.750000  0.734672  0.127550  1
  P  P25  1  0.750000  0.765328  0.627550  1
  P  P26  1  0.250000  0.595880  0.384622  1
  P  P27  1  0.250000  0.904120  0.884622  1
  P  P28  1  0.750000  0.406851  0.614558  1
  P  P29  1  0.750000  0.093149  0.114558  1
  Ru  Ru30  1  0.250000  0.717152  0.987130  1
  Ru  Ru31  1  0.250000  0.782848  0.487130  1
  Ru  Ru32  1  0.750000  0.289012  0.015473  1
  Ru  Ru33  1  0.750000  0.210988  0.515473  1
  Ru  Ru34  1  0.250000  0.411934  0.488218  1
  Ru  Ru35  1  0.250000  0.088066  0.988218  1
