# generated using pymatgen
data_Y5Er3(AlCo)2
_symmetry_space_group_name_H-M   'P 1'
_cell_length_a   9.39335228
_cell_length_b   9.40481911
_cell_length_c   9.40482000
_cell_angle_alpha   59.91935420
_cell_angle_beta   60.04032228
_cell_angle_gamma   60.04032460
_symmetry_Int_Tables_number   1
_chemical_formula_structural   Y5Er3(AlCo)2
_chemical_formula_sum   'Y10 Er6 Al4 Co4'
_cell_volume   587.49646921
_cell_formula_units_Z   2
loop_
 _symmetry_equiv_pos_site_id
 _symmetry_equiv_pos_as_xyz
  1  'x, y, z'
loop_
 _atom_site_type_symbol
 _atom_site_label
 _atom_site_symmetry_multiplicity
 _atom_site_fract_x
 _atom_site_fract_y
 _atom_site_fract_z
 _atom_site_occupancy
  Y  Y0  1  0.191559  0.808441  0.191559  1
  Y  Y1  1  0.808441  0.191559  0.808441  1
  Y  Y2  1  0.191559  0.191559  0.808441  1
  Y  Y3  1  0.808441  0.808441  0.191559  1
  Y  Y4  1  0.938368  0.561632  0.561632  1
  Y  Y5  1  0.561632  0.938368  0.938368  1
  Y  Y6  1  0.560769  0.939231  0.560769  1
  Y  Y7  1  0.939231  0.560769  0.939231  1
  Y  Y8  1  0.560769  0.560769  0.939231  1
  Y  Y9  1  0.939231  0.939231  0.560769  1
  Er  Er10  1  0.349108  0.348998  0.348998  1
  Er  Er11  1  0.348998  0.349108  0.952894  1
  Er  Er12  1  0.348998  0.952894  0.349108  1
  Er  Er13  1  0.952894  0.348998  0.348998  1
  Er  Er14  1  0.808351  0.191649  0.191649  1
  Er  Er15  1  0.191649  0.808351  0.808351  1
  Al  Al16  1  0.577556  0.577674  0.577674  1
  Al  Al17  1  0.577674  0.577556  0.267097  1
  Al  Al18  1  0.577674  0.267097  0.577556  1
  Al  Al19  1  0.267097  0.577674  0.577674  1
  Co  Co20  1  0.139195  0.143017  0.143017  1
  Co  Co21  1  0.143017  0.139195  0.574770  1
  Co  Co22  1  0.143017  0.574770  0.139195  1
  Co  Co23  1  0.574770  0.143017  0.143017  1
