# generated using pymatgen
data_Tb6Ho10In4Ir3Pd
_symmetry_space_group_name_H-M   'P 1'
_cell_length_a   9.66378101
_cell_length_b   9.66746243
_cell_length_c   9.67177074
_cell_angle_alpha   60.23126630
_cell_angle_beta   60.18873472
_cell_angle_gamma   60.11786726
_symmetry_Int_Tables_number   1
_chemical_formula_structural   Tb6Ho10In4Ir3Pd
_chemical_formula_sum   'Tb6 Ho10 In4 Ir3 Pd1'
_cell_volume   641.51897912
_cell_formula_units_Z   1
loop_
 _symmetry_equiv_pos_site_id
 _symmetry_equiv_pos_as_xyz
  1  'x, y, z'
loop_
 _atom_site_type_symbol
 _atom_site_label
 _atom_site_symmetry_multiplicity
 _atom_site_fract_x
 _atom_site_fract_y
 _atom_site_fract_z
 _atom_site_occupancy
  Tb  Tb0  1  0.442028  0.434160  0.061239  1
  Tb  Tb1  1  0.652674  0.646772  0.051720  1
  Tb  Tb2  1  0.185468  0.811025  0.195325  1
  Tb  Tb3  1  0.060917  0.437981  0.060056  1
  Tb  Tb4  1  0.186646  0.810411  0.808683  1
  Tb  Tb5  1  0.061218  0.437340  0.439762  1
  Ho  Ho6  1  0.810251  0.190030  0.190478  1
  Ho  Ho7  1  0.655698  0.648799  0.648395  1
  Ho  Ho8  1  0.809995  0.191020  0.809417  1
  Ho  Ho9  1  0.186187  0.195794  0.809505  1
  Ho  Ho10  1  0.046017  0.650403  0.650405  1
  Ho  Ho11  1  0.441840  0.060397  0.061115  1
  Ho  Ho12  1  0.060614  0.059098  0.439661  1
  Ho  Ho13  1  0.653061  0.051426  0.646651  1
  Ho  Ho14  1  0.809097  0.810482  0.191226  1
  Ho  Ho15  1  0.441691  0.060598  0.435456  1
  In  In16  1  0.416886  0.416918  0.417801  1
  In  In17  1  0.417094  0.417284  0.748108  1
  In  In18  1  0.416577  0.749142  0.417562  1
  In  In19  1  0.748666  0.416687  0.417562  1
  Ir  Ir20  1  0.856368  0.860052  0.858135  1
  Ir  Ir21  1  0.858018  0.424692  0.858428  1
  Ir  Ir22  1  0.855827  0.859851  0.426524  1
  Pd  Pd23  1  0.427163  0.859640  0.856789  1
