# generated using pymatgen
data_Zr3Sc9(TiCo2)4
_symmetry_space_group_name_H-M   'P 1'
_cell_length_a   8.37627959
_cell_length_b   8.35809569
_cell_length_c   8.37738137
_cell_angle_alpha   60.06741895
_cell_angle_beta   60.15917557
_cell_angle_gamma   60.08049962
_symmetry_Int_Tables_number   1
_chemical_formula_structural   Zr3Sc9(TiCo2)4
_chemical_formula_sum   'Zr3 Sc9 Ti4 Co8'
_cell_volume   415.67821353
_cell_formula_units_Z   1
loop_
 _symmetry_equiv_pos_site_id
 _symmetry_equiv_pos_as_xyz
  1  'x, y, z'
loop_
 _atom_site_type_symbol
 _atom_site_label
 _atom_site_symmetry_multiplicity
 _atom_site_fract_x
 _atom_site_fract_y
 _atom_site_fract_z
 _atom_site_occupancy
  Zr  Zr0  1  0.808281  0.808454  0.192676  1
  Zr  Zr1  1  0.192676  0.190589  0.808281  1
  Zr  Zr2  1  0.808368  0.191632  0.808368  1
  Sc  Sc3  1  0.190950  0.809050  0.190950  1
  Sc  Sc4  1  0.191697  0.808689  0.808902  1
  Sc  Sc5  1  0.808902  0.190713  0.191697  1
  Sc  Sc6  1  0.439394  0.440946  0.060235  1
  Sc  Sc7  1  0.060235  0.059424  0.439394  1
  Sc  Sc8  1  0.439633  0.060367  0.439633  1
  Sc  Sc9  1  0.059825  0.440175  0.059825  1
  Sc  Sc10  1  0.060521  0.440732  0.438915  1
  Sc  Sc11  1  0.438915  0.059832  0.060521  1
  Ti  Ti12  1  0.125597  0.626240  0.624140  1
  Ti  Ti13  1  0.625873  0.125527  0.622995  1
  Ti  Ti14  1  0.624140  0.624022  0.125597  1
  Ti  Ti15  1  0.622995  0.625605  0.625873  1
  Co  Co16  1  0.742010  0.420374  0.420638  1
  Co  Co17  1  0.421946  0.741244  0.418410  1
  Co  Co18  1  0.420638  0.416977  0.742010  1
  Co  Co19  1  0.418410  0.418401  0.421946  1
  Co  Co20  1  0.505979  0.834170  0.829679  1
  Co  Co21  1  0.833065  0.503096  0.830272  1
  Co  Co22  1  0.829679  0.830172  0.505979  1
  Co  Co23  1  0.830272  0.833567  0.833065  1
