# generated using pymatgen
data_Tm8CdHgPt2
_symmetry_space_group_name_H-M   'P 1'
_cell_length_a   9.52207214
_cell_length_b   9.52207279
_cell_length_c   9.52440600
_cell_angle_alpha   59.99189407
_cell_angle_beta   59.99189183
_cell_angle_gamma   60.05162617
_symmetry_Int_Tables_number   1
_chemical_formula_structural   Tm8CdHgPt2
_chemical_formula_sum   'Tm16 Cd2 Hg2 Pt4'
_cell_volume   610.80383652
_cell_formula_units_Z   2
loop_
 _symmetry_equiv_pos_site_id
 _symmetry_equiv_pos_as_xyz
  1  'x, y, z'
loop_
 _atom_site_type_symbol
 _atom_site_label
 _atom_site_symmetry_multiplicity
 _atom_site_fract_x
 _atom_site_fract_y
 _atom_site_fract_z
 _atom_site_occupancy
  Tm  Tm0  1  0.354020  0.354020  0.350364  1
  Tm  Tm1  1  0.354020  0.354020  0.941598  1
  Tm  Tm2  1  0.358817  0.931491  0.354846  1
  Tm  Tm3  1  0.931491  0.358817  0.354846  1
  Tm  Tm4  1  0.811025  0.188883  0.189964  1
  Tm  Tm5  1  0.188883  0.811025  0.810127  1
  Tm  Tm6  1  0.188883  0.811025  0.189964  1
  Tm  Tm7  1  0.811025  0.188883  0.810127  1
  Tm  Tm8  1  0.189671  0.189671  0.810329  1
  Tm  Tm9  1  0.810494  0.810494  0.189506  1
  Tm  Tm10  1  0.934838  0.563870  0.564898  1
  Tm  Tm11  1  0.563870  0.934838  0.936394  1
  Tm  Tm12  1  0.563870  0.934838  0.564898  1
  Tm  Tm13  1  0.934838  0.563870  0.936394  1
  Tm  Tm14  1  0.564961  0.564961  0.935039  1
  Tm  Tm15  1  0.936368  0.936368  0.563632  1
  Cd  Cd16  1  0.580368  0.253668  0.582982  1
  Cd  Cd17  1  0.253668  0.580368  0.582982  1
  Hg  Hg18  1  0.585267  0.585267  0.589142  1
  Hg  Hg19  1  0.585267  0.585267  0.240324  1
  Pt  Pt20  1  0.143759  0.143759  0.146739  1
  Pt  Pt21  1  0.143759  0.143759  0.565745  1
  Pt  Pt22  1  0.141723  0.569118  0.144580  1
  Pt  Pt23  1  0.569118  0.141723  0.144580  1
