# generated using pymatgen
data_KSb12RuRh3
_symmetry_space_group_name_H-M   'P 1'
_cell_length_a   8.16487834
_cell_length_b   8.16387481
_cell_length_c   8.16487809
_cell_angle_alpha   109.46873084
_cell_angle_beta   109.47370877
_cell_angle_gamma   109.46873687
_symmetry_Int_Tables_number   1
_chemical_formula_structural   KSb12RuRh3
_chemical_formula_sum   'K1 Sb12 Ru1 Rh3'
_cell_volume   418.97411116
_cell_formula_units_Z   1
loop_
 _symmetry_equiv_pos_site_id
 _symmetry_equiv_pos_as_xyz
  1  'x, y, z'
loop_
 _atom_site_type_symbol
 _atom_site_label
 _atom_site_symmetry_multiplicity
 _atom_site_fract_x
 _atom_site_fract_y
 _atom_site_fract_z
 _atom_site_occupancy
  K  K0  1  0.000000  0.000000  0.000000  1
  Sb  Sb1  1  0.844010  0.656097  0.499954  1
  Sb  Sb2  1  0.155990  0.343903  0.500046  1
  Sb  Sb3  1  0.156365  0.658626  0.817353  1
  Sb  Sb4  1  0.843635  0.341374  0.182647  1
  Sb  Sb5  1  0.660987  0.502261  0.843635  1
  Sb  Sb6  1  0.339013  0.497739  0.156365  1
  Sb  Sb7  1  0.655944  0.812088  0.155990  1
  Sb  Sb8  1  0.344056  0.187912  0.844010  1
  Sb  Sb9  1  0.499954  0.843858  0.655944  1
  Sb  Sb10  1  0.500046  0.156142  0.344056  1
  Sb  Sb11  1  0.182647  0.841274  0.339013  1
  Sb  Sb12  1  0.817353  0.158726  0.660987  1
  Ru  Ru13  1  0.000000  0.500000  0.000000  1
  Rh  Rh14  1  0.500000  0.500000  0.500000  1
  Rh  Rh15  1  0.500000  0.000000  0.000000  1
  Rh  Rh16  1  0.000000  0.000000  0.500000  1
