# generated using pymatgen
data_Gd8Te3AuO24
_symmetry_space_group_name_H-M   'P 1'
_cell_length_a   5.37930128
_cell_length_b   9.27123156
_cell_length_c   10.15943701
_cell_angle_alpha   89.88245269
_cell_angle_beta   90.06535241
_cell_angle_gamma   89.95561682
_symmetry_Int_Tables_number   1
_chemical_formula_structural   Gd8Te3AuO24
_chemical_formula_sum   'Gd8 Te3 Au1 O24'
_cell_volume   506.67749120
_cell_formula_units_Z   1
loop_
 _symmetry_equiv_pos_site_id
 _symmetry_equiv_pos_as_xyz
  1  'x, y, z'
loop_
 _atom_site_type_symbol
 _atom_site_label
 _atom_site_symmetry_multiplicity
 _atom_site_fract_x
 _atom_site_fract_y
 _atom_site_fract_z
 _atom_site_occupancy
  Gd  Gd0  1  0.481862  0.897450  0.035867  1
  Gd  Gd1  1  0.980171  0.605295  0.961307  1
  Gd  Gd2  1  0.520439  0.395806  0.460182  1
  Gd  Gd3  1  0.021640  0.102306  0.540787  1
  Gd  Gd4  1  0.464323  0.782352  0.634901  1
  Gd  Gd5  1  0.963339  0.717061  0.362524  1
  Gd  Gd6  1  0.538049  0.282963  0.865676  1
  Gd  Gd7  1  0.037798  0.215265  0.134923  1
  Te  Te8  1  0.461930  0.504421  0.146698  1
  Te  Te9  1  0.038188  0.494829  0.645775  1
  Te  Te10  1  0.539008  0.004902  0.352805  1
  Au  Au11  1  0.959541  0.996904  0.855280  1
  O  O12  1  0.243123  0.584446  0.505744  1
  O  O13  1  0.743656  0.914740  0.494083  1
  O  O14  1  0.749443  0.090012  0.998393  1
  O  O15  1  0.256399  0.415439  0.006335  1
  O  O16  1  0.270786  0.886106  0.431365  1
  O  O17  1  0.770188  0.612892  0.567298  1
  O  O18  1  0.729763  0.386319  0.068461  1
  O  O19  1  0.238450  0.117291  0.934578  1
  O  O20  1  0.184831  0.638200  0.178349  1
  O  O21  1  0.674015  0.857656  0.820117  1
  O  O22  1  0.814783  0.139272  0.322826  1
  O  O23  1  0.314700  0.360910  0.678078  1
  O  O24  1  0.315871  0.360090  0.259913  1
  O  O25  1  0.808812  0.145917  0.735366  1
  O  O26  1  0.684346  0.859968  0.240584  1
  O  O27  1  0.182900  0.639557  0.759355  1
  O  O28  1  0.332622  0.051441  0.204014  1
  O  O29  1  0.833055  0.447729  0.795709  1
  O  O30  1  0.667974  0.551204  0.296103  1
  O  O31  1  0.175113  0.945904  0.699885  1
  O  O32  1  0.414510  0.153755  0.471060  1
  O  O33  1  0.915596  0.345699  0.528256  1
  O  O34  1  0.585122  0.653563  0.028818  1
  O  O35  1  0.087654  0.842336  0.978583  1
