# generated using pymatgen
data_Tb4Sn3Ge3Rh7
_symmetry_space_group_name_H-M   'P 1'
_cell_length_a   7.51165604
_cell_length_b   7.44872408
_cell_length_c   7.44872428
_cell_angle_alpha   109.29944553
_cell_angle_beta   109.64245272
_cell_angle_gamma   109.64245956
_symmetry_Int_Tables_number   1
_chemical_formula_structural   Tb4Sn3Ge3Rh7
_chemical_formula_sum   'Tb4 Sn3 Ge3 Rh7'
_cell_volume   320.15141622
_cell_formula_units_Z   1
loop_
 _symmetry_equiv_pos_site_id
 _symmetry_equiv_pos_as_xyz
  1  'x, y, z'
loop_
 _atom_site_type_symbol
 _atom_site_label
 _atom_site_symmetry_multiplicity
 _atom_site_fract_x
 _atom_site_fract_y
 _atom_site_fract_z
 _atom_site_occupancy
  Tb  Tb0  1  0.551511  0.000000  0.000000  1
  Tb  Tb1  1  0.987622  0.476669  0.000000  1
  Tb  Tb2  1  0.987622  0.000000  0.476669  1
  Tb  Tb3  1  0.510952  0.523331  0.523331  1
  Sn  Sn4  1  0.015854  0.704521  0.704521  1
  Sn  Sn5  1  0.311333  0.000000  0.295479  1
  Sn  Sn6  1  0.311333  0.295479  0.000000  1
  Ge  Ge7  1  0.011247  0.341508  0.341508  1
  Ge  Ge8  1  0.669740  0.000000  0.658492  1
  Ge  Ge9  1  0.669740  0.658492  0.000000  1
  Rh  Rh10  1  0.960920  0.000000  0.000000  1
  Rh  Rh11  1  0.498549  0.744456  0.245128  1
  Rh  Rh12  1  0.754093  0.500672  0.255544  1
  Rh  Rh13  1  0.253421  0.754872  0.499328  1
  Rh  Rh14  1  0.253421  0.499328  0.754872  1
  Rh  Rh15  1  0.498549  0.245128  0.744456  1
  Rh  Rh16  1  0.754093  0.255544  0.500672  1
