# generated using pymatgen
data_ScBeCuP2
_symmetry_space_group_name_H-M   'P 1'
_cell_length_a   3.74797800
_cell_length_b   3.74797873
_cell_length_c   6.15115300
_cell_angle_alpha   90.00000000
_cell_angle_beta   90.00000000
_cell_angle_gamma   119.99999359
_symmetry_Int_Tables_number   1
_chemical_formula_structural   ScBeCuP2
_chemical_formula_sum   'Sc1 Be1 Cu1 P2'
_cell_volume   74.83096391
_cell_formula_units_Z   1
loop_
 _symmetry_equiv_pos_site_id
 _symmetry_equiv_pos_as_xyz
  1  'x, y, z'
loop_
 _atom_site_type_symbol
 _atom_site_label
 _atom_site_symmetry_multiplicity
 _atom_site_fract_x
 _atom_site_fract_y
 _atom_site_fract_z
 _atom_site_occupancy
  Sc  Sc0  1  0.000000  0.000000  0.988781  1
  Be  Be1  1  0.666667  0.333333  0.375366  1
  Cu  Cu2  1  0.333333  0.666667  0.632130  1
  P  P3  1  0.333333  0.666667  0.256976  1
  P  P4  1  0.666667  0.333333  0.746747  1
