# generated using pymatgen
data_Gd2Mn2C3
_symmetry_space_group_name_H-M   'P 1'
_cell_length_a   3.43107803
_cell_length_b   5.37864818
_cell_length_c   5.56817915
_cell_angle_alpha   103.72922215
_cell_angle_beta   90.01433471
_cell_angle_gamma   108.59827340
_symmetry_Int_Tables_number   1
_chemical_formula_structural   Gd2Mn2C3
_chemical_formula_sum   'Gd2 Mn2 C3'
_cell_volume   94.28700206
_cell_formula_units_Z   1
loop_
 _symmetry_equiv_pos_site_id
 _symmetry_equiv_pos_as_xyz
  1  'x, y, z'
loop_
 _atom_site_type_symbol
 _atom_site_label
 _atom_site_symmetry_multiplicity
 _atom_site_fract_x
 _atom_site_fract_y
 _atom_site_fract_z
 _atom_site_occupancy
  Gd  Gd0  1  0.395680  0.791411  0.182916  1
  Gd  Gd1  1  0.604345  0.208630  0.817117  1
  Mn  Mn2  1  0.158030  0.316167  0.397205  1
  Mn  Mn3  1  0.841961  0.683812  0.602778  1
  C  C4  1  0.707530  0.415325  0.280214  1
  C  C5  1  0.999988  0.999966  0.500054  1
  C  C6  1  0.292472  0.584687  0.719717  1
