# generated using pymatgen
data_NbOsF10
_symmetry_space_group_name_H-M   'P 1'
_cell_length_a   5.77164663
_cell_length_b   7.50707375
_cell_length_c   9.83200816
_cell_angle_alpha   87.66630093
_cell_angle_beta   106.31839918
_cell_angle_gamma   99.37523840
_symmetry_Int_Tables_number   1
_chemical_formula_structural   NbOsF10
_chemical_formula_sum   'Nb2 Os2 F20'
_cell_volume   403.37472986
_cell_formula_units_Z   2
loop_
 _symmetry_equiv_pos_site_id
 _symmetry_equiv_pos_as_xyz
  1  'x, y, z'
loop_
 _atom_site_type_symbol
 _atom_site_label
 _atom_site_symmetry_multiplicity
 _atom_site_fract_x
 _atom_site_fract_y
 _atom_site_fract_z
 _atom_site_occupancy
  Nb  Nb0  1  0.336542  0.378326  0.219884  1
  Nb  Nb1  1  0.663458  0.621674  0.780116  1
  Os  Os2  1  0.963722  0.760255  0.313926  1
  Os  Os3  1  0.036278  0.239745  0.686074  1
  F  F4  1  0.023611  0.246666  0.167396  1
  F  F5  1  0.976389  0.753334  0.832604  1
  F  F6  1  0.497283  0.218131  0.157285  1
  F  F7  1  0.502717  0.781869  0.842715  1
  F  F8  1  0.115043  0.217363  0.886444  1
  F  F9  1  0.884957  0.782637  0.113556  1
  F  F10  1  0.958698  0.280279  0.488079  1
  F  F11  1  0.041302  0.719721  0.511921  1
  F  F12  1  0.769485  0.054312  0.663083  1
  F  F13  1  0.230515  0.945688  0.336917  1
  F  F14  1  0.249235  0.082872  0.674639  1
  F  F15  1  0.750765  0.917128  0.325361  1
  F  F16  1  0.311103  0.446673  0.710894  1
  F  F17  1  0.688897  0.553327  0.289106  1
  F  F18  1  0.820814  0.418763  0.698147  1
  F  F19  1  0.179186  0.581237  0.301853  1
  F  F20  1  0.692227  0.450114  0.927314  1
  F  F21  1  0.307773  0.549886  0.072686  1
  F  F22  1  0.571966  0.670030  0.585186  1
  F  F23  1  0.428034  0.329970  0.414814  1
