# generated using pymatgen
data_Zr8Fe8Si13Ge
_symmetry_space_group_name_H-M   'P 1'
_cell_length_a   9.57563403
_cell_length_b   9.57563373
_cell_length_c   9.57563450
_cell_angle_alpha   93.99462665
_cell_angle_beta   93.99463059
_cell_angle_gamma   149.39236362
_symmetry_Int_Tables_number   1
_chemical_formula_structural   Zr8Fe8Si13Ge
_chemical_formula_sum   'Zr8 Fe8 Si13 Ge1'
_cell_volume   431.19503558
_cell_formula_units_Z   1
loop_
 _symmetry_equiv_pos_site_id
 _symmetry_equiv_pos_as_xyz
  1  'x, y, z'
loop_
 _atom_site_type_symbol
 _atom_site_label
 _atom_site_symmetry_multiplicity
 _atom_site_fract_x
 _atom_site_fract_y
 _atom_site_fract_z
 _atom_site_occupancy
  Zr  Zr0  1  0.696034  0.498650  0.197384  1
  Zr  Zr1  1  0.498650  0.696034  0.197384  1
  Zr  Zr2  1  0.498650  0.301266  0.802616  1
  Zr  Zr3  1  0.301266  0.498650  0.802616  1
  Zr  Zr4  1  0.862712  0.862712  0.722762  1
  Zr  Zr5  1  0.139951  0.862712  0.000000  1
  Zr  Zr6  1  0.862712  0.139951  0.000000  1
  Zr  Zr7  1  0.139951  0.139951  0.277238  1
  Fe  Fe8  1  0.102142  0.897945  0.500068  1
  Fe  Fe9  1  0.897945  0.397877  0.795803  1
  Fe  Fe10  1  0.602074  0.102142  0.204197  1
  Fe  Fe11  1  0.102142  0.602074  0.204197  1
  Fe  Fe12  1  0.602074  0.397877  0.499932  1
  Fe  Fe13  1  0.397877  0.897945  0.795803  1
  Fe  Fe14  1  0.897945  0.102142  0.500068  1
  Fe  Fe15  1  0.397877  0.602074  0.499932  1
  Si  Si16  1  0.250153  0.250153  0.000000  1
  Si  Si17  1  0.091185  0.500029  0.591156  1
  Si  Si18  1  0.500029  0.091185  0.591156  1
  Si  Si19  1  0.500029  0.908872  0.408844  1
  Si  Si20  1  0.908872  0.500029  0.408844  1
  Si  Si21  1  0.699640  0.000017  0.699623  1
  Si  Si22  1  0.000017  0.699640  0.699623  1
  Si  Si23  1  0.710483  0.710483  0.421025  1
  Si  Si24  1  0.289458  0.710483  0.000000  1
  Si  Si25  1  0.300395  0.000017  0.300377  1
  Si  Si26  1  0.710483  0.289458  0.000000  1
  Si  Si27  1  0.289458  0.289458  0.578975  1
  Si  Si28  1  0.000017  0.300395  0.300377  1
  Ge  Ge29  1  0.749779  0.749779  0.000000  1
