# generated using pymatgen
data_Y10Zn3B16Au
_symmetry_space_group_name_H-M   'P 1'
_cell_length_a   7.21232482
_cell_length_b   7.21232482
_cell_length_c   8.46685500
_cell_angle_alpha   90.00000000
_cell_angle_beta   90.00000000
_cell_angle_gamma   89.94542370
_symmetry_Int_Tables_number   1
_chemical_formula_structural   Y10Zn3B16Au
_chemical_formula_sum   'Y10 Zn3 B16 Au1'
_cell_volume   440.42552475
_cell_formula_units_Z   1
loop_
 _symmetry_equiv_pos_site_id
 _symmetry_equiv_pos_as_xyz
  1  'x, y, z'
loop_
 _atom_site_type_symbol
 _atom_site_label
 _atom_site_symmetry_multiplicity
 _atom_site_fract_x
 _atom_site_fract_y
 _atom_site_fract_z
 _atom_site_occupancy
  Y  Y0  1  0.681269  0.181269  0.211396  1
  Y  Y1  1  0.318042  0.818042  0.789050  1
  Y  Y2  1  0.318042  0.818042  0.210950  1
  Y  Y3  1  0.817943  0.681871  0.211567  1
  Y  Y4  1  0.817943  0.681871  0.788433  1
  Y  Y5  1  0.681269  0.181269  0.788604  1
  Y  Y6  1  0.181871  0.317943  0.788433  1
  Y  Y7  1  0.181871  0.317943  0.211567  1
  Y  Y8  1  0.000741  0.997896  0.500000  1
  Y  Y9  1  0.497896  0.500741  0.500000  1
  Zn  Zn10  1  0.879081  0.379081  0.500000  1
  Zn  Zn11  1  0.382411  0.117716  0.500000  1
  Zn  Zn12  1  0.617716  0.882411  0.500000  1
  B  B13  1  0.171633  0.040441  0.000000  1
  B  B14  1  0.828330  0.959762  0.000000  1
  B  B15  1  0.959420  0.172009  0.000000  1
  B  B16  1  0.328049  0.540551  0.000000  1
  B  B17  1  0.040551  0.828049  0.000000  1
  B  B18  1  0.672009  0.459420  0.000000  1
  B  B19  1  0.540441  0.671633  0.000000  1
  B  B20  1  0.459762  0.328330  0.000000  1
  B  B21  1  0.090637  0.590637  0.000000  1
  B  B22  1  0.909365  0.409365  0.000000  1
  B  B23  1  0.409401  0.090698  0.000000  1
  B  B24  1  0.590698  0.909401  0.000000  1
  B  B25  1  0.999918  0.000397  0.156021  1
  B  B26  1  0.999918  0.000397  0.843979  1
  B  B27  1  0.500397  0.499918  0.843979  1
  B  B28  1  0.500397  0.499918  0.156021  1
  Au  Au29  1  0.122982  0.622982  0.500000  1
