# generated using pymatgen
data_LiLa2MgPt2
_symmetry_space_group_name_H-M   'P 1'
_cell_length_a   4.19111100
_cell_length_b   7.38735000
_cell_length_c   8.90226500
_cell_angle_alpha   90.00000000
_cell_angle_beta   90.00000000
_cell_angle_gamma   90.00000000
_symmetry_Int_Tables_number   1
_chemical_formula_structural   LiLa2MgPt2
_chemical_formula_sum   'Li2 La4 Mg2 Pt4'
_cell_volume   275.62484135
_cell_formula_units_Z   2
loop_
 _symmetry_equiv_pos_site_id
 _symmetry_equiv_pos_as_xyz
  1  'x, y, z'
loop_
 _atom_site_type_symbol
 _atom_site_label
 _atom_site_symmetry_multiplicity
 _atom_site_fract_x
 _atom_site_fract_y
 _atom_site_fract_z
 _atom_site_occupancy
  Li  Li0  1  0.250000  0.129342  0.943210  1
  Li  Li1  1  0.250000  0.629342  0.556790  1
  La  La2  1  0.250000  0.042801  0.317537  1
  La  La3  1  0.250000  0.542801  0.182463  1
  La  La4  1  0.750000  0.953197  0.684755  1
  La  La5  1  0.750000  0.453197  0.815245  1
  Mg  Mg6  1  0.750000  0.875559  0.055798  1
  Mg  Mg7  1  0.750000  0.375559  0.444202  1
  Pt  Pt8  1  0.250000  0.248710  0.619274  1
  Pt  Pt9  1  0.250000  0.748710  0.880726  1
  Pt  Pt10  1  0.750000  0.750391  0.371165  1
  Pt  Pt11  1  0.750000  0.250391  0.128835  1
