# generated using pymatgen
data_Lu16MgIn3Rh4
_symmetry_space_group_name_H-M   'P 1'
_cell_length_a   9.47496035
_cell_length_b   9.47488356
_cell_length_c   9.47506438
_cell_angle_alpha   59.88990757
_cell_angle_beta   59.89189072
_cell_angle_gamma   59.88920930
_symmetry_Int_Tables_number   1
_chemical_formula_structural   Lu16MgIn3Rh4
_chemical_formula_sum   'Lu16 Mg1 In3 Rh4'
_cell_volume   599.97969399
_cell_formula_units_Z   1
loop_
 _symmetry_equiv_pos_site_id
 _symmetry_equiv_pos_as_xyz
  1  'x, y, z'
loop_
 _atom_site_type_symbol
 _atom_site_label
 _atom_site_symmetry_multiplicity
 _atom_site_fract_x
 _atom_site_fract_y
 _atom_site_fract_z
 _atom_site_occupancy
  Lu  Lu0  1  0.600003  0.600033  0.600045  1
  Lu  Lu1  1  0.599236  0.599238  0.201387  1
  Lu  Lu2  1  0.599249  0.201404  0.599238  1
  Lu  Lu3  1  0.201417  0.599225  0.599263  1
  Lu  Lu4  1  0.059741  0.440248  0.440231  1
  Lu  Lu5  1  0.439375  0.061123  0.061117  1
  Lu  Lu6  1  0.440260  0.059725  0.440251  1
  Lu  Lu7  1  0.061135  0.439402  0.061103  1
  Lu  Lu8  1  0.440245  0.440245  0.059735  1
  Lu  Lu9  1  0.061114  0.061134  0.439387  1
  Lu  Lu10  1  0.187761  0.812377  0.812387  1
  Lu  Lu11  1  0.811801  0.187905  0.187921  1
  Lu  Lu12  1  0.812368  0.187758  0.812395  1
  Lu  Lu13  1  0.187910  0.811783  0.187920  1
  Lu  Lu14  1  0.812390  0.812379  0.187753  1
  Lu  Lu15  1  0.187902  0.187911  0.811792  1
  Mg  Mg16  1  0.830420  0.830435  0.830420  1
  In  In17  1  0.833447  0.833439  0.500646  1
  In  In18  1  0.833446  0.500652  0.833433  1
  In  In19  1  0.500646  0.833449  0.833441  1
  Rh  Rh20  1  0.392476  0.392481  0.392482  1
  Rh  Rh21  1  0.392549  0.392541  0.822578  1
  Rh  Rh22  1  0.392542  0.822571  0.392539  1
  Rh  Rh23  1  0.822568  0.392541  0.392536  1
