# generated using pymatgen
data_Rb4LaUSe6
_symmetry_space_group_name_H-M   'P 1'
_cell_length_a   7.84606168
_cell_length_b   7.84606166
_cell_length_c   8.37990790
_cell_angle_alpha   80.87083774
_cell_angle_beta   80.87084269
_cell_angle_gamma   119.91382070
_symmetry_Int_Tables_number   1
_chemical_formula_structural   Rb4LaUSe6
_chemical_formula_sum   'Rb4 La1 U1 Se6'
_cell_volume   424.09880540
_cell_formula_units_Z   1
loop_
 _symmetry_equiv_pos_site_id
 _symmetry_equiv_pos_as_xyz
  1  'x, y, z'
loop_
 _atom_site_type_symbol
 _atom_site_label
 _atom_site_symmetry_multiplicity
 _atom_site_fract_x
 _atom_site_fract_y
 _atom_site_fract_z
 _atom_site_occupancy
  Rb  Rb0  1  0.500027  0.499973  0.000000  1
  Rb  Rb1  1  0.655704  0.344296  0.500000  1
  Rb  Rb2  1  0.344625  0.655375  0.500000  1
  Rb  Rb3  1  0.999965  0.000035  0.500000  1
  La  La4  1  0.832320  0.167680  0.000000  1
  U  U5  1  0.167508  0.832492  0.000000  1
  Se  Se6  1  0.822308  0.798569  0.198781  1
  Se  Se7  1  0.201431  0.177692  0.801219  1
  Se  Se8  1  0.406916  0.039939  0.201099  1
  Se  Se9  1  0.543856  0.934720  0.797974  1
  Se  Se10  1  0.960061  0.593084  0.798901  1
  Se  Se11  1  0.065280  0.456144  0.202026  1
