# generated using pymatgen
data_Ho7Lu(Ga3Pd)4
_symmetry_space_group_name_H-M   'P 1'
_cell_length_a   8.84956900
_cell_length_b   8.86925730
_cell_length_c   7.01362200
_cell_angle_alpha   90.00000000
_cell_angle_beta   90.00000000
_cell_angle_gamma   120.07058635
_symmetry_Int_Tables_number   1
_chemical_formula_structural   Ho7Lu(Ga3Pd)4
_chemical_formula_sum   'Ho7 Lu1 Ga12 Pd4'
_cell_volume   476.40138878
_cell_formula_units_Z   1
loop_
 _symmetry_equiv_pos_site_id
 _symmetry_equiv_pos_as_xyz
  1  'x, y, z'
loop_
 _atom_site_type_symbol
 _atom_site_label
 _atom_site_symmetry_multiplicity
 _atom_site_fract_x
 _atom_site_fract_y
 _atom_site_fract_z
 _atom_site_occupancy
  Ho  Ho0  1  0.999986  0.999948  0.250000  1
  Ho  Ho1  1  0.999864  0.999987  0.750000  1
  Ho  Ho2  1  0.518153  0.036343  0.250000  1
  Ho  Ho3  1  0.518119  0.481879  0.250000  1
  Ho  Ho4  1  0.964356  0.482204  0.250000  1
  Ho  Ho5  1  0.481512  0.963305  0.750000  1
  Ho  Ho6  1  0.481537  0.518143  0.750000  1
  Lu  Lu7  1  0.036454  0.518208  0.750000  1
  Ga  Ga8  1  0.166685  0.333753  0.043937  1
  Ga  Ga9  1  0.166781  0.832905  0.456071  1
  Ga  Ga10  1  0.665298  0.832667  0.455401  1
  Ga  Ga11  1  0.665298  0.832667  0.044599  1
  Ga  Ga12  1  0.166781  0.832905  0.043929  1
  Ga  Ga13  1  0.833518  0.665824  0.954326  1
  Ga  Ga14  1  0.833421  0.167730  0.954341  1
  Ga  Ga15  1  0.334753  0.167355  0.955347  1
  Ga  Ga16  1  0.166685  0.333753  0.456063  1
  Ga  Ga17  1  0.334753  0.167355  0.544653  1
  Ga  Ga18  1  0.833518  0.665824  0.545674  1
  Ga  Ga19  1  0.833421  0.167730  0.545659  1
  Pd  Pd20  1  0.331600  0.665702  0.028963  1
  Pd  Pd21  1  0.331600  0.665702  0.471037  1
  Pd  Pd22  1  0.667956  0.334055  0.967975  1
  Pd  Pd23  1  0.667956  0.334055  0.532025  1
