# generated using pymatgen
data_Co3P2Pb3WO14
_symmetry_space_group_name_H-M   'P 1'
_cell_length_a   8.53372000
_cell_length_b   8.53372060
_cell_length_c   5.25909200
_cell_angle_alpha   90.00000000
_cell_angle_beta   90.00000000
_cell_angle_gamma   119.99999768
_symmetry_Int_Tables_number   1
_chemical_formula_structural   Co3P2Pb3WO14
_chemical_formula_sum   'Co3 P2 Pb3 W1 O14'
_cell_volume   331.67918588
_cell_formula_units_Z   1
loop_
 _symmetry_equiv_pos_site_id
 _symmetry_equiv_pos_as_xyz
  1  'x, y, z'
loop_
 _atom_site_type_symbol
 _atom_site_label
 _atom_site_symmetry_multiplicity
 _atom_site_fract_x
 _atom_site_fract_y
 _atom_site_fract_z
 _atom_site_occupancy
  Co  Co0  1  0.253952  0.253952  0.500000  1
  Co  Co1  1  0.000000  0.746048  0.500000  1
  Co  Co2  1  0.746048  0.000000  0.500000  1
  P  P3  1  0.333333  0.666667  0.448928  1
  P  P4  1  0.666667  0.333333  0.551072  1
  Pb  Pb5  1  0.402548  0.000000  0.000000  1
  Pb  Pb6  1  0.597452  0.597452  0.000000  1
  Pb  Pb7  1  0.000000  0.402548  0.000000  1
  W  W8  1  0.000000  0.000000  0.000000  1
  O  O9  1  0.215229  0.090690  0.214139  1
  O  O10  1  0.875461  0.784771  0.214139  1
  O  O11  1  0.909310  0.124539  0.214139  1
  O  O12  1  0.124539  0.909310  0.785861  1
  O  O13  1  0.784771  0.875461  0.785861  1
  O  O14  1  0.090690  0.215229  0.785861  1
  O  O15  1  0.333333  0.666667  0.740940  1
  O  O16  1  0.666667  0.333333  0.259060  1
  O  O17  1  0.201012  0.725879  0.334081  1
  O  O18  1  0.524867  0.798988  0.334081  1
  O  O19  1  0.274121  0.475133  0.334081  1
  O  O20  1  0.475133  0.274121  0.665919  1
  O  O21  1  0.798988  0.524867  0.665919  1
  O  O22  1  0.725879  0.201012  0.665919  1
