# generated using pymatgen
data_TmFe2P3IrRh2
_symmetry_space_group_name_H-M   'P 1'
_cell_length_a   3.79769000
_cell_length_b   10.52081900
_cell_length_c   12.24764100
_cell_angle_alpha   90.00000000
_cell_angle_beta   90.00000000
_cell_angle_gamma   90.00000000
_symmetry_Int_Tables_number   1
_chemical_formula_structural   TmFe2P3IrRh2
_chemical_formula_sum   'Tm4 Fe8 P12 Ir4 Rh8'
_cell_volume   489.35215818
_cell_formula_units_Z   4
loop_
 _symmetry_equiv_pos_site_id
 _symmetry_equiv_pos_as_xyz
  1  'x, y, z'
loop_
 _atom_site_type_symbol
 _atom_site_label
 _atom_site_symmetry_multiplicity
 _atom_site_fract_x
 _atom_site_fract_y
 _atom_site_fract_z
 _atom_site_occupancy
  Tm  Tm0  1  0.250000  0.578317  0.711512  1
  Tm  Tm1  1  0.250000  0.921683  0.211512  1
  Tm  Tm2  1  0.750000  0.421683  0.288488  1
  Tm  Tm3  1  0.750000  0.078317  0.788488  1
  Fe  Fe4  1  0.250000  0.875796  0.698501  1
  Fe  Fe5  1  0.250000  0.624204  0.198501  1
  Fe  Fe6  1  0.750000  0.124204  0.301499  1
  Fe  Fe7  1  0.750000  0.375796  0.801499  1
  Fe  Fe8  1  0.250000  0.458144  0.934366  1
  Fe  Fe9  1  0.250000  0.041856  0.434366  1
  Fe  Fe10  1  0.750000  0.541856  0.065634  1
  Fe  Fe11  1  0.750000  0.958144  0.565634  1
  P  P12  1  0.250000  0.441143  0.111896  1
  P  P13  1  0.250000  0.058857  0.611896  1
  P  P14  1  0.750000  0.558857  0.888104  1
  P  P15  1  0.750000  0.941143  0.388104  1
  P  P16  1  0.250000  0.271092  0.863711  1
  P  P17  1  0.250000  0.228908  0.363711  1
  P  P18  1  0.750000  0.728908  0.136289  1
  P  P19  1  0.750000  0.771092  0.636289  1
  P  P20  1  0.250000  0.600842  0.379648  1
  P  P21  1  0.250000  0.899158  0.879648  1
  P  P22  1  0.750000  0.399158  0.620352  1
  P  P23  1  0.750000  0.100842  0.120352  1
  Ir  Ir24  1  0.250000  0.232616  0.173813  1
  Ir  Ir25  1  0.250000  0.267384  0.673813  1
  Ir  Ir26  1  0.750000  0.767384  0.826187  1
  Ir  Ir27  1  0.750000  0.732616  0.326187  1
  Rh  Rh28  1  0.250000  0.715329  0.991317  1
  Rh  Rh29  1  0.250000  0.784671  0.491317  1
  Rh  Rh30  1  0.750000  0.284671  0.008683  1
  Rh  Rh31  1  0.750000  0.215329  0.508683  1
  Rh  Rh32  1  0.250000  0.408748  0.476350  1
  Rh  Rh33  1  0.250000  0.091252  0.976350  1
  Rh  Rh34  1  0.750000  0.591252  0.523650  1
  Rh  Rh35  1  0.750000  0.908748  0.023650  1
