# generated using pymatgen
data_EuCl30
_symmetry_space_group_name_H-M   'P 1'
_cell_length_a   12.17086891
_cell_length_b   12.17086891
_cell_length_c   16.03826873
_cell_angle_alpha   86.39785476
_cell_angle_beta   86.39785376
_cell_angle_gamma   126.96913413
_symmetry_Int_Tables_number   1
_chemical_formula_structural   EuCl30
_chemical_formula_sum   'Eu1 Cl30'
_cell_volume   1879.23742484
_cell_formula_units_Z   1
loop_
 _symmetry_equiv_pos_site_id
 _symmetry_equiv_pos_as_xyz
  1  'x, y, z'
loop_
 _atom_site_type_symbol
 _atom_site_label
 _atom_site_symmetry_multiplicity
 _atom_site_fract_x
 _atom_site_fract_y
 _atom_site_fract_z
 _atom_site_occupancy
  Eu  Eu0  1  0.000000  0.000000  0.000000  1
  Cl  Cl1  1  0.941685  0.941685  0.177029  1
  Cl  Cl2  1  0.058315  0.058315  0.822971  1
  Cl  Cl3  1  0.090280  0.255154  0.008132  1
  Cl  Cl4  1  0.909720  0.744846  0.991868  1
  Cl  Cl5  1  0.255154  0.090280  0.008132  1
  Cl  Cl6  1  0.744846  0.909720  0.991868  1
  Cl  Cl7  1  0.200375  0.738086  0.061583  1
  Cl  Cl8  1  0.799625  0.261914  0.938417  1
  Cl  Cl9  1  0.682433  0.089624  0.260932  1
  Cl  Cl10  1  0.261914  0.799625  0.938417  1
  Cl  Cl11  1  0.317567  0.910376  0.739068  1
  Cl  Cl12  1  0.738086  0.200375  0.061583  1
  Cl  Cl13  1  0.977253  0.202619  0.771512  1
  Cl  Cl14  1  0.910376  0.317567  0.739068  1
  Cl  Cl15  1  0.022747  0.797381  0.228488  1
  Cl  Cl16  1  0.089624  0.682433  0.260932  1
  Cl  Cl17  1  0.797381  0.022747  0.228488  1
  Cl  Cl18  1  0.202619  0.977253  0.771512  1
  Cl  Cl19  1  0.462084  0.553369  0.261726  1
  Cl  Cl20  1  0.537916  0.446631  0.738274  1
  Cl  Cl21  1  0.494785  0.187013  0.451158  1
  Cl  Cl22  1  0.446631  0.537916  0.738274  1
  Cl  Cl23  1  0.505215  0.812987  0.548842  1
  Cl  Cl24  1  0.553369  0.462084  0.261726  1
  Cl  Cl25  1  0.229186  0.416450  0.545379  1
  Cl  Cl26  1  0.812987  0.505215  0.548842  1
  Cl  Cl27  1  0.770814  0.583550  0.454621  1
  Cl  Cl28  1  0.187013  0.494785  0.451158  1
  Cl  Cl29  1  0.583550  0.770814  0.454621  1
  Cl  Cl30  1  0.416450  0.229186  0.545379  1
