# generated using pymatgen
data_Er5TmNb2(Co4P3)4
_symmetry_space_group_name_H-M   'P 1'
_cell_length_a   3.69353400
_cell_length_b   10.59898216
_cell_length_c   12.28843119
_cell_angle_alpha   90.01979313
_cell_angle_beta   90.00000000
_cell_angle_gamma   90.00000000
_symmetry_Int_Tables_number   1
_chemical_formula_structural   Er5TmNb2(Co4P3)4
_chemical_formula_sum   'Er5 Tm1 Nb2 Co16 P12'
_cell_volume   481.06380061
_cell_formula_units_Z   1
loop_
 _symmetry_equiv_pos_site_id
 _symmetry_equiv_pos_as_xyz
  1  'x, y, z'
loop_
 _atom_site_type_symbol
 _atom_site_label
 _atom_site_symmetry_multiplicity
 _atom_site_fract_x
 _atom_site_fract_y
 _atom_site_fract_z
 _atom_site_occupancy
  Er  Er0  1  0.000000  0.499864  0.527034  1
  Er  Er1  1  0.500000  0.999966  0.473150  1
  Er  Er2  1  0.500000  0.820727  0.204996  1
  Er  Er3  1  0.500000  0.179399  0.205250  1
  Er  Er4  1  0.000000  0.679322  0.794893  1
  Tm  Tm5  1  0.000000  0.320708  0.794904  1
  Nb  Nb6  1  0.500000  0.499905  0.157583  1
  Nb  Nb7  1  0.000000  0.000067  0.842387  1
  Co  Co8  1  0.500000  0.499633  0.702063  1
  Co  Co9  1  0.000000  0.000060  0.298100  1
  Co  Co10  1  0.000000  0.499847  0.985570  1
  Co  Co11  1  0.500000  0.000186  0.014095  1
  Co  Co12  1  0.500000  0.332475  0.991143  1
  Co  Co13  1  0.500000  0.667486  0.991268  1
  Co  Co14  1  0.000000  0.167723  0.008358  1
  Co  Co15  1  0.000000  0.832506  0.008526  1
  Co  Co16  1  0.500000  0.295169  0.432885  1
  Co  Co17  1  0.500000  0.704699  0.432607  1
  Co  Co18  1  0.000000  0.204802  0.567701  1
  Co  Co19  1  0.000000  0.795084  0.567351  1
  Co  Co20  1  0.500000  0.876801  0.704053  1
  Co  Co21  1  0.500000  0.123612  0.704452  1
  Co  Co22  1  0.000000  0.623260  0.295808  1
  Co  Co23  1  0.000000  0.376714  0.296004  1
  P  P24  1  0.500000  0.499708  0.881287  1
  P  P25  1  0.000000  0.000161  0.118409  1
  P  P26  1  0.500000  0.499958  0.356993  1
  P  P27  1  0.000000  0.999877  0.643027  1
  P  P28  1  0.500000  0.311739  0.616323  1
  P  P29  1  0.500000  0.688166  0.615871  1
  P  P30  1  0.000000  0.188294  0.384365  1
  P  P31  1  0.000000  0.811651  0.384108  1
  P  P32  1  0.500000  0.840945  0.892599  1
  P  P33  1  0.500000  0.159481  0.892292  1
  P  P34  1  0.000000  0.659134  0.107205  1
  P  P35  1  0.000000  0.340870  0.107342  1
