# generated using pymatgen
data_LaTm(SeO3)3
_symmetry_space_group_name_H-M   'P 1'
_cell_length_a   7.08606033
_cell_length_b   8.00843197
_cell_length_c   9.27848599
_cell_angle_alpha   69.72792841
_cell_angle_beta   76.09183266
_cell_angle_gamma   64.75510444
_symmetry_Int_Tables_number   1
_chemical_formula_structural   LaTm(SeO3)3
_chemical_formula_sum   'La2 Tm2 Se6 O18'
_cell_volume   444.08136099
_cell_formula_units_Z   2
loop_
 _symmetry_equiv_pos_site_id
 _symmetry_equiv_pos_as_xyz
  1  'x, y, z'
loop_
 _atom_site_type_symbol
 _atom_site_label
 _atom_site_symmetry_multiplicity
 _atom_site_fract_x
 _atom_site_fract_y
 _atom_site_fract_z
 _atom_site_occupancy
  La  La0  1  0.632683  0.349708  0.320553  1
  La  La1  1  0.367317  0.650292  0.679447  1
  Tm  Tm2  1  0.234010  0.308536  0.124521  1
  Tm  Tm3  1  0.765990  0.691464  0.875479  1
  Se  Se4  1  0.451278  0.165412  0.755383  1
  Se  Se5  1  0.184675  0.759190  0.035816  1
  Se  Se6  1  0.859683  0.776149  0.502622  1
  Se  Se7  1  0.815325  0.240810  0.964184  1
  Se  Se8  1  0.548722  0.834588  0.244617  1
  Se  Se9  1  0.140317  0.223851  0.497378  1
  O  O10  1  0.677135  0.005656  0.837533  1
  O  O11  1  0.322865  0.994344  0.162467  1
  O  O12  1  0.629644  0.800328  0.629654  1
  O  O13  1  0.370356  0.199672  0.370346  1
  O  O14  1  0.393379  0.774230  0.898693  1
  O  O15  1  0.332166  0.322678  0.870021  1
  O  O16  1  0.911321  0.349838  0.051818  1
  O  O17  1  0.532593  0.326752  0.599774  1
  O  O18  1  0.712907  0.446257  0.820237  1
  O  O19  1  0.088679  0.650162  0.948182  1
  O  O20  1  0.160427  0.996226  0.585391  1
  O  O21  1  0.016140  0.682547  0.655743  1
  O  O22  1  0.606621  0.225770  0.101307  1
  O  O23  1  0.667834  0.677322  0.129979  1
  O  O24  1  0.467407  0.673248  0.400226  1
  O  O25  1  0.287093  0.553743  0.179763  1
  O  O26  1  0.839573  0.003774  0.414609  1
  O  O27  1  0.983860  0.317453  0.344257  1
