# generated using pymatgen
data_Yb2ErCu7(Ni3B)2
_symmetry_space_group_name_H-M   'P 1'
_cell_length_a   4.99861500
_cell_length_b   4.99861562
_cell_length_c   10.96638500
_cell_angle_alpha   90.00000000
_cell_angle_beta   90.00000000
_cell_angle_gamma   120.00000252
_symmetry_Int_Tables_number   1
_chemical_formula_structural   Yb2ErCu7(Ni3B)2
_chemical_formula_sum   'Yb2 Er1 Cu7 Ni6 B2'
_cell_volume   237.29770575
_cell_formula_units_Z   1
loop_
 _symmetry_equiv_pos_site_id
 _symmetry_equiv_pos_as_xyz
  1  'x, y, z'
loop_
 _atom_site_type_symbol
 _atom_site_label
 _atom_site_symmetry_multiplicity
 _atom_site_fract_x
 _atom_site_fract_y
 _atom_site_fract_z
 _atom_site_occupancy
  Yb  Yb0  1  0.000000  0.000000  0.314916  1
  Yb  Yb1  1  0.000000  0.000000  0.685084  1
  Er  Er2  1  0.000000  0.000000  0.000000  1
  Cu  Cu3  1  0.666667  0.333333  0.314675  1
  Cu  Cu4  1  0.333333  0.666667  0.314675  1
  Cu  Cu5  1  0.000000  0.500000  0.500000  1
  Cu  Cu6  1  0.500000  0.000000  0.500000  1
  Cu  Cu7  1  0.500000  0.500000  0.500000  1
  Cu  Cu8  1  0.333333  0.666667  0.685325  1
  Cu  Cu9  1  0.666667  0.333333  0.685325  1
  Ni  Ni10  1  0.500000  0.500000  0.129516  1
  Ni  Ni11  1  0.000000  0.500000  0.129516  1
  Ni  Ni12  1  0.500000  0.000000  0.129516  1
  Ni  Ni13  1  0.500000  0.000000  0.870484  1
  Ni  Ni14  1  0.000000  0.500000  0.870484  1
  Ni  Ni15  1  0.500000  0.500000  0.870484  1
  B  B16  1  0.333333  0.666667  0.000000  1
  B  B17  1  0.666667  0.333333  0.000000  1
