# generated using pymatgen
data_Cs3Na2TaAs3
_symmetry_space_group_name_H-M   'P 1'
_cell_length_a   10.76788791
_cell_length_b   10.76788912
_cell_length_c   17.21725600
_cell_angle_alpha   90.00000000
_cell_angle_beta   90.00000000
_cell_angle_gamma   142.01367598
_symmetry_Int_Tables_number   1
_chemical_formula_structural   Cs3Na2TaAs3
_chemical_formula_sum   'Cs12 Na8 Ta4 As12'
_cell_volume   1228.66730670
_cell_formula_units_Z   4
loop_
 _symmetry_equiv_pos_site_id
 _symmetry_equiv_pos_as_xyz
  1  'x, y, z'
loop_
 _atom_site_type_symbol
 _atom_site_label
 _atom_site_symmetry_multiplicity
 _atom_site_fract_x
 _atom_site_fract_y
 _atom_site_fract_z
 _atom_site_occupancy
  Cs  Cs0  1  0.943907  0.612141  0.828732  1
  Cs  Cs1  1  0.556093  0.887859  0.328732  1
  Cs  Cs2  1  0.387859  0.056093  0.171268  1
  Cs  Cs3  1  0.056093  0.387859  0.171268  1
  Cs  Cs4  1  0.887859  0.556093  0.328732  1
  Cs  Cs5  1  0.443907  0.112141  0.671268  1
  Cs  Cs6  1  0.612141  0.943907  0.828732  1
  Cs  Cs7  1  0.278555  0.278555  0.315199  1
  Cs  Cs8  1  0.778555  0.778555  0.184801  1
  Cs  Cs9  1  0.221445  0.221445  0.815199  1
  Cs  Cs10  1  0.721445  0.721445  0.684801  1
  Cs  Cs11  1  0.112141  0.443907  0.671268  1
  Na  Na12  1  0.921341  0.078659  0.000000  1
  Na  Na13  1  0.578659  0.421341  0.500000  1
  Na  Na14  1  0.078659  0.921341  0.000000  1
  Na  Na15  1  0.421341  0.578659  0.500000  1
  Na  Na16  1  0.755271  0.244729  0.000000  1
  Na  Na17  1  0.744729  0.255271  0.500000  1
  Na  Na18  1  0.244729  0.755271  0.000000  1
  Na  Na19  1  0.255271  0.744729  0.500000  1
  Ta  Ta20  1  0.581287  0.418713  0.000000  1
  Ta  Ta21  1  0.918713  0.081287  0.500000  1
  Ta  Ta22  1  0.418713  0.581287  0.000000  1
  Ta  Ta23  1  0.081287  0.918713  0.500000  1
  As  As24  1  0.859107  0.553639  0.086902  1
  As  As25  1  0.446361  0.140893  0.913098  1
  As  As26  1  0.640893  0.946361  0.586902  1
  As  As27  1  0.946361  0.640893  0.586902  1
  As  As28  1  0.140893  0.446361  0.913098  1
  As  As29  1  0.553639  0.859107  0.086902  1
  As  As30  1  0.359107  0.053639  0.413098  1
  As  As31  1  0.197661  0.197661  0.583376  1
  As  As32  1  0.697661  0.697661  0.916624  1
  As  As33  1  0.302339  0.302339  0.083376  1
  As  As34  1  0.053639  0.359107  0.413098  1
  As  As35  1  0.802339  0.802339  0.416624  1
