# generated using pymatgen
data_Y6Ho13ThPb16
_symmetry_space_group_name_H-M   'P 1'
_cell_length_a   8.20253161
_cell_length_b   8.28267236
_cell_length_c   15.61734400
_cell_angle_alpha   89.98124653
_cell_angle_beta   90.02214287
_cell_angle_gamma   89.89127026
_symmetry_Int_Tables_number   1
_chemical_formula_structural   Y6Ho13ThPb16
_chemical_formula_sum   'Y6 Ho13 Th1 Pb16'
_cell_volume   1061.02284225
_cell_formula_units_Z   1
loop_
 _symmetry_equiv_pos_site_id
 _symmetry_equiv_pos_as_xyz
  1  'x, y, z'
loop_
 _atom_site_type_symbol
 _atom_site_label
 _atom_site_symmetry_multiplicity
 _atom_site_fract_x
 _atom_site_fract_y
 _atom_site_fract_z
 _atom_site_occupancy
  Y  Y0  1  0.036517  0.176108  0.600416  1
  Y  Y1  1  0.464325  0.675470  0.400192  1
  Y  Y2  1  0.963926  0.824055  0.100553  1
  Y  Y3  1  0.464797  0.674992  0.099902  1
  Y  Y4  1  0.964544  0.823853  0.400252  1
  Y  Y5  1  0.534983  0.325413  0.599147  1
  Ho  Ho6  1  0.375329  0.840983  0.878357  1
  Ho  Ho7  1  0.875557  0.658825  0.620951  1
  Ho  Ho8  1  0.624176  0.157689  0.378383  1
  Ho  Ho9  1  0.124260  0.342148  0.121822  1
  Ho  Ho10  1  0.625018  0.157644  0.121679  1
  Ho  Ho11  1  0.124456  0.342355  0.378742  1
  Ho  Ho12  1  0.375954  0.841985  0.621819  1
  Ho  Ho13  1  0.875473  0.658003  0.878811  1
  Ho  Ho14  1  0.538137  0.325619  0.899499  1
  Ho  Ho15  1  0.207958  0.502907  0.749488  1
  Ho  Ho16  1  0.707261  0.995437  0.748908  1
  Ho  Ho17  1  0.792215  0.496332  0.250413  1
  Ho  Ho18  1  0.292342  0.003756  0.250430  1
  Th  Th19  1  0.032482  0.178274  0.901379  1
  Pb  Pb20  1  0.284349  0.031991  0.044195  1
  Pb  Pb21  1  0.782591  0.465121  0.456880  1
  Pb  Pb22  1  0.717726  0.966748  0.543195  1
  Pb  Pb23  1  0.220320  0.533235  0.956459  1
  Pb  Pb24  1  0.714127  0.964288  0.957107  1
  Pb  Pb25  1  0.217054  0.535425  0.543081  1
  Pb  Pb26  1  0.283053  0.034522  0.457334  1
  Pb  Pb27  1  0.783036  0.463787  0.042257  1
  Pb  Pb28  1  0.570145  0.627284  0.750150  1
  Pb  Pb29  1  0.070572  0.872386  0.750815  1
  Pb  Pb30  1  0.429324  0.373274  0.249569  1
  Pb  Pb31  1  0.929393  0.126802  0.250067  1
  Pb  Pb32  1  0.349427  0.154352  0.750305  1
  Pb  Pb33  1  0.844093  0.349636  0.747456  1
  Pb  Pb34  1  0.652719  0.845470  0.249876  1
  Pb  Pb35  1  0.152362  0.653831  0.250114  1
