# generated using pymatgen
data_Pr2MgCo8P6Ru
_symmetry_space_group_name_H-M   'P 1'
_cell_length_a   3.74844100
_cell_length_b   10.59800600
_cell_length_c   12.04490400
_cell_angle_alpha   90.00000000
_cell_angle_beta   90.00000000
_cell_angle_gamma   90.00000000
_symmetry_Int_Tables_number   1
_chemical_formula_structural   Pr2MgCo8P6Ru
_chemical_formula_sum   'Pr4 Mg2 Co16 P12 Ru2'
_cell_volume   478.49585882
_cell_formula_units_Z   2
loop_
 _symmetry_equiv_pos_site_id
 _symmetry_equiv_pos_as_xyz
  1  'x, y, z'
loop_
 _atom_site_type_symbol
 _atom_site_label
 _atom_site_symmetry_multiplicity
 _atom_site_fract_x
 _atom_site_fract_y
 _atom_site_fract_z
 _atom_site_occupancy
  Pr  Pr0  1  0.250000  0.583419  0.700233  1
  Pr  Pr1  1  0.250000  0.916581  0.200233  1
  Pr  Pr2  1  0.750000  0.414971  0.295575  1
  Pr  Pr3  1  0.750000  0.085029  0.795575  1
  Mg  Mg4  1  0.250000  0.702552  0.991775  1
  Mg  Mg5  1  0.250000  0.797448  0.491775  1
  Co  Co6  1  0.250000  0.399468  0.490707  1
  Co  Co7  1  0.250000  0.100532  0.990707  1
  Co  Co8  1  0.750000  0.581097  0.507469  1
  Co  Co9  1  0.750000  0.918903  0.007469  1
  Co  Co10  1  0.250000  0.222963  0.174328  1
  Co  Co11  1  0.250000  0.277037  0.674328  1
  Co  Co12  1  0.750000  0.780173  0.830403  1
  Co  Co13  1  0.750000  0.719827  0.330403  1
  Co  Co14  1  0.250000  0.887952  0.699771  1
  Co  Co15  1  0.250000  0.612048  0.199771  1
  Co  Co16  1  0.750000  0.116235  0.298005  1
  Co  Co17  1  0.750000  0.383765  0.798005  1
  Co  Co18  1  0.250000  0.463885  0.931093  1
  Co  Co19  1  0.250000  0.036115  0.431093  1
  Co  Co20  1  0.750000  0.532019  0.064503  1
  Co  Co21  1  0.750000  0.967981  0.564503  1
  P  P22  1  0.250000  0.419663  0.108660  1
  P  P23  1  0.250000  0.080337  0.608660  1
  P  P24  1  0.750000  0.575937  0.884183  1
  P  P25  1  0.750000  0.924063  0.384183  1
  P  P26  1  0.250000  0.274867  0.864790  1
  P  P27  1  0.250000  0.225133  0.364790  1
  P  P28  1  0.750000  0.715786  0.148312  1
  P  P29  1  0.750000  0.784214  0.648312  1
  P  P30  1  0.250000  0.593671  0.394942  1
  P  P31  1  0.250000  0.906329  0.894942  1
  P  P32  1  0.750000  0.395871  0.606783  1
  P  P33  1  0.750000  0.104129  0.106783  1
  Ru  Ru34  1  0.750000  0.291763  0.008468  1
  Ru  Ru35  1  0.750000  0.208237  0.508468  1
