# generated using pymatgen
data_Hf8Ti11Si8MoP8
_symmetry_space_group_name_H-M   'P 1'
_cell_length_a   6.52753290
_cell_length_b   6.66653055
_cell_length_c   12.78954494
_cell_angle_alpha   90.04148512
_cell_angle_beta   89.60969717
_cell_angle_gamma   89.96662943
_symmetry_Int_Tables_number   1
_chemical_formula_structural   Hf8Ti11Si8MoP8
_chemical_formula_sum   'Hf8 Ti11 Si8 Mo1 P8'
_cell_volume   556.53665087
_cell_formula_units_Z   1
loop_
 _symmetry_equiv_pos_site_id
 _symmetry_equiv_pos_as_xyz
  1  'x, y, z'
loop_
 _atom_site_type_symbol
 _atom_site_label
 _atom_site_symmetry_multiplicity
 _atom_site_fract_x
 _atom_site_fract_y
 _atom_site_fract_z
 _atom_site_occupancy
  Hf  Hf0  1  0.993478  0.173337  0.093678  1
  Hf  Hf1  1  0.005618  0.827460  0.908860  1
  Hf  Hf2  1  0.506928  0.670495  0.907286  1
  Hf  Hf3  1  0.010931  0.822604  0.590765  1
  Hf  Hf4  1  0.496302  0.331040  0.093753  1
  Hf  Hf5  1  0.992659  0.176427  0.408305  1
  Hf  Hf6  1  0.490209  0.323792  0.406881  1
  Hf  Hf7  1  0.508212  0.674062  0.591096  1
  Ti  Ti8  1  0.169761  0.491739  0.748226  1
  Ti  Ti9  1  0.830433  0.506187  0.251313  1
  Ti  Ti10  1  0.331249  0.990789  0.253429  1
  Ti  Ti11  1  0.336142  0.167483  0.623086  1
  Ti  Ti12  1  0.658324  0.829462  0.376873  1
  Ti  Ti13  1  0.159519  0.667436  0.379576  1
  Ti  Ti14  1  0.665618  0.823526  0.125243  1
  Ti  Ti15  1  0.843395  0.339553  0.621054  1
  Ti  Ti16  1  0.334259  0.170708  0.872555  1
  Ti  Ti17  1  0.837184  0.334384  0.874789  1
  Ti  Ti18  1  0.160585  0.671025  0.126265  1
  Si  Si19  1  0.302194  0.857436  0.750630  1
  Si  Si20  1  0.695801  0.138022  0.249283  1
  Si  Si21  1  0.195665  0.359685  0.249898  1
  Si  Si22  1  0.806300  0.643015  0.750215  1
  Si  Si23  1  0.680331  0.042023  0.539914  1
  Si  Si24  1  0.175668  0.461737  0.961743  1
  Si  Si25  1  0.669195  0.039266  0.961005  1
  Si  Si26  1  0.330347  0.962457  0.038776  1
  Mo  Mo27  1  0.666662  0.006329  0.747779  1
  P  P28  1  0.039439  0.119454  0.748074  1
  P  P29  1  0.957705  0.880908  0.251878  1
  P  P30  1  0.456000  0.619328  0.251559  1
  P  P31  1  0.543598  0.382789  0.747909  1
  P  P32  1  0.187830  0.459824  0.540266  1
  P  P33  1  0.811621  0.539607  0.458206  1
  P  P34  1  0.322539  0.959760  0.460875  1
  P  P35  1  0.828296  0.536853  0.038962  1
