# generated using pymatgen
data_Y3HoMn2(Co2Si5)2
_symmetry_space_group_name_H-M   'P 1'
_cell_length_a   8.00536313
_cell_length_b   8.00646519
_cell_length_c   8.00646502
_cell_angle_alpha   140.34211169
_cell_angle_beta   107.19039872
_cell_angle_gamma   86.25102954
_symmetry_Int_Tables_number   1
_chemical_formula_structural   Y3HoMn2(Co2Si5)2
_chemical_formula_sum   'Y3 Ho1 Mn2 Co4 Si10'
_cell_volume   301.60909025
_cell_formula_units_Z   1
loop_
 _symmetry_equiv_pos_site_id
 _symmetry_equiv_pos_as_xyz
  1  'x, y, z'
loop_
 _atom_site_type_symbol
 _atom_site_label
 _atom_site_symmetry_multiplicity
 _atom_site_fract_x
 _atom_site_fract_y
 _atom_site_fract_z
 _atom_site_occupancy
  Y  Y0  1  0.596478  0.864001  0.732478  1
  Y  Y1  1  0.131532  0.363999  0.767532  1
  Y  Y2  1  0.868372  0.635971  0.232402  1
  Ho  Ho3  1  0.403730  0.136071  0.267658  1
  Mn  Mn4  1  0.000130  0.249970  0.250002  1
  Mn  Mn5  1  0.000130  0.750128  0.750160  1
  Co  Co6  1  0.263222  0.859482  0.403741  1
  Co  Co7  1  0.544029  0.640529  0.903499  1
  Co  Co8  1  0.455720  0.359319  0.096401  1
  Co  Co9  1  0.736601  0.140515  0.596085  1
  Si  Si10  1  0.782251  0.032454  0.249987  1
  Si  Si11  1  0.217646  0.967662  0.750318  1
  Si  Si12  1  0.782251  0.532264  0.749797  1
  Si  Si13  1  0.929898  0.099069  0.830829  1
  Si  Si14  1  0.070406  0.901141  0.169265  1
  Si  Si15  1  0.499933  0.249943  0.749692  1
  Si  Si16  1  0.499933  0.750242  0.249990  1
  Si  Si17  1  0.731635  0.400808  0.330828  1
  Si  Si18  1  0.268457  0.599103  0.669354  1
  Si  Si19  1  0.217646  0.467329  0.249984  1
