# generated using pymatgen
data_Dy3Y3B14MoRu
_symmetry_space_group_name_H-M   'P 1'
_cell_length_a   8.11831610
_cell_length_b   8.11831514
_cell_length_c   9.39461100
_cell_angle_alpha   90.00231054
_cell_angle_beta   89.99768984
_cell_angle_gamma   155.04691359
_symmetry_Int_Tables_number   1
_chemical_formula_structural   Dy3Y3B14MoRu
_chemical_formula_sum   'Dy3 Y3 B14 Mo1 Ru1'
_cell_volume   261.21344335
_cell_formula_units_Z   1
loop_
 _symmetry_equiv_pos_site_id
 _symmetry_equiv_pos_as_xyz
  1  'x, y, z'
loop_
 _atom_site_type_symbol
 _atom_site_label
 _atom_site_symmetry_multiplicity
 _atom_site_fract_x
 _atom_site_fract_y
 _atom_site_fract_z
 _atom_site_occupancy
  Dy  Dy0  1  0.393391  0.606609  0.941063  1
  Dy  Dy1  1  0.393403  0.606597  0.558944  1
  Dy  Dy2  1  0.605652  0.394348  0.438112  1
  Y  Y3  1  0.256780  0.743220  0.250089  1
  Y  Y4  1  0.744649  0.255351  0.750027  1
  Y  Y5  1  0.605748  0.394252  0.062162  1
  B  B6  1  0.978626  0.021374  0.096722  1
  B  B7  1  0.019606  0.980394  0.908311  1
  B  B8  1  0.019708  0.980292  0.591567  1
  B  B9  1  0.978720  0.021280  0.403270  1
  B  B10  1  0.773625  0.226375  0.034695  1
  B  B11  1  0.227917  0.772083  0.968056  1
  B  B12  1  0.227821  0.772179  0.531836  1
  B  B13  1  0.773551  0.226449  0.465278  1
  B  B14  1  0.868633  0.131367  0.151393  1
  B  B15  1  0.134460  0.865540  0.852445  1
  B  B16  1  0.134455  0.865545  0.647341  1
  B  B17  1  0.868630  0.131370  0.348642  1
  B  B18  1  0.041051  0.958949  0.250107  1
  B  B19  1  0.955241  0.044759  0.749969  1
  Mo  Mo20  1  0.552800  0.447200  0.749919  1
  Ru  Ru21  1  0.445538  0.554462  0.250052  1
