# generated using pymatgen
data_Tb2Zn14Pd3
_symmetry_space_group_name_H-M   'P 1'
_cell_length_a   6.83688330
_cell_length_b   6.83688332
_cell_length_c   6.83688401
_cell_angle_alpha   82.79479926
_cell_angle_beta   82.79479979
_cell_angle_gamma   82.79481481
_symmetry_Int_Tables_number   1
_chemical_formula_structural   Tb2Zn14Pd3
_chemical_formula_sum   'Tb2 Zn14 Pd3'
_cell_volume   312.58957663
_cell_formula_units_Z   1
loop_
 _symmetry_equiv_pos_site_id
 _symmetry_equiv_pos_as_xyz
  1  'x, y, z'
loop_
 _atom_site_type_symbol
 _atom_site_label
 _atom_site_symmetry_multiplicity
 _atom_site_fract_x
 _atom_site_fract_y
 _atom_site_fract_z
 _atom_site_occupancy
  Tb  Tb0  1  0.663311  0.663311  0.663311  1
  Tb  Tb1  1  0.336689  0.336689  0.336689  1
  Zn  Zn2  1  0.351363  0.351363  0.839241  1
  Zn  Zn3  1  0.839241  0.351363  0.351363  1
  Zn  Zn4  1  0.102577  0.102577  0.102577  1
  Zn  Zn5  1  0.897423  0.897423  0.897423  1
  Zn  Zn6  1  0.298629  0.701371  0.000000  1
  Zn  Zn7  1  0.701371  0.000000  0.298629  1
  Zn  Zn8  1  0.000000  0.298629  0.701371  1
  Zn  Zn9  1  0.701371  0.298629  0.000000  1
  Zn  Zn10  1  0.298629  0.000000  0.701371  1
  Zn  Zn11  1  0.000000  0.701371  0.298629  1
  Zn  Zn12  1  0.160759  0.648637  0.648637  1
  Zn  Zn13  1  0.648637  0.648637  0.160759  1
  Zn  Zn14  1  0.648637  0.160759  0.648637  1
  Zn  Zn15  1  0.351363  0.839241  0.351363  1
  Pd  Pd16  1  0.000000  0.000000  0.500000  1
  Pd  Pd17  1  0.000000  0.500000  0.000000  1
  Pd  Pd18  1  0.500000  0.000000  0.000000  1
