# generated using pymatgen
data_Y3Zr2Sn3O
_symmetry_space_group_name_H-M   'P 1'
_cell_length_a   8.77598000
_cell_length_b   8.77598033
_cell_length_c   6.05294600
_cell_angle_alpha   90.00000000
_cell_angle_beta   90.00000000
_cell_angle_gamma   119.99999877
_symmetry_Int_Tables_number   1
_chemical_formula_structural   Y3Zr2Sn3O
_chemical_formula_sum   'Y6 Zr4 Sn6 O2'
_cell_volume   403.72784384
_cell_formula_units_Z   2
loop_
 _symmetry_equiv_pos_site_id
 _symmetry_equiv_pos_as_xyz
  1  'x, y, z'
loop_
 _atom_site_type_symbol
 _atom_site_label
 _atom_site_symmetry_multiplicity
 _atom_site_fract_x
 _atom_site_fract_y
 _atom_site_fract_z
 _atom_site_occupancy
  Y  Y0  1  0.000000  0.772682  0.750000  1
  Y  Y1  1  0.000000  0.227318  0.250000  1
  Y  Y2  1  0.227318  0.227318  0.750000  1
  Y  Y3  1  0.227318  0.000000  0.250000  1
  Y  Y4  1  0.772682  0.772682  0.250000  1
  Y  Y5  1  0.772682  0.000000  0.750000  1
  Zr  Zr6  1  0.333333  0.666667  0.000000  1
  Zr  Zr7  1  0.333333  0.666667  0.500000  1
  Zr  Zr8  1  0.666667  0.333333  0.000000  1
  Zr  Zr9  1  0.666667  0.333333  0.500000  1
  Sn  Sn10  1  0.000000  0.593892  0.250000  1
  Sn  Sn11  1  0.000000  0.406108  0.750000  1
  Sn  Sn12  1  0.406108  0.406108  0.250000  1
  Sn  Sn13  1  0.593892  0.593892  0.750000  1
  Sn  Sn14  1  0.406108  0.000000  0.750000  1
  Sn  Sn15  1  0.593892  0.000000  0.250000  1
  O  O16  1  0.000000  0.000000  0.000000  1
  O  O17  1  0.000000  0.000000  0.500000  1
