# generated using pymatgen
data_Li4Ca28Si11GeH12
_symmetry_space_group_name_H-M   'P 1'
_cell_length_a   9.83087300
_cell_length_b   13.67101801
_cell_length_c   8.71541700
_cell_angle_alpha   89.99747208
_cell_angle_beta   90.00064854
_cell_angle_gamma   90.00304250
_symmetry_Int_Tables_number   1
_chemical_formula_structural   Li4Ca28Si11GeH12
_chemical_formula_sum   'Li4 Ca28 Si11 Ge1 H12'
_cell_volume   1171.33497630
_cell_formula_units_Z   1
loop_
 _symmetry_equiv_pos_site_id
 _symmetry_equiv_pos_as_xyz
  1  'x, y, z'
loop_
 _atom_site_type_symbol
 _atom_site_label
 _atom_site_symmetry_multiplicity
 _atom_site_fract_x
 _atom_site_fract_y
 _atom_site_fract_z
 _atom_site_occupancy
  Li  Li0  1  0.864576  0.749964  0.245018  1
  Li  Li1  1  0.364566  0.749973  0.254949  1
  Li  Li2  1  0.635436  0.250011  0.745048  1
  Li  Li3  1  0.135427  0.250036  0.754962  1
  Ca  Ca4  1  0.684236  0.119374  0.046786  1
  Ca  Ca5  1  0.684157  0.380946  0.046273  1
  Ca  Ca6  1  0.090214  0.109219  0.054750  1
  Ca  Ca7  1  0.090256  0.390788  0.054736  1
  Ca  Ca8  1  0.613628  0.610659  0.169718  1
  Ca  Ca9  1  0.613610  0.889243  0.170146  1
  Ca  Ca10  1  0.383962  0.250015  0.195998  1
  Ca  Ca11  1  0.884050  0.250022  0.304029  1
  Ca  Ca12  1  0.113629  0.610658  0.330304  1
  Ca  Ca13  1  0.113641  0.889346  0.330269  1
  Ca  Ca14  1  0.590199  0.109384  0.444911  1
  Ca  Ca15  1  0.590248  0.390803  0.445294  1
  Ca  Ca16  1  0.184184  0.119071  0.453709  1
  Ca  Ca17  1  0.184159  0.380924  0.453711  1
  Ca  Ca18  1  0.815849  0.619057  0.546282  1
  Ca  Ca19  1  0.816259  0.880709  0.545830  1
  Ca  Ca20  1  0.409744  0.609192  0.554720  1
  Ca  Ca21  1  0.409331  0.890609  0.554289  1
  Ca  Ca22  1  0.886750  0.110890  0.669509  1
  Ca  Ca23  1  0.886373  0.389338  0.669718  1
  Ca  Ca24  1  0.116000  0.749981  0.695996  1
  Ca  Ca25  1  0.615982  0.749569  0.804022  1
  Ca  Ca26  1  0.385904  0.110935  0.830404  1
  Ca  Ca27  1  0.386376  0.389340  0.830292  1
  Ca  Ca28  1  0.909754  0.609191  0.945276  1
  Ca  Ca29  1  0.910224  0.890632  0.945535  1
  Ca  Ca30  1  0.315845  0.619066  0.953718  1
  Ca  Ca31  1  0.315577  0.880853  0.953855  1
  Si  Si32  1  0.106653  0.749961  0.076005  1
  Si  Si33  1  0.368609  0.025139  0.211545  1
  Si  Si34  1  0.368633  0.474855  0.211500  1
  Si  Si35  1  0.868664  0.025156  0.288497  1
  Si  Si36  1  0.868652  0.474860  0.288498  1
  Si  Si37  1  0.606630  0.749931  0.424096  1
  Si  Si38  1  0.393344  0.250035  0.575935  1
  Si  Si39  1  0.131358  0.525147  0.711514  1
  Si  Si40  1  0.131362  0.974830  0.711502  1
  Si  Si41  1  0.631353  0.525125  0.788485  1
  Si  Si42  1  0.893401  0.250041  0.924078  1
  Ge  Ge43  1  0.631169  0.975132  0.788295  1
  H  H44  1  0.752558  0.750000  0.040086  1
  H  H45  1  0.475506  0.749992  0.042281  1
  H  H46  1  0.632618  0.249989  0.248174  1
  H  H47  1  0.132614  0.249999  0.251829  1
  H  H48  1  0.975503  0.750003  0.457712  1
  H  H49  1  0.252561  0.750013  0.459905  1
  H  H50  1  0.747450  0.250009  0.540082  1
  H  H51  1  0.024490  0.249992  0.542292  1
  H  H52  1  0.867397  0.749989  0.748171  1
  H  H53  1  0.367390  0.749998  0.751821  1
  H  H54  1  0.524491  0.250018  0.957743  1
  H  H55  1  0.247452  0.249988  0.959898  1
