# generated using pymatgen
data_LiHo9S10
_symmetry_space_group_name_H-M   'P 1'
_cell_length_a   6.69505363
_cell_length_b   7.74333049
_cell_length_c   8.69574444
_cell_angle_alpha   103.19661464
_cell_angle_beta   97.20753497
_cell_angle_gamma   106.77218409
_symmetry_Int_Tables_number   1
_chemical_formula_structural   LiHo9S10
_chemical_formula_sum   'Li1 Ho9 S10'
_cell_volume   411.28122112
_cell_formula_units_Z   1
loop_
 _symmetry_equiv_pos_site_id
 _symmetry_equiv_pos_as_xyz
  1  'x, y, z'
loop_
 _atom_site_type_symbol
 _atom_site_label
 _atom_site_symmetry_multiplicity
 _atom_site_fract_x
 _atom_site_fract_y
 _atom_site_fract_z
 _atom_site_occupancy
  Li  Li0  1  0.000000  0.500000  0.000000  1
  Ho  Ho1  1  0.799316  0.600255  0.599557  1
  Ho  Ho2  1  0.601340  0.200984  0.204340  1
  Ho  Ho3  1  0.398660  0.799016  0.795660  1
  Ho  Ho4  1  0.600508  0.702464  0.203691  1
  Ho  Ho5  1  0.200684  0.399745  0.400443  1
  Ho  Ho6  1  0.399492  0.297536  0.796309  1
  Ho  Ho7  1  0.000000  0.000000  0.000000  1
  Ho  Ho8  1  0.201594  0.901246  0.403621  1
  Ho  Ho9  1  0.798406  0.098754  0.596379  1
  S  S10  1  0.703976  0.647459  0.903249  1
  S  S11  1  0.500435  0.251060  0.499874  1
  S  S12  1  0.704673  0.156380  0.903369  1
  S  S13  1  0.295327  0.843620  0.096631  1
  S  S14  1  0.499565  0.748940  0.500126  1
  S  S15  1  0.097009  0.450868  0.706206  1
  S  S16  1  0.296024  0.352541  0.096751  1
  S  S17  1  0.902331  0.050098  0.298845  1
  S  S18  1  0.097669  0.949902  0.701155  1
  S  S19  1  0.902991  0.549132  0.293794  1
