# generated using pymatgen
data_TbDy3Mn2(NiO6)2
_symmetry_space_group_name_H-M   'P 1'
_cell_length_a   5.27835781
_cell_length_b   5.60160728
_cell_length_c   7.57922015
_cell_angle_alpha   90.00948282
_cell_angle_beta   89.56857625
_cell_angle_gamma   90.03532584
_symmetry_Int_Tables_number   1
_chemical_formula_structural   TbDy3Mn2(NiO6)2
_chemical_formula_sum   'Tb1 Dy3 Mn2 Ni2 O12'
_cell_volume   224.09058314
_cell_formula_units_Z   1
loop_
 _symmetry_equiv_pos_site_id
 _symmetry_equiv_pos_as_xyz
  1  'x, y, z'
loop_
 _atom_site_type_symbol
 _atom_site_label
 _atom_site_symmetry_multiplicity
 _atom_site_fract_x
 _atom_site_fract_y
 _atom_site_fract_z
 _atom_site_occupancy
  Tb  Tb0  1  0.480565  0.429663  0.748817  1
  Dy  Dy1  1  0.019159  0.929291  0.751307  1
  Dy  Dy2  1  0.519187  0.570696  0.251295  1
  Dy  Dy3  1  0.980823  0.070685  0.248700  1
  Mn  Mn4  1  0.499894  0.999829  0.000144  1
  Mn  Mn5  1  0.000051  0.500063  0.499914  1
  Ni  Ni6  1  0.499978  0.999914  0.499912  1
  Ni  Ni7  1  0.999994  0.500026  0.000068  1
  O  O8  1  0.201523  0.187431  0.947656  1
  O  O9  1  0.297316  0.688775  0.551863  1
  O  O10  1  0.798050  0.812118  0.052631  1
  O  O11  1  0.702083  0.312060  0.447136  1
  O  O12  1  0.182950  0.206764  0.557482  1
  O  O13  1  0.315967  0.708214  0.942905  1
  O  O14  1  0.816510  0.792825  0.442205  1
  O  O15  1  0.683565  0.292757  0.058002  1
  O  O16  1  0.108696  0.462812  0.257685  1
  O  O17  1  0.391354  0.962824  0.242316  1
  O  O18  1  0.893199  0.537551  0.742243  1
  O  O19  1  0.609132  0.035703  0.757718  1
