# generated using pymatgen
data_Rb3Sr(PaS3)2
_symmetry_space_group_name_H-M   'P 1'
_cell_length_a   7.20506055
_cell_length_b   7.20505991
_cell_length_c   7.97959900
_cell_angle_alpha   81.31412845
_cell_angle_beta   81.31413727
_cell_angle_gamma   119.96897012
_symmetry_Int_Tables_number   1
_chemical_formula_structural   Rb3Sr(PaS3)2
_chemical_formula_sum   'Rb3 Sr1 Pa2 S6'
_cell_volume   342.11441106
_cell_formula_units_Z   1
loop_
 _symmetry_equiv_pos_site_id
 _symmetry_equiv_pos_as_xyz
  1  'x, y, z'
loop_
 _atom_site_type_symbol
 _atom_site_label
 _atom_site_symmetry_multiplicity
 _atom_site_fract_x
 _atom_site_fract_y
 _atom_site_fract_z
 _atom_site_occupancy
  Rb  Rb0  1  0.660685  0.339315  0.500000  1
  Rb  Rb1  1  0.339315  0.660685  0.500000  1
  Rb  Rb2  1  0.000000  0.000000  0.500000  1
  Sr  Sr3  1  0.500000  0.500000  0.000000  1
  Pa  Pa4  1  0.832787  0.167213  0.000000  1
  Pa  Pa5  1  0.167213  0.832787  0.000000  1
  S  S6  1  0.788583  0.788583  0.197489  1
  S  S7  1  0.211417  0.211417  0.802511  1
  S  S8  1  0.432983  0.078048  0.199661  1
  S  S9  1  0.567017  0.921952  0.800339  1
  S  S10  1  0.921952  0.567017  0.800339  1
  S  S11  1  0.078048  0.432983  0.199661  1
