# generated using pymatgen
data_ErLu3Sc2(B2Rh5)2
_symmetry_space_group_name_H-M   'P 1'
_cell_length_a   9.61314885
_cell_length_b   9.61314885
_cell_length_c   3.20101400
_cell_angle_alpha   90.00000000
_cell_angle_beta   90.00000000
_cell_angle_gamma   89.74476246
_symmetry_Int_Tables_number   1
_chemical_formula_structural   ErLu3Sc2(B2Rh5)2
_chemical_formula_sum   'Er1 Lu3 Sc2 B4 Rh10'
_cell_volume   295.81118961
_cell_formula_units_Z   1
loop_
 _symmetry_equiv_pos_site_id
 _symmetry_equiv_pos_as_xyz
  1  'x, y, z'
loop_
 _atom_site_type_symbol
 _atom_site_label
 _atom_site_symmetry_multiplicity
 _atom_site_fract_x
 _atom_site_fract_y
 _atom_site_fract_z
 _atom_site_occupancy
  Er  Er0  1  0.174902  0.674902  0.000000  1
  Lu  Lu1  1  0.824666  0.324666  0.000000  1
  Lu  Lu2  1  0.325253  0.175007  0.000000  1
  Lu  Lu3  1  0.675007  0.825253  0.000000  1
  Sc  Sc4  1  0.999852  0.000241  0.000000  1
  Sc  Sc5  1  0.500241  0.499852  0.000000  1
  B  B6  1  0.620533  0.120533  0.000000  1
  B  B7  1  0.120097  0.378593  0.000000  1
  B  B8  1  0.878593  0.620097  0.000000  1
  B  B9  1  0.380372  0.880372  0.000000  1
  Rh  Rh10  1  0.071742  0.224185  0.500000  1
  Rh  Rh11  1  0.224995  0.929980  0.500000  1
  Rh  Rh12  1  0.775555  0.071580  0.500000  1
  Rh  Rh13  1  0.927315  0.775514  0.500000  1
  Rh  Rh14  1  0.429980  0.724995  0.500000  1
  Rh  Rh15  1  0.571580  0.275555  0.500000  1
  Rh  Rh16  1  0.724185  0.571742  0.500000  1
  Rh  Rh17  1  0.275514  0.427315  0.500000  1
  Rh  Rh18  1  0.500368  0.000368  0.500000  1
  Rh  Rh19  1  0.999249  0.499249  0.500000  1
