# generated using pymatgen
data_Nb12AlV3FeOs7N4
_symmetry_space_group_name_H-M   'P 1'
_cell_length_a   8.30252585
_cell_length_b   8.30252581
_cell_length_c   8.30252698
_cell_angle_alpha   59.92629402
_cell_angle_beta   59.92629853
_cell_angle_gamma   59.92629274
_symmetry_Int_Tables_number   1
_chemical_formula_structural   Nb12AlV3FeOs7N4
_chemical_formula_sum   'Nb12 Al1 V3 Fe1 Os7 N4'
_cell_volume   404.00718284
_cell_formula_units_Z   1
loop_
 _symmetry_equiv_pos_site_id
 _symmetry_equiv_pos_as_xyz
  1  'x, y, z'
loop_
 _atom_site_type_symbol
 _atom_site_label
 _atom_site_symmetry_multiplicity
 _atom_site_fract_x
 _atom_site_fract_y
 _atom_site_fract_z
 _atom_site_occupancy
  Nb  Nb0  1  0.807113  0.807113  0.191229  1
  Nb  Nb1  1  0.193769  0.193769  0.805303  1
  Nb  Nb2  1  0.807113  0.191229  0.807113  1
  Nb  Nb3  1  0.193769  0.805303  0.193769  1
  Nb  Nb4  1  0.191229  0.807113  0.807113  1
  Nb  Nb5  1  0.805303  0.193769  0.193769  1
  Nb  Nb6  1  0.443212  0.443212  0.055004  1
  Nb  Nb7  1  0.057075  0.057075  0.441750  1
  Nb  Nb8  1  0.443212  0.055004  0.443212  1
  Nb  Nb9  1  0.057075  0.441750  0.057075  1
  Nb  Nb10  1  0.055004  0.443212  0.443212  1
  Nb  Nb11  1  0.441750  0.057075  0.057075  1
  Al  Al12  1  0.625343  0.625343  0.625343  1
  V  V13  1  0.119464  0.630022  0.630022  1
  V  V14  1  0.630022  0.119464  0.630022  1
  V  V15  1  0.630022  0.630022  0.119464  1
  Fe  Fe16  1  0.831281  0.831281  0.831281  1
  Os  Os17  1  0.749171  0.415371  0.415371  1
  Os  Os18  1  0.415371  0.749171  0.415371  1
  Os  Os19  1  0.415371  0.415371  0.749171  1
  Os  Os20  1  0.417247  0.417247  0.417247  1
  Os  Os21  1  0.501121  0.835832  0.835832  1
  Os  Os22  1  0.835832  0.501121  0.835832  1
  Os  Os23  1  0.835832  0.835832  0.501121  1
  N  N24  1  0.624764  0.124537  0.124537  1
  N  N25  1  0.124537  0.624764  0.124537  1
  N  N26  1  0.124537  0.124537  0.624764  1
  N  N27  1  0.124456  0.124456  0.124456  1
