# generated using pymatgen
data_Rb13Ti2In5As10Pb
_symmetry_space_group_name_H-M   'P 1'
_cell_length_a   9.60350679
_cell_length_b   9.66684712
_cell_length_c   13.79591078
_cell_angle_alpha   81.16635048
_cell_angle_beta   78.55540838
_cell_angle_gamma   63.19418361
_symmetry_Int_Tables_number   1
_chemical_formula_structural   Rb13Ti2In5As10Pb
_chemical_formula_sum   'Rb13 Ti2 In5 As10 Pb1'
_cell_volume   1117.38346584
_cell_formula_units_Z   1
loop_
 _symmetry_equiv_pos_site_id
 _symmetry_equiv_pos_as_xyz
  1  'x, y, z'
loop_
 _atom_site_type_symbol
 _atom_site_label
 _atom_site_symmetry_multiplicity
 _atom_site_fract_x
 _atom_site_fract_y
 _atom_site_fract_z
 _atom_site_occupancy
  Rb  Rb0  1  0.494708  0.869204  0.352421  1
  Rb  Rb1  1  0.499149  0.136743  0.643706  1
  Rb  Rb2  1  0.852262  0.577545  0.890393  1
  Rb  Rb3  1  0.144715  0.415100  0.116786  1
  Rb  Rb4  1  0.093603  0.779957  0.423370  1
  Rb  Rb5  1  0.909222  0.223176  0.566060  1
  Rb  Rb6  1  0.740617  0.682152  0.591816  1
  Rb  Rb7  1  0.257169  0.316063  0.400520  1
  Rb  Rb8  1  0.500050  0.498836  0.001809  1
  Rb  Rb9  1  0.321277  0.932405  0.088245  1
  Rb  Rb10  1  0.676726  0.069827  0.918666  1
  Rb  Rb11  1  0.888083  0.860222  0.167101  1
  Rb  Rb12  1  0.110742  0.142493  0.838737  1
  Ti  Ti13  1  0.379459  0.739025  0.775268  1
  Ti  Ti14  1  0.621368  0.261304  0.225097  1
  In  In15  1  0.978196  0.183435  0.292384  1
  In  In16  1  0.602938  0.443697  0.405217  1
  In  In17  1  0.403468  0.552791  0.589889  1
  In  In18  1  0.723941  0.566135  0.166630  1
  In  In19  1  0.278853  0.431123  0.834518  1
  As  As20  1  0.431877  0.551287  0.250164  1
  As  As21  1  0.565986  0.450231  0.749734  1
  As  As22  1  0.138780  0.748548  0.896461  1
  As  As23  1  0.863467  0.251868  0.105473  1
  As  As24  1  0.709190  0.125911  0.392531  1
  As  As25  1  0.288323  0.874127  0.609876  1
  As  As26  1  0.858356  0.510905  0.354176  1
  As  As27  1  0.136468  0.495882  0.646841  1
  As  As28  1  0.505339  0.862846  0.837339  1
  As  As29  1  0.497612  0.138609  0.159035  1
  Pb  Pb30  1  0.028055  0.808550  0.709737  1
