# generated using pymatgen
data_Bi7Te4AuO24
_symmetry_space_group_name_H-M   'P 1'
_cell_length_a   5.47524174
_cell_length_b   9.45259191
_cell_length_c   10.29206473
_cell_angle_alpha   90.00030340
_cell_angle_beta   90.88682218
_cell_angle_gamma   91.09563903
_symmetry_Int_Tables_number   1
_chemical_formula_structural   Bi7Te4AuO24
_chemical_formula_sum   'Bi7 Te4 Au1 O24'
_cell_volume   532.50692986
_cell_formula_units_Z   1
loop_
 _symmetry_equiv_pos_site_id
 _symmetry_equiv_pos_as_xyz
  1  'x, y, z'
loop_
 _atom_site_type_symbol
 _atom_site_label
 _atom_site_symmetry_multiplicity
 _atom_site_fract_x
 _atom_site_fract_y
 _atom_site_fract_z
 _atom_site_occupancy
  Bi  Bi0  1  0.027946  0.207036  0.134342  1
  Bi  Bi1  1  0.477168  0.782715  0.640574  1
  Bi  Bi2  1  0.987089  0.715041  0.373813  1
  Bi  Bi3  1  0.509654  0.293635  0.846721  1
  Bi  Bi4  1  0.033255  0.119145  0.554052  1
  Bi  Bi5  1  0.476881  0.897280  0.048687  1
  Bi  Bi6  1  0.978753  0.601829  0.955869  1
  Te  Te7  1  0.549780  0.003887  0.358478  1
  Te  Te8  1  0.957511  0.995858  0.856127  1
  Te  Te9  1  0.466002  0.505977  0.141608  1
  Te  Te10  1  0.025052  0.499890  0.639346  1
  Au  Au11  1  0.575872  0.361009  0.400772  1
  O  O12  1  0.454897  0.168253  0.468489  1
  O  O13  1  0.078630  0.849050  0.971817  1
  O  O14  1  0.592328  0.655515  0.034664  1
  O  O15  1  0.857948  0.352292  0.530931  1
  O  O16  1  0.727167  0.390133  0.068255  1
  O  O17  1  0.800949  0.644398  0.569715  1
  O  O18  1  0.276458  0.902347  0.442698  1
  O  O19  1  0.220879  0.116564  0.935053  1
  O  O20  1  0.261917  0.416983  0.002904  1
  O  O21  1  0.235006  0.576272  0.503148  1
  O  O22  1  0.747602  0.929767  0.504100  1
  O  O23  1  0.761377  0.078661  0.998079  1
  O  O24  1  0.196788  0.631101  0.177861  1
  O  O25  1  0.233010  0.337735  0.681471  1
  O  O26  1  0.837033  0.119668  0.315101  1
  O  O27  1  0.687049  0.859900  0.824334  1
  O  O28  1  0.345163  0.053917  0.208110  1
  O  O29  1  0.162911  0.955123  0.709872  1
  O  O30  1  0.669421  0.541865  0.303383  1
  O  O31  1  0.796878  0.469866  0.783968  1
  O  O32  1  0.324882  0.358954  0.257155  1
  O  O33  1  0.205282  0.622693  0.760665  1
  O  O34  1  0.654149  0.848579  0.253398  1
  O  O35  1  0.807316  0.137062  0.744433  1
