# generated using pymatgen
data_Rb2Si2SnSe6
_symmetry_space_group_name_H-M   'P 1'
_cell_length_a   9.13558463
_cell_length_b   9.13558527
_cell_length_c   9.73499923
_cell_angle_alpha   90.42694454
_cell_angle_beta   90.42694618
_cell_angle_gamma   114.34737440
_symmetry_Int_Tables_number   1
_chemical_formula_structural   Rb2Si2SnSe6
_chemical_formula_sum   'Rb4 Si4 Sn2 Se12'
_cell_volume   740.14341535
_cell_formula_units_Z   2
loop_
 _symmetry_equiv_pos_site_id
 _symmetry_equiv_pos_as_xyz
  1  'x, y, z'
loop_
 _atom_site_type_symbol
 _atom_site_label
 _atom_site_symmetry_multiplicity
 _atom_site_fract_x
 _atom_site_fract_y
 _atom_site_fract_z
 _atom_site_occupancy
  Rb  Rb0  1  0.260946  0.534662  0.518548  1
  Rb  Rb1  1  0.739054  0.465338  0.481452  1
  Rb  Rb2  1  0.465338  0.739054  0.981452  1
  Rb  Rb3  1  0.534662  0.260946  0.018548  1
  Si  Si4  1  0.979057  0.651737  0.056295  1
  Si  Si5  1  0.020943  0.348263  0.943705  1
  Si  Si6  1  0.348263  0.020943  0.443705  1
  Si  Si7  1  0.651737  0.979057  0.556295  1
  Sn  Sn8  1  0.008973  0.991027  0.250000  1
  Sn  Sn9  1  0.991027  0.008973  0.750000  1
  Se  Se10  1  0.654402  0.762016  0.662277  1
  Se  Se11  1  0.920174  0.520940  0.841894  1
  Se  Se12  1  0.237984  0.345598  0.837723  1
  Se  Se13  1  0.520940  0.920174  0.341894  1
  Se  Se14  1  0.345598  0.237984  0.337723  1
  Se  Se15  1  0.904774  0.171951  0.541383  1
  Se  Se16  1  0.828049  0.095226  0.958617  1
  Se  Se17  1  0.171951  0.904774  0.041383  1
  Se  Se18  1  0.079826  0.479060  0.158106  1
  Se  Se19  1  0.479060  0.079826  0.658106  1
  Se  Se20  1  0.095226  0.828049  0.458617  1
  Se  Se21  1  0.762016  0.654402  0.162277  1
