# generated using pymatgen
data_PbF12
_symmetry_space_group_name_H-M   'P 1'
_cell_length_a   7.09943878
_cell_length_b   7.93300211
_cell_length_c   8.83709692
_cell_angle_alpha   101.63788510
_cell_angle_beta   86.39701273
_cell_angle_gamma   106.18400759
_symmetry_Int_Tables_number   1
_chemical_formula_structural   PbF12
_chemical_formula_sum   'Pb2 F24'
_cell_volume   468.14295394
_cell_formula_units_Z   2
loop_
 _symmetry_equiv_pos_site_id
 _symmetry_equiv_pos_as_xyz
  1  'x, y, z'
loop_
 _atom_site_type_symbol
 _atom_site_label
 _atom_site_symmetry_multiplicity
 _atom_site_fract_x
 _atom_site_fract_y
 _atom_site_fract_z
 _atom_site_occupancy
  Pb  Pb0  1  0.240846  0.973437  0.017464  1
  Pb  Pb1  1  0.759154  0.026563  0.982536  1
  F  F2  1  0.524383  0.454612  0.171703  1
  F  F3  1  0.475617  0.545388  0.828297  1
  F  F4  1  0.221642  0.568882  0.195855  1
  F  F5  1  0.778358  0.431118  0.804145  1
  F  F6  1  0.360924  0.758096  0.511312  1
  F  F7  1  0.639076  0.241904  0.488688  1
  F  F8  1  0.838470  0.811434  0.457783  1
  F  F9  1  0.161530  0.188566  0.542217  1
  F  F10  1  0.321030  0.393460  0.854244  1
  F  F11  1  0.678970  0.606540  0.145756  1
  F  F12  1  0.280438  0.170822  0.203287  1
  F  F13  1  0.719562  0.829178  0.796713  1
  F  F14  1  0.092806  0.680645  0.201302  1
  F  F15  1  0.907194  0.319355  0.798698  1
  F  F16  1  0.928289  0.894774  0.099303  1
  F  F17  1  0.071711  0.105226  0.900697  1
  F  F18  1  0.232368  0.047406  0.572549  1
  F  F19  1  0.767632  0.952594  0.427451  1
  F  F20  1  0.819181  0.249178  0.143613  1
  F  F21  1  0.180819  0.750822  0.856387  1
  F  F22  1  0.490560  0.899248  0.102727  1
  F  F23  1  0.509440  0.100752  0.897273  1
  F  F24  1  0.338299  0.576979  0.522821  1
  F  F25  1  0.661701  0.423021  0.477179  1
