# generated using pymatgen
data_VBr10Cl
_symmetry_space_group_name_H-M   'P 1'
_cell_length_a   7.92155256
_cell_length_b   8.97835432
_cell_length_c   10.24828410
_cell_angle_alpha   104.77677605
_cell_angle_beta   97.39096433
_cell_angle_gamma   109.56990774
_symmetry_Int_Tables_number   1
_chemical_formula_structural   VBr10Cl
_chemical_formula_sum   'V1 Br10 Cl1'
_cell_volume   645.47313851
_cell_formula_units_Z   1
loop_
 _symmetry_equiv_pos_site_id
 _symmetry_equiv_pos_as_xyz
  1  'x, y, z'
loop_
 _atom_site_type_symbol
 _atom_site_label
 _atom_site_symmetry_multiplicity
 _atom_site_fract_x
 _atom_site_fract_y
 _atom_site_fract_z
 _atom_site_occupancy
  V  V0  1  0.948681  0.444794  0.572962  1
  Br  Br1  1  0.004917  0.013731  0.069762  1
  Br  Br2  1  0.673306  0.780583  0.927218  1
  Br  Br3  1  0.307496  0.229128  0.200961  1
  Br  Br4  1  0.710087  0.295113  0.644874  1
  Br  Br5  1  0.256881  0.730752  0.270478  1
  Br  Br6  1  0.467260  0.756456  0.101992  1
  Br  Br7  1  0.630660  0.283313  0.968829  1
  Br  Br8  1  0.876375  0.628682  0.485998  1
  Br  Br9  1  0.015466  0.274307  0.404560  1
  Br  Br10  1  0.926946  0.493529  0.110265  1
  Cl  Cl11  1  0.181925  0.569612  0.742098  1
