# generated using pymatgen
data_HoLu3BBr6
_symmetry_space_group_name_H-M   'P 1'
_cell_length_a   3.88834400
_cell_length_b   12.96799956
_cell_length_c   13.43280369
_cell_angle_alpha   90.25281002
_cell_angle_beta   90.00000000
_cell_angle_gamma   90.00000000
_symmetry_Int_Tables_number   1
_chemical_formula_structural   HoLu3BBr6
_chemical_formula_sum   'Ho2 Lu6 B2 Br12'
_cell_volume   677.32968111
_cell_formula_units_Z   2
loop_
 _symmetry_equiv_pos_site_id
 _symmetry_equiv_pos_as_xyz
  1  'x, y, z'
loop_
 _atom_site_type_symbol
 _atom_site_label
 _atom_site_symmetry_multiplicity
 _atom_site_fract_x
 _atom_site_fract_y
 _atom_site_fract_z
 _atom_site_occupancy
  Ho  Ho0  1  0.500000  0.122600  0.855941  1
  Ho  Ho1  1  0.500000  0.877400  0.144059  1
  Lu  Lu2  1  0.000000  0.099748  0.079289  1
  Lu  Lu3  1  0.000000  0.900252  0.920711  1
  Lu  Lu4  1  0.000000  0.599509  0.421005  1
  Lu  Lu5  1  0.000000  0.400491  0.578995  1
  Lu  Lu6  1  0.500000  0.621261  0.642503  1
  Lu  Lu7  1  0.500000  0.378739  0.357497  1
  B  B8  1  0.500000  0.000000  0.000000  1
  B  B9  1  0.500000  0.500000  0.500000  1
  Br  Br10  1  0.500000  0.269787  0.680286  1
  Br  Br11  1  0.500000  0.730213  0.319714  1
  Br  Br12  1  0.500000  0.768080  0.817715  1
  Br  Br13  1  0.500000  0.231920  0.182285  1
  Br  Br14  1  0.000000  0.262744  0.933006  1
  Br  Br15  1  0.000000  0.737256  0.066994  1
  Br  Br16  1  0.000000  0.479723  0.240186  1
  Br  Br17  1  0.000000  0.520277  0.759814  1
  Br  Br18  1  0.000000  0.982701  0.261977  1
  Br  Br19  1  0.000000  0.017299  0.738023  1
  Br  Br20  1  0.000000  0.240018  0.430508  1
  Br  Br21  1  0.000000  0.759982  0.569492  1
