# generated using pymatgen
data_Ca7Pr5(GeIr)8
_symmetry_space_group_name_H-M   'P 1'
_cell_length_a   5.79166614
_cell_length_b   8.02506118
_cell_length_c   13.46408075
_cell_angle_alpha   89.93607441
_cell_angle_beta   90.18807000
_cell_angle_gamma   90.01836523
_symmetry_Int_Tables_number   1
_chemical_formula_structural   Ca7Pr5(GeIr)8
_chemical_formula_sum   'Ca7 Pr5 Ge8 Ir8'
_cell_volume   625.78615060
_cell_formula_units_Z   1
loop_
 _symmetry_equiv_pos_site_id
 _symmetry_equiv_pos_as_xyz
  1  'x, y, z'
loop_
 _atom_site_type_symbol
 _atom_site_label
 _atom_site_symmetry_multiplicity
 _atom_site_fract_x
 _atom_site_fract_y
 _atom_site_fract_z
 _atom_site_occupancy
  Ca  Ca0  1  0.134125  0.393741  0.098702  1
  Ca  Ca1  1  0.862095  0.602818  0.897687  1
  Ca  Ca2  1  0.863757  0.607915  0.598961  1
  Ca  Ca3  1  0.861210  0.892980  0.401515  1
  Ca  Ca4  1  0.134645  0.392229  0.402723  1
  Ca  Ca5  1  0.136557  0.106332  0.598926  1
  Ca  Ca6  1  0.144437  0.109705  0.898075  1
  Pr  Pr7  1  0.630536  0.253355  0.250781  1
  Pr  Pr8  1  0.367014  0.750667  0.749996  1
  Pr  Pr9  1  0.365854  0.749085  0.254072  1
  Pr  Pr10  1  0.634695  0.250198  0.748219  1
  Pr  Pr11  1  0.861771  0.889840  0.097168  1
  Ge  Ge12  1  0.139158  0.103242  0.251462  1
  Ge  Ge13  1  0.860908  0.897147  0.749780  1
  Ge  Ge14  1  0.859823  0.603675  0.251112  1
  Ge  Ge15  1  0.143208  0.398551  0.748958  1
  Ge  Ge16  1  0.615175  0.251341  0.000408  1
  Ge  Ge17  1  0.380487  0.748640  0.999073  1
  Ge  Ge18  1  0.387954  0.750103  0.500860  1
  Ge  Ge19  1  0.612549  0.248816  0.500062  1
  Ir  Ir20  1  0.369316  0.029414  0.091755  1
  Ir  Ir21  1  0.634126  0.970092  0.909257  1
  Ir  Ir22  1  0.630536  0.971373  0.591288  1
  Ir  Ir23  1  0.630447  0.528707  0.409722  1
  Ir  Ir24  1  0.366160  0.028587  0.410175  1
  Ir  Ir25  1  0.371278  0.469825  0.590534  1
  Ir  Ir26  1  0.370728  0.469309  0.909102  1
  Ir  Ir27  1  0.631448  0.532312  0.089624  1
