# generated using pymatgen
data_Ce2Dy14MgCd3Co4
_symmetry_space_group_name_H-M   'P 1'
_cell_length_a   9.38630888
_cell_length_b   9.59491754
_cell_length_c   9.59491777
_cell_angle_alpha   58.46530948
_cell_angle_beta   60.87707491
_cell_angle_gamma   60.87707174
_symmetry_Int_Tables_number   1
_chemical_formula_structural   Ce2Dy14MgCd3Co4
_chemical_formula_sum   'Ce2 Dy14 Mg1 Cd3 Co4'
_cell_volume   611.33272015
_cell_formula_units_Z   1
loop_
 _symmetry_equiv_pos_site_id
 _symmetry_equiv_pos_as_xyz
  1  'x, y, z'
loop_
 _atom_site_type_symbol
 _atom_site_label
 _atom_site_symmetry_multiplicity
 _atom_site_fract_x
 _atom_site_fract_y
 _atom_site_fract_z
 _atom_site_occupancy
  Ce  Ce0  1  0.816905  0.184216  0.184216  1
  Ce  Ce1  1  0.182468  0.817682  0.817682  1
  Dy  Dy2  1  0.187301  0.810496  0.189478  1
  Dy  Dy3  1  0.808505  0.189898  0.809982  1
  Dy  Dy4  1  0.187301  0.189478  0.810496  1
  Dy  Dy5  1  0.808505  0.809982  0.189898  1
  Dy  Dy6  1  0.923522  0.576971  0.576971  1
  Dy  Dy7  1  0.572613  0.925977  0.925977  1
  Dy  Dy8  1  0.556005  0.943526  0.559022  1
  Dy  Dy9  1  0.941484  0.558032  0.943222  1
  Dy  Dy10  1  0.556005  0.559022  0.943526  1
  Dy  Dy11  1  0.941484  0.943222  0.558032  1
  Dy  Dy12  1  0.332508  0.349209  0.349209  1
  Dy  Dy13  1  0.352123  0.333462  0.965160  1
  Dy  Dy14  1  0.352123  0.965160  0.333462  1
  Dy  Dy15  1  0.960784  0.353694  0.353694  1
  Mg  Mg16  1  0.273074  0.573587  0.573587  1
  Cd  Cd17  1  0.584937  0.578602  0.578602  1
  Cd  Cd18  1  0.579551  0.582942  0.255627  1
  Cd  Cd19  1  0.579551  0.255627  0.582942  1
  Co  Co20  1  0.095413  0.156900  0.156900  1
  Co  Co21  1  0.155596  0.094221  0.593447  1
  Co  Co22  1  0.155596  0.593447  0.094221  1
  Co  Co23  1  0.596649  0.154647  0.154647  1
