# generated using pymatgen
data_Hf7Zr8Ta5Si16
_symmetry_space_group_name_H-M   'P 1'
_cell_length_a   7.00927015
_cell_length_b   7.01234351
_cell_length_c   12.84726798
_cell_angle_alpha   90.15563585
_cell_angle_beta   89.84876971
_cell_angle_gamma   90.01096417
_symmetry_Int_Tables_number   1
_chemical_formula_structural   Hf7Zr8Ta5Si16
_chemical_formula_sum   'Hf7 Zr8 Ta5 Si16'
_cell_volume   631.45679681
_cell_formula_units_Z   1
loop_
 _symmetry_equiv_pos_site_id
 _symmetry_equiv_pos_as_xyz
  1  'x, y, z'
loop_
 _atom_site_type_symbol
 _atom_site_label
 _atom_site_symmetry_multiplicity
 _atom_site_fract_x
 _atom_site_fract_y
 _atom_site_fract_z
 _atom_site_occupancy
  Hf  Hf0  1  0.502684  0.646240  0.626121  1
  Hf  Hf1  1  0.853252  0.004242  0.877245  1
  Hf  Hf2  1  0.147637  0.997867  0.375487  1
  Hf  Hf3  1  0.647163  0.501932  0.373921  1
  Hf  Hf4  1  0.354450  0.498156  0.873641  1
  Hf  Hf5  1  0.002458  0.854289  0.123918  1
  Hf  Hf6  1  0.997242  0.146361  0.623766  1
  Zr  Zr7  1  0.498700  0.152452  0.532047  1
  Zr  Zr8  1  0.502193  0.847950  0.032201  1
  Zr  Zr9  1  0.652895  0.002606  0.280517  1
  Zr  Zr10  1  0.347263  0.000386  0.782886  1
  Zr  Zr11  1  0.846467  0.502152  0.969676  1
  Zr  Zr12  1  0.154130  0.497505  0.466411  1
  Zr  Zr13  1  0.002346  0.652726  0.718202  1
  Zr  Zr14  1  0.998360  0.346046  0.217724  1
  Ta  Ta15  1  0.674608  0.325670  0.750579  1
  Ta  Ta16  1  0.326497  0.672481  0.249078  1
  Ta  Ta17  1  0.825000  0.824323  0.500020  1
  Ta  Ta18  1  0.175485  0.176579  0.001072  1
  Ta  Ta19  1  0.493412  0.353562  0.125375  1
  Si  Si20  1  0.791316  0.145937  0.073779  1
  Si  Si21  1  0.202985  0.853897  0.571337  1
  Si  Si22  1  0.646634  0.703338  0.821940  1
  Si  Si23  1  0.356196  0.296731  0.319257  1
  Si  Si24  1  0.854113  0.201562  0.428175  1
  Si  Si25  1  0.145331  0.796838  0.928275  1
  Si  Si26  1  0.701568  0.640319  0.176777  1
  Si  Si27  1  0.297153  0.354127  0.678638  1
  Si  Si28  1  0.547806  0.201500  0.937053  1
  Si  Si29  1  0.452325  0.799976  0.434892  1
  Si  Si30  1  0.699642  0.952111  0.685898  1
  Si  Si31  1  0.300673  0.050792  0.184964  1
  Si  Si32  1  0.800710  0.451562  0.564843  1
  Si  Si33  1  0.201556  0.547492  0.064923  1
  Si  Si34  1  0.951147  0.699718  0.314308  1
  Si  Si35  1  0.048604  0.300574  0.815054  1
