# generated using pymatgen
data_Zr6Ti7Al9CrRh7
_symmetry_space_group_name_H-M   'P 1'
_cell_length_a   8.89259047
_cell_length_b   8.89250497
_cell_length_c   8.89209064
_cell_angle_alpha   60.12511785
_cell_angle_beta   60.12440516
_cell_angle_gamma   60.12727880
_symmetry_Int_Tables_number   1
_chemical_formula_structural   Zr6Ti7Al9CrRh7
_chemical_formula_sum   'Zr6 Ti7 Al9 Cr1 Rh7'
_cell_volume   498.62641936
_cell_formula_units_Z   1
loop_
 _symmetry_equiv_pos_site_id
 _symmetry_equiv_pos_as_xyz
  1  'x, y, z'
loop_
 _atom_site_type_symbol
 _atom_site_label
 _atom_site_symmetry_multiplicity
 _atom_site_fract_x
 _atom_site_fract_y
 _atom_site_fract_z
 _atom_site_occupancy
  Zr  Zr0  1  0.205777  0.205786  0.793438  1
  Zr  Zr1  1  0.793439  0.205788  0.205779  1
  Zr  Zr2  1  0.205762  0.793459  0.205762  1
  Zr  Zr3  1  0.799882  0.799877  0.191485  1
  Zr  Zr4  1  0.191479  0.799884  0.799882  1
  Zr  Zr5  1  0.799867  0.191498  0.799862  1
  Ti  Ti6  1  0.379269  0.379264  0.379266  1
  Ti  Ti7  1  0.380290  0.862136  0.380291  1
  Ti  Ti8  1  0.862131  0.380293  0.380303  1
  Ti  Ti9  1  0.380301  0.380296  0.862136  1
  Ti  Ti10  1  0.835221  0.495834  0.835233  1
  Ti  Ti11  1  0.495850  0.835221  0.835225  1
  Ti  Ti12  1  0.835223  0.835225  0.495845  1
  Al  Al13  1  0.161911  0.161912  0.161905  1
  Al  Al14  1  0.164650  0.507455  0.164650  1
  Al  Al15  1  0.507474  0.164648  0.164644  1
  Al  Al16  1  0.164646  0.164649  0.507466  1
  Al  Al17  1  0.618399  0.618397  0.618400  1
  Al  Al18  1  0.618818  0.145937  0.618821  1
  Al  Al19  1  0.145933  0.618820  0.618825  1
  Al  Al20  1  0.618820  0.618821  0.145934  1
  Al  Al21  1  0.828651  0.828647  0.828654  1
  Cr  Cr22  1  0.003030  0.002982  0.002981  1
  Rh  Rh23  1  0.002568  0.002571  0.495628  1
  Rh  Rh24  1  0.495630  0.002574  0.002572  1
  Rh  Rh25  1  0.002584  0.495621  0.002586  1
  Rh  Rh26  1  0.500936  0.500938  0.000173  1
  Rh  Rh27  1  0.000171  0.500934  0.500948  1
  Rh  Rh28  1  0.500934  0.000170  0.500944  1
  Rh  Rh29  1  0.500357  0.500364  0.500363  1
