# generated using pymatgen
data_Sr2YbUO6
_symmetry_space_group_name_H-M   'P 1'
_cell_length_a   5.95053549
_cell_length_b   6.09806900
_cell_length_c   8.49503523
_cell_angle_alpha   90.00000000
_cell_angle_beta   90.24999304
_cell_angle_gamma   90.00000000
_symmetry_Int_Tables_number   1
_chemical_formula_structural   Sr2YbUO6
_chemical_formula_sum   'Sr4 Yb2 U2 O12'
_cell_volume   308.25450654
_cell_formula_units_Z   2
loop_
 _symmetry_equiv_pos_site_id
 _symmetry_equiv_pos_as_xyz
  1  'x, y, z'
loop_
 _atom_site_type_symbol
 _atom_site_label
 _atom_site_symmetry_multiplicity
 _atom_site_fract_x
 _atom_site_fract_y
 _atom_site_fract_z
 _atom_site_occupancy
  Sr  Sr0  1  0.739298  0.932225  0.002881  1
  Sr  Sr1  1  0.260702  0.432225  0.997119  1
  Sr  Sr2  1  0.237521  0.523952  0.504120  1
  Sr  Sr3  1  0.762479  0.023952  0.495880  1
  Yb  Yb4  1  0.750431  0.477849  0.250087  1
  Yb  Yb5  1  0.249569  0.977849  0.749913  1
  U  U6  1  0.748289  0.477700  0.749850  1
  U  U7  1  0.251711  0.977700  0.250150  1
  O  O8  1  0.350422  0.937313  0.486020  1
  O  O9  1  0.649578  0.437313  0.513980  1
  O  O10  1  0.462463  0.665894  0.795941  1
  O  O11  1  0.537537  0.165894  0.204059  1
  O  O12  1  0.936907  0.759561  0.691323  1
  O  O13  1  0.063093  0.259561  0.308677  1
  O  O14  1  0.848152  0.518347  0.985657  1
  O  O15  1  0.151848  0.018347  0.014343  1
  O  O16  1  0.967180  0.787599  0.296976  1
  O  O17  1  0.032820  0.287599  0.703024  1
  O  O18  1  0.440099  0.696660  0.190389  1
  O  O19  1  0.559901  0.196660  0.809611  1
