# generated using pymatgen
data_K2RbAs2Au3
_symmetry_space_group_name_H-M   'P 1'
_cell_length_a   7.75832335
_cell_length_b   7.75832409
_cell_length_c   7.75832305
_cell_angle_alpha   48.19584390
_cell_angle_beta   48.19585389
_cell_angle_gamma   48.19583645
_symmetry_Int_Tables_number   1
_chemical_formula_structural   K2RbAs2Au3
_chemical_formula_sum   'K2 Rb1 As2 Au3'
_cell_volume   237.82651298
_cell_formula_units_Z   1
loop_
 _symmetry_equiv_pos_site_id
 _symmetry_equiv_pos_as_xyz
  1  'x, y, z'
loop_
 _atom_site_type_symbol
 _atom_site_label
 _atom_site_symmetry_multiplicity
 _atom_site_fract_x
 _atom_site_fract_y
 _atom_site_fract_z
 _atom_site_occupancy
  K  K0  1  0.085397  0.085397  0.085397  1
  K  K1  1  0.914603  0.914603  0.914603  1
  Rb  Rb2  1  0.500000  0.500000  0.500000  1
  As  As3  1  0.247598  0.247598  0.247598  1
  As  As4  1  0.752402  0.752402  0.752402  1
  Au  Au5  1  0.500000  0.500000  0.000000  1
  Au  Au6  1  0.500000  0.000000  0.500001  1
  Au  Au7  1  0.000000  0.500000  0.500001  1
