# generated using pymatgen
data_Y4Zr3InPt4
_symmetry_space_group_name_H-M   'P 1'
_cell_length_a   4.62019900
_cell_length_b   7.16397047
_cell_length_c   8.32091339
_cell_angle_alpha   86.73138624
_cell_angle_beta   90.00000000
_cell_angle_gamma   90.00000000
_symmetry_Int_Tables_number   1
_chemical_formula_structural   Y4Zr3InPt4
_chemical_formula_sum   'Y4 Zr3 In1 Pt4'
_cell_volume   274.96561309
_cell_formula_units_Z   1
loop_
 _symmetry_equiv_pos_site_id
 _symmetry_equiv_pos_as_xyz
  1  'x, y, z'
loop_
 _atom_site_type_symbol
 _atom_site_label
 _atom_site_symmetry_multiplicity
 _atom_site_fract_x
 _atom_site_fract_y
 _atom_site_fract_z
 _atom_site_occupancy
  Y  Y0  1  0.250000  0.033320  0.668802  1
  Y  Y1  1  0.250000  0.519789  0.819072  1
  Y  Y2  1  0.750000  0.988099  0.330797  1
  Y  Y3  1  0.750000  0.471583  0.187024  1
  Zr  Zr4  1  0.250000  0.136493  0.071065  1
  Zr  Zr5  1  0.250000  0.643570  0.434344  1
  Zr  Zr6  1  0.750000  0.853282  0.921971  1
  In  In7  1  0.750000  0.353515  0.575274  1
  Pt  Pt8  1  0.250000  0.264869  0.372443  1
  Pt  Pt9  1  0.250000  0.763198  0.101729  1
  Pt  Pt10  1  0.750000  0.744047  0.609603  1
  Pt  Pt11  1  0.750000  0.228233  0.907879  1
