# generated using pymatgen
data_Er3In4IrPd
_symmetry_space_group_name_H-M   'P 1'
_cell_length_a   7.99143500
_cell_length_b   7.99143412
_cell_length_c   3.70350000
_cell_angle_alpha   90.00000000
_cell_angle_beta   90.00000000
_cell_angle_gamma   119.99999949
_symmetry_Int_Tables_number   1
_chemical_formula_structural   Er3In4IrPd
_chemical_formula_sum   'Er3 In4 Ir1 Pd1'
_cell_volume   204.82948738
_cell_formula_units_Z   1
loop_
 _symmetry_equiv_pos_site_id
 _symmetry_equiv_pos_as_xyz
  1  'x, y, z'
loop_
 _atom_site_type_symbol
 _atom_site_label
 _atom_site_symmetry_multiplicity
 _atom_site_fract_x
 _atom_site_fract_y
 _atom_site_fract_z
 _atom_site_occupancy
  Er  Er0  1  0.705373  0.953528  0.500000  1
  Er  Er1  1  0.248155  0.294627  0.500000  1
  Er  Er2  1  0.046472  0.751845  0.500000  1
  In  In3  1  0.929326  0.336956  0.000000  1
  In  In4  1  0.407631  0.070674  0.000000  1
  In  In5  1  0.663044  0.592369  0.000000  1
  In  In6  1  0.333333  0.666667  0.000000  1
  Ir  Ir7  1  0.000000  0.000000  0.000000  1
  Pd  Pd8  1  0.666667  0.333333  0.500000  1
