# generated using pymatgen
data_Ho5Tm7Os3Ru
_symmetry_space_group_name_H-M   'P 1'
_cell_length_a   7.35772544
_cell_length_b   8.95141483
_cell_length_c   6.26082666
_cell_angle_alpha   89.95095063
_cell_angle_beta   89.89390343
_cell_angle_gamma   89.99580925
_symmetry_Int_Tables_number   1
_chemical_formula_structural   Ho5Tm7Os3Ru
_chemical_formula_sum   'Ho5 Tm7 Os3 Ru1'
_cell_volume   412.35003589
_cell_formula_units_Z   1
loop_
 _symmetry_equiv_pos_site_id
 _symmetry_equiv_pos_as_xyz
  1  'x, y, z'
loop_
 _atom_site_type_symbol
 _atom_site_label
 _atom_site_symmetry_multiplicity
 _atom_site_fract_x
 _atom_site_fract_y
 _atom_site_fract_z
 _atom_site_occupancy
  Ho  Ho0  1  0.040788  0.250199  0.629887  1
  Ho  Ho1  1  0.960136  0.749804  0.370216  1
  Ho  Ho2  1  0.460474  0.749808  0.130102  1
  Ho  Ho3  1  0.540044  0.250126  0.868415  1
  Ho  Ho4  1  0.174515  0.062167  0.166238  1
  Tm  Tm5  1  0.825116  0.937122  0.832632  1
  Tm  Tm6  1  0.324993  0.935962  0.667969  1
  Tm  Tm7  1  0.825311  0.562776  0.832822  1
  Tm  Tm8  1  0.675020  0.062736  0.333528  1
  Tm  Tm9  1  0.174204  0.438014  0.166081  1
  Tm  Tm10  1  0.675061  0.437285  0.333441  1
  Tm  Tm11  1  0.324892  0.563879  0.668013  1
  Os  Os12  1  0.616681  0.750048  0.539788  1
  Os  Os13  1  0.116987  0.749659  0.959728  1
  Os  Os14  1  0.882420  0.250206  0.039697  1
  Ru  Ru15  1  0.383358  0.250207  0.461445  1
