# generated using pymatgen
data_DyEr4Mg2P12Ir17
_symmetry_space_group_name_H-M   'P 1'
_cell_length_a   12.64452800
_cell_length_b   12.81203097
_cell_length_c   3.97052700
_cell_angle_alpha   90.00000000
_cell_angle_beta   90.00000000
_cell_angle_gamma   119.56801059
_symmetry_Int_Tables_number   1
_chemical_formula_structural   DyEr4Mg2P12Ir17
_chemical_formula_sum   'Dy1 Er4 Mg2 P12 Ir17'
_cell_volume   559.46569935
_cell_formula_units_Z   1
loop_
 _symmetry_equiv_pos_site_id
 _symmetry_equiv_pos_as_xyz
  1  'x, y, z'
loop_
 _atom_site_type_symbol
 _atom_site_label
 _atom_site_symmetry_multiplicity
 _atom_site_fract_x
 _atom_site_fract_y
 _atom_site_fract_z
 _atom_site_occupancy
  Dy  Dy0  1  0.668770  0.335901  0.500000  1
  Er  Er1  1  0.332883  0.664023  0.500000  1
  Er  Er2  1  0.002143  0.813289  0.000000  1
  Er  Er3  1  0.188854  0.186697  0.000000  1
  Er  Er4  1  0.810201  0.000027  0.000000  1
  Mg  Mg5  1  0.997676  0.444161  0.500000  1
  Mg  Mg6  1  0.553450  0.555856  0.500000  1
  P  P7  1  0.003068  0.643890  0.500000  1
  P  P8  1  0.359246  0.356031  0.500000  1
  P  P9  1  0.643113  0.000083  0.500000  1
  P  P10  1  0.513662  0.685989  0.000000  1
  P  P11  1  0.308345  0.823933  0.000000  1
  P  P12  1  0.168968  0.481786  0.000000  1
  P  P13  1  0.484085  0.175672  0.000000  1
  P  P14  1  0.687216  0.518590  0.000000  1
  P  P15  1  0.828131  0.314078  0.000000  1
  P  P16  1  0.998739  0.175469  0.500000  1
  P  P17  1  0.823209  0.824583  0.500000  1
  P  P18  1  0.178536  0.999947  0.500000  1
  Ir  Ir19  1  0.504464  0.865480  0.000000  1
  Ir  Ir20  1  0.128672  0.639867  0.000000  1
  Ir  Ir21  1  0.357565  0.493193  0.000000  1
  Ir  Ir22  1  0.488038  0.360179  0.000000  1
  Ir  Ir23  1  0.865213  0.507538  0.000000  1
  Ir  Ir24  1  0.638988  0.133908  0.000000  1
  Ir  Ir25  1  0.462100  0.999929  0.500000  1
  Ir  Ir26  1  0.996474  0.278896  0.000000  1
  Ir  Ir27  1  0.717457  0.721180  0.000000  1
  Ir  Ir28  1  0.286988  0.999929  0.000000  1
  Ir  Ir29  1  0.623467  0.807815  0.500000  1
  Ir  Ir30  1  0.200643  0.824674  0.500000  1
  Ir  Ir31  1  0.177149  0.366858  0.500000  1
  Ir  Ir32  1  0.375798  0.175190  0.500000  1
  Ir  Ir33  1  0.810212  0.633219  0.500000  1
  Ir  Ir34  1  0.815846  0.192147  0.500000  1
  Ir  Ir35  1  0.000630  0.999993  0.500000  1
