# generated using pymatgen
data_Yb2B8IrRu6
_symmetry_space_group_name_H-M   'P 1'
_cell_length_a   6.43632000
_cell_length_b   6.43632000
_cell_length_c   10.07045300
_cell_angle_alpha   90.00000000
_cell_angle_beta   90.00000000
_cell_angle_gamma   90.00000000
_symmetry_Int_Tables_number   1
_chemical_formula_structural   Yb2B8IrRu6
_chemical_formula_sum   'Yb4 B16 Ir2 Ru12'
_cell_volume   417.18075256
_cell_formula_units_Z   2
loop_
 _symmetry_equiv_pos_site_id
 _symmetry_equiv_pos_as_xyz
  1  'x, y, z'
loop_
 _atom_site_type_symbol
 _atom_site_label
 _atom_site_symmetry_multiplicity
 _atom_site_fract_x
 _atom_site_fract_y
 _atom_site_fract_z
 _atom_site_occupancy
  Yb  Yb0  1  0.727510  0.875971  0.000000  1
  Yb  Yb1  1  0.124029  0.727510  0.500000  1
  Yb  Yb2  1  0.875971  0.272490  0.500000  1
  Yb  Yb3  1  0.272490  0.124029  0.000000  1
  B  B4  1  0.500000  0.000000  0.588348  1
  B  B5  1  0.500000  0.000000  0.411652  1
  B  B6  1  0.897268  0.276662  0.167327  1
  B  B7  1  0.102732  0.723338  0.832673  1
  B  B8  1  0.500000  0.500000  0.341033  1
  B  B9  1  0.500000  0.500000  0.841033  1
  B  B10  1  0.276662  0.102732  0.667327  1
  B  B11  1  0.102732  0.723338  0.167327  1
  B  B12  1  0.276662  0.102732  0.332673  1
  B  B13  1  0.897268  0.276662  0.832673  1
  B  B14  1  0.500000  0.500000  0.658967  1
  B  B15  1  0.500000  0.500000  0.158967  1
  B  B16  1  0.000000  0.500000  0.911652  1
  B  B17  1  0.723338  0.897268  0.667327  1
  B  B18  1  0.723338  0.897268  0.332673  1
  B  B19  1  0.000000  0.500000  0.088348  1
  Ir  Ir20  1  0.000000  0.000000  0.250000  1
  Ir  Ir21  1  0.000000  0.000000  0.750000  1
  Ru  Ru22  1  0.204675  0.393278  0.754673  1
  Ru  Ru23  1  0.404974  0.287804  0.500000  1
  Ru  Ru24  1  0.393278  0.795325  0.254673  1
  Ru  Ru25  1  0.204675  0.393278  0.245327  1
  Ru  Ru26  1  0.595026  0.712196  0.500000  1
  Ru  Ru27  1  0.606722  0.204675  0.745327  1
  Ru  Ru28  1  0.287804  0.595026  0.000000  1
  Ru  Ru29  1  0.712196  0.404974  0.000000  1
  Ru  Ru30  1  0.795325  0.606722  0.245327  1
  Ru  Ru31  1  0.795325  0.606722  0.754673  1
  Ru  Ru32  1  0.393278  0.795325  0.745327  1
  Ru  Ru33  1  0.606722  0.204675  0.254673  1
