# generated using pymatgen
data_Ho5(Tl2Ir)2
_symmetry_space_group_name_H-M   'P 1'
_cell_length_a   3.64865700
_cell_length_b   8.09098700
_cell_length_c   18.43925000
_cell_angle_alpha   90.00000000
_cell_angle_beta   90.00000000
_cell_angle_gamma   90.00000000
_symmetry_Int_Tables_number   1
_chemical_formula_structural   Ho5(Tl2Ir)2
_chemical_formula_sum   'Ho10 Tl8 Ir4'
_cell_volume   544.34945745
_cell_formula_units_Z   2
loop_
 _symmetry_equiv_pos_site_id
 _symmetry_equiv_pos_as_xyz
  1  'x, y, z'
loop_
 _atom_site_type_symbol
 _atom_site_label
 _atom_site_symmetry_multiplicity
 _atom_site_fract_x
 _atom_site_fract_y
 _atom_site_fract_z
 _atom_site_occupancy
  Ho  Ho0  1  0.000000  0.110374  0.408085  1
  Ho  Ho1  1  0.000000  0.889626  0.591915  1
  Ho  Ho2  1  0.000000  0.389626  0.908085  1
  Ho  Ho3  1  0.000000  0.610374  0.091915  1
  Ho  Ho4  1  0.000000  0.244750  0.220607  1
  Ho  Ho5  1  0.000000  0.755250  0.779393  1
  Ho  Ho6  1  0.000000  0.255250  0.720607  1
  Ho  Ho7  1  0.000000  0.744750  0.279393  1
  Ho  Ho8  1  0.000000  0.000000  0.000000  1
  Ho  Ho9  1  0.000000  0.500000  0.500000  1
  Tl  Tl10  1  0.500000  0.422815  0.352511  1
  Tl  Tl11  1  0.500000  0.577185  0.647489  1
  Tl  Tl12  1  0.500000  0.077185  0.852511  1
  Tl  Tl13  1  0.500000  0.922815  0.147489  1
  Tl  Tl14  1  0.500000  0.292522  0.063205  1
  Tl  Tl15  1  0.500000  0.707478  0.936795  1
  Tl  Tl16  1  0.500000  0.207478  0.563205  1
  Tl  Tl17  1  0.500000  0.792522  0.436795  1
  Ir  Ir18  1  0.500000  0.022185  0.302554  1
  Ir  Ir19  1  0.500000  0.977815  0.697446  1
  Ir  Ir20  1  0.500000  0.477815  0.802554  1
  Ir  Ir21  1  0.500000  0.522185  0.197446  1
