# generated using pymatgen
data_Ho4Tl3Co2
_symmetry_space_group_name_H-M   'P 1'
_cell_length_a   3.69563300
_cell_length_b   7.32410549
_cell_length_c   7.94533100
_cell_angle_alpha   71.17884294
_cell_angle_beta   90.00000000
_cell_angle_gamma   90.00000000
_symmetry_Int_Tables_number   1
_chemical_formula_structural   Ho4Tl3Co2
_chemical_formula_sum   'Ho4 Tl3 Co2'
_cell_volume   203.55880601
_cell_formula_units_Z   1
loop_
 _symmetry_equiv_pos_site_id
 _symmetry_equiv_pos_as_xyz
  1  'x, y, z'
loop_
 _atom_site_type_symbol
 _atom_site_label
 _atom_site_symmetry_multiplicity
 _atom_site_fract_x
 _atom_site_fract_y
 _atom_site_fract_z
 _atom_site_occupancy
  Ho  Ho0  1  0.500000  0.904937  0.223845  1
  Ho  Ho1  1  0.500000  0.095063  0.776155  1
  Ho  Ho2  1  0.500000  0.396011  0.316023  1
  Ho  Ho3  1  0.500000  0.603989  0.683977  1
  Tl  Tl4  1  0.000000  0.711103  0.001507  1
  Tl  Tl5  1  0.000000  0.288897  0.998493  1
  Tl  Tl6  1  0.000000  0.000000  0.500000  1
  Co  Co7  1  0.000000  0.649073  0.396496  1
  Co  Co8  1  0.000000  0.350927  0.603504  1
