# generated using pymatgen
data_Ca5P4
_symmetry_space_group_name_H-M   'P 1'
_cell_length_a   7.51120655
_cell_length_b   7.54478600
_cell_length_c   8.36160036
_cell_angle_alpha   90.00000000
_cell_angle_beta   116.68908449
_cell_angle_gamma   90.00000000
_symmetry_Int_Tables_number   1
_chemical_formula_structural   Ca5P4
_chemical_formula_sum   'Ca10 P8'
_cell_volume   423.36960959
_cell_formula_units_Z   2
loop_
 _symmetry_equiv_pos_site_id
 _symmetry_equiv_pos_as_xyz
  1  'x, y, z'
loop_
 _atom_site_type_symbol
 _atom_site_label
 _atom_site_symmetry_multiplicity
 _atom_site_fract_x
 _atom_site_fract_y
 _atom_site_fract_z
 _atom_site_occupancy
  Ca  Ca0  1  0.183470  0.164504  0.706149  1
  Ca  Ca1  1  0.522679  0.835496  0.706149  1
  Ca  Ca2  1  0.022679  0.664504  0.706149  1
  Ca  Ca3  1  0.683470  0.335496  0.706149  1
  Ca  Ca4  1  0.816530  0.835496  0.293851  1
  Ca  Ca5  1  0.477321  0.164504  0.293851  1
  Ca  Ca6  1  0.977321  0.335496  0.293851  1
  Ca  Ca7  1  0.316530  0.664504  0.293851  1
  Ca  Ca8  1  0.500000  0.500000  0.000000  1
  Ca  Ca9  1  0.000000  0.000000  0.000000  1
  P  P10  1  0.303047  0.500000  0.606096  1
  P  P11  1  0.803047  0.000000  0.606096  1
  P  P12  1  0.696953  0.500000  0.393904  1
  P  P13  1  0.196953  0.000000  0.393904  1
  P  P14  1  0.607709  0.107616  0.000000  1
  P  P15  1  0.392291  0.892384  0.000000  1
  P  P16  1  0.892291  0.607616  0.000000  1
  P  P17  1  0.107709  0.392384  0.000000  1
