# generated using pymatgen
data_DyY2AgSn3Rh2
_symmetry_space_group_name_H-M   'P 1'
_cell_length_a   7.74139070
_cell_length_b   7.76100427
_cell_length_c   3.81212800
_cell_angle_alpha   90.00000000
_cell_angle_beta   90.00000000
_cell_angle_gamma   119.96524235
_symmetry_Int_Tables_number   1
_chemical_formula_structural   DyY2AgSn3Rh2
_chemical_formula_sum   'Dy1 Y2 Ag1 Sn3 Rh2'
_cell_volume   198.42071781
_cell_formula_units_Z   1
loop_
 _symmetry_equiv_pos_site_id
 _symmetry_equiv_pos_as_xyz
  1  'x, y, z'
loop_
 _atom_site_type_symbol
 _atom_site_label
 _atom_site_symmetry_multiplicity
 _atom_site_fract_x
 _atom_site_fract_y
 _atom_site_fract_z
 _atom_site_occupancy
  Dy  Dy0  1  0.021496  0.611713  0.500000  1
  Y  Y1  1  0.388685  0.409071  0.500000  1
  Y  Y2  1  0.590862  0.979240  0.500000  1
  Ag  Ag3  1  0.667205  0.334032  0.000000  1
  Sn  Sn4  1  0.742330  0.738931  0.000000  1
  Sn  Sn5  1  0.260705  0.002651  0.000000  1
  Sn  Sn6  1  0.997229  0.257956  0.000000  1
  Rh  Rh7  1  0.331525  0.666669  0.000000  1
  Rh  Rh8  1  0.999963  0.999737  0.500000  1
