# generated using pymatgen
data_Li3Yb(PrPt)4
_symmetry_space_group_name_H-M   'P 1'
_cell_length_a   4.16211600
_cell_length_b   7.40388354
_cell_length_c   8.90711639
_cell_angle_alpha   90.38337113
_cell_angle_beta   90.00000000
_cell_angle_gamma   90.00000000
_symmetry_Int_Tables_number   1
_chemical_formula_structural   Li3Yb(PrPt)4
_chemical_formula_sum   'Li3 Yb1 Pr4 Pt4'
_cell_volume   274.47397040
_cell_formula_units_Z   1
loop_
 _symmetry_equiv_pos_site_id
 _symmetry_equiv_pos_as_xyz
  1  'x, y, z'
loop_
 _atom_site_type_symbol
 _atom_site_label
 _atom_site_symmetry_multiplicity
 _atom_site_fract_x
 _atom_site_fract_y
 _atom_site_fract_z
 _atom_site_occupancy
  Li  Li0  1  0.250000  0.127448  0.050955  1
  Li  Li1  1  0.250000  0.647127  0.434821  1
  Li  Li2  1  0.750000  0.875765  0.947639  1
  Yb  Yb3  1  0.750000  0.371349  0.560792  1
  Pr  Pr4  1  0.250000  0.022596  0.690714  1
  Pr  Pr5  1  0.250000  0.553715  0.834189  1
  Pr  Pr6  1  0.750000  0.952878  0.308259  1
  Pr  Pr7  1  0.750000  0.455950  0.177863  1
  Pt  Pt8  1  0.250000  0.237995  0.375222  1
  Pt  Pt9  1  0.250000  0.752833  0.117425  1
  Pt  Pt10  1  0.750000  0.749548  0.621205  1
  Pt  Pt11  1  0.750000  0.252795  0.880915  1
