# generated using pymatgen
data_CaNdTmGa8Ag3
_symmetry_space_group_name_H-M   'P 1'
_cell_length_a   4.39980351
_cell_length_b   8.41121520
_cell_length_c   8.41121620
_cell_angle_alpha   70.61181617
_cell_angle_beta   74.83831477
_cell_angle_gamma   74.83831218
_symmetry_Int_Tables_number   1
_chemical_formula_structural   CaNdTmGa8Ag3
_chemical_formula_sum   'Ca1 Nd1 Tm1 Ga8 Ag3'
_cell_volume   278.13923549
_cell_formula_units_Z   1
loop_
 _symmetry_equiv_pos_site_id
 _symmetry_equiv_pos_as_xyz
  1  'x, y, z'
loop_
 _atom_site_type_symbol
 _atom_site_label
 _atom_site_symmetry_multiplicity
 _atom_site_fract_x
 _atom_site_fract_y
 _atom_site_fract_z
 _atom_site_occupancy
  Ca  Ca0  1  0.198171  0.801829  0.801829  1
  Nd  Nd1  1  0.500600  0.499400  0.499400  1
  Tm  Tm2  1  0.800520  0.199480  0.199480  1
  Ga  Ga3  1  0.356905  0.358869  0.927322  1
  Ga  Ga4  1  0.644744  0.636183  0.074328  1
  Ga  Ga5  1  0.356905  0.927322  0.358869  1
  Ga  Ga6  1  0.644744  0.074328  0.636183  1
  Ga  Ga7  1  0.161052  0.468712  0.209185  1
  Ga  Ga8  1  0.838422  0.528595  0.794562  1
  Ga  Ga9  1  0.161052  0.209185  0.468712  1
  Ga  Ga10  1  0.838422  0.794562  0.528595  1
  Ag  Ag11  1  0.498735  0.001265  0.001265  1
  Ag  Ag12  1  0.999865  0.804849  0.195422  1
  Ag  Ag13  1  0.999865  0.195422  0.804849  1
