# generated using pymatgen
data_Tb4Sb5Rh7Au
_symmetry_space_group_name_H-M   'P 1'
_cell_length_a   7.61324415
_cell_length_b   7.61324377
_cell_length_c   7.61324416
_cell_angle_alpha   107.90383622
_cell_angle_beta   110.26054598
_cell_angle_gamma   110.26055485
_symmetry_Int_Tables_number   1
_chemical_formula_structural   Tb4Sb5Rh7Au
_chemical_formula_sum   'Tb4 Sb5 Rh7 Au1'
_cell_volume   339.50359228
_cell_formula_units_Z   1
loop_
 _symmetry_equiv_pos_site_id
 _symmetry_equiv_pos_as_xyz
  1  'x, y, z'
loop_
 _atom_site_type_symbol
 _atom_site_label
 _atom_site_symmetry_multiplicity
 _atom_site_fract_x
 _atom_site_fract_y
 _atom_site_fract_z
 _atom_site_occupancy
  Tb  Tb0  1  0.518545  0.017328  0.017328  1
  Tb  Tb1  1  0.000000  0.498783  0.017328  1
  Tb  Tb2  1  0.000000  0.017328  0.498783  1
  Tb  Tb3  1  0.481455  0.498783  0.498783  1
  Sb  Sb4  1  0.685163  0.001616  0.686779  1
  Sb  Sb5  1  0.685163  0.686779  0.001616  1
  Sb  Sb6  1  0.000000  0.671403  0.671403  1
  Sb  Sb7  1  0.314837  0.001616  0.316453  1
  Sb  Sb8  1  0.314837  0.316453  0.001616  1
  Rh  Rh9  1  0.000000  0.971010  0.971010  1
  Rh  Rh10  1  0.500000  0.752759  0.252759  1
  Rh  Rh11  1  0.748882  0.504243  0.253125  1
  Rh  Rh12  1  0.251118  0.755361  0.504243  1
  Rh  Rh13  1  0.251118  0.504243  0.755361  1
  Rh  Rh14  1  0.500000  0.252759  0.752759  1
  Rh  Rh15  1  0.748882  0.253125  0.504243  1
  Au  Au16  1  0.000000  0.296411  0.296411  1
