# generated using pymatgen
data_K13TaTi(In3As5)2
_symmetry_space_group_name_H-M   'P 1'
_cell_length_a   9.41263409
_cell_length_b   9.38787820
_cell_length_c   13.38676658
_cell_angle_alpha   80.31546846
_cell_angle_beta   77.72224877
_cell_angle_gamma   62.83810533
_symmetry_Int_Tables_number   1
_chemical_formula_structural   K13TaTi(In3As5)2
_chemical_formula_sum   'K13 Ta1 Ti1 In6 As10'
_cell_volume   1024.94395118
_cell_formula_units_Z   1
loop_
 _symmetry_equiv_pos_site_id
 _symmetry_equiv_pos_as_xyz
  1  'x, y, z'
loop_
 _atom_site_type_symbol
 _atom_site_label
 _atom_site_symmetry_multiplicity
 _atom_site_fract_x
 _atom_site_fract_y
 _atom_site_fract_z
 _atom_site_occupancy
  K  K0  1  0.502279  0.869777  0.359464  1
  K  K1  1  0.497041  0.129645  0.646763  1
  K  K2  1  0.855418  0.590784  0.883488  1
  K  K3  1  0.148490  0.412520  0.112578  1
  K  K4  1  0.090230  0.784597  0.432728  1
  K  K5  1  0.907482  0.217502  0.574080  1
  K  K6  1  0.744689  0.678260  0.600463  1
  K  K7  1  0.248357  0.323185  0.409346  1
  K  K8  1  0.501482  0.505285  0.995312  1
  K  K9  1  0.327037  0.925992  0.084507  1
  K  K10  1  0.671858  0.072141  0.907865  1
  K  K11  1  0.894923  0.855687  0.153317  1
  K  K12  1  0.113973  0.137284  0.837930  1
  Ta  Ta13  1  0.619362  0.258905  0.222797  1
  Ti  Ti14  1  0.379097  0.739098  0.777067  1
  In  In15  1  0.013257  0.825185  0.709167  1
  In  In16  1  0.987518  0.179268  0.292704  1
  In  In17  1  0.605840  0.447591  0.409090  1
  In  In18  1  0.392759  0.556808  0.594062  1
  In  In19  1  0.726415  0.574468  0.161587  1
  In  In20  1  0.272528  0.426864  0.839342  1
  As  As21  1  0.426985  0.554534  0.247401  1
  As  As22  1  0.572437  0.440478  0.751007  1
  As  As23  1  0.130166  0.751295  0.902091  1
  As  As24  1  0.867733  0.248834  0.099606  1
  As  As25  1  0.708537  0.118935  0.393333  1
  As  As26  1  0.291517  0.882279  0.605608  1
  As  As27  1  0.869259  0.513588  0.351287  1
  As  As28  1  0.132832  0.486892  0.646060  1
  As  As29  1  0.506478  0.863448  0.843188  1
  As  As30  1  0.494019  0.128868  0.156759  1
