# generated using pymatgen
data_Y4Ho2ScRhO12
_symmetry_space_group_name_H-M   'P 1'
_cell_length_a   6.57558344
_cell_length_b   6.57316994
_cell_length_c   6.57570200
_cell_angle_alpha   93.46936588
_cell_angle_beta   93.46345134
_cell_angle_gamma   93.49002380
_symmetry_Int_Tables_number   1
_chemical_formula_structural   Y4Ho2ScRhO12
_chemical_formula_sum   'Y4 Ho2 Sc1 Rh1 O12'
_cell_volume   282.58418961
_cell_formula_units_Z   1
loop_
 _symmetry_equiv_pos_site_id
 _symmetry_equiv_pos_as_xyz
  1  'x, y, z'
loop_
 _atom_site_type_symbol
 _atom_site_label
 _atom_site_symmetry_multiplicity
 _atom_site_fract_x
 _atom_site_fract_y
 _atom_site_fract_z
 _atom_site_occupancy
  Y  Y0  1  0.742202  0.921452  0.432053  1
  Y  Y1  1  0.921417  0.432706  0.741991  1
  Y  Y2  1  0.432437  0.741884  0.922108  1
  Y  Y3  1  0.258559  0.078645  0.567469  1
  Ho  Ho4  1  0.078210  0.567057  0.257775  1
  Ho  Ho5  1  0.567755  0.258319  0.078573  1
  Sc  Sc6  1  0.000360  0.000560  0.000793  1
  Rh  Rh7  1  0.500201  0.499723  0.499490  1
  O  O8  1  0.588312  0.457948  0.805398  1
  O  O9  1  0.459256  0.804752  0.588948  1
  O  O10  1  0.805499  0.588265  0.457985  1
  O  O11  1  0.409740  0.538748  0.194983  1
  O  O12  1  0.540627  0.195512  0.409004  1
  O  O13  1  0.194660  0.411950  0.538810  1
  O  O14  1  0.068442  0.915343  0.307796  1
  O  O15  1  0.916513  0.309029  0.069757  1
  O  O16  1  0.691922  0.933728  0.082428  1
  O  O17  1  0.082619  0.692107  0.933421  1
  O  O18  1  0.932292  0.082644  0.692674  1
  O  O19  1  0.308977  0.069630  0.918543  1
