# generated using pymatgen
data_Nd3Er3Al24Os5Pt3
_symmetry_space_group_name_H-M   'P 1'
_cell_length_a   8.86853830
_cell_length_b   8.87515800
_cell_length_c   9.59785787
_cell_angle_alpha   90.09128675
_cell_angle_beta   89.79026829
_cell_angle_gamma   119.67435979
_symmetry_Int_Tables_number   1
_chemical_formula_structural   Nd3Er3Al24Os5Pt3
_chemical_formula_sum   'Nd3 Er3 Al24 Os5 Pt3'
_cell_volume   656.36574742
_cell_formula_units_Z   1
loop_
 _symmetry_equiv_pos_site_id
 _symmetry_equiv_pos_as_xyz
  1  'x, y, z'
loop_
 _atom_site_type_symbol
 _atom_site_label
 _atom_site_symmetry_multiplicity
 _atom_site_fract_x
 _atom_site_fract_y
 _atom_site_fract_z
 _atom_site_occupancy
  Nd  Nd0  1  0.186172  0.378139  0.249962  1
  Nd  Nd1  1  0.813582  0.623524  0.750150  1
  Nd  Nd2  1  0.618017  0.813574  0.251844  1
  Er  Er3  1  0.389704  0.186199  0.747392  1
  Er  Er4  1  0.196379  0.806974  0.251548  1
  Er  Er5  1  0.802101  0.191728  0.748119  1
  Al  Al6  1  0.334365  0.671665  0.025024  1
  Al  Al7  1  0.663989  0.328535  0.970852  1
  Al  Al8  1  0.668994  0.331685  0.528012  1
  Al  Al9  1  0.330068  0.668796  0.475469  1
  Al  Al10  1  0.157172  0.324942  0.576249  1
  Al  Al11  1  0.843356  0.673855  0.425591  1
  Al  Al12  1  0.672978  0.842490  0.576411  1
  Al  Al13  1  0.838088  0.675450  0.077554  1
  Al  Al14  1  0.326462  0.157661  0.427126  1
  Al  Al15  1  0.162608  0.323178  0.920576  1
  Al  Al16  1  0.164827  0.836331  0.575198  1
  Al  Al17  1  0.325606  0.157257  0.073715  1
  Al  Al18  1  0.835099  0.165279  0.427037  1
  Al  Al19  1  0.674160  0.843163  0.922780  1
  Al  Al20  1  0.830811  0.159782  0.074652  1
  Al  Al21  1  0.169208  0.842566  0.922791  1
  Al  Al22  1  0.559264  0.124352  0.249940  1
  Al  Al23  1  0.438702  0.875529  0.750148  1
  Al  Al24  1  0.872973  0.437281  0.253191  1
  Al  Al25  1  0.125479  0.561579  0.747403  1
  Al  Al26  1  0.563054  0.433817  0.249926  1
  Al  Al27  1  0.435404  0.562332  0.750209  1
  Al  Al28  1  0.002112  0.998065  0.250340  1
  Al  Al29  1  0.006052  0.006637  0.749864  1
  Os  Os30  1  0.499144  0.001116  0.998253  1
  Os  Os31  1  0.499142  0.001220  0.501959  1
  Os  Os32  1  0.999462  0.499577  0.500353  1
  Os  Os33  1  0.999578  0.999976  0.999746  1
  Os  Os34  1  0.999568  0.999684  0.500453  1
  Pt  Pt35  1  0.998932  0.499752  0.999889  1
  Pt  Pt36  1  0.498865  0.498294  0.998940  1
  Pt  Pt37  1  0.498523  0.498017  0.501335  1
