# generated using pymatgen
data_CsRb(Lu3Se5)2
_symmetry_space_group_name_H-M   'P 1'
_cell_length_a   4.06998500
_cell_length_b   12.24161700
_cell_length_c   21.80765167
_cell_angle_alpha   90.32714872
_cell_angle_beta   90.00000000
_cell_angle_gamma   90.00000000
_symmetry_Int_Tables_number   1
_chemical_formula_structural   CsRb(Lu3Se5)2
_chemical_formula_sum   'Cs2 Rb2 Lu12 Se20'
_cell_volume   1086.50922623
_cell_formula_units_Z   2
loop_
 _symmetry_equiv_pos_site_id
 _symmetry_equiv_pos_as_xyz
  1  'x, y, z'
loop_
 _atom_site_type_symbol
 _atom_site_label
 _atom_site_symmetry_multiplicity
 _atom_site_fract_x
 _atom_site_fract_y
 _atom_site_fract_z
 _atom_site_occupancy
  Cs  Cs0  1  0.750000  0.354350  0.408898  1
  Cs  Cs1  1  0.250000  0.645650  0.591102  1
  Rb  Rb2  1  0.250000  0.850954  0.093472  1
  Rb  Rb3  1  0.750000  0.149046  0.906528  1
  Lu  Lu4  1  0.750000  0.798623  0.826423  1
  Lu  Lu5  1  0.250000  0.201377  0.173577  1
  Lu  Lu6  1  0.250000  0.296801  0.675211  1
  Lu  Lu7  1  0.750000  0.703199  0.324789  1
  Lu  Lu8  1  0.250000  0.957067  0.698716  1
  Lu  Lu9  1  0.750000  0.042933  0.301284  1
  Lu  Lu10  1  0.750000  0.455528  0.802679  1
  Lu  Lu11  1  0.250000  0.544472  0.197321  1
  Lu  Lu12  1  0.750000  0.391398  0.053951  1
  Lu  Lu13  1  0.250000  0.608602  0.946049  1
  Lu  Lu14  1  0.250000  0.892169  0.445663  1
  Lu  Lu15  1  0.750000  0.107831  0.554337  1
  Se  Se16  1  0.250000  0.948044  0.569226  1
  Se  Se17  1  0.750000  0.051956  0.430774  1
  Se  Se18  1  0.750000  0.447917  0.931028  1
  Se  Se19  1  0.250000  0.552083  0.068972  1
  Se  Se20  1  0.750000  0.765544  0.953680  1
  Se  Se21  1  0.250000  0.234456  0.046320  1
  Se  Se22  1  0.250000  0.264435  0.547971  1
  Se  Se23  1  0.750000  0.735565  0.452029  1
  Se  Se24  1  0.250000  0.952097  0.827018  1
  Se  Se25  1  0.750000  0.047903  0.172982  1
  Se  Se26  1  0.750000  0.449115  0.674994  1
  Se  Se27  1  0.250000  0.550885  0.325006  1
  Se  Se28  1  0.750000  0.125736  0.685065  1
  Se  Se29  1  0.250000  0.874264  0.314935  1
  Se  Se30  1  0.250000  0.626083  0.815524  1
  Se  Se31  1  0.750000  0.373917  0.184476  1
  Se  Se32  1  0.750000  0.695968  0.196931  1
  Se  Se33  1  0.250000  0.304032  0.803069  1
  Se  Se34  1  0.250000  0.193801  0.301388  1
  Se  Se35  1  0.750000  0.806199  0.698612  1
