# generated using pymatgen
data_BaNa(NdCo)4
_symmetry_space_group_name_H-M   'P 1'
_cell_length_a   4.01747800
_cell_length_b   4.01747613
_cell_length_c   20.52532500
_cell_angle_alpha   90.00000000
_cell_angle_beta   90.00000000
_cell_angle_gamma   119.99998248
_symmetry_Int_Tables_number   1
_chemical_formula_structural   BaNa(NdCo)4
_chemical_formula_sum   'Ba1 Na1 Nd4 Co4'
_cell_volume   286.89802786
_cell_formula_units_Z   1
loop_
 _symmetry_equiv_pos_site_id
 _symmetry_equiv_pos_as_xyz
  1  'x, y, z'
loop_
 _atom_site_type_symbol
 _atom_site_label
 _atom_site_symmetry_multiplicity
 _atom_site_fract_x
 _atom_site_fract_y
 _atom_site_fract_z
 _atom_site_occupancy
  Ba  Ba0  1  0.333333  0.666667  0.250414  1
  Na  Na1  1  0.666667  0.333333  0.749715  1
  Nd  Nd2  1  0.000000  0.000000  0.073697  1
  Nd  Nd3  1  0.000000  0.000000  0.896324  1
  Nd  Nd4  1  0.000000  0.000000  0.603631  1
  Nd  Nd5  1  0.000000  0.000000  0.426304  1
  Co  Co6  1  0.333333  0.666667  0.515817  1
  Co  Co7  1  0.666667  0.333333  0.516944  1
  Co  Co8  1  0.666667  0.333333  0.983038  1
  Co  Co9  1  0.333333  0.666667  0.984116  1
