# generated using pymatgen
data_Eu2CuNi7B2
_symmetry_space_group_name_H-M   'P 1'
_cell_length_a   5.13993900
_cell_length_b   5.13993947
_cell_length_c   7.00357600
_cell_angle_alpha   90.00000000
_cell_angle_beta   90.00000000
_cell_angle_gamma   120.00000342
_symmetry_Int_Tables_number   1
_chemical_formula_structural   Eu2CuNi7B2
_chemical_formula_sum   'Eu2 Cu1 Ni7 B2'
_cell_volume   160.23833803
_cell_formula_units_Z   1
loop_
 _symmetry_equiv_pos_site_id
 _symmetry_equiv_pos_as_xyz
  1  'x, y, z'
loop_
 _atom_site_type_symbol
 _atom_site_label
 _atom_site_symmetry_multiplicity
 _atom_site_fract_x
 _atom_site_fract_y
 _atom_site_fract_z
 _atom_site_occupancy
  Eu  Eu0  1  0.000000  0.000000  0.500000  1
  Eu  Eu1  1  0.000000  0.000000  0.000000  1
  Cu  Cu2  1  0.666667  0.333333  0.000000  1
  Ni  Ni3  1  0.500407  0.499593  0.701496  1
  Ni  Ni4  1  0.500407  0.000814  0.701496  1
  Ni  Ni5  1  0.999186  0.499593  0.701496  1
  Ni  Ni6  1  0.500407  0.499593  0.298504  1
  Ni  Ni7  1  0.500407  0.000814  0.298504  1
  Ni  Ni8  1  0.999186  0.499593  0.298504  1
  Ni  Ni9  1  0.333333  0.666667  0.000000  1
  B  B10  1  0.666667  0.333333  0.500000  1
  B  B11  1  0.333333  0.666667  0.500000  1
