# generated using pymatgen
data_Ca2NiB4Ru3
_symmetry_space_group_name_H-M   'P 1'
_cell_length_a   6.80209464
_cell_length_b   5.93139321
_cell_length_c   5.39831183
_cell_angle_alpha   73.62439978
_cell_angle_beta   56.78509634
_cell_angle_gamma   51.76498511
_symmetry_Int_Tables_number   1
_chemical_formula_structural   Ca2NiB4Ru3
_chemical_formula_sum   'Ca2 Ni1 B4 Ru3'
_cell_volume   142.58583473
_cell_formula_units_Z   1
loop_
 _symmetry_equiv_pos_site_id
 _symmetry_equiv_pos_as_xyz
  1  'x, y, z'
loop_
 _atom_site_type_symbol
 _atom_site_label
 _atom_site_symmetry_multiplicity
 _atom_site_fract_x
 _atom_site_fract_y
 _atom_site_fract_z
 _atom_site_occupancy
  Ca  Ca0  1  0.004267  0.004267  0.995733  1
  Ca  Ca1  1  0.245820  0.245820  0.254180  1
  Ni  Ni2  1  0.619295  0.619295  0.880705  1
  B  B3  1  0.674375  0.324481  0.681129  1
  B  B4  1  0.324481  0.674375  0.320015  1
  B  B5  1  0.937604  0.563067  0.926288  1
  B  B6  1  0.563067  0.937604  0.573042  1
  Ru  Ru7  1  0.634702  0.634702  0.365297  1
  Ru  Ru8  1  0.366169  0.366170  0.633830  1
  Ru  Ru9  1  0.880220  0.880219  0.619780  1
