# generated using pymatgen
data_CaCe(Si2Ni9)2
_symmetry_space_group_name_H-M   'P 1'
_cell_length_a   7.57071243
_cell_length_b   7.57071245
_cell_length_c   7.57071217
_cell_angle_alpha   99.57205276
_cell_angle_beta   99.57205255
_cell_angle_gamma   131.86858947
_symmetry_Int_Tables_number   1
_chemical_formula_structural   CaCe(Si2Ni9)2
_chemical_formula_sum   'Ca1 Ce1 Si4 Ni18'
_cell_volume   295.04386114
_cell_formula_units_Z   1
loop_
 _symmetry_equiv_pos_site_id
 _symmetry_equiv_pos_as_xyz
  1  'x, y, z'
loop_
 _atom_site_type_symbol
 _atom_site_label
 _atom_site_symmetry_multiplicity
 _atom_site_fract_x
 _atom_site_fract_y
 _atom_site_fract_z
 _atom_site_occupancy
  Ca  Ca0  1  0.500000  0.500000  0.000000  1
  Ce  Ce1  1  0.750000  0.250000  0.500000  1
  Si  Si2  1  0.624343  0.874024  0.750319  1
  Si  Si3  1  0.125976  0.375657  0.249681  1
  Si  Si4  1  0.125976  0.876296  0.750319  1
  Si  Si5  1  0.123704  0.874024  0.249681  1
  Ni  Ni6  1  0.250000  0.750000  0.500000  1
  Ni  Ni7  1  0.000000  0.000000  0.000000  1
  Ni  Ni8  1  0.687551  0.014800  0.079266  1
  Ni  Ni9  1  0.687551  0.608287  0.672751  1
  Ni  Ni10  1  0.262315  0.436097  0.578179  1
  Ni  Ni11  1  0.262315  0.684136  0.826218  1
  Ni  Ni12  1  0.935534  0.014800  0.327249  1
  Ni  Ni13  1  0.935534  0.608287  0.920734  1
  Ni  Ni14  1  0.857920  0.436097  0.173782  1
  Ni  Ni15  1  0.857920  0.684136  0.421821  1
  Ni  Ni16  1  0.563903  0.737685  0.421821  1
  Ni  Ni17  1  0.563903  0.142080  0.826218  1
  Ni  Ni18  1  0.985200  0.312449  0.920734  1
  Ni  Ni19  1  0.985200  0.064466  0.672751  1
  Ni  Ni20  1  0.315864  0.737685  0.173782  1
  Ni  Ni21  1  0.315864  0.142080  0.578179  1
  Ni  Ni22  1  0.391713  0.312449  0.327249  1
  Ni  Ni23  1  0.391713  0.064466  0.079266  1
