# generated using pymatgen
data_ZrSc3(VP)4
_symmetry_space_group_name_H-M   'P 1'
_cell_length_a   3.50277100
_cell_length_b   6.63056157
_cell_length_c   7.88096517
_cell_angle_alpha   90.18414633
_cell_angle_beta   90.00000000
_cell_angle_gamma   90.00000000
_symmetry_Int_Tables_number   1
_chemical_formula_structural   ZrSc3(VP)4
_chemical_formula_sum   'Zr1 Sc3 V4 P4'
_cell_volume   183.03714054
_cell_formula_units_Z   1
loop_
 _symmetry_equiv_pos_site_id
 _symmetry_equiv_pos_as_xyz
  1  'x, y, z'
loop_
 _atom_site_type_symbol
 _atom_site_label
 _atom_site_symmetry_multiplicity
 _atom_site_fract_x
 _atom_site_fract_y
 _atom_site_fract_z
 _atom_site_occupancy
  Zr  Zr0  1  0.750000  0.459378  0.333429  1
  Sc  Sc1  1  0.250000  0.040865  0.833592  1
  Sc  Sc2  1  0.750000  0.958297  0.166148  1
  Sc  Sc3  1  0.250000  0.540904  0.666583  1
  V  V4  1  0.750000  0.375178  0.945844  1
  V  V5  1  0.250000  0.625586  0.055261  1
  V  V6  1  0.750000  0.872914  0.554958  1
  V  V7  1  0.250000  0.127827  0.445172  1
  P  P8  1  0.250000  0.763772  0.361407  1
  P  P9  1  0.750000  0.237863  0.640195  1
  P  P10  1  0.250000  0.258652  0.136200  1
  P  P11  1  0.750000  0.738764  0.861212  1
