# generated using pymatgen
data_La2PrThTe6
_symmetry_space_group_name_H-M   'P 1'
_cell_length_a   4.49746800
_cell_length_b   12.01143142
_cell_length_c   12.34372000
_cell_angle_alpha   89.55675750
_cell_angle_beta   90.00000000
_cell_angle_gamma   90.00000000
_symmetry_Int_Tables_number   1
_chemical_formula_structural   La2PrThTe6
_chemical_formula_sum   'La4 Pr2 Th2 Te12'
_cell_volume   666.80049587
_cell_formula_units_Z   2
loop_
 _symmetry_equiv_pos_site_id
 _symmetry_equiv_pos_as_xyz
  1  'x, y, z'
loop_
 _atom_site_type_symbol
 _atom_site_label
 _atom_site_symmetry_multiplicity
 _atom_site_fract_x
 _atom_site_fract_y
 _atom_site_fract_z
 _atom_site_occupancy
  La  La0  1  0.250000  0.496809  0.697081  1
  La  La1  1  0.750000  0.503191  0.302919  1
  La  La2  1  0.750000  0.997317  0.804332  1
  La  La3  1  0.250000  0.002683  0.195668  1
  Pr  Pr4  1  0.750000  0.687987  0.983783  1
  Pr  Pr5  1  0.250000  0.312013  0.016217  1
  Th  Th6  1  0.250000  0.187881  0.515806  1
  Th  Th7  1  0.750000  0.812119  0.484194  1
  Te  Te8  1  0.250000  0.874383  0.956450  1
  Te  Te9  1  0.750000  0.125617  0.043550  1
  Te  Te10  1  0.750000  0.372817  0.544510  1
  Te  Te11  1  0.250000  0.627183  0.455490  1
  Te  Te12  1  0.250000  0.201173  0.769969  1
  Te  Te13  1  0.750000  0.798827  0.230031  1
  Te  Te14  1  0.750000  0.702330  0.722819  1
  Te  Te15  1  0.250000  0.297670  0.277181  1
  Te  Te16  1  0.250000  0.556398  0.118688  1
  Te  Te17  1  0.750000  0.443602  0.881312  1
  Te  Te18  1  0.750000  0.058447  0.383198  1
  Te  Te19  1  0.250000  0.941553  0.616802  1
