# generated using pymatgen
data_Ho2ErTm(SeO3)6
_symmetry_space_group_name_H-M   'P 1'
_cell_length_a   7.06007782
_cell_length_b   8.10950974
_cell_length_c   9.05444441
_cell_angle_alpha   71.45761848
_cell_angle_beta   70.04172286
_cell_angle_gamma   66.11682326
_symmetry_Int_Tables_number   1
_chemical_formula_structural   Ho2ErTm(SeO3)6
_chemical_formula_sum   'Ho2 Er1 Tm1 Se6 O18'
_cell_volume   435.68370651
_cell_formula_units_Z   1
loop_
 _symmetry_equiv_pos_site_id
 _symmetry_equiv_pos_as_xyz
  1  'x, y, z'
loop_
 _atom_site_type_symbol
 _atom_site_label
 _atom_site_symmetry_multiplicity
 _atom_site_fract_x
 _atom_site_fract_y
 _atom_site_fract_z
 _atom_site_occupancy
  Ho  Ho0  1  0.334676  0.726484  0.591054  1
  Ho  Ho1  1  0.665379  0.273401  0.409076  1
  Er  Er2  1  0.258249  0.264007  0.202417  1
  Tm  Tm3  1  0.741883  0.735745  0.797619  1
  Se  Se4  1  0.427150  0.775933  0.197255  1
  Se  Se5  1  0.573254  0.223488  0.802456  1
  Se  Se6  1  0.147726  0.749380  0.965327  1
  Se  Se7  1  0.852227  0.251462  0.034023  1
  Se  Se8  1  0.886289  0.760192  0.414971  1
  Se  Se9  1  0.113491  0.239819  0.585503  1
  O  O10  1  0.650187  0.791208  0.048376  1
  O  O11  1  0.349970  0.208538  0.950657  1
  O  O12  1  0.361098  0.945116  0.303491  1
  O  O13  1  0.639460  0.053633  0.696881  1
  O  O14  1  0.517645  0.594969  0.351488  1
  O  O15  1  0.482556  0.404772  0.648426  1
  O  O16  1  0.167244  0.564757  0.121026  1
  O  O17  1  0.832272  0.436773  0.878579  1
  O  O18  1  0.409492  0.709950  0.848656  1
  O  O19  1  0.591068  0.290159  0.151124  1
  O  O20  1  0.344261  0.252903  0.435269  1
  O  O21  1  0.655844  0.747027  0.565717  1
  O  O22  1  0.967286  0.292577  0.444465  1
  O  O23  1  0.032094  0.707456  0.556285  1
  O  O24  1  0.159619  0.011327  0.654009  1
  O  O25  1  0.840412  0.988633  0.345955  1
  O  O26  1  0.933556  0.306539  0.167975  1
  O  O27  1  0.065612  0.693752  0.831917  1
