# generated using pymatgen
data_NaTi2Bi2O
_symmetry_space_group_name_H-M   'P 1'
_cell_length_a   4.05847000
_cell_length_b   4.05847000
_cell_length_c   8.21609500
_cell_angle_alpha   90.00000000
_cell_angle_beta   90.00000000
_cell_angle_gamma   90.00000000
_symmetry_Int_Tables_number   1
_chemical_formula_structural   NaTi2Bi2O
_chemical_formula_sum   'Na1 Ti2 Bi2 O1'
_cell_volume   135.32876930
_cell_formula_units_Z   1
loop_
 _symmetry_equiv_pos_site_id
 _symmetry_equiv_pos_as_xyz
  1  'x, y, z'
loop_
 _atom_site_type_symbol
 _atom_site_label
 _atom_site_symmetry_multiplicity
 _atom_site_fract_x
 _atom_site_fract_y
 _atom_site_fract_z
 _atom_site_occupancy
  Na  Na0  1  0.500000  0.500000  0.500000  1
  Ti  Ti1  1  0.000000  0.500000  0.000000  1
  Ti  Ti2  1  0.500000  0.000000  0.000000  1
  Bi  Bi3  1  0.000000  0.000000  0.266132  1
  Bi  Bi4  1  0.000000  0.000000  0.733868  1
  O  O5  1  0.500000  0.500000  0.000000  1
