# generated using pymatgen
data_Er3Zr(SiMo)4
_symmetry_space_group_name_H-M   'P 1'
_cell_length_a   3.65476100
_cell_length_b   7.17186964
_cell_length_c   8.38392794
_cell_angle_alpha   90.07772068
_cell_angle_beta   90.00000000
_cell_angle_gamma   90.00000000
_symmetry_Int_Tables_number   1
_chemical_formula_structural   Er3Zr(SiMo)4
_chemical_formula_sum   'Er3 Zr1 Si4 Mo4'
_cell_volume   219.75486894
_cell_formula_units_Z   1
loop_
 _symmetry_equiv_pos_site_id
 _symmetry_equiv_pos_as_xyz
  1  'x, y, z'
loop_
 _atom_site_type_symbol
 _atom_site_label
 _atom_site_symmetry_multiplicity
 _atom_site_fract_x
 _atom_site_fract_y
 _atom_site_fract_z
 _atom_site_occupancy
  Er  Er0  1  0.250000  0.043942  0.333905  1
  Er  Er1  1  0.250000  0.541489  0.163274  1
  Er  Er2  1  0.750000  0.957404  0.667230  1
  Zr  Zr3  1  0.750000  0.457620  0.831923  1
  Si  Si4  1  0.250000  0.265798  0.641982  1
  Si  Si5  1  0.250000  0.755619  0.864196  1
  Si  Si6  1  0.750000  0.736434  0.364173  1
  Si  Si7  1  0.750000  0.238282  0.131169  1
  Mo  Mo8  1  0.250000  0.127259  0.940841  1
  Mo  Mo9  1  0.250000  0.623166  0.558379  1
  Mo  Mo10  1  0.750000  0.875459  0.054202  1
  Mo  Mo11  1  0.750000  0.377530  0.448726  1
