# generated using pymatgen
data_Pa3InRu6
_symmetry_space_group_name_H-M   'P 1'
_cell_length_a   5.74208000
_cell_length_b   7.57605800
_cell_length_c   8.65721700
_cell_angle_alpha   90.00000000
_cell_angle_beta   90.00000000
_cell_angle_gamma   90.00000000
_symmetry_Int_Tables_number   1
_chemical_formula_structural   Pa3InRu6
_chemical_formula_sum   'Pa6 In2 Ru12'
_cell_volume   376.60912052
_cell_formula_units_Z   2
loop_
 _symmetry_equiv_pos_site_id
 _symmetry_equiv_pos_as_xyz
  1  'x, y, z'
loop_
 _atom_site_type_symbol
 _atom_site_label
 _atom_site_symmetry_multiplicity
 _atom_site_fract_x
 _atom_site_fract_y
 _atom_site_fract_z
 _atom_site_occupancy
  Pa  Pa0  1  0.750000  0.901364  0.853319  1
  Pa  Pa1  1  0.750000  0.401364  0.646681  1
  Pa  Pa2  1  0.250000  0.100720  0.141875  1
  Pa  Pa3  1  0.250000  0.600720  0.358125  1
  Pa  Pa4  1  0.750000  0.938741  0.412864  1
  Pa  Pa5  1  0.750000  0.438741  0.087136  1
  In  In6  1  0.250000  0.059839  0.593354  1
  In  In7  1  0.250000  0.559839  0.906646  1
  Ru  Ru8  1  0.750000  0.580448  0.370639  1
  Ru  Ru9  1  0.750000  0.080448  0.129361  1
  Ru  Ru10  1  0.250000  0.413913  0.620642  1
  Ru  Ru11  1  0.250000  0.913913  0.879358  1
  Ru  Ru12  1  0.999802  0.256873  0.370565  1
  Ru  Ru13  1  0.500198  0.756873  0.129435  1
  Ru  Ru14  1  0.503322  0.745616  0.620158  1
  Ru  Ru15  1  0.996678  0.245616  0.879842  1
  Ru  Ru16  1  0.996678  0.745616  0.620158  1
  Ru  Ru17  1  0.503322  0.245616  0.879842  1
  Ru  Ru18  1  0.500198  0.256873  0.370565  1
  Ru  Ru19  1  0.999802  0.756873  0.129435  1
