# generated using pymatgen
data_Dy5Mg2P12Ir17
_symmetry_space_group_name_H-M   'P 1'
_cell_length_a   12.66483700
_cell_length_b   12.82338323
_cell_length_c   3.97896700
_cell_angle_alpha   90.00000000
_cell_angle_beta   90.00000000
_cell_angle_gamma   119.59184600
_symmetry_Int_Tables_number   1
_chemical_formula_structural   Dy5Mg2P12Ir17
_chemical_formula_sum   'Dy5 Mg2 P12 Ir17'
_cell_volume   561.92030039
_cell_formula_units_Z   1
loop_
 _symmetry_equiv_pos_site_id
 _symmetry_equiv_pos_as_xyz
  1  'x, y, z'
loop_
 _atom_site_type_symbol
 _atom_site_label
 _atom_site_symmetry_multiplicity
 _atom_site_fract_x
 _atom_site_fract_y
 _atom_site_fract_z
 _atom_site_occupancy
  Dy  Dy0  1  0.333099  0.664440  0.500000  1
  Dy  Dy1  1  0.668659  0.335560  0.500000  1
  Dy  Dy2  1  0.002037  0.813125  0.000000  1
  Dy  Dy3  1  0.188912  0.186875  0.000000  1
  Dy  Dy4  1  0.810154  0.000000  0.000000  1
  Mg  Mg5  1  0.998005  0.444627  0.500000  1
  Mg  Mg6  1  0.553378  0.555373  0.500000  1
  P  P7  1  0.003041  0.643607  0.500000  1
  P  P8  1  0.359433  0.356393  0.500000  1
  P  P9  1  0.642820  0.000000  0.500000  1
  P  P10  1  0.513990  0.685884  0.000000  1
  P  P11  1  0.308459  0.824541  0.000000  1
  P  P12  1  0.169007  0.481587  0.000000  1
  P  P13  1  0.483918  0.175459  0.000000  1
  P  P14  1  0.687420  0.518413  0.000000  1
  P  P15  1  0.828105  0.314116  0.000000  1
  P  P16  1  0.998725  0.175963  0.500000  1
  P  P17  1  0.822762  0.824037  0.500000  1
  P  P18  1  0.178676  0.000000  0.500000  1
  Ir  Ir19  1  0.505077  0.866084  0.000000  1
  Ir  Ir20  1  0.128665  0.639992  0.000000  1
  Ir  Ir21  1  0.357793  0.492362  0.000000  1
  Ir  Ir22  1  0.488674  0.360008  0.000000  1
  Ir  Ir23  1  0.865433  0.507638  0.000000  1
  Ir  Ir24  1  0.638994  0.133916  0.000000  1
  Ir  Ir25  1  0.462146  0.000000  0.500000  1
  Ir  Ir26  1  0.996470  0.279481  0.000000  1
  Ir  Ir27  1  0.716989  0.720519  0.000000  1
  Ir  Ir28  1  0.287192  0.000000  0.000000  1
  Ir  Ir29  1  0.622970  0.807124  0.500000  1
  Ir  Ir30  1  0.200783  0.824834  0.500000  1
  Ir  Ir31  1  0.176905  0.367740  0.500000  1
  Ir  Ir32  1  0.375949  0.175166  0.500000  1
  Ir  Ir33  1  0.809165  0.632260  0.500000  1
  Ir  Ir34  1  0.815846  0.192876  0.500000  1
  Ir  Ir35  1  0.000348  0.000000  0.500000  1
