# generated using pymatgen
data_Ho5BRh7Au8
_symmetry_space_group_name_H-M   'P 1'
_cell_length_a   4.15645000
_cell_length_b   4.15645000
_cell_length_c   21.39119400
_cell_angle_alpha   90.00000000
_cell_angle_beta   90.00000000
_cell_angle_gamma   90.00000000
_symmetry_Int_Tables_number   1
_chemical_formula_structural   Ho5BRh7Au8
_chemical_formula_sum   'Ho5 B1 Rh7 Au8'
_cell_volume   369.55590616
_cell_formula_units_Z   1
loop_
 _symmetry_equiv_pos_site_id
 _symmetry_equiv_pos_as_xyz
  1  'x, y, z'
loop_
 _atom_site_type_symbol
 _atom_site_label
 _atom_site_symmetry_multiplicity
 _atom_site_fract_x
 _atom_site_fract_y
 _atom_site_fract_z
 _atom_site_occupancy
  Ho  Ho0  1  0.000000  0.000000  0.906988  1
  Ho  Ho1  1  0.000000  0.000000  0.093012  1
  Ho  Ho2  1  0.000000  0.000000  0.297625  1
  Ho  Ho3  1  0.000000  0.000000  0.500000  1
  Ho  Ho4  1  0.000000  0.000000  0.702375  1
  B  B5  1  0.500000  0.500000  0.000000  1
  Rh  Rh6  1  0.500000  0.500000  0.899629  1
  Rh  Rh7  1  0.500000  0.500000  0.100371  1
  Rh  Rh8  1  0.500000  0.500000  0.299186  1
  Rh  Rh9  1  0.500000  0.500000  0.500000  1
  Rh  Rh10  1  0.500000  0.500000  0.700814  1
  Rh  Rh11  1  0.500000  0.000000  0.000000  1
  Rh  Rh12  1  0.000000  0.500000  0.000000  1
  Au  Au13  1  0.500000  0.000000  0.198077  1
  Au  Au14  1  0.500000  0.000000  0.399299  1
  Au  Au15  1  0.500000  0.000000  0.600701  1
  Au  Au16  1  0.500000  0.000000  0.801923  1
  Au  Au17  1  0.000000  0.500000  0.198077  1
  Au  Au18  1  0.000000  0.500000  0.399299  1
  Au  Au19  1  0.000000  0.500000  0.600701  1
  Au  Au20  1  0.000000  0.500000  0.801923  1
