# generated using pymatgen
data_YScVB6
_symmetry_space_group_name_H-M   'P 1'
_cell_length_a   3.47141100
_cell_length_b   9.08706100
_cell_length_c   11.42785000
_cell_angle_alpha   90.00000000
_cell_angle_beta   90.00000000
_cell_angle_gamma   90.00000000
_symmetry_Int_Tables_number   1
_chemical_formula_structural   YScVB6
_chemical_formula_sum   'Y4 Sc4 V4 B24'
_cell_volume   360.49065417
_cell_formula_units_Z   4
loop_
 _symmetry_equiv_pos_site_id
 _symmetry_equiv_pos_as_xyz
  1  'x, y, z'
loop_
 _atom_site_type_symbol
 _atom_site_label
 _atom_site_symmetry_multiplicity
 _atom_site_fract_x
 _atom_site_fract_y
 _atom_site_fract_z
 _atom_site_occupancy
  Y  Y0  1  0.000000  0.822622  0.085340  1
  Y  Y1  1  0.000000  0.177378  0.914660  1
  Y  Y2  1  0.000000  0.322622  0.414660  1
  Y  Y3  1  0.000000  0.677378  0.585340  1
  Sc  Sc4  1  0.000000  0.443417  0.130989  1
  Sc  Sc5  1  0.000000  0.556583  0.869011  1
  Sc  Sc6  1  0.000000  0.943417  0.369011  1
  Sc  Sc7  1  0.000000  0.056583  0.630989  1
  V  V8  1  0.000000  0.142350  0.182096  1
  V  V9  1  0.000000  0.857650  0.817904  1
  V  V10  1  0.000000  0.642350  0.317904  1
  V  V11  1  0.000000  0.357650  0.682096  1
  B  B12  1  0.500000  0.053957  0.066645  1
  B  B13  1  0.500000  0.946043  0.933355  1
  B  B14  1  0.500000  0.553957  0.433355  1
  B  B15  1  0.500000  0.446043  0.566645  1
  B  B16  1  0.500000  0.254578  0.081649  1
  B  B17  1  0.500000  0.745422  0.918351  1
  B  B18  1  0.500000  0.754578  0.418351  1
  B  B19  1  0.500000  0.245422  0.581649  1
  B  B20  1  0.500000  0.296019  0.236014  1
  B  B21  1  0.500000  0.703981  0.763986  1
  B  B22  1  0.500000  0.796019  0.263986  1
  B  B23  1  0.500000  0.203981  0.736014  1
  B  B24  1  0.500000  0.129349  0.317883  1
  B  B25  1  0.500000  0.870651  0.682117  1
  B  B26  1  0.500000  0.629349  0.182117  1
  B  B27  1  0.500000  0.370651  0.817883  1
  B  B28  1  0.500000  0.481142  0.285937  1
  B  B29  1  0.500000  0.518858  0.714063  1
  B  B30  1  0.500000  0.981142  0.214063  1
  B  B31  1  0.500000  0.018858  0.785937  1
  B  B32  1  0.500000  0.094969  0.474070  1
  B  B33  1  0.500000  0.905031  0.525930  1
  B  B34  1  0.500000  0.594969  0.025930  1
  B  B35  1  0.500000  0.405031  0.974070  1
