# generated using pymatgen
data_Ta9Nb6Co8OsN4
_symmetry_space_group_name_H-M   'P 1'
_cell_length_a   8.21326571
_cell_length_b   8.21326587
_cell_length_c   8.21326623
_cell_angle_alpha   59.40310248
_cell_angle_beta   59.40310536
_cell_angle_gamma   59.40310291
_symmetry_Int_Tables_number   1
_chemical_formula_structural   Ta9Nb6Co8OsN4
_chemical_formula_sum   'Ta9 Nb6 Co8 Os1 N4'
_cell_volume   386.44991406
_cell_formula_units_Z   1
loop_
 _symmetry_equiv_pos_site_id
 _symmetry_equiv_pos_as_xyz
  1  'x, y, z'
loop_
 _atom_site_type_symbol
 _atom_site_label
 _atom_site_symmetry_multiplicity
 _atom_site_fract_x
 _atom_site_fract_y
 _atom_site_fract_z
 _atom_site_occupancy
  Ta  Ta0  1  0.126101  0.624133  0.624133  1
  Ta  Ta1  1  0.624133  0.126101  0.624133  1
  Ta  Ta2  1  0.624133  0.624133  0.126101  1
  Ta  Ta3  1  0.442923  0.442923  0.053658  1
  Ta  Ta4  1  0.065010  0.065010  0.436052  1
  Ta  Ta5  1  0.442923  0.053658  0.442923  1
  Ta  Ta6  1  0.065010  0.436052  0.065010  1
  Ta  Ta7  1  0.053658  0.442923  0.442923  1
  Ta  Ta8  1  0.436052  0.065010  0.065010  1
  Nb  Nb9  1  0.807270  0.807270  0.196295  1
  Nb  Nb10  1  0.183693  0.183693  0.816385  1
  Nb  Nb11  1  0.807270  0.196295  0.807270  1
  Nb  Nb12  1  0.183693  0.816385  0.183693  1
  Nb  Nb13  1  0.196295  0.807270  0.807270  1
  Nb  Nb14  1  0.816385  0.183693  0.183693  1
  Co  Co15  1  0.736966  0.423296  0.423296  1
  Co  Co16  1  0.423296  0.736966  0.423296  1
  Co  Co17  1  0.423296  0.423296  0.736966  1
  Co  Co18  1  0.414158  0.414158  0.414158  1
  Co  Co19  1  0.517265  0.826470  0.826470  1
  Co  Co20  1  0.826470  0.517265  0.826470  1
  Co  Co21  1  0.826470  0.826470  0.517265  1
  Co  Co22  1  0.831190  0.831190  0.831190  1
  Os  Os23  1  0.625418  0.625418  0.625418  1
  N  N24  1  0.620889  0.126408  0.126408  1
  N  N25  1  0.126408  0.620889  0.126408  1
  N  N26  1  0.126408  0.126408  0.620889  1
  N  N27  1  0.127218  0.127218  0.127218  1
