# generated using pymatgen
data_Ho4Ga8AgAu3
_symmetry_space_group_name_H-M   'P 1'
_cell_length_a   4.39187800
_cell_length_b   6.86930402
_cell_length_c   10.24184504
_cell_angle_alpha   90.00044626
_cell_angle_beta   90.00000000
_cell_angle_gamma   90.00000000
_symmetry_Int_Tables_number   1
_chemical_formula_structural   Ho4Ga8AgAu3
_chemical_formula_sum   'Ho4 Ga8 Ag1 Au3'
_cell_volume   308.98771046
_cell_formula_units_Z   1
loop_
 _symmetry_equiv_pos_site_id
 _symmetry_equiv_pos_as_xyz
  1  'x, y, z'
loop_
 _atom_site_type_symbol
 _atom_site_label
 _atom_site_symmetry_multiplicity
 _atom_site_fract_x
 _atom_site_fract_y
 _atom_site_fract_z
 _atom_site_occupancy
  Ho  Ho0  1  0.250000  0.772726  0.826588  1
  Ho  Ho1  1  0.750000  0.227995  0.172091  1
  Ho  Ho2  1  0.750000  0.724133  0.325168  1
  Ho  Ho3  1  0.250000  0.274047  0.675073  1
  Ga  Ga4  1  0.250000  0.929176  0.155019  1
  Ga  Ga5  1  0.750000  0.070935  0.845031  1
  Ga  Ga6  1  0.750000  0.571460  0.653138  1
  Ga  Ga7  1  0.250000  0.429125  0.347548  1
  Ga  Ga8  1  0.250000  0.702272  0.536913  1
  Ga  Ga9  1  0.750000  0.298448  0.464139  1
  Ga  Ga10  1  0.750000  0.798175  0.035501  1
  Ga  Ga11  1  0.250000  0.200914  0.963618  1
  Ag  Ag12  1  0.250000  0.044654  0.402731  1
  Au  Au13  1  0.250000  0.543820  0.100776  1
  Au  Au14  1  0.750000  0.455898  0.898887  1
  Au  Au15  1  0.750000  0.956222  0.597779  1
