# generated using pymatgen
data_Ce3Nd(SnRh2)2
_symmetry_space_group_name_H-M   'P 1'
_cell_length_a   7.64604769
_cell_length_b   7.64604778
_cell_length_c   3.79860200
_cell_angle_alpha   90.00000000
_cell_angle_beta   90.00000000
_cell_angle_gamma   91.49186435
_symmetry_Int_Tables_number   1
_chemical_formula_structural   Ce3Nd(SnRh2)2
_chemical_formula_sum   'Ce3 Nd1 Sn2 Rh4'
_cell_volume   221.99876862
_cell_formula_units_Z   1
loop_
 _symmetry_equiv_pos_site_id
 _symmetry_equiv_pos_as_xyz
  1  'x, y, z'
loop_
 _atom_site_type_symbol
 _atom_site_label
 _atom_site_symmetry_multiplicity
 _atom_site_fract_x
 _atom_site_fract_y
 _atom_site_fract_z
 _atom_site_occupancy
  Ce  Ce0  1  0.675390  0.169768  0.500000  1
  Ce  Ce1  1  0.330232  0.824610  0.500000  1
  Ce  Ce2  1  0.173273  0.326727  0.500000  1
  Nd  Nd3  1  0.827035  0.672965  0.500000  1
  Sn  Sn4  1  0.003563  0.996311  0.000000  1
  Sn  Sn5  1  0.503689  0.496437  0.000000  1
  Rh  Rh6  1  0.147855  0.630872  0.000000  1
  Rh  Rh7  1  0.869128  0.352145  0.000000  1
  Rh  Rh8  1  0.615348  0.884652  0.000000  1
  Rh  Rh9  1  0.354486  0.145514  0.000000  1
