# generated using pymatgen
data_DyTlIn2(SbO4)4
_symmetry_space_group_name_H-M   'P 1'
_cell_length_a   5.35179718
_cell_length_b   7.56577510
_cell_length_c   7.68354311
_cell_angle_alpha   79.66450570
_cell_angle_beta   92.04950408
_cell_angle_gamma   88.95882877
_symmetry_Int_Tables_number   1
_chemical_formula_structural   DyTlIn2(SbO4)4
_chemical_formula_sum   'Dy1 Tl1 In2 Sb4 O16'
_cell_volume   305.77094978
_cell_formula_units_Z   1
loop_
 _symmetry_equiv_pos_site_id
 _symmetry_equiv_pos_as_xyz
  1  'x, y, z'
loop_
 _atom_site_type_symbol
 _atom_site_label
 _atom_site_symmetry_multiplicity
 _atom_site_fract_x
 _atom_site_fract_y
 _atom_site_fract_z
 _atom_site_occupancy
  Dy  Dy0  1  0.743801  0.376232  0.867084  1
  Tl  Tl1  1  0.253306  0.626661  0.135424  1
  In  In2  1  0.774694  0.869487  0.831011  1
  In  In3  1  0.224514  0.131245  0.168174  1
  Sb  Sb4  1  0.748705  0.810374  0.329311  1
  Sb  Sb5  1  0.252334  0.188997  0.672789  1
  Sb  Sb6  1  0.266022  0.690261  0.662278  1
  Sb  Sb7  1  0.730995  0.308130  0.340318  1
  O  O8  1  0.440306  0.892987  0.188056  1
  O  O9  1  0.568702  0.111137  0.806436  1
  O  O10  1  0.984688  0.616510  0.813892  1
  O  O11  1  0.003103  0.387511  0.169921  1
  O  O12  1  0.923603  0.818626  0.100788  1
  O  O13  1  0.077956  0.186883  0.898362  1
  O  O14  1  0.481878  0.671145  0.888613  1
  O  O15  1  0.530103  0.311672  0.114700  1
  O  O16  1  0.602048  0.561853  0.328056  1
  O  O17  1  0.396193  0.436792  0.675440  1
  O  O18  1  0.121158  0.939537  0.681138  1
  O  O19  1  0.885213  0.060164  0.325365  1
  O  O20  1  0.584636  0.807856  0.563093  1
  O  O21  1  0.409261  0.194437  0.437163  1
  O  O22  1  0.075110  0.693624  0.434577  1
  O  O23  1  0.921671  0.307879  0.568009  1
