# generated using pymatgen
data_CsTmTe3O8
_symmetry_space_group_name_H-M   'P 1'
_cell_length_a   6.03945083
_cell_length_b   7.97240457
_cell_length_c   11.63999930
_cell_angle_alpha   100.59511955
_cell_angle_beta   89.25263279
_cell_angle_gamma   110.08626663
_symmetry_Int_Tables_number   1
_chemical_formula_structural   CsTmTe3O8
_chemical_formula_sum   'Cs2 Tm2 Te6 O16'
_cell_volume   516.62843875
_cell_formula_units_Z   2
loop_
 _symmetry_equiv_pos_site_id
 _symmetry_equiv_pos_as_xyz
  1  'x, y, z'
loop_
 _atom_site_type_symbol
 _atom_site_label
 _atom_site_symmetry_multiplicity
 _atom_site_fract_x
 _atom_site_fract_y
 _atom_site_fract_z
 _atom_site_occupancy
  Cs  Cs0  1  0.820247  0.111060  0.163498  1
  Cs  Cs1  1  0.179753  0.888940  0.836502  1
  Tm  Tm2  1  0.500000  0.500000  0.000000  1
  Tm  Tm3  1  0.000000  0.500000  0.500000  1
  Te  Te4  1  0.214350  0.989284  0.420543  1
  Te  Te5  1  0.785650  0.010716  0.579457  1
  Te  Te6  1  0.079254  0.681222  0.153363  1
  Te  Te7  1  0.920746  0.318778  0.846637  1
  Te  Te8  1  0.510967  0.520151  0.333850  1
  Te  Te9  1  0.489033  0.479849  0.666150  1
  O  O10  1  0.179069  0.746653  0.425675  1
  O  O11  1  0.820931  0.253347  0.574325  1
  O  O12  1  0.230952  0.929143  0.236200  1
  O  O13  1  0.769048  0.070857  0.763800  1
  O  O14  1  0.887479  0.961623  0.398956  1
  O  O15  1  0.112521  0.038377  0.601044  1
  O  O16  1  0.292235  0.689883  0.033071  1
  O  O17  1  0.707765  0.310117  0.966929  1
  O  O18  1  0.838798  0.721912  0.073911  1
  O  O19  1  0.161202  0.278088  0.926089  1
  O  O20  1  0.410553  0.428623  0.174139  1
  O  O21  1  0.589447  0.571377  0.825861  1
  O  O22  1  0.243572  0.371819  0.401652  1
  O  O23  1  0.756428  0.628181  0.598348  1
  O  O24  1  0.725354  0.399288  0.349767  1
  O  O25  1  0.274646  0.600712  0.650233  1
