# generated using pymatgen
data_Nd2GdWO7
_symmetry_space_group_name_H-M   'P 1'
_cell_length_a   6.63403906
_cell_length_b   6.63403945
_cell_length_c   7.69399763
_cell_angle_alpha   90.07014486
_cell_angle_beta   90.07014978
_cell_angle_gamma   109.28246571
_symmetry_Int_Tables_number   1
_chemical_formula_structural   Nd2GdWO7
_chemical_formula_sum   'Nd4 Gd2 W2 O14'
_cell_volume   319.62009920
_cell_formula_units_Z   2
loop_
 _symmetry_equiv_pos_site_id
 _symmetry_equiv_pos_as_xyz
  1  'x, y, z'
loop_
 _atom_site_type_symbol
 _atom_site_label
 _atom_site_symmetry_multiplicity
 _atom_site_fract_x
 _atom_site_fract_y
 _atom_site_fract_z
 _atom_site_occupancy
  Nd  Nd0  1  0.465873  0.000136  0.255170  1
  Nd  Nd1  1  0.999864  0.534127  0.244830  1
  Nd  Nd2  1  0.484250  0.485506  0.998437  1
  Nd  Nd3  1  0.514494  0.515750  0.501563  1
  Gd  Gd4  1  0.532317  0.000997  0.751154  1
  Gd  Gd5  1  0.999003  0.467683  0.748846  1
  W  W6  1  0.999780  0.000200  0.502426  1
  W  W7  1  0.999800  0.000220  0.997574  1
  O  O8  1  0.930940  0.069060  0.750000  1
  O  O9  1  0.640870  0.359130  0.750000  1
  O  O10  1  0.314539  0.065603  0.535055  1
  O  O11  1  0.934397  0.685461  0.964945  1
  O  O12  1  0.630463  0.369537  0.250000  1
  O  O13  1  0.925311  0.683573  0.530810  1
  O  O14  1  0.316427  0.074689  0.969190  1
  O  O15  1  0.080540  0.322751  0.021253  1
  O  O16  1  0.677249  0.919460  0.478747  1
  O  O17  1  0.365171  0.634829  0.750000  1
  O  O18  1  0.690577  0.935347  0.029719  1
  O  O19  1  0.064653  0.309423  0.470281  1
  O  O20  1  0.366588  0.633412  0.250000  1
  O  O21  1  0.066897  0.933103  0.250000  1
