# generated using pymatgen
data_Sm2Dy3Pb4
_symmetry_space_group_name_H-M   'P 1'
_cell_length_a   8.21642854
_cell_length_b   8.32141759
_cell_length_c   15.67736600
_cell_angle_alpha   89.98675261
_cell_angle_beta   90.13118917
_cell_angle_gamma   90.11012668
_symmetry_Int_Tables_number   1
_chemical_formula_structural   Sm2Dy3Pb4
_chemical_formula_sum   'Sm8 Dy12 Pb16'
_cell_volume   1071.89327016
_cell_formula_units_Z   4
loop_
 _symmetry_equiv_pos_site_id
 _symmetry_equiv_pos_as_xyz
  1  'x, y, z'
loop_
 _atom_site_type_symbol
 _atom_site_label
 _atom_site_symmetry_multiplicity
 _atom_site_fract_x
 _atom_site_fract_y
 _atom_site_fract_z
 _atom_site_occupancy
  Sm  Sm0  1  0.471880  0.678703  0.597969  1
  Sm  Sm1  1  0.974036  0.821998  0.903288  1
  Sm  Sm2  1  0.526751  0.322407  0.097399  1
  Sm  Sm3  1  0.028598  0.176148  0.401080  1
  Sm  Sm4  1  0.526491  0.322289  0.401873  1
  Sm  Sm5  1  0.026369  0.177663  0.097646  1
  Sm  Sm6  1  0.474062  0.678016  0.903065  1
  Sm  Sm7  1  0.972370  0.822774  0.598095  1
  Dy  Dy8  1  0.129816  0.341346  0.620999  1
  Dy  Dy9  1  0.631271  0.158515  0.622592  1
  Dy  Dy10  1  0.131736  0.342085  0.878098  1
  Dy  Dy11  1  0.368317  0.842065  0.122120  1
  Dy  Dy12  1  0.868866  0.657680  0.377960  1
  Dy  Dy13  1  0.369943  0.841967  0.376911  1
  Dy  Dy14  1  0.868355  0.657905  0.122039  1
  Dy  Dy15  1  0.631596  0.157949  0.878418  1
  Dy  Dy16  1  0.798082  0.495253  0.750198  1
  Dy  Dy17  1  0.298211  0.004972  0.750244  1
  Dy  Dy18  1  0.202034  0.504648  0.249488  1
  Dy  Dy19  1  0.702300  0.995495  0.250080  1
  Pb  Pb20  1  0.710284  0.961360  0.457382  1
  Pb  Pb21  1  0.209192  0.539355  0.042780  1
  Pb  Pb22  1  0.290688  0.039656  0.957461  1
  Pb  Pb23  1  0.787325  0.462596  0.543045  1
  Pb  Pb24  1  0.290992  0.037585  0.542632  1
  Pb  Pb25  1  0.791198  0.460578  0.957234  1
  Pb  Pb26  1  0.709258  0.960367  0.042993  1
  Pb  Pb27  1  0.209852  0.539421  0.456474  1
  Pb  Pb28  1  0.434698  0.373982  0.750570  1
  Pb  Pb29  1  0.935364  0.125601  0.750478  1
  Pb  Pb30  1  0.565154  0.625540  0.249538  1
  Pb  Pb31  1  0.064686  0.873845  0.249754  1
  Pb  Pb32  1  0.661843  0.847450  0.750675  1
  Pb  Pb33  1  0.161530  0.652624  0.750343  1
  Pb  Pb34  1  0.338446  0.152919  0.249338  1
  Pb  Pb35  1  0.838413  0.347240  0.249743  1
