# generated using pymatgen
data_CsCr(SeO4)2
_symmetry_space_group_name_H-M   'P 1'
_cell_length_a   5.12031400
_cell_length_b   5.12027391
_cell_length_c   9.32816300
_cell_angle_alpha   90.00127232
_cell_angle_beta   89.99928787
_cell_angle_gamma   119.99978239
_symmetry_Int_Tables_number   1
_chemical_formula_structural   CsCr(SeO4)2
_chemical_formula_sum   'Cs1 Cr1 Se2 O8'
_cell_volume   211.79587569
_cell_formula_units_Z   1
loop_
 _symmetry_equiv_pos_site_id
 _symmetry_equiv_pos_as_xyz
  1  'x, y, z'
loop_
 _atom_site_type_symbol
 _atom_site_label
 _atom_site_symmetry_multiplicity
 _atom_site_fract_x
 _atom_site_fract_y
 _atom_site_fract_z
 _atom_site_occupancy
  Cs  Cs0  1  0.000000  0.000000  0.500000  1
  Cr  Cr1  1  0.000000  0.000000  0.000000  1
  Se  Se2  1  0.333335  0.666674  0.185013  1
  Se  Se3  1  0.666666  0.333326  0.814987  1
  O  O4  1  0.042843  0.334805  0.129169  1
  O  O5  1  0.665197  0.708046  0.129163  1
  O  O6  1  0.291952  0.957161  0.129169  1
  O  O7  1  0.333341  0.666684  0.361633  1
  O  O8  1  0.666660  0.333316  0.638368  1
  O  O9  1  0.708048  0.042839  0.870831  1
  O  O10  1  0.334802  0.291954  0.870837  1
  O  O11  1  0.957158  0.665195  0.870831  1
