# generated using pymatgen
data_Yb8DyThIr4
_symmetry_space_group_name_H-M   'P 1'
_cell_length_a   6.63215129
_cell_length_b   7.35070977
_cell_length_c   8.57400300
_cell_angle_alpha   97.28178439
_cell_angle_beta   112.75300148
_cell_angle_gamma   89.99999735
_symmetry_Int_Tables_number   1
_chemical_formula_structural   Yb8DyThIr4
_chemical_formula_sum   'Yb8 Dy1 Th1 Ir4'
_cell_volume   381.80530638
_cell_formula_units_Z   1
loop_
 _symmetry_equiv_pos_site_id
 _symmetry_equiv_pos_as_xyz
  1  'x, y, z'
loop_
 _atom_site_type_symbol
 _atom_site_label
 _atom_site_symmetry_multiplicity
 _atom_site_fract_x
 _atom_site_fract_y
 _atom_site_fract_z
 _atom_site_occupancy
  Yb  Yb0  1  0.977259  0.922697  0.173104  1
  Yb  Yb1  1  0.804156  0.577303  0.826896  1
  Yb  Yb2  1  0.023051  0.082929  0.826340  1
  Yb  Yb3  1  0.196710  0.417071  0.173660  1
  Yb  Yb4  1  0.643527  0.819744  0.441898  1
  Yb  Yb5  1  0.201629  0.680256  0.558102  1
  Yb  Yb6  1  0.360414  0.180866  0.565690  1
  Yb  Yb7  1  0.794722  0.319134  0.434310  1
  Dy  Dy8  1  0.566132  0.250000  0.000000  1
  Th  Th9  1  0.431887  0.750000  0.000000  1
  Ir  Ir10  1  0.807526  0.577710  0.208226  1
  Ir  Ir11  1  0.599303  0.922290  0.791774  1
  Ir  Ir12  1  0.192571  0.429864  0.791460  1
  Ir  Ir13  1  0.401110  0.070136  0.208540  1
