# generated using pymatgen
data_Rb4Ho4BiSb7Se20
_symmetry_space_group_name_H-M   'P 1'
_cell_length_a   4.10417000
_cell_length_b   12.34313763
_cell_length_c   22.19658074
_cell_angle_alpha   90.23784692
_cell_angle_beta   90.00000000
_cell_angle_gamma   90.00000000
_symmetry_Int_Tables_number   1
_chemical_formula_structural   Rb4Ho4BiSb7Se20
_chemical_formula_sum   'Rb4 Ho4 Bi1 Sb7 Se20'
_cell_volume   1124.43213807
_cell_formula_units_Z   1
loop_
 _symmetry_equiv_pos_site_id
 _symmetry_equiv_pos_as_xyz
  1  'x, y, z'
loop_
 _atom_site_type_symbol
 _atom_site_label
 _atom_site_symmetry_multiplicity
 _atom_site_fract_x
 _atom_site_fract_y
 _atom_site_fract_z
 _atom_site_occupancy
  Rb  Rb0  1  0.250000  0.489993  0.210748  1
  Rb  Rb1  1  0.750000  0.510503  0.789896  1
  Rb  Rb2  1  0.750000  0.990723  0.289896  1
  Rb  Rb3  1  0.250000  0.010301  0.709621  1
  Ho  Ho4  1  0.250000  0.364398  0.023499  1
  Ho  Ho5  1  0.750000  0.634763  0.976516  1
  Ho  Ho6  1  0.750000  0.864387  0.477120  1
  Ho  Ho7  1  0.250000  0.135740  0.522770  1
  Bi  Bi8  1  0.250000  0.904192  0.925195  1
  Sb  Sb9  1  0.250000  0.808138  0.125125  1
  Sb  Sb10  1  0.750000  0.193561  0.875038  1
  Sb  Sb11  1  0.750000  0.308979  0.375918  1
  Sb  Sb12  1  0.250000  0.691078  0.624089  1
  Sb  Sb13  1  0.250000  0.597294  0.426086  1
  Sb  Sb14  1  0.750000  0.402956  0.573887  1
  Sb  Sb15  1  0.750000  0.097125  0.074657  1
  Se  Se16  1  0.250000  0.805167  0.390299  1
  Se  Se17  1  0.750000  0.195080  0.609575  1
  Se  Se18  1  0.750000  0.305484  0.110206  1
  Se  Se19  1  0.250000  0.686816  0.889869  1
  Se  Se20  1  0.250000  0.253464  0.299912  1
  Se  Se21  1  0.750000  0.746530  0.699990  1
  Se  Se22  1  0.750000  0.753526  0.200896  1
  Se  Se23  1  0.250000  0.248597  0.799461  1
  Se  Se24  1  0.250000  0.356107  0.482089  1
  Se  Se25  1  0.750000  0.644068  0.517739  1
  Se  Se26  1  0.750000  0.854984  0.019604  1
  Se  Se27  1  0.250000  0.143471  0.982271  1
  Se  Se28  1  0.250000  0.025710  0.157387  1
  Se  Se29  1  0.750000  0.978603  0.839863  1
  Se  Se30  1  0.750000  0.524772  0.342920  1
  Se  Se31  1  0.250000  0.475229  0.656987  1
  Se  Se32  1  0.250000  0.582677  0.061312  1
  Se  Se33  1  0.750000  0.415424  0.939737  1
  Se  Se34  1  0.750000  0.082628  0.438906  1
  Se  Se35  1  0.250000  0.917532  0.560917  1
