# generated using pymatgen
data_Zr2B(Ir2Rh)2
_symmetry_space_group_name_H-M   'P 1'
_cell_length_a   5.74139395
_cell_length_b   5.73991667
_cell_length_c   5.73991641
_cell_angle_alpha   60.09191455
_cell_angle_beta   59.99148860
_cell_angle_gamma   59.99148375
_symmetry_Int_Tables_number   1
_chemical_formula_structural   Zr2B(Ir2Rh)2
_chemical_formula_sum   'Zr2 B1 Ir4 Rh2'
_cell_volume   133.83148574
_cell_formula_units_Z   1
loop_
 _symmetry_equiv_pos_site_id
 _symmetry_equiv_pos_as_xyz
  1  'x, y, z'
loop_
 _atom_site_type_symbol
 _atom_site_label
 _atom_site_symmetry_multiplicity
 _atom_site_fract_x
 _atom_site_fract_y
 _atom_site_fract_z
 _atom_site_occupancy
  Zr  Zr0  1  0.749946  0.749934  0.750173  1
  Zr  Zr1  1  0.250054  0.249827  0.250066  1
  B  B2  1  0.000000  0.998895  0.001105  1
  Ir  Ir3  1  0.742327  0.257548  0.257798  1
  Ir  Ir4  1  0.258634  0.258461  0.741539  1
  Ir  Ir5  1  0.741366  0.258461  0.741539  1
  Ir  Ir6  1  0.257673  0.742202  0.742452  1
  Rh  Rh7  1  0.742407  0.742336  0.257664  1
  Rh  Rh8  1  0.257593  0.742336  0.257664  1
