# generated using pymatgen
data_La4Ga25Co
_symmetry_space_group_name_H-M   'P 1'
_cell_length_a   6.24252500
_cell_length_b   6.24252500
_cell_length_c   15.51285200
_cell_angle_alpha   90.00000000
_cell_angle_beta   90.00000000
_cell_angle_gamma   90.00000000
_symmetry_Int_Tables_number   1
_chemical_formula_structural   La4Ga25Co
_chemical_formula_sum   'La4 Ga25 Co1'
_cell_volume   604.52216593
_cell_formula_units_Z   1
loop_
 _symmetry_equiv_pos_site_id
 _symmetry_equiv_pos_as_xyz
  1  'x, y, z'
loop_
 _atom_site_type_symbol
 _atom_site_label
 _atom_site_symmetry_multiplicity
 _atom_site_fract_x
 _atom_site_fract_y
 _atom_site_fract_z
 _atom_site_occupancy
  La  La0  1  0.500000  0.000000  0.247955  1
  La  La1  1  0.000000  0.500000  0.239429  1
  La  La2  1  0.000000  0.500000  0.760571  1
  La  La3  1  0.500000  0.000000  0.752045  1
  Ga  Ga4  1  0.500000  0.500000  0.818843  1
  Ga  Ga5  1  0.000000  0.000000  0.818843  1
  Ga  Ga6  1  0.734352  0.765648  0.915136  1
  Ga  Ga7  1  0.266083  0.766083  0.914912  1
  Ga  Ga8  1  0.000000  0.000000  0.342073  1
  Ga  Ga9  1  0.265648  0.765648  0.084864  1
  Ga  Ga10  1  0.827431  0.327431  0.570092  1
  Ga  Ga11  1  0.500000  0.500000  0.342073  1
  Ga  Ga12  1  0.265648  0.234352  0.915136  1
  Ga  Ga13  1  0.733917  0.766083  0.085088  1
  Ga  Ga14  1  0.326154  0.173846  0.568972  1
  Ga  Ga15  1  0.673846  0.173846  0.431028  1
  Ga  Ga16  1  0.000000  0.000000  0.657927  1
  Ga  Ga17  1  0.172569  0.327431  0.429908  1
  Ga  Ga18  1  0.266083  0.233917  0.085088  1
  Ga  Ga19  1  0.827431  0.672569  0.429908  1
  Ga  Ga20  1  0.673846  0.826154  0.568972  1
  Ga  Ga21  1  0.000000  0.000000  0.181157  1
  Ga  Ga22  1  0.172569  0.672569  0.570092  1
  Ga  Ga23  1  0.500000  0.500000  0.657927  1
  Ga  Ga24  1  0.733917  0.233917  0.914912  1
  Ga  Ga25  1  0.500000  0.500000  0.181157  1
  Ga  Ga26  1  0.326154  0.826154  0.431028  1
  Ga  Ga27  1  0.734352  0.234352  0.084864  1
  Ga  Ga28  1  0.000000  0.500000  0.000000  1
  Co  Co29  1  0.500000  0.000000  0.000000  1
