# generated using pymatgen
data_YbZn2(PO4)2
_symmetry_space_group_name_H-M   'P 1'
_cell_length_a   5.00928223
_cell_length_b   8.46869008
_cell_length_c   9.02080276
_cell_angle_alpha   113.39789378
_cell_angle_beta   102.28656341
_cell_angle_gamma   94.31009369
_symmetry_Int_Tables_number   1
_chemical_formula_structural   YbZn2(PO4)2
_chemical_formula_sum   'Yb2 Zn4 P4 O16'
_cell_volume   337.68553784
_cell_formula_units_Z   2
loop_
 _symmetry_equiv_pos_site_id
 _symmetry_equiv_pos_as_xyz
  1  'x, y, z'
loop_
 _atom_site_type_symbol
 _atom_site_label
 _atom_site_symmetry_multiplicity
 _atom_site_fract_x
 _atom_site_fract_y
 _atom_site_fract_z
 _atom_site_occupancy
  Yb  Yb0  1  0.777525  0.266980  0.945725  1
  Yb  Yb1  1  0.222475  0.733020  0.054275  1
  Zn  Zn2  1  0.618208  0.390185  0.590010  1
  Zn  Zn3  1  0.381792  0.609815  0.409990  1
  Zn  Zn4  1  0.840821  0.082031  0.286419  1
  Zn  Zn5  1  0.159179  0.917969  0.713581  1
  P  P6  1  0.889187  0.717914  0.300244  1
  P  P7  1  0.110813  0.282086  0.699756  1
  P  P8  1  0.318802  0.207652  0.179765  1
  P  P9  1  0.681198  0.792348  0.820235  1
  O  O10  1  0.041241  0.441474  0.835197  1
  O  O11  1  0.958759  0.558526  0.164803  1
  O  O12  1  0.437011  0.048581  0.196398  1
  O  O13  1  0.562989  0.951419  0.803602  1
  O  O14  1  0.057756  0.725971  0.474141  1
  O  O15  1  0.942244  0.274029  0.525859  1
  O  O16  1  0.990933  0.117903  0.716952  1
  O  O17  1  0.009067  0.882097  0.283048  1
  O  O18  1  0.433181  0.366169  0.357646  1
  O  O19  1  0.566819  0.633831  0.642354  1
  O  O20  1  0.606114  0.743224  0.952647  1
  O  O21  1  0.393886  0.256776  0.047353  1
  O  O22  1  0.424484  0.287661  0.708523  1
  O  O23  1  0.575516  0.712339  0.291477  1
  O  O24  1  0.003740  0.828846  0.855305  1
  O  O25  1  0.996260  0.171154  0.144695  1
