# generated using pymatgen
data_Dy6Er3Tm(Si3H)2
_symmetry_space_group_name_H-M   'P 1'
_cell_length_a   8.42311300
_cell_length_b   8.42311562
_cell_length_c   6.18627500
_cell_angle_alpha   90.00000000
_cell_angle_beta   90.00000000
_cell_angle_gamma   120.00000148
_symmetry_Int_Tables_number   1
_chemical_formula_structural   Dy6Er3Tm(Si3H)2
_chemical_formula_sum   'Dy6 Er3 Tm1 Si6 H2'
_cell_volume   380.10644753
_cell_formula_units_Z   1
loop_
 _symmetry_equiv_pos_site_id
 _symmetry_equiv_pos_as_xyz
  1  'x, y, z'
loop_
 _atom_site_type_symbol
 _atom_site_label
 _atom_site_symmetry_multiplicity
 _atom_site_fract_x
 _atom_site_fract_y
 _atom_site_fract_z
 _atom_site_occupancy
  Dy  Dy0  1  0.749767  0.749776  0.749959  1
  Dy  Dy1  1  0.250224  0.999991  0.749959  1
  Dy  Dy2  1  0.000009  0.250233  0.749959  1
  Dy  Dy3  1  0.250224  0.250233  0.250041  1
  Dy  Dy4  1  0.749767  0.999991  0.250041  1
  Dy  Dy5  1  0.000009  0.749776  0.250041  1
  Er  Er6  1  0.333333  0.666667  0.000000  1
  Er  Er7  1  0.333333  0.666667  0.500000  1
  Er  Er8  1  0.666667  0.333333  0.500000  1
  Tm  Tm9  1  0.666667  0.333333  0.000000  1
  Si  Si10  1  0.391043  0.390823  0.750149  1
  Si  Si11  1  0.609177  0.000219  0.750149  1
  Si  Si12  1  0.999781  0.608957  0.750149  1
  Si  Si13  1  0.609177  0.608957  0.249851  1
  Si  Si14  1  0.391043  0.000219  0.249851  1
  Si  Si15  1  0.999781  0.390823  0.249851  1
  H  H16  1  0.000000  0.000000  0.500000  1
  H  H17  1  0.000000  0.000000  0.000000  1
