# generated using pymatgen
data_Nd2HoTh(Sn5Rh3)2
_symmetry_space_group_name_H-M   'P 1'
_cell_length_a   13.59741724
_cell_length_b   13.59741663
_cell_length_c   7.29212852
_cell_angle_alpha   89.96724288
_cell_angle_beta   90.03275631
_cell_angle_gamma   160.94035911
_symmetry_Int_Tables_number   1
_chemical_formula_structural   Nd2HoTh(Sn5Rh3)2
_chemical_formula_sum   'Nd2 Ho1 Th1 Sn10 Rh6'
_cell_volume   440.27059374
_cell_formula_units_Z   1
loop_
 _symmetry_equiv_pos_site_id
 _symmetry_equiv_pos_as_xyz
  1  'x, y, z'
loop_
 _atom_site_type_symbol
 _atom_site_label
 _atom_site_symmetry_multiplicity
 _atom_site_fract_x
 _atom_site_fract_y
 _atom_site_fract_z
 _atom_site_occupancy
  Nd  Nd0  1  0.172254  0.827746  0.747985  1
  Nd  Nd1  1  0.827486  0.172514  0.246812  1
  Ho  Ho2  1  0.525254  0.474746  0.260746  1
  Th  Th3  1  0.475937  0.524063  0.764898  1
  Sn  Sn4  1  0.878622  0.121378  0.769816  1
  Sn  Sn5  1  0.119668  0.880332  0.263018  1
  Sn  Sn6  1  0.703468  0.296532  0.450318  1
  Sn  Sn7  1  0.295592  0.704408  0.950836  1
  Sn  Sn8  1  0.596717  0.403283  0.887342  1
  Sn  Sn9  1  0.404096  0.595904  0.385027  1
  Sn  Sn10  1  0.953361  0.046639  0.109993  1
  Sn  Sn11  1  0.049377  0.950623  0.594200  1
  Sn  Sn12  1  0.288903  0.711097  0.524845  1
  Sn  Sn13  1  0.710106  0.289894  0.025179  1
  Rh  Rh14  1  0.049670  0.950330  0.979211  1
  Rh  Rh15  1  0.949513  0.050487  0.488029  1
  Rh  Rh16  1  0.777189  0.222811  0.736506  1
  Rh  Rh17  1  0.221962  0.778038  0.235870  1
  Rh  Rh18  1  0.396180  0.603820  0.011260  1
  Rh  Rh19  1  0.604645  0.395355  0.512112  1
