# generated using pymatgen
data_Nd2HfPaBi5
_symmetry_space_group_name_H-M   'P 1'
_cell_length_a   9.63630100
_cell_length_b   9.68817298
_cell_length_c   6.49310400
_cell_angle_alpha   90.00000000
_cell_angle_beta   90.00000000
_cell_angle_gamma   119.82304006
_symmetry_Int_Tables_number   1
_chemical_formula_structural   Nd2HfPaBi5
_chemical_formula_sum   'Nd4 Hf2 Pa2 Bi10'
_cell_volume   525.90450708
_cell_formula_units_Z   2
loop_
 _symmetry_equiv_pos_site_id
 _symmetry_equiv_pos_as_xyz
  1  'x, y, z'
loop_
 _atom_site_type_symbol
 _atom_site_label
 _atom_site_symmetry_multiplicity
 _atom_site_fract_x
 _atom_site_fract_y
 _atom_site_fract_z
 _atom_site_occupancy
  Nd  Nd0  1  0.997367  0.618940  0.250000  1
  Nd  Nd1  1  0.002633  0.381060  0.750000  1
  Nd  Nd2  1  0.378428  0.381060  0.250000  1
  Nd  Nd3  1  0.621572  0.618940  0.750000  1
  Hf  Hf4  1  0.000000  0.000000  0.000000  1
  Hf  Hf5  1  0.000000  0.000000  0.500000  1
  Pa  Pa6  1  0.608066  0.000000  0.250000  1
  Pa  Pa7  1  0.391934  0.000000  0.750000  1
  Bi  Bi8  1  0.270035  0.000000  0.250000  1
  Bi  Bi9  1  0.729965  0.000000  0.750000  1
  Bi  Bi10  1  0.992615  0.261514  0.250000  1
  Bi  Bi11  1  0.007385  0.738486  0.750000  1
  Bi  Bi12  1  0.731101  0.738486  0.250000  1
  Bi  Bi13  1  0.268899  0.261514  0.750000  1
  Bi  Bi14  1  0.335154  0.670309  0.000000  1
  Bi  Bi15  1  0.664846  0.329691  0.000000  1
  Bi  Bi16  1  0.664846  0.329691  0.500000  1
  Bi  Bi17  1  0.335154  0.670309  0.500000  1
