# generated using pymatgen
data_Pr3Ga2IrRh
_symmetry_space_group_name_H-M   'P 1'
_cell_length_a   5.77977433
_cell_length_b   8.21481957
_cell_length_c   13.69102517
_cell_angle_alpha   89.98297776
_cell_angle_beta   90.00623137
_cell_angle_gamma   90.03864510
_symmetry_Int_Tables_number   1
_chemical_formula_structural   Pr3Ga2IrRh
_chemical_formula_sum   'Pr12 Ga8 Ir4 Rh4'
_cell_volume   650.04700125
_cell_formula_units_Z   4
loop_
 _symmetry_equiv_pos_site_id
 _symmetry_equiv_pos_as_xyz
  1  'x, y, z'
loop_
 _atom_site_type_symbol
 _atom_site_label
 _atom_site_symmetry_multiplicity
 _atom_site_fract_x
 _atom_site_fract_y
 _atom_site_fract_z
 _atom_site_occupancy
  Pr  Pr0  1  0.632064  0.255302  0.250082  1
  Pr  Pr1  1  0.367620  0.745868  0.749940  1
  Pr  Pr2  1  0.367196  0.755349  0.249867  1
  Pr  Pr3  1  0.632394  0.243553  0.750108  1
  Pr  Pr4  1  0.147423  0.395510  0.097652  1
  Pr  Pr5  1  0.852881  0.604382  0.902213  1
  Pr  Pr6  1  0.853731  0.604980  0.598251  1
  Pr  Pr7  1  0.853420  0.895515  0.401893  1
  Pr  Pr8  1  0.145219  0.397537  0.401782  1
  Pr  Pr9  1  0.145598  0.101923  0.598061  1
  Pr  Pr10  1  0.144791  0.102569  0.901463  1
  Pr  Pr11  1  0.855435  0.897385  0.098576  1
  Ga  Ga12  1  0.136702  0.106924  0.250361  1
  Ga  Ga13  1  0.863142  0.893783  0.750034  1
  Ga  Ga14  1  0.862989  0.605813  0.249636  1
  Ga  Ga15  1  0.136895  0.393510  0.750014  1
  Ga  Ga16  1  0.628992  0.249925  0.999700  1
  Ga  Ga17  1  0.371300  0.750095  0.000273  1
  Ga  Ga18  1  0.371754  0.749917  0.499994  1
  Ga  Ga19  1  0.629079  0.250081  0.500034  1
  Ir  Ir20  1  0.358997  0.032627  0.092053  1
  Ir  Ir21  1  0.641026  0.967345  0.908173  1
  Ir  Ir22  1  0.641539  0.968278  0.592049  1
  Ir  Ir23  1  0.641520  0.531512  0.407994  1
  Rh  Rh24  1  0.359063  0.032384  0.408639  1
  Rh  Rh25  1  0.359276  0.467894  0.591315  1
  Rh  Rh26  1  0.358519  0.468662  0.908467  1
  Rh  Rh27  1  0.641434  0.531377  0.091376  1
