# generated using pymatgen
data_KNb(OF)2
_symmetry_space_group_name_H-M   'P 1'
_cell_length_a   3.87336300
_cell_length_b   7.33579837
_cell_length_c   8.11915945
_cell_angle_alpha   109.84533039
_cell_angle_beta   90.00377797
_cell_angle_gamma   90.00088697
_symmetry_Int_Tables_number   1
_chemical_formula_structural   KNb(OF)2
_chemical_formula_sum   'K2 Nb2 O4 F4'
_cell_volume   216.99882914
_cell_formula_units_Z   2
loop_
 _symmetry_equiv_pos_site_id
 _symmetry_equiv_pos_as_xyz
  1  'x, y, z'
loop_
 _atom_site_type_symbol
 _atom_site_label
 _atom_site_symmetry_multiplicity
 _atom_site_fract_x
 _atom_site_fract_y
 _atom_site_fract_z
 _atom_site_occupancy
  K  K0  1  0.263496  0.368444  0.758615  1
  K  K1  1  0.763490  0.631663  0.241587  1
  Nb  Nb2  1  0.757300  0.874799  0.810269  1
  Nb  Nb3  1  0.257296  0.125227  0.189725  1
  O  O4  1  0.754590  0.728245  0.587635  1
  O  O5  1  0.254666  0.271696  0.412325  1
  O  O6  1  0.259113  0.917511  0.878546  1
  O  O7  1  0.759126  0.082401  0.121322  1
  F  F8  1  0.262129  0.353139  0.099723  1
  F  F9  1  0.762071  0.646861  0.900300  1
  F  F10  1  0.762439  0.131075  0.771910  1
  F  F11  1  0.262484  0.868943  0.228041  1
