# generated using pymatgen
data_Ce3Al12(TcRu)2
_symmetry_space_group_name_H-M   'P 1'
_cell_length_a   8.92753453
_cell_length_b   8.92753370
_cell_length_c   9.58235469
_cell_angle_alpha   90.19580610
_cell_angle_beta   90.19580711
_cell_angle_gamma   120.06911460
_symmetry_Int_Tables_number   1
_chemical_formula_structural   Ce3Al12(TcRu)2
_chemical_formula_sum   'Ce6 Al24 Tc4 Ru4'
_cell_volume   660.92603715
_cell_formula_units_Z   2
loop_
 _symmetry_equiv_pos_site_id
 _symmetry_equiv_pos_as_xyz
  1  'x, y, z'
loop_
 _atom_site_type_symbol
 _atom_site_label
 _atom_site_symmetry_multiplicity
 _atom_site_fract_x
 _atom_site_fract_y
 _atom_site_fract_z
 _atom_site_occupancy
  Ce  Ce0  1  0.802995  0.610678  0.753419  1
  Ce  Ce1  1  0.194059  0.805941  0.250000  1
  Ce  Ce2  1  0.610678  0.802995  0.253419  1
  Ce  Ce3  1  0.389322  0.197005  0.746581  1
  Ce  Ce4  1  0.805941  0.194059  0.750000  1
  Ce  Ce5  1  0.197005  0.389322  0.246581  1
  Al  Al6  1  0.331100  0.665403  0.497492  1
  Al  Al7  1  0.665403  0.331100  0.997492  1
  Al  Al8  1  0.668900  0.334597  0.502508  1
  Al  Al9  1  0.334597  0.668900  0.002508  1
  Al  Al10  1  0.160046  0.322785  0.576654  1
  Al  Al11  1  0.677876  0.839070  0.580082  1
  Al  Al12  1  0.159784  0.837975  0.578585  1
  Al  Al13  1  0.837975  0.159784  0.078585  1
  Al  Al14  1  0.840216  0.162025  0.421415  1
  Al  Al15  1  0.839070  0.677876  0.080082  1
  Al  Al16  1  0.322785  0.160046  0.076654  1
  Al  Al17  1  0.677215  0.839954  0.923346  1
  Al  Al18  1  0.160930  0.322124  0.919918  1
  Al  Al19  1  0.839954  0.677215  0.423346  1
  Al  Al20  1  0.999614  0.000386  0.250000  1
  Al  Al21  1  0.000386  0.999614  0.750000  1
  Al  Al22  1  0.561794  0.121661  0.249252  1
  Al  Al23  1  0.437232  0.562768  0.750000  1
  Al  Al24  1  0.121661  0.561794  0.749252  1
  Al  Al25  1  0.878339  0.438206  0.250748  1
  Al  Al26  1  0.562768  0.437232  0.250000  1
  Al  Al27  1  0.438206  0.878339  0.750748  1
  Al  Al28  1  0.162025  0.840216  0.921415  1
  Al  Al29  1  0.322124  0.160930  0.419918  1
  Tc  Tc30  1  0.500000  0.000000  0.500000  1
  Tc  Tc31  1  0.500000  0.500000  0.000000  1
  Tc  Tc32  1  0.000000  0.500000  0.000000  1
  Tc  Tc33  1  0.500000  0.500000  0.500000  1
  Ru  Ru34  1  0.000000  0.000000  0.500000  1
  Ru  Ru35  1  0.000000  0.000000  0.000000  1
  Ru  Ru36  1  0.000000  0.500000  0.500000  1
  Ru  Ru37  1  0.500000  0.000000  0.000000  1
