# generated using pymatgen
data_SmCoH4
_symmetry_space_group_name_H-M   'P 1'
_cell_length_a   6.11152426
_cell_length_b   6.11152388
_cell_length_c   4.79638200
_cell_angle_alpha   90.00000000
_cell_angle_beta   90.00000000
_cell_angle_gamma   144.89146489
_symmetry_Int_Tables_number   1
_chemical_formula_structural   SmCoH4
_chemical_formula_sum   'Sm2 Co2 H8'
_cell_volume   103.03307614
_cell_formula_units_Z   2
loop_
 _symmetry_equiv_pos_site_id
 _symmetry_equiv_pos_as_xyz
  1  'x, y, z'
loop_
 _atom_site_type_symbol
 _atom_site_label
 _atom_site_symmetry_multiplicity
 _atom_site_fract_x
 _atom_site_fract_y
 _atom_site_fract_z
 _atom_site_occupancy
  Sm  Sm0  1  0.868493  0.131507  0.750000  1
  Sm  Sm1  1  0.131507  0.868493  0.250000  1
  Co  Co2  1  0.595387  0.404613  0.750000  1
  Co  Co3  1  0.404613  0.595387  0.250000  1
  H  H4  1  0.088209  0.911791  0.750000  1
  H  H5  1  0.911791  0.088209  0.250000  1
  H  H6  1  0.691504  0.308496  0.506827  1
  H  H7  1  0.308496  0.691504  0.493173  1
  H  H8  1  0.691504  0.308496  0.993173  1
  H  H9  1  0.308496  0.691504  0.006827  1
  H  H10  1  0.500000  0.500000  0.000000  1
  H  H11  1  0.500000  0.500000  0.500000  1
