# generated using pymatgen
data_TbDyB6IrRh8
_symmetry_space_group_name_H-M   'P 1'
_cell_length_a   5.60164100
_cell_length_b   5.61654225
_cell_length_c   8.59312500
_cell_angle_alpha   90.00000000
_cell_angle_beta   90.00000000
_cell_angle_gamma   119.91228078
_symmetry_Int_Tables_number   1
_chemical_formula_structural   TbDyB6IrRh8
_chemical_formula_sum   'Tb1 Dy1 B6 Ir1 Rh8'
_cell_volume   234.34153230
_cell_formula_units_Z   1
loop_
 _symmetry_equiv_pos_site_id
 _symmetry_equiv_pos_as_xyz
  1  'x, y, z'
loop_
 _atom_site_type_symbol
 _atom_site_label
 _atom_site_symmetry_multiplicity
 _atom_site_fract_x
 _atom_site_fract_y
 _atom_site_fract_z
 _atom_site_occupancy
  Tb  Tb0  1  0.000000  0.000000  0.705476  1
  Dy  Dy1  1  0.000000  0.000000  0.294498  1
  B  B2  1  0.666587  0.333174  0.000025  1
  B  B3  1  0.333413  0.666826  0.000025  1
  B  B4  1  0.666001  0.332002  0.667866  1
  B  B5  1  0.333999  0.667998  0.667866  1
  B  B6  1  0.333997  0.667995  0.332107  1
  B  B7  1  0.666003  0.332005  0.332107  1
  Ir  Ir8  1  0.500000  0.000000  0.499940  1
  Rh  Rh9  1  0.500000  0.500000  0.835663  1
  Rh  Rh10  1  0.500000  0.000000  0.836288  1
  Rh  Rh11  1  0.000000  0.500000  0.835663  1
  Rh  Rh12  1  0.500000  0.500000  0.164397  1
  Rh  Rh13  1  0.500000  0.000000  0.163770  1
  Rh  Rh14  1  0.000000  0.500000  0.164397  1
  Rh  Rh15  1  0.500000  0.500000  0.499954  1
  Rh  Rh16  1  0.000000  0.500000  0.499954  1
