# generated using pymatgen
data_TbNd6P12Rh17
_symmetry_space_group_name_H-M   'P 1'
_cell_length_a   3.99918300
_cell_length_b   11.36561000
_cell_length_c   13.05885200
_cell_angle_alpha   90.00000000
_cell_angle_beta   90.00000000
_cell_angle_gamma   90.00000000
_symmetry_Int_Tables_number   1
_chemical_formula_structural   TbNd6P12Rh17
_chemical_formula_sum   'Tb1 Nd6 P12 Rh17'
_cell_volume   593.56601489
_cell_formula_units_Z   1
loop_
 _symmetry_equiv_pos_site_id
 _symmetry_equiv_pos_as_xyz
  1  'x, y, z'
loop_
 _atom_site_type_symbol
 _atom_site_label
 _atom_site_symmetry_multiplicity
 _atom_site_fract_x
 _atom_site_fract_y
 _atom_site_fract_z
 _atom_site_occupancy
  Tb  Tb0  1  0.500000  0.500000  0.155281  1
  Nd  Nd1  1  0.000000  0.500000  0.522660  1
  Nd  Nd2  1  0.500000  0.000000  0.478332  1
  Nd  Nd3  1  0.500000  0.819277  0.206844  1
  Nd  Nd4  1  0.500000  0.180723  0.206844  1
  Nd  Nd5  1  0.000000  0.682659  0.796408  1
  Nd  Nd6  1  0.000000  0.317341  0.796408  1
  P  P7  1  0.500000  0.500000  0.880351  1
  P  P8  1  0.000000  0.000000  0.117579  1
  P  P9  1  0.500000  0.500000  0.362196  1
  P  P10  1  0.000000  0.000000  0.651709  1
  P  P11  1  0.500000  0.311251  0.617917  1
  P  P12  1  0.500000  0.688749  0.617917  1
  P  P13  1  0.000000  0.188108  0.385929  1
  P  P14  1  0.000000  0.811892  0.385929  1
  P  P15  1  0.500000  0.852112  0.888710  1
  P  P16  1  0.500000  0.147888  0.888710  1
  P  P17  1  0.000000  0.664446  0.101909  1
  P  P18  1  0.000000  0.335554  0.101909  1
  Rh  Rh19  1  0.000000  0.000000  0.828504  1
  Rh  Rh20  1  0.500000  0.500000  0.702230  1
  Rh  Rh21  1  0.000000  0.000000  0.297144  1
  Rh  Rh22  1  0.000000  0.500000  0.981815  1
  Rh  Rh23  1  0.500000  0.000000  0.017418  1
  Rh  Rh24  1  0.500000  0.326931  0.987309  1
  Rh  Rh25  1  0.500000  0.673069  0.987309  1
  Rh  Rh26  1  0.000000  0.161750  0.002944  1
  Rh  Rh27  1  0.000000  0.838250  0.002944  1
  Rh  Rh28  1  0.500000  0.287085  0.435940  1
  Rh  Rh29  1  0.500000  0.712915  0.435940  1
  Rh  Rh30  1  0.000000  0.204027  0.572804  1
  Rh  Rh31  1  0.000000  0.795973  0.572804  1
  Rh  Rh32  1  0.500000  0.876596  0.709439  1
  Rh  Rh33  1  0.500000  0.123404  0.709439  1
  Rh  Rh34  1  0.000000  0.627107  0.296239  1
  Rh  Rh35  1  0.000000  0.372893  0.296239  1
