# generated using pymatgen
data_Nd2Dy5LuS12
_symmetry_space_group_name_H-M   'P 1'
_cell_length_a   3.99513600
_cell_length_b   11.06982039
_cell_length_c   11.32076000
_cell_angle_alpha   71.19031321
_cell_angle_beta   90.00000000
_cell_angle_gamma   90.00000000
_symmetry_Int_Tables_number   1
_chemical_formula_structural   Nd2Dy5LuS12
_chemical_formula_sum   'Nd2 Dy5 Lu1 S12'
_cell_volume   473.92740521
_cell_formula_units_Z   1
loop_
 _symmetry_equiv_pos_site_id
 _symmetry_equiv_pos_as_xyz
  1  'x, y, z'
loop_
 _atom_site_type_symbol
 _atom_site_label
 _atom_site_symmetry_multiplicity
 _atom_site_fract_x
 _atom_site_fract_y
 _atom_site_fract_z
 _atom_site_occupancy
  Nd  Nd0  1  0.750000  0.548820  0.805257  1
  Nd  Nd1  1  0.250000  0.450414  0.195149  1
  Dy  Dy2  1  0.750000  0.181032  0.996918  1
  Dy  Dy3  1  0.250000  0.818890  0.001324  1
  Dy  Dy4  1  0.750000  0.943569  0.666821  1
  Dy  Dy5  1  0.250000  0.059261  0.333038  1
  Dy  Dy6  1  0.750000  0.659379  0.414198  1
  Lu  Lu7  1  0.250000  0.340459  0.586951  1
  S  S8  1  0.750000  0.978494  0.889040  1
  S  S9  1  0.250000  0.021922  0.111353  1
  S  S10  1  0.750000  0.304772  0.745204  1
  S  S11  1  0.250000  0.694364  0.251226  1
  S  S12  1  0.750000  0.894218  0.442317  1
  S  S13  1  0.250000  0.109673  0.558577  1
  S  S14  1  0.750000  0.415231  0.408992  1
  S  S15  1  0.250000  0.579358  0.595652  1
  S  S16  1  0.750000  0.236295  0.227436  1
  S  S17  1  0.250000  0.765051  0.771064  1
  S  S18  1  0.750000  0.615990  0.036975  1
  S  S19  1  0.250000  0.382809  0.962507  1
