# generated using pymatgen
data_Tb4U4Re(B8Ru)3
_symmetry_space_group_name_H-M   'P 1'
_cell_length_a   3.61432800
_cell_length_b   9.33995650
_cell_length_c   11.44136761
_cell_angle_alpha   90.03740356
_cell_angle_beta   90.00000000
_cell_angle_gamma   90.00000000
_symmetry_Int_Tables_number   1
_chemical_formula_structural   Tb4U4Re(B8Ru)3
_chemical_formula_sum   'Tb4 U4 Re1 B24 Ru3'
_cell_volume   386.23378734
_cell_formula_units_Z   1
loop_
 _symmetry_equiv_pos_site_id
 _symmetry_equiv_pos_as_xyz
  1  'x, y, z'
loop_
 _atom_site_type_symbol
 _atom_site_label
 _atom_site_symmetry_multiplicity
 _atom_site_fract_x
 _atom_site_fract_y
 _atom_site_fract_z
 _atom_site_occupancy
  Tb  Tb0  1  0.000000  0.336703  0.407754  1
  Tb  Tb1  1  0.000000  0.664492  0.593757  1
  Tb  Tb2  1  0.000000  0.836769  0.091465  1
  Tb  Tb3  1  0.000000  0.162715  0.907083  1
  U  U4  1  0.000000  0.957532  0.397568  1
  U  U5  1  0.000000  0.040940  0.602353  1
  U  U6  1  0.000000  0.457052  0.102365  1
  U  U7  1  0.000000  0.544036  0.898532  1
  Re  Re8  1  0.000000  0.854293  0.818791  1
  B  B9  1  0.500000  0.552124  0.430731  1
  B  B10  1  0.500000  0.448140  0.569373  1
  B  B11  1  0.500000  0.052409  0.069412  1
  B  B12  1  0.500000  0.948300  0.931015  1
  B  B13  1  0.500000  0.742990  0.422482  1
  B  B14  1  0.500000  0.256923  0.577262  1
  B  B15  1  0.500000  0.243313  0.077461  1
  B  B16  1  0.500000  0.756948  0.923235  1
  B  B17  1  0.500000  0.801919  0.274396  1
  B  B18  1  0.500000  0.198410  0.724972  1
  B  B19  1  0.500000  0.301982  0.225647  1
  B  B20  1  0.500000  0.698041  0.775239  1
  B  B21  1  0.500000  0.643775  0.189017  1
  B  B22  1  0.500000  0.355788  0.811096  1
  B  B23  1  0.500000  0.144098  0.311179  1
  B  B24  1  0.500000  0.856078  0.688510  1
  B  B25  1  0.500000  0.988995  0.218941  1
  B  B26  1  0.500000  0.011398  0.780206  1
  B  B27  1  0.500000  0.488718  0.281092  1
  B  B28  1  0.500000  0.510297  0.719281  1
  B  B29  1  0.500000  0.641034  0.039782  1
  B  B30  1  0.500000  0.358067  0.960668  1
  B  B31  1  0.500000  0.141981  0.460732  1
  B  B32  1  0.500000  0.858309  0.538416  1
  Ru  Ru33  1  0.000000  0.645292  0.319303  1
  Ru  Ru34  1  0.000000  0.354967  0.680324  1
  Ru  Ru35  1  0.000000  0.145172  0.180561  1
