# generated using pymatgen
data_NaTa8MnS16
_symmetry_space_group_name_H-M   'P 1'
_cell_length_a   6.70023635
_cell_length_b   6.69292922
_cell_length_c   13.58286697
_cell_angle_alpha   90.13495940
_cell_angle_beta   90.05317326
_cell_angle_gamma   119.93480926
_symmetry_Int_Tables_number   1
_chemical_formula_structural   NaTa8MnS16
_chemical_formula_sum   'Na1 Ta8 Mn1 S16'
_cell_volume   527.85041277
_cell_formula_units_Z   1
loop_
 _symmetry_equiv_pos_site_id
 _symmetry_equiv_pos_as_xyz
  1  'x, y, z'
loop_
 _atom_site_type_symbol
 _atom_site_label
 _atom_site_symmetry_multiplicity
 _atom_site_fract_x
 _atom_site_fract_y
 _atom_site_fract_z
 _atom_site_occupancy
  Na  Na0  1  0.000000  0.000000  0.500000  1
  Ta  Ta1  1  0.505756  0.495778  0.770504  1
  Ta  Ta2  1  0.010516  0.505121  0.229521  1
  Ta  Ta3  1  0.494027  0.989338  0.229481  1
  Ta  Ta4  1  0.505973  0.010662  0.770519  1
  Ta  Ta5  1  0.989484  0.494879  0.770479  1
  Ta  Ta6  1  0.494244  0.504222  0.229496  1
  Ta  Ta7  1  0.999112  0.999971  0.770317  1
  Ta  Ta8  1  0.000888  0.000029  0.229683  1
  Mn  Mn9  1  0.000000  0.000000  0.000000  1
  S  S10  1  0.832332  0.167873  0.342842  1
  S  S11  1  0.832427  0.664844  0.342948  1
  S  S12  1  0.335793  0.168027  0.343285  1
  S  S13  1  0.664612  0.832827  0.884989  1
  S  S14  1  0.167573  0.335156  0.657052  1
  S  S15  1  0.168311  0.833402  0.884542  1
  S  S16  1  0.168642  0.336614  0.884677  1
  S  S17  1  0.831689  0.166598  0.115458  1
  S  S18  1  0.335388  0.167173  0.115011  1
  S  S19  1  0.664207  0.831973  0.656715  1
  S  S20  1  0.333040  0.665749  0.113193  1
  S  S21  1  0.666258  0.333239  0.652569  1
  S  S22  1  0.666960  0.334251  0.886807  1
  S  S23  1  0.333742  0.666761  0.347431  1
  S  S24  1  0.831358  0.663386  0.115323  1
  S  S25  1  0.167668  0.832127  0.657158  1
