# generated using pymatgen
data_Sc6ZnAs5Ru6
_symmetry_space_group_name_H-M   'P 1'
_cell_length_a   7.70744629
_cell_length_b   7.71702798
_cell_length_c   7.70744651
_cell_angle_alpha   127.84806974
_cell_angle_beta   122.42995417
_cell_angle_gamma   81.34909462
_symmetry_Int_Tables_number   1
_chemical_formula_structural   Sc6ZnAs5Ru6
_chemical_formula_sum   'Sc6 Zn1 As5 Ru6'
_cell_volume   294.36216016
_cell_formula_units_Z   1
loop_
 _symmetry_equiv_pos_site_id
 _symmetry_equiv_pos_as_xyz
  1  'x, y, z'
loop_
 _atom_site_type_symbol
 _atom_site_label
 _atom_site_symmetry_multiplicity
 _atom_site_fract_x
 _atom_site_fract_y
 _atom_site_fract_z
 _atom_site_occupancy
  Sc  Sc0  1  0.459055  0.677085  0.718031  1
  Sc  Sc1  1  0.534257  0.254869  0.220612  1
  Sc  Sc2  1  0.746981  0.842111  0.595130  1
  Sc  Sc3  1  0.250078  0.847843  0.097764  1
  Sc  Sc4  1  0.060052  0.253403  0.693351  1
  Sc  Sc5  1  0.948911  0.652466  0.203555  1
  Zn  Zn6  1  0.270927  0.268119  0.497193  1
  As  As7  1  0.733860  0.240620  0.006760  1
  As  As8  1  0.330580  0.584542  0.251006  1
  As  As9  1  0.667557  0.920845  0.255399  1
  As  As10  1  0.165445  0.920845  0.753287  1
  As  As11  1  0.833536  0.584542  0.753961  1
  Ru  Ru12  1  0.506417  0.500795  0.008491  1
  Ru  Ru13  1  0.992305  0.500795  0.494380  1
  Ru  Ru14  1  0.090142  0.251315  0.093463  1
  Ru  Ru15  1  0.886309  0.004046  0.138309  1
  Ru  Ru16  1  0.365737  0.004046  0.617737  1
  Ru  Ru17  1  0.657851  0.251315  0.661172  1
