# generated using pymatgen
data_Th2MnCrC3
_symmetry_space_group_name_H-M   'P 1'
_cell_length_a   5.52141331
_cell_length_b   5.52141177
_cell_length_c   5.80575326
_cell_angle_alpha   76.93216473
_cell_angle_beta   76.93216897
_cell_angle_gamma   36.12340139
_symmetry_Int_Tables_number   1
_chemical_formula_structural   Th2MnCrC3
_chemical_formula_sum   'Th2 Mn1 Cr1 C3'
_cell_volume   101.34895795
_cell_formula_units_Z   1
loop_
 _symmetry_equiv_pos_site_id
 _symmetry_equiv_pos_as_xyz
  1  'x, y, z'
loop_
 _atom_site_type_symbol
 _atom_site_label
 _atom_site_symmetry_multiplicity
 _atom_site_fract_x
 _atom_site_fract_y
 _atom_site_fract_z
 _atom_site_occupancy
  Th  Th0  1  0.396432  0.396432  0.824394  1
  Th  Th1  1  0.606505  0.606505  0.175973  1
  Mn  Mn2  1  0.160486  0.160486  0.599914  1
  Cr  Cr3  1  0.839189  0.839189  0.402263  1
  C  C4  1  0.999765  0.999765  0.499460  1
  C  C5  1  0.716675  0.716675  0.726127  1
  C  C6  1  0.280947  0.280947  0.271869  1
