# generated using pymatgen
data_Th2In(AsRh2)6
_symmetry_space_group_name_H-M   'P 1'
_cell_length_a   10.12526000
_cell_length_b   10.12526054
_cell_length_c   4.00567300
_cell_angle_alpha   90.00000000
_cell_angle_beta   90.00000000
_cell_angle_gamma   119.99999825
_symmetry_Int_Tables_number   1
_chemical_formula_structural   Th2In(AsRh2)6
_chemical_formula_sum   'Th2 In1 As6 Rh12'
_cell_volume   355.64648727
_cell_formula_units_Z   1
loop_
 _symmetry_equiv_pos_site_id
 _symmetry_equiv_pos_as_xyz
  1  'x, y, z'
loop_
 _atom_site_type_symbol
 _atom_site_label
 _atom_site_symmetry_multiplicity
 _atom_site_fract_x
 _atom_site_fract_y
 _atom_site_fract_z
 _atom_site_occupancy
  Th  Th0  1  0.333333  0.666667  0.752996  1
  Th  Th1  1  0.000000  0.000000  0.248526  1
  In  In2  1  0.666667  0.333333  0.586702  1
  As  As3  1  0.954629  0.220328  0.747015  1
  As  As4  1  0.779672  0.734302  0.747015  1
  As  As5  1  0.265698  0.045371  0.747015  1
  As  As6  1  0.377612  0.443776  0.254724  1
  As  As7  1  0.556224  0.933836  0.254724  1
  As  As8  1  0.066164  0.622388  0.254724  1
  Rh  Rh9  1  0.736406  0.951404  0.749330  1
  Rh  Rh10  1  0.048596  0.785001  0.749330  1
  Rh  Rh11  1  0.214999  0.263594  0.749330  1
  Rh  Rh12  1  0.598903  0.717869  0.252306  1
  Rh  Rh13  1  0.282131  0.881035  0.252306  1
  Rh  Rh14  1  0.118965  0.401097  0.252306  1
  Rh  Rh15  1  0.959436  0.464019  0.757865  1
  Rh  Rh16  1  0.535981  0.495417  0.757865  1
  Rh  Rh17  1  0.504583  0.040564  0.757865  1
  Rh  Rh18  1  0.387860  0.206485  0.244080  1
  Rh  Rh19  1  0.793515  0.181374  0.244080  1
  Rh  Rh20  1  0.818626  0.612140  0.244080  1
