# generated using pymatgen
data_Er2Al9NiIr2
_symmetry_space_group_name_H-M   'P 1'
_cell_length_a   7.49660373
_cell_length_b   7.49660128
_cell_length_c   9.36830424
_cell_angle_alpha   89.82763296
_cell_angle_beta   89.82763349
_cell_angle_gamma   119.29123188
_symmetry_Int_Tables_number   1
_chemical_formula_structural   Er2Al9NiIr2
_chemical_formula_sum   'Er4 Al18 Ni2 Ir4'
_cell_volume   459.16685619
_cell_formula_units_Z   2
loop_
 _symmetry_equiv_pos_site_id
 _symmetry_equiv_pos_as_xyz
  1  'x, y, z'
loop_
 _atom_site_type_symbol
 _atom_site_label
 _atom_site_symmetry_multiplicity
 _atom_site_fract_x
 _atom_site_fract_y
 _atom_site_fract_z
 _atom_site_occupancy
  Er  Er0  1  0.995489  0.674011  0.250291  1
  Er  Er1  1  0.004511  0.325989  0.749709  1
  Er  Er2  1  0.674011  0.995489  0.250291  1
  Er  Er3  1  0.325989  0.004511  0.749709  1
  Al  Al4  1  0.131897  0.131897  0.248549  1
  Al  Al5  1  0.868103  0.868103  0.751451  1
  Al  Al6  1  0.997926  0.337639  0.074771  1
  Al  Al7  1  0.002074  0.662361  0.925229  1
  Al  Al8  1  0.998480  0.663162  0.575782  1
  Al  Al9  1  0.336838  0.001520  0.424218  1
  Al  Al10  1  0.001520  0.336838  0.424218  1
  Al  Al11  1  0.663162  0.998480  0.575782  1
  Al  Al12  1  0.662361  0.002074  0.925229  1
  Al  Al13  1  0.337639  0.997926  0.074771  1
  Al  Al14  1  0.333614  0.333614  0.551708  1
  Al  Al15  1  0.666386  0.666386  0.448292  1
  Al  Al16  1  0.665146  0.665146  0.052425  1
  Al  Al17  1  0.334854  0.334854  0.947575  1
  Al  Al18  1  0.340707  0.552553  0.246076  1
  Al  Al19  1  0.659293  0.447447  0.753924  1
  Al  Al20  1  0.552553  0.340707  0.246076  1
  Al  Al21  1  0.447447  0.659293  0.753924  1
  Ni  Ni22  1  0.671314  0.328686  0.000000  1
  Ni  Ni23  1  0.328686  0.671314  0.000000  1
  Ir  Ir24  1  0.328139  0.671861  0.500000  1
  Ir  Ir25  1  0.671861  0.328139  0.500000  1
  Ir  Ir26  1  0.000000  0.000000  0.000000  1
  Ir  Ir27  1  0.000000  0.000000  0.500000  1
