# generated using pymatgen
data_DyTm4Sc3(P3Ir4)4
_symmetry_space_group_name_H-M   'P 1'
_cell_length_a   12.84084200
_cell_length_b   12.84084254
_cell_length_c   3.95399900
_cell_angle_alpha   90.00000000
_cell_angle_beta   90.00000000
_cell_angle_gamma   119.99999861
_symmetry_Int_Tables_number   1
_chemical_formula_structural   DyTm4Sc3(P3Ir4)4
_chemical_formula_sum   'Dy1 Tm4 Sc3 P12 Ir16'
_cell_volume   564.61734512
_cell_formula_units_Z   1
loop_
 _symmetry_equiv_pos_site_id
 _symmetry_equiv_pos_as_xyz
  1  'x, y, z'
loop_
 _atom_site_type_symbol
 _atom_site_label
 _atom_site_symmetry_multiplicity
 _atom_site_fract_x
 _atom_site_fract_y
 _atom_site_fract_z
 _atom_site_occupancy
  Dy  Dy0  1  0.666667  0.333333  0.500000  1
  Tm  Tm1  1  0.333333  0.666667  0.500000  1
  Tm  Tm2  1  0.999975  0.811834  0.000000  1
  Tm  Tm3  1  0.188166  0.188141  0.000000  1
  Tm  Tm4  1  0.811859  0.000025  0.000000  1
  Sc  Sc5  1  0.000070  0.444961  0.500000  1
  Sc  Sc6  1  0.555039  0.555109  0.500000  1
  Sc  Sc7  1  0.444891  0.999930  0.500000  1
  P  P8  1  0.999929  0.646173  0.500000  1
  P  P9  1  0.353827  0.353756  0.500000  1
  P  P10  1  0.646244  0.000071  0.500000  1
  P  P11  1  0.516351  0.686404  0.000000  1
  P  P12  1  0.313596  0.829947  0.000000  1
  P  P13  1  0.170053  0.483649  0.000000  1
  P  P14  1  0.483194  0.169622  0.000000  1
  P  P15  1  0.686427  0.516806  0.000000  1
  P  P16  1  0.830378  0.313573  0.000000  1
  P  P17  1  0.000003  0.176249  0.500000  1
  P  P18  1  0.823751  0.823754  0.500000  1
  P  P19  1  0.176246  0.999997  0.500000  1
  Ir  Ir20  1  0.509349  0.867073  0.000000  1
  Ir  Ir21  1  0.132927  0.642277  0.000000  1
  Ir  Ir22  1  0.357723  0.490651  0.000000  1
  Ir  Ir23  1  0.489921  0.357860  0.000000  1
  Ir  Ir24  1  0.867941  0.510079  0.000000  1
  Ir  Ir25  1  0.642140  0.132059  0.000000  1
  Ir  Ir26  1  0.000049  0.277568  0.000000  1
  Ir  Ir27  1  0.722432  0.722481  0.000000  1
  Ir  Ir28  1  0.277519  0.999951  0.000000  1
  Ir  Ir29  1  0.628394  0.807424  0.500000  1
  Ir  Ir30  1  0.192576  0.820970  0.500000  1
  Ir  Ir31  1  0.179030  0.371606  0.500000  1
  Ir  Ir32  1  0.371457  0.178926  0.500000  1
  Ir  Ir33  1  0.807469  0.628543  0.500000  1
  Ir  Ir34  1  0.821074  0.192531  0.500000  1
  Ir  Ir35  1  0.000000  0.000000  0.500000  1
