# generated using pymatgen
data_Gd3ZrAu12
_symmetry_space_group_name_H-M   'P 1'
_cell_length_a   5.03519100
_cell_length_b   5.13297300
_cell_length_c   12.58377700
_cell_angle_alpha   90.00000000
_cell_angle_beta   90.00000000
_cell_angle_gamma   90.00000000
_symmetry_Int_Tables_number   1
_chemical_formula_structural   Gd3ZrAu12
_chemical_formula_sum   'Gd3 Zr1 Au12'
_cell_volume   325.23400157
_cell_formula_units_Z   1
loop_
 _symmetry_equiv_pos_site_id
 _symmetry_equiv_pos_as_xyz
  1  'x, y, z'
loop_
 _atom_site_type_symbol
 _atom_site_label
 _atom_site_symmetry_multiplicity
 _atom_site_fract_x
 _atom_site_fract_y
 _atom_site_fract_z
 _atom_site_occupancy
  Gd  Gd0  1  0.500000  0.656293  0.500000  1
  Gd  Gd1  1  0.000000  0.339457  0.752665  1
  Gd  Gd2  1  0.000000  0.339457  0.247335  1
  Zr  Zr3  1  0.500000  0.656966  0.000000  1
  Au  Au4  1  0.000000  0.345085  0.000000  1
  Au  Au5  1  0.000000  0.326107  0.500000  1
  Au  Au6  1  0.500000  0.672833  0.761203  1
  Au  Au7  1  0.500000  0.672833  0.238797  1
  Au  Au8  1  0.500000  0.163379  0.117889  1
  Au  Au9  1  0.500000  0.161339  0.633360  1
  Au  Au10  1  0.500000  0.163379  0.882111  1
  Au  Au11  1  0.500000  0.161339  0.366640  1
  Au  Au12  1  0.000000  0.837017  0.115591  1
  Au  Au13  1  0.000000  0.833750  0.624014  1
  Au  Au14  1  0.000000  0.837017  0.884409  1
  Au  Au15  1  0.000000  0.833750  0.375986  1
