# generated using pymatgen
data_DyY3Ir2(RhO7)2
_symmetry_space_group_name_H-M   'P 1'
_cell_length_a   7.25038783
_cell_length_b   7.24720007
_cell_length_c   7.25137731
_cell_angle_alpha   59.96288786
_cell_angle_beta   60.00451226
_cell_angle_gamma   59.98544780
_symmetry_Int_Tables_number   1
_chemical_formula_structural   DyY3Ir2(RhO7)2
_chemical_formula_sum   'Dy1 Y3 Ir2 Rh2 O14'
_cell_volume   269.32835300
_cell_formula_units_Z   1
loop_
 _symmetry_equiv_pos_site_id
 _symmetry_equiv_pos_as_xyz
  1  'x, y, z'
loop_
 _atom_site_type_symbol
 _atom_site_label
 _atom_site_symmetry_multiplicity
 _atom_site_fract_x
 _atom_site_fract_y
 _atom_site_fract_z
 _atom_site_occupancy
  Dy  Dy0  1  0.125000  0.125000  0.625000  1
  Y  Y1  1  0.625000  0.125000  0.125000  1
  Y  Y2  1  0.125000  0.625000  0.125000  1
  Y  Y3  1  0.125000  0.125000  0.125000  1
  Ir  Ir4  1  0.125000  0.625000  0.625000  1
  Ir  Ir5  1  0.625000  0.625000  0.625000  1
  Rh  Rh6  1  0.625000  0.125000  0.625000  1
  Rh  Rh7  1  0.625000  0.625000  0.125000  1
  O  O8  1  0.714832  0.708302  0.290962  1
  O  O9  1  0.285772  0.290713  0.708172  1
  O  O10  1  0.715344  0.290713  0.708172  1
  O  O11  1  0.285904  0.708302  0.290962  1
  O  O12  1  0.291280  0.709055  0.708385  1
  O  O13  1  0.715537  0.284384  0.284543  1
  O  O14  1  0.535168  0.541698  0.959038  1
  O  O15  1  0.964228  0.959287  0.541828  1
  O  O16  1  0.534656  0.959287  0.541828  1
  O  O17  1  0.964096  0.541698  0.959038  1
  O  O18  1  0.958720  0.540945  0.541615  1
  O  O19  1  0.534463  0.965616  0.965457  1
  O  O20  1  0.248655  0.251132  0.251558  1
  O  O21  1  0.001345  0.998868  0.998442  1
