# generated using pymatgen
data_Tb17Er3Sn11Sb5
_symmetry_space_group_name_H-M   'P 1'
_cell_length_a   8.11164206
_cell_length_b   8.13852557
_cell_length_c   15.50132200
_cell_angle_alpha   89.88683082
_cell_angle_beta   90.17083567
_cell_angle_gamma   90.06185329
_symmetry_Int_Tables_number   1
_chemical_formula_structural   Tb17Er3Sn11Sb5
_chemical_formula_sum   'Tb17 Er3 Sn11 Sb5'
_cell_volume   1023.34063644
_cell_formula_units_Z   1
loop_
 _symmetry_equiv_pos_site_id
 _symmetry_equiv_pos_as_xyz
  1  'x, y, z'
loop_
 _atom_site_type_symbol
 _atom_site_label
 _atom_site_symmetry_multiplicity
 _atom_site_fract_x
 _atom_site_fract_y
 _atom_site_fract_z
 _atom_site_occupancy
  Tb  Tb0  1  0.041251  0.171695  0.395762  1
  Tb  Tb1  1  0.376343  0.838650  0.121362  1
  Tb  Tb2  1  0.123263  0.338154  0.620634  1
  Tb  Tb3  1  0.464764  0.676111  0.898294  1
  Tb  Tb4  1  0.875788  0.661341  0.122193  1
  Tb  Tb5  1  0.124449  0.338614  0.878958  1
  Tb  Tb6  1  0.460598  0.675578  0.604319  1
  Tb  Tb7  1  0.621504  0.160032  0.621051  1
  Tb  Tb8  1  0.794060  0.499942  0.750045  1
  Tb  Tb9  1  0.878450  0.661123  0.379213  1
  Tb  Tb10  1  0.034445  0.175020  0.103198  1
  Tb  Tb11  1  0.964113  0.823838  0.897942  1
  Tb  Tb12  1  0.623493  0.161116  0.879261  1
  Tb  Tb13  1  0.535498  0.327187  0.103920  1
  Tb  Tb14  1  0.377552  0.839373  0.379290  1
  Tb  Tb15  1  0.963497  0.828561  0.604277  1
  Tb  Tb16  1  0.535789  0.322740  0.396748  1
  Er  Er17  1  0.206005  0.500800  0.247785  1
  Er  Er18  1  0.706364  0.999140  0.247409  1
  Er  Er19  1  0.293214  0.000985  0.748688  1
  Sn  Sn20  1  0.657957  0.855249  0.750423  1
  Sn  Sn21  1  0.841459  0.353791  0.251348  1
  Sn  Sn22  1  0.571377  0.623197  0.251809  1
  Sn  Sn23  1  0.219260  0.529636  0.043802  1
  Sn  Sn24  1  0.427470  0.376610  0.750000  1
  Sn  Sn25  1  0.159438  0.646009  0.750236  1
  Sn  Sn26  1  0.928200  0.123010  0.750374  1
  Sn  Sn27  1  0.279844  0.028528  0.544196  1
  Sn  Sn28  1  0.719243  0.970113  0.043895  1
  Sn  Sn29  1  0.341584  0.145784  0.250224  1
  Sn  Sn30  1  0.072049  0.876752  0.250818  1
  Sb  Sb31  1  0.776330  0.473914  0.544557  1
  Sb  Sb32  1  0.721660  0.973150  0.454418  1
  Sb  Sb33  1  0.221638  0.525529  0.453838  1
  Sb  Sb34  1  0.280428  0.027246  0.954129  1
  Sb  Sb35  1  0.781626  0.471484  0.955581  1
