# generated using pymatgen
data_Y10Sn6PH
_symmetry_space_group_name_H-M   'P 1'
_cell_length_a   9.02472900
_cell_length_b   9.02473048
_cell_length_c   6.60031600
_cell_angle_alpha   90.00000000
_cell_angle_beta   90.00000000
_cell_angle_gamma   119.99999823
_symmetry_Int_Tables_number   1
_chemical_formula_structural   Y10Sn6PH
_chemical_formula_sum   'Y10 Sn6 P1 H1'
_cell_volume   465.54726370
_cell_formula_units_Z   1
loop_
 _symmetry_equiv_pos_site_id
 _symmetry_equiv_pos_as_xyz
  1  'x, y, z'
loop_
 _atom_site_type_symbol
 _atom_site_label
 _atom_site_symmetry_multiplicity
 _atom_site_fract_x
 _atom_site_fract_y
 _atom_site_fract_z
 _atom_site_occupancy
  Y  Y0  1  0.666667  0.333333  0.000000  1
  Y  Y1  1  0.333333  0.666667  0.000000  1
  Y  Y2  1  0.333333  0.666667  0.500000  1
  Y  Y3  1  0.666667  0.333333  0.500000  1
  Y  Y4  1  0.757362  0.757362  0.751055  1
  Y  Y5  1  0.242638  0.000000  0.751055  1
  Y  Y6  1  0.000000  0.242638  0.751055  1
  Y  Y7  1  0.242638  0.242638  0.248945  1
  Y  Y8  1  0.757362  0.000000  0.248945  1
  Y  Y9  1  0.000000  0.757362  0.248945  1
  Sn  Sn10  1  0.397163  0.397163  0.750100  1
  Sn  Sn11  1  0.602837  0.000000  0.750100  1
  Sn  Sn12  1  0.000000  0.602837  0.750100  1
  Sn  Sn13  1  0.602837  0.602837  0.249900  1
  Sn  Sn14  1  0.397163  0.000000  0.249900  1
  Sn  Sn15  1  0.000000  0.397163  0.249900  1
  P  P16  1  0.000000  0.000000  0.500000  1
  H  H17  1  0.000000  0.000000  0.000000  1
