# generated using pymatgen
data_Tb4Y6Si5P
_symmetry_space_group_name_H-M   'P 1'
_cell_length_a   8.43754200
_cell_length_b   8.44355317
_cell_length_c   6.34522400
_cell_angle_alpha   90.00000000
_cell_angle_beta   90.00000000
_cell_angle_gamma   119.97645251
_symmetry_Int_Tables_number   1
_chemical_formula_structural   Tb4Y6Si5P
_chemical_formula_sum   'Tb4 Y6 Si5 P1'
_cell_volume   391.58115303
_cell_formula_units_Z   1
loop_
 _symmetry_equiv_pos_site_id
 _symmetry_equiv_pos_as_xyz
  1  'x, y, z'
loop_
 _atom_site_type_symbol
 _atom_site_label
 _atom_site_symmetry_multiplicity
 _atom_site_fract_x
 _atom_site_fract_y
 _atom_site_fract_z
 _atom_site_occupancy
  Tb  Tb0  1  0.333758  0.667462  0.500566  1
  Tb  Tb1  1  0.666297  0.332538  0.999434  1
  Tb  Tb2  1  0.666297  0.332538  0.500566  1
  Tb  Tb3  1  0.333758  0.667462  0.999434  1
  Y  Y4  1  0.000824  0.756376  0.750000  1
  Y  Y5  1  0.001005  0.244632  0.250000  1
  Y  Y6  1  0.756373  0.755368  0.250000  1
  Y  Y7  1  0.754506  0.000000  0.750000  1
  Y  Y8  1  0.244447  0.243624  0.750000  1
  Y  Y9  1  0.244395  0.000000  0.250000  1
  Si  Si10  1  0.393621  0.393018  0.250000  1
  Si  Si11  1  0.000604  0.606982  0.250000  1
  Si  Si12  1  0.000142  0.392988  0.750000  1
  Si  Si13  1  0.607154  0.607012  0.750000  1
  Si  Si14  1  0.607984  0.000000  0.250000  1
  P  P15  1  0.388831  0.000000  0.750000  1
