# generated using pymatgen
data_Ac3Hg5Ir
_symmetry_space_group_name_H-M   'P 1'
_cell_length_a   8.54860700
_cell_length_b   8.54860926
_cell_length_c   4.08117100
_cell_angle_alpha   90.00000000
_cell_angle_beta   90.00000000
_cell_angle_gamma   120.00000388
_symmetry_Int_Tables_number   1
_chemical_formula_structural   Ac3Hg5Ir
_chemical_formula_sum   'Ac3 Hg5 Ir1'
_cell_volume   258.28918723
_cell_formula_units_Z   1
loop_
 _symmetry_equiv_pos_site_id
 _symmetry_equiv_pos_as_xyz
  1  'x, y, z'
loop_
 _atom_site_type_symbol
 _atom_site_label
 _atom_site_symmetry_multiplicity
 _atom_site_fract_x
 _atom_site_fract_y
 _atom_site_fract_z
 _atom_site_occupancy
  Ac  Ac0  1  0.614726  0.035184  0.000000  1
  Ac  Ac1  1  0.964816  0.579542  0.000000  1
  Ac  Ac2  1  0.420458  0.385274  0.000000  1
  Hg  Hg3  1  0.275408  0.996089  0.500000  1
  Hg  Hg4  1  0.003911  0.279317  0.500000  1
  Hg  Hg5  1  0.720683  0.724592  0.500000  1
  Hg  Hg6  1  0.333333  0.666667  0.500000  1
  Hg  Hg7  1  0.000000  0.000000  0.000000  1
  Ir  Ir8  1  0.666667  0.333333  0.500000  1
