# generated using pymatgen
data_Hf9MnBeRe3
_symmetry_space_group_name_H-M   'P 1'
_cell_length_a   8.45986900
_cell_length_b   8.56600274
_cell_length_c   8.56600100
_cell_angle_alpha   119.99517009
_cell_angle_beta   90.00000000
_cell_angle_gamma   90.00000000
_symmetry_Int_Tables_number   1
_chemical_formula_structural   Hf9MnBeRe3
_chemical_formula_sum   'Hf18 Mn2 Be2 Re6'
_cell_volume   537.61544152
_cell_formula_units_Z   2
loop_
 _symmetry_equiv_pos_site_id
 _symmetry_equiv_pos_as_xyz
  1  'x, y, z'
loop_
 _atom_site_type_symbol
 _atom_site_label
 _atom_site_symmetry_multiplicity
 _atom_site_fract_x
 _atom_site_fract_y
 _atom_site_fract_z
 _atom_site_occupancy
  Hf  Hf0  1  0.554549  0.804911  0.609686  1
  Hf  Hf1  1  0.554517  0.804892  0.195108  1
  Hf  Hf2  1  0.554549  0.390314  0.195089  1
  Hf  Hf3  1  0.445451  0.195089  0.390314  1
  Hf  Hf4  1  0.445483  0.195108  0.804892  1
  Hf  Hf5  1  0.445451  0.609686  0.804911  1
  Hf  Hf6  1  0.054549  0.195089  0.390314  1
  Hf  Hf7  1  0.054517  0.195108  0.804892  1
  Hf  Hf8  1  0.054549  0.609686  0.804911  1
  Hf  Hf9  1  0.945451  0.804911  0.609686  1
  Hf  Hf10  1  0.945483  0.804892  0.195108  1
  Hf  Hf11  1  0.945451  0.390314  0.195089  1
  Hf  Hf12  1  0.750000  0.459658  0.919659  1
  Hf  Hf13  1  0.750000  0.459922  0.540078  1
  Hf  Hf14  1  0.750000  0.080341  0.540342  1
  Hf  Hf15  1  0.250000  0.540342  0.080341  1
  Hf  Hf16  1  0.250000  0.540078  0.459922  1
  Hf  Hf17  1  0.250000  0.919659  0.459658  1
  Mn  Mn18  1  0.500000  0.000000  0.000000  1
  Mn  Mn19  1  0.000000  0.000000  0.000000  1
  Be  Be20  1  0.750000  0.666684  0.333316  1
  Be  Be21  1  0.250000  0.333316  0.666684  1
  Re  Re22  1  0.750000  0.108256  0.216696  1
  Re  Re23  1  0.750000  0.108303  0.891697  1
  Re  Re24  1  0.750000  0.783304  0.891744  1
  Re  Re25  1  0.250000  0.891744  0.783304  1
  Re  Re26  1  0.250000  0.891697  0.108303  1
  Re  Re27  1  0.250000  0.216696  0.108256  1
