# generated using pymatgen
data_BeNb3As
_symmetry_space_group_name_H-M   'P 1'
_cell_length_a   6.67708500
_cell_length_b   6.68265500
_cell_length_c   3.49025200
_cell_angle_alpha   90.00000000
_cell_angle_beta   90.00000000
_cell_angle_gamma   90.00000000
_symmetry_Int_Tables_number   1
_chemical_formula_structural   BeNb3As
_chemical_formula_sum   'Be2 Nb6 As2'
_cell_volume   155.73733196
_cell_formula_units_Z   2
loop_
 _symmetry_equiv_pos_site_id
 _symmetry_equiv_pos_as_xyz
  1  'x, y, z'
loop_
 _atom_site_type_symbol
 _atom_site_label
 _atom_site_symmetry_multiplicity
 _atom_site_fract_x
 _atom_site_fract_y
 _atom_site_fract_z
 _atom_site_occupancy
  Be  Be0  1  0.877693  0.627734  0.000000  1
  Be  Be1  1  0.377691  0.872267  0.000000  1
  Nb  Nb2  1  0.005769  0.992371  0.000000  1
  Nb  Nb3  1  0.505769  0.507629  0.000000  1
  Nb  Nb4  1  0.319782  0.163485  0.499999  1
  Nb  Nb5  1  0.819782  0.336514  0.499999  1
  Nb  Nb6  1  0.176367  0.689133  0.499999  1
  Nb  Nb7  1  0.676367  0.810866  0.499999  1
  As  As8  1  0.620389  0.112450  0.000000  1
  As  As9  1  0.120389  0.387549  0.000000  1
