# generated using pymatgen
data_Ti7Nb3Sn6As
_symmetry_space_group_name_H-M   'P 1'
_cell_length_a   8.20582400
_cell_length_b   8.20582446
_cell_length_c   5.56726500
_cell_angle_alpha   90.00000000
_cell_angle_beta   90.00000000
_cell_angle_gamma   120.00000620
_symmetry_Int_Tables_number   1
_chemical_formula_structural   Ti7Nb3Sn6As
_chemical_formula_sum   'Ti7 Nb3 Sn6 As1'
_cell_volume   324.65113008
_cell_formula_units_Z   1
loop_
 _symmetry_equiv_pos_site_id
 _symmetry_equiv_pos_as_xyz
  1  'x, y, z'
loop_
 _atom_site_type_symbol
 _atom_site_label
 _atom_site_symmetry_multiplicity
 _atom_site_fract_x
 _atom_site_fract_y
 _atom_site_fract_z
 _atom_site_occupancy
  Ti  Ti0  1  0.666667  0.333333  0.000000  1
  Ti  Ti1  1  0.742619  0.743855  0.239919  1
  Ti  Ti2  1  0.256145  0.998764  0.239919  1
  Ti  Ti3  1  0.001236  0.257381  0.239919  1
  Ti  Ti4  1  0.256145  0.257381  0.760081  1
  Ti  Ti5  1  0.742619  0.998764  0.760081  1
  Ti  Ti6  1  0.001236  0.743855  0.760081  1
  Nb  Nb7  1  0.666667  0.333333  0.500000  1
  Nb  Nb8  1  0.333333  0.666667  0.500000  1
  Nb  Nb9  1  0.333333  0.666667  0.000000  1
  Sn  Sn10  1  0.390467  0.388234  0.248296  1
  Sn  Sn11  1  0.611766  0.002233  0.248296  1
  Sn  Sn12  1  0.997767  0.609533  0.248296  1
  Sn  Sn13  1  0.611766  0.609533  0.751704  1
  Sn  Sn14  1  0.390467  0.002233  0.751704  1
  Sn  Sn15  1  0.997767  0.388234  0.751704  1
  As  As16  1  0.000000  0.000000  0.500000  1
