# generated using pymatgen
data_Tm8Mg3Sc8Si16Tc
_symmetry_space_group_name_H-M   'P 1'
_cell_length_a   6.88740602
_cell_length_b   7.32436239
_cell_length_c   13.80168800
_cell_angle_alpha   90.00000000
_cell_angle_beta   90.00000000
_cell_angle_gamma   90.25398205
_symmetry_Int_Tables_number   1
_chemical_formula_structural   Tm8Mg3Sc8Si16Tc
_chemical_formula_sum   'Tm8 Mg3 Sc8 Si16 Tc1'
_cell_volume   696.23114740
_cell_formula_units_Z   1
loop_
 _symmetry_equiv_pos_site_id
 _symmetry_equiv_pos_as_xyz
  1  'x, y, z'
loop_
 _atom_site_type_symbol
 _atom_site_label
 _atom_site_symmetry_multiplicity
 _atom_site_fract_x
 _atom_site_fract_y
 _atom_site_fract_z
 _atom_site_occupancy
  Tm  Tm0  1  0.013344  0.179701  0.092563  1
  Tm  Tm1  1  0.990840  0.818824  0.902093  1
  Tm  Tm2  1  0.489777  0.676715  0.903403  1
  Tm  Tm3  1  0.990840  0.818824  0.597907  1
  Tm  Tm4  1  0.513311  0.321872  0.094838  1
  Tm  Tm5  1  0.013344  0.179701  0.407437  1
  Tm  Tm6  1  0.513311  0.321872  0.405162  1
  Tm  Tm7  1  0.489777  0.676715  0.596597  1
  Mg  Mg8  1  0.844101  0.493938  0.250000  1
  Mg  Mg9  1  0.343836  0.006281  0.250000  1
  Mg  Mg10  1  0.657612  0.990912  0.750000  1
  Sc  Sc11  1  0.329987  0.178632  0.626524  1
  Sc  Sc12  1  0.671593  0.821346  0.375436  1
  Sc  Sc13  1  0.171533  0.676683  0.377087  1
  Sc  Sc14  1  0.671593  0.821346  0.124564  1
  Sc  Sc15  1  0.822742  0.325872  0.628114  1
  Sc  Sc16  1  0.329987  0.178632  0.873476  1
  Sc  Sc17  1  0.822742  0.325872  0.871886  1
  Sc  Sc18  1  0.171533  0.676683  0.122913  1
  Si  Si19  1  0.035555  0.118898  0.750000  1
  Si  Si20  1  0.969942  0.895207  0.250000  1
  Si  Si21  1  0.467311  0.604194  0.250000  1
  Si  Si22  1  0.513563  0.409881  0.750000  1
  Si  Si23  1  0.274848  0.859694  0.750000  1
  Si  Si24  1  0.722213  0.125696  0.250000  1
  Si  Si25  1  0.218992  0.375542  0.250000  1
  Si  Si26  1  0.794970  0.622391  0.750000  1
  Si  Si27  1  0.156731  0.466469  0.547120  1
  Si  Si28  1  0.838846  0.536382  0.466664  1
  Si  Si29  1  0.340838  0.962483  0.466893  1
  Si  Si30  1  0.838846  0.536382  0.033336  1
  Si  Si31  1  0.663291  0.036167  0.535615  1
  Si  Si32  1  0.156731  0.466469  0.952880  1
  Si  Si33  1  0.663291  0.036167  0.964385  1
  Si  Si34  1  0.340838  0.962483  0.033107  1
  Tc  Tc35  1  0.151387  0.495068  0.750000  1
