# generated using pymatgen
data_HoEr2(Ga3Os)3
_symmetry_space_group_name_H-M   'P 1'
_cell_length_a   6.41394600
_cell_length_b   6.42171700
_cell_length_c   6.42171700
_cell_angle_alpha   90.00000000
_cell_angle_beta   90.00000000
_cell_angle_gamma   90.00000000
_symmetry_Int_Tables_number   1
_chemical_formula_structural   HoEr2(Ga3Os)3
_chemical_formula_sum   'Ho1 Er2 Ga9 Os3'
_cell_volume   264.50118647
_cell_formula_units_Z   1
loop_
 _symmetry_equiv_pos_site_id
 _symmetry_equiv_pos_as_xyz
  1  'x, y, z'
loop_
 _atom_site_type_symbol
 _atom_site_label
 _atom_site_symmetry_multiplicity
 _atom_site_fract_x
 _atom_site_fract_y
 _atom_site_fract_z
 _atom_site_occupancy
  Ho  Ho0  1  0.500000  0.000000  0.000000  1
  Er  Er1  1  0.000000  0.500000  0.000000  1
  Er  Er2  1  0.000000  0.000000  0.500000  1
  Ga  Ga3  1  0.288279  0.288427  0.288427  1
  Ga  Ga4  1  0.711721  0.711573  0.711573  1
  Ga  Ga5  1  0.711721  0.711573  0.288427  1
  Ga  Ga6  1  0.711721  0.288427  0.711573  1
  Ga  Ga7  1  0.288279  0.288427  0.711573  1
  Ga  Ga8  1  0.288279  0.711573  0.288427  1
  Ga  Ga9  1  0.288279  0.711573  0.711573  1
  Ga  Ga10  1  0.711721  0.288427  0.288427  1
  Ga  Ga11  1  0.000000  0.000000  0.000000  1
  Os  Os12  1  0.000000  0.500000  0.500000  1
  Os  Os13  1  0.500000  0.000000  0.500000  1
  Os  Os14  1  0.500000  0.500000  0.000000  1
