# generated using pymatgen
data_Tb4Al18CrPt5
_symmetry_space_group_name_H-M   'P 1'
_cell_length_a   7.59940846
_cell_length_b   7.59940921
_cell_length_c   9.47582018
_cell_angle_alpha   89.72026269
_cell_angle_beta   89.72026346
_cell_angle_gamma   119.21139781
_symmetry_Int_Tables_number   1
_chemical_formula_structural   Tb4Al18CrPt5
_chemical_formula_sum   'Tb4 Al18 Cr1 Pt5'
_cell_volume   477.62097424
_cell_formula_units_Z   1
loop_
 _symmetry_equiv_pos_site_id
 _symmetry_equiv_pos_as_xyz
  1  'x, y, z'
loop_
 _atom_site_type_symbol
 _atom_site_label
 _atom_site_symmetry_multiplicity
 _atom_site_fract_x
 _atom_site_fract_y
 _atom_site_fract_z
 _atom_site_occupancy
  Tb  Tb0  1  0.994835  0.673203  0.248158  1
  Tb  Tb1  1  0.005165  0.326797  0.751842  1
  Tb  Tb2  1  0.673203  0.994835  0.248158  1
  Tb  Tb3  1  0.326797  0.005165  0.751842  1
  Al  Al4  1  0.127784  0.127784  0.243500  1
  Al  Al5  1  0.872216  0.872216  0.756500  1
  Al  Al6  1  0.001572  0.328275  0.073030  1
  Al  Al7  1  0.998428  0.671725  0.926970  1
  Al  Al8  1  0.998473  0.663558  0.577581  1
  Al  Al9  1  0.336442  0.001527  0.422419  1
  Al  Al10  1  0.001527  0.336442  0.422419  1
  Al  Al11  1  0.663558  0.998473  0.577581  1
  Al  Al12  1  0.671725  0.998428  0.926970  1
  Al  Al13  1  0.328275  0.001572  0.073030  1
  Al  Al14  1  0.333176  0.333176  0.555595  1
  Al  Al15  1  0.666824  0.666824  0.444405  1
  Al  Al16  1  0.673603  0.673603  0.050893  1
  Al  Al17  1  0.326397  0.326397  0.949107  1
  Al  Al18  1  0.340137  0.546742  0.249336  1
  Al  Al19  1  0.659863  0.453258  0.750664  1
  Al  Al20  1  0.546742  0.340137  0.249336  1
  Al  Al21  1  0.453258  0.659863  0.750664  1
  Cr  Cr22  1  0.000000  0.000000  0.000000  1
  Pt  Pt23  1  0.672512  0.327488  0.000000  1
  Pt  Pt24  1  0.327488  0.672512  0.000000  1
  Pt  Pt25  1  0.328144  0.671856  0.500000  1
  Pt  Pt26  1  0.671856  0.328144  0.500000  1
  Pt  Pt27  1  0.000000  0.000000  0.500000  1
