# generated using pymatgen
data_TbErAl6(GaIr)3
_symmetry_space_group_name_H-M   'P 1'
_cell_length_a   7.52554414
_cell_length_b   7.52972882
_cell_length_c   9.58082700
_cell_angle_alpha   89.99994213
_cell_angle_beta   90.00004676
_cell_angle_gamma   119.67659703
_symmetry_Int_Tables_number   1
_chemical_formula_structural   TbErAl6(GaIr)3
_chemical_formula_sum   'Tb2 Er2 Al12 Ga6 Ir6'
_cell_volume   471.69031228
_cell_formula_units_Z   2
loop_
 _symmetry_equiv_pos_site_id
 _symmetry_equiv_pos_as_xyz
  1  'x, y, z'
loop_
 _atom_site_type_symbol
 _atom_site_label
 _atom_site_symmetry_multiplicity
 _atom_site_fract_x
 _atom_site_fract_y
 _atom_site_fract_z
 _atom_site_occupancy
  Tb  Tb0  1  0.997207  0.669461  0.750000  1
  Tb  Tb1  1  0.002793  0.330539  0.250000  1
  Er  Er2  1  0.669550  0.997300  0.749999  1
  Er  Er3  1  0.330450  0.002700  0.250001  1
  Al  Al4  1  0.001849  0.333796  0.572549  1
  Al  Al5  1  0.998151  0.666204  0.427451  1
  Al  Al6  1  0.998151  0.666205  0.072549  1
  Al  Al7  1  0.335044  0.002406  0.928042  1
  Al  Al8  1  0.001849  0.333795  0.927451  1
  Al  Al9  1  0.664956  0.997594  0.071958  1
  Al  Al10  1  0.664956  0.997594  0.428042  1
  Al  Al11  1  0.335044  0.002406  0.571958  1
  Al  Al12  1  0.334496  0.333899  0.056716  1
  Al  Al13  1  0.665504  0.666101  0.943284  1
  Al  Al14  1  0.665504  0.666101  0.556716  1
  Al  Al15  1  0.334496  0.333899  0.443284  1
  Ga  Ga16  1  0.127734  0.128177  0.750000  1
  Ga  Ga17  1  0.872266  0.871823  0.250000  1
  Ga  Ga18  1  0.339049  0.547453  0.750001  1
  Ga  Ga19  1  0.660951  0.452547  0.249999  1
  Ga  Ga20  1  0.546381  0.337476  0.750000  1
  Ga  Ga21  1  0.453619  0.662524  0.250000  1
  Ir  Ir22  1  0.671691  0.327935  0.500004  1
  Ir  Ir23  1  0.328309  0.672065  0.499996  1
  Ir  Ir24  1  0.328309  0.672064  0.000004  1
  Ir  Ir25  1  0.671691  0.327936  0.999996  1
  Ir  Ir26  1  0.000000  0.000000  0.500000  1
  Ir  Ir27  1  0.000000  0.000000  0.000000  1
