# generated using pymatgen
data_Dy6Y4(InSb)3
_symmetry_space_group_name_H-M   'P 1'
_cell_length_a   6.54134006
_cell_length_b   8.99778191
_cell_length_c   8.99646707
_cell_angle_alpha   120.00484929
_cell_angle_beta   90.00275004
_cell_angle_gamma   89.99449631
_symmetry_Int_Tables_number   1
_chemical_formula_structural   Dy6Y4(InSb)3
_chemical_formula_sum   'Dy6 Y4 In3 Sb3'
_cell_volume   458.54671879
_cell_formula_units_Z   1
loop_
 _symmetry_equiv_pos_site_id
 _symmetry_equiv_pos_as_xyz
  1  'x, y, z'
loop_
 _atom_site_type_symbol
 _atom_site_label
 _atom_site_symmetry_multiplicity
 _atom_site_fract_x
 _atom_site_fract_y
 _atom_site_fract_z
 _atom_site_occupancy
  Dy  Dy0  1  0.501421  0.333386  0.666758  1
  Dy  Dy1  1  0.501421  0.666628  0.333242  1
  Dy  Dy2  1  0.998519  0.666718  0.333508  1
  Dy  Dy3  1  0.998519  0.333211  0.666492  1
  Dy  Dy4  1  0.250028  0.239186  0.239068  1
  Dy  Dy5  1  0.250028  0.000118  0.760932  1
  Y  Y6  1  0.750053  0.238862  0.000000  1
  Y  Y7  1  0.750037  0.761052  0.760837  1
  Y  Y8  1  0.750037  0.000215  0.239163  1
  Y  Y9  1  0.250047  0.760827  0.000000  1
  In  In10  1  0.750001  0.605645  0.000000  1
  In  In11  1  0.749976  0.394126  0.394132  1
  In  In12  1  0.749976  0.999995  0.605868  1
  Sb  Sb13  1  0.249784  0.394159  0.000000  1
  Sb  Sb14  1  0.250078  0.605651  0.605431  1
  Sb  Sb15  1  0.250078  0.000220  0.394569  1
