# generated using pymatgen
data_SrGaSi3Pt4
_symmetry_space_group_name_H-M   'P 1'
_cell_length_a   6.41824315
_cell_length_b   6.42019295
_cell_length_c   6.46516150
_cell_angle_alpha   97.74971700
_cell_angle_beta   97.76213171
_cell_angle_gamma   136.72631509
_symmetry_Int_Tables_number   1
_chemical_formula_structural   SrGaSi3Pt4
_chemical_formula_sum   'Sr1 Ga1 Si3 Pt4'
_cell_volume   169.94580040
_cell_formula_units_Z   1
loop_
 _symmetry_equiv_pos_site_id
 _symmetry_equiv_pos_as_xyz
  1  'x, y, z'
loop_
 _atom_site_type_symbol
 _atom_site_label
 _atom_site_symmetry_multiplicity
 _atom_site_fract_x
 _atom_site_fract_y
 _atom_site_fract_z
 _atom_site_occupancy
  Sr  Sr0  1  0.299566  0.300063  0.003334  1
  Ga  Ga1  1  0.384921  0.885577  0.270240  1
  Si  Si2  1  0.613890  0.113622  0.727163  1
  Si  Si3  1  0.109918  0.384262  0.495421  1
  Si  Si4  1  0.885965  0.611485  0.495343  1
  Pt  Pt5  1  0.168119  0.671887  0.839597  1
  Pt  Pt6  1  0.822847  0.318258  0.140809  1
  Pt  Pt7  1  0.327174  0.185140  0.510463  1
  Pt  Pt8  1  0.687602  0.829707  0.517630  1
