# generated using pymatgen
data_Pr2TmLu3ReBi2
_symmetry_space_group_name_H-M   'P 1'
_cell_length_a   8.31636000
_cell_length_b   8.25936536
_cell_length_c   4.38542400
_cell_angle_alpha   90.00000000
_cell_angle_beta   90.00000000
_cell_angle_gamma   120.22852599
_symmetry_Int_Tables_number   1
_chemical_formula_structural   Pr2TmLu3ReBi2
_chemical_formula_sum   'Pr2 Tm1 Lu3 Re1 Bi2'
_cell_volume   260.26602662
_cell_formula_units_Z   1
loop_
 _symmetry_equiv_pos_site_id
 _symmetry_equiv_pos_as_xyz
  1  'x, y, z'
loop_
 _atom_site_type_symbol
 _atom_site_label
 _atom_site_symmetry_multiplicity
 _atom_site_fract_x
 _atom_site_fract_y
 _atom_site_fract_z
 _atom_site_occupancy
  Pr  Pr0  1  0.002856  0.607695  0.000000  1
  Pr  Pr1  1  0.395162  0.392305  0.000000  1
  Tm  Tm2  1  0.617936  0.000000  0.000000  1
  Lu  Lu3  1  0.220597  0.000000  0.500000  1
  Lu  Lu4  1  0.999128  0.229483  0.500000  1
  Lu  Lu5  1  0.769645  0.770517  0.500000  1
  Re  Re6  1  0.989553  0.000000  0.000000  1
  Bi  Bi7  1  0.341393  0.677662  0.500000  1
  Bi  Bi8  1  0.663733  0.322338  0.500000  1
