# generated using pymatgen
data_LiNbCdO4
_symmetry_space_group_name_H-M   'P 1'
_cell_length_a   6.42904600
_cell_length_b   6.42904600
_cell_length_c   8.85878100
_cell_angle_alpha   90.00000000
_cell_angle_beta   90.00000000
_cell_angle_gamma   90.00000000
_symmetry_Int_Tables_number   1
_chemical_formula_structural   LiNbCdO4
_chemical_formula_sum   'Li4 Nb4 Cd4 O16'
_cell_volume   366.15673921
_cell_formula_units_Z   4
loop_
 _symmetry_equiv_pos_site_id
 _symmetry_equiv_pos_as_xyz
  1  'x, y, z'
loop_
 _atom_site_type_symbol
 _atom_site_label
 _atom_site_symmetry_multiplicity
 _atom_site_fract_x
 _atom_site_fract_y
 _atom_site_fract_z
 _atom_site_occupancy
  Li  Li0  1  0.499999  0.276292  0.000000  1
  Li  Li1  1  0.723709  0.499999  0.250000  1
  Li  Li2  1  0.499999  0.723709  0.500000  1
  Li  Li3  1  0.276292  0.499999  0.750000  1
  Nb  Nb4  1  0.000000  0.272884  0.000000  1
  Nb  Nb5  1  0.727116  0.000000  0.250000  1
  Nb  Nb6  1  0.000000  0.727116  0.500000  1
  Nb  Nb7  1  0.272884  0.000000  0.750000  1
  Cd  Cd8  1  0.248269  0.751732  0.125000  1
  Cd  Cd9  1  0.248269  0.248269  0.375000  1
  Cd  Cd10  1  0.751732  0.248269  0.625000  1
  Cd  Cd11  1  0.751732  0.751732  0.875000  1
  O  O12  1  0.233625  0.455936  0.001789  1
  O  O13  1  0.773258  0.019480  0.025041  1
  O  O14  1  0.980520  0.226742  0.224959  1
  O  O15  1  0.544065  0.766374  0.248212  1
  O  O16  1  0.544065  0.233625  0.251788  1
  O  O17  1  0.980520  0.773258  0.275041  1
  O  O18  1  0.773258  0.980520  0.474960  1
  O  O19  1  0.233625  0.544065  0.498212  1
  O  O20  1  0.766374  0.544065  0.501788  1
  O  O21  1  0.226742  0.980520  0.525041  1
  O  O22  1  0.019480  0.773258  0.724959  1
  O  O23  1  0.455936  0.233625  0.748211  1
  O  O24  1  0.455936  0.766374  0.751789  1
  O  O25  1  0.019480  0.226742  0.775041  1
  O  O26  1  0.226742  0.019480  0.974959  1
  O  O27  1  0.766374  0.455936  0.998212  1
