# generated using pymatgen
data_NaHf4(TaB4)5
_symmetry_space_group_name_H-M   'P 1'
_cell_length_a   6.22496131
_cell_length_b   7.10220241
_cell_length_c   7.51483900
_cell_angle_alpha   94.30419801
_cell_angle_beta   101.99171731
_cell_angle_gamma   115.94130207
_symmetry_Int_Tables_number   1
_chemical_formula_structural   NaHf4(TaB4)5
_chemical_formula_sum   'Na1 Hf4 Ta5 B20'
_cell_volume   286.99548581
_cell_formula_units_Z   1
loop_
 _symmetry_equiv_pos_site_id
 _symmetry_equiv_pos_as_xyz
  1  'x, y, z'
loop_
 _atom_site_type_symbol
 _atom_site_label
 _atom_site_symmetry_multiplicity
 _atom_site_fract_x
 _atom_site_fract_y
 _atom_site_fract_z
 _atom_site_occupancy
  Na  Na0  1  0.000898  0.001491  0.000786  1
  Hf  Hf1  1  0.499823  0.799027  0.399589  1
  Hf  Hf2  1  0.000761  0.398909  0.198844  1
  Hf  Hf3  1  0.500012  0.199253  0.601349  1
  Hf  Hf4  1  0.998222  0.797844  0.399321  1
  Ta  Ta5  1  0.499455  0.000624  0.998038  1
  Ta  Ta6  1  0.502542  0.600326  0.800378  1
  Ta  Ta7  1  0.498503  0.400342  0.199908  1
  Ta  Ta8  1  0.001498  0.202113  0.602020  1
  Ta  Ta9  1  0.998388  0.601250  0.799931  1
  B  B10  1  0.333202  0.233162  0.868998  1
  B  B11  1  0.333958  0.634031  0.064678  1
  B  B12  1  0.166852  0.366171  0.933409  1
  B  B13  1  0.334288  0.034621  0.265353  1
  B  B14  1  0.166745  0.767585  0.129016  1
  B  B15  1  0.834828  0.233419  0.868035  1
  B  B16  1  0.166481  0.167175  0.332031  1
  B  B17  1  0.832027  0.634588  0.062202  1
  B  B18  1  0.333186  0.432129  0.467720  1
  B  B19  1  0.665946  0.367568  0.932639  1
  B  B20  1  0.833934  0.034636  0.265823  1
  B  B21  1  0.665442  0.767488  0.128765  1
  B  B22  1  0.333695  0.833634  0.668275  1
  B  B23  1  0.166738  0.565623  0.534747  1
  B  B24  1  0.665946  0.165771  0.333207  1
  B  B25  1  0.833171  0.431863  0.467620  1
  B  B26  1  0.166222  0.965901  0.736152  1
  B  B27  1  0.833485  0.832195  0.670187  1
  B  B28  1  0.666906  0.565943  0.535311  1
  B  B29  1  0.666850  0.965317  0.735668  1
