# generated using pymatgen
data_Y16Cd4Co3Ni
_symmetry_space_group_name_H-M   'P 1'
_cell_length_a   9.56185733
_cell_length_b   9.55083103
_cell_length_c   9.55083100
_cell_angle_alpha   60.00000358
_cell_angle_beta   60.03814228
_cell_angle_gamma   60.03813733
_symmetry_Int_Tables_number   1
_chemical_formula_structural   Y16Cd4Co3Ni
_chemical_formula_sum   'Y16 Cd4 Co3 Ni1'
_cell_volume   617.10592823
_cell_formula_units_Z   1
loop_
 _symmetry_equiv_pos_site_id
 _symmetry_equiv_pos_as_xyz
  1  'x, y, z'
loop_
 _atom_site_type_symbol
 _atom_site_label
 _atom_site_symmetry_multiplicity
 _atom_site_fract_x
 _atom_site_fract_y
 _atom_site_fract_z
 _atom_site_occupancy
  Y  Y0  1  0.595304  0.598567  0.598567  1
  Y  Y1  1  0.595304  0.598567  0.207561  1
  Y  Y2  1  0.595304  0.207561  0.598567  1
  Y  Y3  1  0.210569  0.596477  0.596477  1
  Y  Y4  1  0.065171  0.438156  0.438156  1
  Y  Y5  1  0.437730  0.062163  0.062163  1
  Y  Y6  1  0.437730  0.062163  0.437944  1
  Y  Y7  1  0.065171  0.438156  0.058516  1
  Y  Y8  1  0.437730  0.437944  0.062163  1
  Y  Y9  1  0.065171  0.058516  0.438156  1
  Y  Y10  1  0.186171  0.813245  0.813245  1
  Y  Y11  1  0.811844  0.187014  0.187014  1
  Y  Y12  1  0.811844  0.187014  0.814128  1
  Y  Y13  1  0.186171  0.813245  0.187339  1
  Y  Y14  1  0.811844  0.814128  0.187014  1
  Y  Y15  1  0.186171  0.187339  0.813245  1
  Cd  Cd16  1  0.830652  0.830263  0.830263  1
  Cd  Cd17  1  0.830652  0.830263  0.508820  1
  Cd  Cd18  1  0.830652  0.508820  0.830263  1
  Cd  Cd19  1  0.507831  0.830723  0.830723  1
  Co  Co20  1  0.391591  0.391167  0.391167  1
  Co  Co21  1  0.391591  0.391167  0.826075  1
  Co  Co22  1  0.391591  0.826075  0.391167  1
  Ni  Ni23  1  0.826209  0.391264  0.391264  1
