# generated using pymatgen
data_Gd2Te2Pt(SO7)2
_symmetry_space_group_name_H-M   'P 1'
_cell_length_a   5.35630155
_cell_length_b   8.10428617
_cell_length_c   8.42839744
_cell_angle_alpha   114.98896228
_cell_angle_beta   106.68923597
_cell_angle_gamma   86.37895060
_symmetry_Int_Tables_number   1
_chemical_formula_structural   Gd2Te2Pt(SO7)2
_chemical_formula_sum   'Gd2 Te2 Pt1 S2 O14'
_cell_volume   316.93657769
_cell_formula_units_Z   1
loop_
 _symmetry_equiv_pos_site_id
 _symmetry_equiv_pos_as_xyz
  1  'x, y, z'
loop_
 _atom_site_type_symbol
 _atom_site_label
 _atom_site_symmetry_multiplicity
 _atom_site_fract_x
 _atom_site_fract_y
 _atom_site_fract_z
 _atom_site_occupancy
  Gd  Gd0  1  0.079444  0.252589  0.985622  1
  Gd  Gd1  1  0.920556  0.747411  0.014378  1
  Te  Te2  1  0.518224  0.278031  0.671095  1
  Te  Te3  1  0.481776  0.721969  0.328905  1
  Pt  Pt4  1  0.000000  0.000000  0.500000  1
  S  S5  1  0.763051  0.244559  0.246087  1
  S  S6  1  0.236949  0.755441  0.753913  1
  O  O7  1  0.894939  0.400480  0.245334  1
  O  O8  1  0.105061  0.599520  0.754666  1
  O  O9  1  0.858186  0.239961  0.428433  1
  O  O10  1  0.141814  0.760039  0.571567  1
  O  O11  1  0.476372  0.261258  0.203476  1
  O  O12  1  0.523628  0.738742  0.796524  1
  O  O13  1  0.831666  0.077491  0.099318  1
  O  O14  1  0.168334  0.922509  0.900682  1
  O  O15  1  0.755890  0.441886  0.892289  1
  O  O16  1  0.244110  0.558114  0.107711  1
  O  O17  1  0.286473  0.209773  0.770136  1
  O  O18  1  0.713527  0.790227  0.229864  1
  O  O19  1  0.743884  0.086544  0.681267  1
  O  O20  1  0.256116  0.913456  0.318733  1
