# generated using pymatgen
data_Sc9In14Co6Os
_symmetry_space_group_name_H-M   'P 1'
_cell_length_a   9.46716937
_cell_length_b   9.46716989
_cell_length_c   9.46717000
_cell_angle_alpha   59.99999960
_cell_angle_beta   59.99999782
_cell_angle_gamma   60.00000235
_symmetry_Int_Tables_number   1
_chemical_formula_structural   Sc9In14Co6Os
_chemical_formula_sum   'Sc9 In14 Co6 Os1'
_cell_volume   599.99204826
_cell_formula_units_Z   1
loop_
 _symmetry_equiv_pos_site_id
 _symmetry_equiv_pos_as_xyz
  1  'x, y, z'
loop_
 _atom_site_type_symbol
 _atom_site_label
 _atom_site_symmetry_multiplicity
 _atom_site_fract_x
 _atom_site_fract_y
 _atom_site_fract_z
 _atom_site_occupancy
  Sc  Sc0  1  0.118379  0.644863  0.118379  1
  Sc  Sc1  1  0.355137  0.881621  0.881621  1
  Sc  Sc2  1  0.881621  0.881621  0.881621  1
  Sc  Sc3  1  0.644863  0.118379  0.118379  1
  Sc  Sc4  1  0.500000  0.500000  0.500000  1
  Sc  Sc5  1  0.881621  0.881621  0.355137  1
  Sc  Sc6  1  0.118379  0.118379  0.118379  1
  Sc  Sc7  1  0.881621  0.355137  0.881621  1
  Sc  Sc8  1  0.118379  0.118379  0.644863  1
  In  In9  1  0.500000  0.842257  0.157743  1
  In  In10  1  0.500000  0.842257  0.500000  1
  In  In11  1  0.500000  0.157743  0.500000  1
  In  In12  1  0.500000  0.500000  0.842257  1
  In  In13  1  0.157743  0.500000  0.500000  1
  In  In14  1  0.842257  0.157743  0.500000  1
  In  In15  1  0.157743  0.842257  0.500000  1
  In  In16  1  0.500000  0.157743  0.842257  1
  In  In17  1  0.157743  0.500000  0.842257  1
  In  In18  1  0.500000  0.500000  0.157743  1
  In  In19  1  0.842257  0.500000  0.500000  1
  In  In20  1  0.842257  0.500000  0.157743  1
  In  In21  1  0.250000  0.250000  0.250000  1
  In  In22  1  0.750000  0.750000  0.750000  1
  Co  Co23  1  0.771401  0.771401  0.228599  1
  Co  Co24  1  0.228599  0.771401  0.228599  1
  Co  Co25  1  0.228599  0.771401  0.771401  1
  Co  Co26  1  0.228599  0.228599  0.771401  1
  Co  Co27  1  0.771401  0.228599  0.771401  1
  Co  Co28  1  0.771401  0.228599  0.228599  1
  Os  Os29  1  0.000000  0.000000  0.000000  1
