# generated using pymatgen
data_Tb7CeAlPd24
_symmetry_space_group_name_H-M   'P 1'
_cell_length_a   8.37980310
_cell_length_b   8.37980310
_cell_length_c   8.37980310
_cell_angle_alpha   89.93033344
_cell_angle_beta   90.06966656
_cell_angle_gamma   90.06966656
_symmetry_Int_Tables_number   1
_chemical_formula_structural   Tb7CeAlPd24
_chemical_formula_sum   'Tb7 Ce1 Al1 Pd24'
_cell_volume   588.43768655
_cell_formula_units_Z   1
loop_
 _symmetry_equiv_pos_site_id
 _symmetry_equiv_pos_as_xyz
  1  'x, y, z'
loop_
 _atom_site_type_symbol
 _atom_site_label
 _atom_site_symmetry_multiplicity
 _atom_site_fract_x
 _atom_site_fract_y
 _atom_site_fract_z
 _atom_site_occupancy
  Tb  Tb0  1  0.251504  0.251999  0.251999  1
  Tb  Tb1  1  0.747839  0.747709  0.747709  1
  Tb  Tb2  1  0.748001  0.748496  0.251999  1
  Tb  Tb3  1  0.748001  0.251999  0.748496  1
  Tb  Tb4  1  0.252291  0.252161  0.747709  1
  Tb  Tb5  1  0.252291  0.747709  0.252161  1
  Tb  Tb6  1  0.252226  0.747774  0.747774  1
  Ce  Ce7  1  0.745837  0.254163  0.254163  1
  Al  Al8  1  0.000467  0.999533  0.999533  1
  Pd  Pd9  1  0.259881  0.499887  0.999842  1
  Pd  Pd10  1  0.740190  0.499072  0.001399  1
  Pd  Pd11  1  0.998601  0.259810  0.499072  1
  Pd  Pd12  1  0.500928  0.259810  0.001399  1
  Pd  Pd13  1  0.000158  0.740119  0.499887  1
  Pd  Pd14  1  0.500113  0.740119  0.999842  1
  Pd  Pd15  1  0.500928  0.001399  0.259810  1
  Pd  Pd16  1  0.259881  0.999842  0.499887  1
  Pd  Pd17  1  0.500113  0.999842  0.740119  1
  Pd  Pd18  1  0.740190  0.001399  0.499072  1
  Pd  Pd19  1  0.998601  0.499072  0.259810  1
  Pd  Pd20  1  0.000158  0.499887  0.740119  1
  Pd  Pd21  1  0.253075  0.499943  0.499943  1
  Pd  Pd22  1  0.746776  0.499043  0.499043  1
  Pd  Pd23  1  0.500957  0.253224  0.499043  1
  Pd  Pd24  1  0.500057  0.746925  0.499943  1
  Pd  Pd25  1  0.500957  0.499043  0.253224  1
  Pd  Pd26  1  0.500057  0.499943  0.746925  1
  Pd  Pd27  1  0.289294  0.999903  0.999903  1
  Pd  Pd28  1  0.710900  0.000232  0.000232  1
  Pd  Pd29  1  0.999768  0.289100  0.000232  1
  Pd  Pd30  1  0.000097  0.710706  0.999903  1
  Pd  Pd31  1  0.999768  0.000232  0.289100  1
  Pd  Pd32  1  0.000097  0.999903  0.710706  1
