# generated using pymatgen
data_Dy3In3IrRhAu
_symmetry_space_group_name_H-M   'P 1'
_cell_length_a   7.78588500
_cell_length_b   7.78588421
_cell_length_c   3.78479900
_cell_angle_alpha   90.00000000
_cell_angle_beta   90.00000000
_cell_angle_gamma   120.00000761
_symmetry_Int_Tables_number   1
_chemical_formula_structural   Dy3In3IrRhAu
_chemical_formula_sum   'Dy3 In3 Ir1 Rh1 Au1'
_cell_volume   198.69610059
_cell_formula_units_Z   1
loop_
 _symmetry_equiv_pos_site_id
 _symmetry_equiv_pos_as_xyz
  1  'x, y, z'
loop_
 _atom_site_type_symbol
 _atom_site_label
 _atom_site_symmetry_multiplicity
 _atom_site_fract_x
 _atom_site_fract_y
 _atom_site_fract_z
 _atom_site_occupancy
  Dy  Dy0  1  0.584865  0.607643  0.000000  1
  Dy  Dy1  1  0.392357  0.977222  0.000000  1
  Dy  Dy2  1  0.022778  0.415135  0.000000  1
  In  In3  1  0.000174  0.742895  0.500000  1
  In  In4  1  0.257105  0.257279  0.500000  1
  In  In5  1  0.742721  0.999826  0.500000  1
  Ir  Ir6  1  0.333333  0.666667  0.500000  1
  Rh  Rh7  1  0.000000  0.000000  0.000000  1
  Au  Au8  1  0.666667  0.333333  0.500000  1
