# generated using pymatgen
data_TbCe2Tm2Ir3
_symmetry_space_group_name_H-M   'P 1'
_cell_length_a   11.01761300
_cell_length_b   10.96098500
_cell_length_c   6.30373000
_cell_angle_alpha   90.00000000
_cell_angle_beta   90.00000000
_cell_angle_gamma   90.00000000
_symmetry_Int_Tables_number   1
_chemical_formula_structural   TbCe2Tm2Ir3
_chemical_formula_sum   'Tb4 Ce8 Tm8 Ir12'
_cell_volume   761.26296153
_cell_formula_units_Z   4
loop_
 _symmetry_equiv_pos_site_id
 _symmetry_equiv_pos_as_xyz
  1  'x, y, z'
loop_
 _atom_site_type_symbol
 _atom_site_label
 _atom_site_symmetry_multiplicity
 _atom_site_fract_x
 _atom_site_fract_y
 _atom_site_fract_z
 _atom_site_occupancy
  Tb  Tb0  1  0.286704  0.088271  0.376863  1
  Tb  Tb1  1  0.286704  0.911729  0.876863  1
  Tb  Tb2  1  0.713296  0.088271  0.876863  1
  Tb  Tb3  1  0.713296  0.911729  0.376863  1
  Ce  Ce4  1  0.591686  0.791321  0.883180  1
  Ce  Ce5  1  0.591686  0.208679  0.383180  1
  Ce  Ce6  1  0.408314  0.791321  0.383180  1
  Ce  Ce7  1  0.408314  0.208679  0.883180  1
  Ce  Ce8  1  0.206643  0.409580  0.616934  1
  Ce  Ce9  1  0.206643  0.590420  0.116934  1
  Ce  Ce10  1  0.793357  0.409580  0.116934  1
  Ce  Ce11  1  0.793357  0.590420  0.616934  1
  Tm  Tm12  1  0.914382  0.711564  0.120615  1
  Tm  Tm13  1  0.914382  0.288436  0.620615  1
  Tm  Tm14  1  0.085618  0.711564  0.620615  1
  Tm  Tm15  1  0.085618  0.288436  0.120615  1
  Tm  Tm16  1  0.000000  0.000000  0.499768  1
  Tm  Tm17  1  0.000000  0.000000  0.999768  1
  Tm  Tm18  1  0.500000  0.500000  0.004208  1
  Tm  Tm19  1  0.500000  0.500000  0.504208  1
  Ir  Ir20  1  0.850747  0.153925  0.250142  1
  Ir  Ir21  1  0.850747  0.846075  0.750142  1
  Ir  Ir22  1  0.149253  0.153925  0.750142  1
  Ir  Ir23  1  0.149253  0.846075  0.250142  1
  Ir  Ir24  1  0.656008  0.346393  0.751123  1
  Ir  Ir25  1  0.656008  0.653607  0.251123  1
  Ir  Ir26  1  0.343992  0.346393  0.251123  1
  Ir  Ir27  1  0.343992  0.653607  0.751123  1
  Ir  Ir28  1  0.500000  0.000000  0.117911  1
  Ir  Ir29  1  0.500000  0.000000  0.617911  1
  Ir  Ir30  1  0.000000  0.500000  0.880398  1
  Ir  Ir31  1  0.000000  0.500000  0.380398  1
