# generated using pymatgen
data_Yb4Al18IrPt5
_symmetry_space_group_name_H-M   'P 1'
_cell_length_a   7.64385844
_cell_length_b   7.64385809
_cell_length_c   9.51328400
_cell_angle_alpha   90.01933131
_cell_angle_beta   90.01933131
_cell_angle_gamma   119.50846703
_symmetry_Int_Tables_number   1
_chemical_formula_structural   Yb4Al18IrPt5
_chemical_formula_sum   'Yb4 Al18 Ir1 Pt5'
_cell_volume   483.74453763
_cell_formula_units_Z   1
loop_
 _symmetry_equiv_pos_site_id
 _symmetry_equiv_pos_as_xyz
  1  'x, y, z'
loop_
 _atom_site_type_symbol
 _atom_site_label
 _atom_site_symmetry_multiplicity
 _atom_site_fract_x
 _atom_site_fract_y
 _atom_site_fract_z
 _atom_site_occupancy
  Yb  Yb0  1  0.996103  0.670755  0.250860  1
  Yb  Yb1  1  0.003897  0.329245  0.749140  1
  Yb  Yb2  1  0.670755  0.996103  0.250860  1
  Yb  Yb3  1  0.329245  0.003897  0.749140  1
  Al  Al4  1  0.128817  0.128817  0.252203  1
  Al  Al5  1  0.871183  0.871183  0.747797  1
  Al  Al6  1  0.000184  0.334766  0.077740  1
  Al  Al7  1  0.999816  0.665234  0.922260  1
  Al  Al8  1  0.000794  0.668944  0.575103  1
  Al  Al9  1  0.331056  0.999206  0.424897  1
  Al  Al10  1  0.999206  0.331056  0.424897  1
  Al  Al11  1  0.668944  0.000794  0.575103  1
  Al  Al12  1  0.665234  0.999816  0.922260  1
  Al  Al13  1  0.334766  0.000184  0.077740  1
  Al  Al14  1  0.328930  0.328930  0.552698  1
  Al  Al15  1  0.671070  0.671070  0.447302  1
  Al  Al16  1  0.667354  0.667354  0.054855  1
  Al  Al17  1  0.332646  0.332646  0.945145  1
  Al  Al18  1  0.340231  0.545143  0.250670  1
  Al  Al19  1  0.659769  0.454857  0.749330  1
  Al  Al20  1  0.545143  0.340231  0.250670  1
  Al  Al21  1  0.454857  0.659769  0.749330  1
  Ir  Ir22  1  0.000000  0.000000  0.500000  1
  Pt  Pt23  1  0.671627  0.328373  0.000000  1
  Pt  Pt24  1  0.328373  0.671627  0.000000  1
  Pt  Pt25  1  0.328513  0.671487  0.500000  1
  Pt  Pt26  1  0.671487  0.328513  0.500000  1
  Pt  Pt27  1  0.000000  0.000000  0.000000  1
