# generated using pymatgen
data_TbGd3(CrB4)4
_symmetry_space_group_name_H-M   'P 1'
_cell_length_a   3.46386700
_cell_length_b   5.95830402
_cell_length_c   11.51808438
_cell_angle_alpha   90.01901607
_cell_angle_beta   90.00000000
_cell_angle_gamma   90.00000000
_symmetry_Int_Tables_number   1
_chemical_formula_structural   TbGd3(CrB4)4
_chemical_formula_sum   'Tb1 Gd3 Cr4 B16'
_cell_volume   237.71911197
_cell_formula_units_Z   1
loop_
 _symmetry_equiv_pos_site_id
 _symmetry_equiv_pos_as_xyz
  1  'x, y, z'
loop_
 _atom_site_type_symbol
 _atom_site_label
 _atom_site_symmetry_multiplicity
 _atom_site_fract_x
 _atom_site_fract_y
 _atom_site_fract_z
 _atom_site_occupancy
  Tb  Tb0  1  0.000000  0.375809  0.650917  1
  Gd  Gd1  1  0.000000  0.623803  0.349136  1
  Gd  Gd2  1  0.000000  0.875717  0.848902  1
  Gd  Gd3  1  0.000000  0.124233  0.150941  1
  Cr  Cr4  1  0.000000  0.376516  0.919361  1
  Cr  Cr5  1  0.000000  0.623314  0.080361  1
  Cr  Cr6  1  0.000000  0.876693  0.580565  1
  Cr  Cr7  1  0.000000  0.123188  0.419805  1
  B  B8  1  0.500000  0.025317  0.690848  1
  B  B9  1  0.500000  0.975185  0.309353  1
  B  B10  1  0.500000  0.525034  0.808920  1
  B  B11  1  0.500000  0.475295  0.190688  1
  B  B12  1  0.500000  0.113143  0.546665  1
  B  B13  1  0.500000  0.887031  0.453659  1
  B  B14  1  0.500000  0.612965  0.953398  1
  B  B15  1  0.500000  0.387164  0.046424  1
  B  B16  1  0.500000  0.279658  0.316504  1
  B  B17  1  0.500000  0.719982  0.683736  1
  B  B18  1  0.500000  0.779720  0.183599  1
  B  B19  1  0.500000  0.220254  0.816025  1
  B  B20  1  0.500000  0.361924  0.467614  1
  B  B21  1  0.500000  0.638030  0.532672  1
  B  B22  1  0.500000  0.861788  0.032582  1
  B  B23  1  0.500000  0.138237  0.967326  1
