# generated using pymatgen
data_VTe4Ir
_symmetry_space_group_name_H-M   'P 1'
_cell_length_a   3.78368900
_cell_length_b   12.61065800
_cell_length_c   13.43370300
_cell_angle_alpha   90.00000000
_cell_angle_beta   90.00000000
_cell_angle_gamma   90.00000000
_symmetry_Int_Tables_number   1
_chemical_formula_structural   VTe4Ir
_chemical_formula_sum   'V4 Te16 Ir4'
_cell_volume   640.98655880
_cell_formula_units_Z   4
loop_
 _symmetry_equiv_pos_site_id
 _symmetry_equiv_pos_as_xyz
  1  'x, y, z'
loop_
 _atom_site_type_symbol
 _atom_site_label
 _atom_site_symmetry_multiplicity
 _atom_site_fract_x
 _atom_site_fract_y
 _atom_site_fract_z
 _atom_site_occupancy
  V  V0  1  0.000000  0.051062  0.004286  1
  V  V1  1  0.500000  0.948938  0.504286  1
  V  V2  1  0.000000  0.269073  0.490370  1
  V  V3  1  0.500000  0.730927  0.990370  1
  Te  Te4  1  0.500000  0.100293  0.139690  1
  Te  Te5  1  0.000000  0.899707  0.639690  1
  Te  Te6  1  0.500000  0.150573  0.596275  1
  Te  Te7  1  0.000000  0.849427  0.096275  1
  Te  Te8  1  0.500000  0.317564  0.354912  1
  Te  Te9  1  0.000000  0.682436  0.854912  1
  Te  Te10  1  0.500000  0.434506  0.897565  1
  Te  Te11  1  0.000000  0.565494  0.397565  1
  Te  Te12  1  0.000000  0.067267  0.400616  1
  Te  Te13  1  0.500000  0.932733  0.900616  1
  Te  Te14  1  0.000000  0.182564  0.859915  1
  Te  Te15  1  0.500000  0.817436  0.359915  1
  Te  Te16  1  0.000000  0.346012  0.094521  1
  Te  Te17  1  0.500000  0.653988  0.594521  1
  Te  Te18  1  0.000000  0.403750  0.632511  1
  Te  Te19  1  0.500000  0.596250  0.132511  1
  Ir  Ir20  1  0.000000  0.536108  0.999019  1
  Ir  Ir21  1  0.500000  0.463892  0.499019  1
  Ir  Ir22  1  0.000000  0.755607  0.493379  1
  Ir  Ir23  1  0.500000  0.244393  0.993379  1
