# generated using pymatgen
data_Pr2Y2GeBr6
_symmetry_space_group_name_H-M   'P 1'
_cell_length_a   4.17837400
_cell_length_b   13.64906700
_cell_length_c   14.37410000
_cell_angle_alpha   90.00000000
_cell_angle_beta   90.00000000
_cell_angle_gamma   90.00000000
_symmetry_Int_Tables_number   1
_chemical_formula_structural   Pr2Y2GeBr6
_chemical_formula_sum   'Pr4 Y4 Ge2 Br12'
_cell_volume   819.76795567
_cell_formula_units_Z   2
loop_
 _symmetry_equiv_pos_site_id
 _symmetry_equiv_pos_as_xyz
  1  'x, y, z'
loop_
 _atom_site_type_symbol
 _atom_site_label
 _atom_site_symmetry_multiplicity
 _atom_site_fract_x
 _atom_site_fract_y
 _atom_site_fract_z
 _atom_site_occupancy
  Pr  Pr0  1  0.000000  0.122732  0.581884  1
  Pr  Pr1  1  0.000000  0.877268  0.418116  1
  Pr  Pr2  1  0.000000  0.622732  0.918116  1
  Pr  Pr3  1  0.000000  0.377268  0.081884  1
  Y  Y4  1  0.500000  0.117332  0.341532  1
  Y  Y5  1  0.500000  0.882668  0.658468  1
  Y  Y6  1  0.500000  0.617332  0.158468  1
  Y  Y7  1  0.500000  0.382668  0.841532  1
  Ge  Ge8  1  0.500000  0.000000  0.500000  1
  Ge  Ge9  1  0.500000  0.500000  0.000000  1
  Br  Br10  1  0.500000  0.237012  0.168634  1
  Br  Br11  1  0.500000  0.762988  0.831366  1
  Br  Br12  1  0.500000  0.737012  0.331366  1
  Br  Br13  1  0.500000  0.262988  0.668634  1
  Br  Br14  1  0.000000  0.250633  0.404569  1
  Br  Br15  1  0.000000  0.749367  0.595431  1
  Br  Br16  1  0.000000  0.750633  0.095431  1
  Br  Br17  1  0.000000  0.249367  0.904569  1
  Br  Br18  1  0.000000  0.009485  0.244500  1
  Br  Br19  1  0.000000  0.990515  0.755500  1
  Br  Br20  1  0.000000  0.509485  0.255500  1
  Br  Br21  1  0.000000  0.490515  0.744500  1
