# generated using pymatgen
data_Gd3(PtAu4)2
_symmetry_space_group_name_H-M   'P 1'
_cell_length_a   10.81544600
_cell_length_b   10.79434260
_cell_length_c   5.01540800
_cell_angle_alpha   90.00000000
_cell_angle_beta   90.00000000
_cell_angle_gamma   120.15964854
_symmetry_Int_Tables_number   1
_chemical_formula_structural   Gd3(PtAu4)2
_chemical_formula_sum   'Gd6 Pt4 Au16'
_cell_volume   506.26350409
_cell_formula_units_Z   2
loop_
 _symmetry_equiv_pos_site_id
 _symmetry_equiv_pos_as_xyz
  1  'x, y, z'
loop_
 _atom_site_type_symbol
 _atom_site_label
 _atom_site_symmetry_multiplicity
 _atom_site_fract_x
 _atom_site_fract_y
 _atom_site_fract_z
 _atom_site_occupancy
  Gd  Gd0  1  0.651532  0.752169  0.250000  1
  Gd  Gd1  1  0.243727  0.901097  0.250000  1
  Gd  Gd2  1  0.100922  0.347453  0.250000  1
  Gd  Gd3  1  0.350513  0.245349  0.750000  1
  Gd  Gd4  1  0.748084  0.102267  0.750000  1
  Gd  Gd5  1  0.903800  0.652203  0.750000  1
  Pt  Pt6  1  0.877011  0.051576  0.250000  1
  Pt  Pt7  1  0.947478  0.829566  0.250000  1
  Pt  Pt8  1  0.168839  0.120097  0.250000  1
  Pt  Pt9  1  0.122888  0.949267  0.750000  1
  Au  Au10  1  0.050901  0.171294  0.750000  1
  Au  Au11  1  0.828247  0.878228  0.750000  1
  Au  Au12  1  0.564047  0.978221  0.250000  1
  Au  Au13  1  0.021466  0.585265  0.250000  1
  Au  Au14  1  0.412680  0.432397  0.250000  1
  Au  Au15  1  0.434691  0.019890  0.750000  1
  Au  Au16  1  0.980342  0.414824  0.750000  1
  Au  Au17  1  0.585389  0.561540  0.750000  1
  Au  Au18  1  0.792288  0.279722  0.250000  1
  Au  Au19  1  0.721744  0.514229  0.250000  1
  Au  Au20  1  0.489709  0.208608  0.250000  1
  Au  Au21  1  0.208768  0.719193  0.750000  1
  Au  Au22  1  0.282646  0.490545  0.750000  1
  Au  Au23  1  0.511707  0.791504  0.750000  1
  Au  Au24  1  0.667625  0.335355  0.750000  1
  Au  Au25  1  0.332954  0.668142  0.250000  1
