# generated using pymatgen
data_Y19Er(NiAg3)2
_symmetry_space_group_name_H-M   'P 1'
_cell_length_a   9.53067800
_cell_length_b   9.53067864
_cell_length_c   9.61371700
_cell_angle_alpha   90.00000000
_cell_angle_beta   90.00000000
_cell_angle_gamma   119.99999779
_symmetry_Int_Tables_number   1
_chemical_formula_structural   Y19Er(NiAg3)2
_chemical_formula_sum   'Y19 Er1 Ni2 Ag6'
_cell_volume   756.25733133
_cell_formula_units_Z   1
loop_
 _symmetry_equiv_pos_site_id
 _symmetry_equiv_pos_as_xyz
  1  'x, y, z'
loop_
 _atom_site_type_symbol
 _atom_site_label
 _atom_site_symmetry_multiplicity
 _atom_site_fract_x
 _atom_site_fract_y
 _atom_site_fract_z
 _atom_site_occupancy
  Y  Y0  1  0.000000  0.000000  0.000000  1
  Y  Y1  1  0.543850  0.456150  0.250022  1
  Y  Y2  1  0.543850  0.087702  0.250022  1
  Y  Y3  1  0.912298  0.456150  0.250022  1
  Y  Y4  1  0.456150  0.543850  0.749978  1
  Y  Y5  1  0.456150  0.912298  0.749978  1
  Y  Y6  1  0.087702  0.543850  0.749978  1
  Y  Y7  1  0.209516  0.790484  0.439524  1
  Y  Y8  1  0.209516  0.419032  0.439524  1
  Y  Y9  1  0.580968  0.790484  0.439524  1
  Y  Y10  1  0.790484  0.209516  0.560476  1
  Y  Y11  1  0.790484  0.580968  0.560476  1
  Y  Y12  1  0.419032  0.209516  0.560476  1
  Y  Y13  1  0.790178  0.209822  0.939612  1
  Y  Y14  1  0.790178  0.580354  0.939612  1
  Y  Y15  1  0.419646  0.209822  0.939612  1
  Y  Y16  1  0.209822  0.790178  0.060388  1
  Y  Y17  1  0.209822  0.419646  0.060388  1
  Y  Y18  1  0.580354  0.790178  0.060388  1
  Er  Er19  1  0.000000  0.000000  0.500000  1
  Ni  Ni20  1  0.333333  0.666667  0.250097  1
  Ni  Ni21  1  0.666667  0.333333  0.749903  1
  Ag  Ag22  1  0.883771  0.116229  0.250706  1
  Ag  Ag23  1  0.883771  0.767541  0.250706  1
  Ag  Ag24  1  0.232459  0.116229  0.250706  1
  Ag  Ag25  1  0.116229  0.883771  0.749294  1
  Ag  Ag26  1  0.116229  0.232459  0.749294  1
  Ag  Ag27  1  0.767541  0.883771  0.749294  1
