# generated using pymatgen
data_Zn2Fe3RhO8
_symmetry_space_group_name_H-M   'P 1'
_cell_length_a   6.04345369
_cell_length_b   6.04288095
_cell_length_c   6.05913610
_cell_angle_alpha   120.08281021
_cell_angle_beta   89.98995252
_cell_angle_gamma   60.17484006
_symmetry_Int_Tables_number   1
_chemical_formula_structural   Zn2Fe3RhO8
_chemical_formula_sum   'Zn2 Fe3 Rh1 O8'
_cell_volume   156.67072966
_cell_formula_units_Z   1
loop_
 _symmetry_equiv_pos_site_id
 _symmetry_equiv_pos_as_xyz
  1  'x, y, z'
loop_
 _atom_site_type_symbol
 _atom_site_label
 _atom_site_symmetry_multiplicity
 _atom_site_fract_x
 _atom_site_fract_y
 _atom_site_fract_z
 _atom_site_occupancy
  Zn  Zn0  1  0.873564  0.747131  0.873564  1
  Zn  Zn1  1  0.126436  0.252869  0.126436  1
  Fe  Fe2  1  0.000000  0.000000  0.500000  1
  Fe  Fe3  1  0.500000  0.500000  0.000000  1
  Fe  Fe4  1  0.500000  0.500000  0.500000  1
  Rh  Rh5  1  0.500000  0.000000  0.500000  1
  O  O6  1  0.742745  0.021741  0.742745  1
  O  O7  1  0.739183  0.478435  0.739183  1
  O  O8  1  0.257156  0.978256  0.721025  1
  O  O9  1  0.257255  0.978259  0.257255  1
  O  O10  1  0.260817  0.521565  0.260817  1
  O  O11  1  0.742844  0.021744  0.278975  1
  O  O12  1  0.278975  0.485614  0.742844  1
  O  O13  1  0.721025  0.514386  0.257156  1
