# generated using pymatgen
data_TbYV6O18
_symmetry_space_group_name_H-M   'P 1'
_cell_length_a   8.42985038
_cell_length_b   8.44771238
_cell_length_c   10.84859000
_cell_angle_alpha   57.60534696
_cell_angle_beta   122.28446322
_cell_angle_gamma   127.88860242
_symmetry_Int_Tables_number   1
_chemical_formula_structural   TbYV6O18
_chemical_formula_sum   'Tb1 Y1 V6 O18'
_cell_volume   489.83315251
_cell_formula_units_Z   1
loop_
 _symmetry_equiv_pos_site_id
 _symmetry_equiv_pos_as_xyz
  1  'x, y, z'
loop_
 _atom_site_type_symbol
 _atom_site_label
 _atom_site_symmetry_multiplicity
 _atom_site_fract_x
 _atom_site_fract_y
 _atom_site_fract_z
 _atom_site_occupancy
  Tb  Tb0  1  0.387224  0.129661  0.354349  1
  Y  Y1  1  0.869699  0.612196  0.854040  1
  V  V2  1  0.655088  0.122566  0.178565  1
  V  V3  1  0.878443  0.345908  0.678950  1
  V  V4  1  0.080590  0.104544  0.524152  1
  V  V5  1  0.895414  0.918001  0.024036  1
  V  V6  1  0.325767  0.579987  0.593596  1
  V  V7  1  0.419302  0.675313  0.092466  1
  O  O8  1  0.855231  0.080895  0.355895  1
  O  O9  1  0.920597  0.145674  0.856693  1
  O  O10  1  0.235885  0.051461  0.514152  1
  O  O11  1  0.946813  0.762966  0.012492  1
  O  O12  1  0.001653  0.933395  0.681954  1
  O  O13  1  0.064373  0.990986  0.184243  1
  O  O14  1  0.218380  0.372402  0.523387  1
  O  O15  1  0.626833  0.780794  0.022060  1
  O  O16  1  0.540474  0.219362  0.191020  1
  O  O17  1  0.782063  0.460443  0.691743  1
  O  O18  1  0.464807  0.870040  0.146879  1
  O  O19  1  0.131318  0.537145  0.647497  1
  O  O20  1  0.387934  0.814910  0.455067  1
  O  O21  1  0.185431  0.616291  0.953235  1
  O  O22  1  0.413577  0.457019  0.245106  1
  O  O23  1  0.542206  0.582526  0.746936  1
  O  O24  1  0.708889  0.241782  0.533091  1
  O  O25  1  0.762604  0.293137  0.034193  1
