# generated using pymatgen
data_Lu10Ga3Sn2Ir
_symmetry_space_group_name_H-M   'P 1'
_cell_length_a   8.43486060
_cell_length_b   8.43485901
_cell_length_c   8.49950500
_cell_angle_alpha   125.65702728
_cell_angle_beta   125.65702794
_cell_angle_gamma   79.93302740
_symmetry_Int_Tables_number   1
_chemical_formula_structural   Lu10Ga3Sn2Ir
_chemical_formula_sum   'Lu10 Ga3 Sn2 Ir1'
_cell_volume   386.55443385
_cell_formula_units_Z   1
loop_
 _symmetry_equiv_pos_site_id
 _symmetry_equiv_pos_as_xyz
  1  'x, y, z'
loop_
 _atom_site_type_symbol
 _atom_site_label
 _atom_site_symmetry_multiplicity
 _atom_site_fract_x
 _atom_site_fract_y
 _atom_site_fract_z
 _atom_site_occupancy
  Lu  Lu0  1  0.002504  0.005312  0.007817  1
  Lu  Lu1  1  0.494688  0.497496  0.992183  1
  Lu  Lu2  1  0.015253  0.505382  0.806560  1
  Lu  Lu3  1  0.708693  0.198821  0.193440  1
  Lu  Lu4  1  0.516997  0.696945  0.500000  1
  Lu  Lu5  1  0.191412  0.034460  0.500000  1
  Lu  Lu6  1  0.994618  0.484747  0.193440  1
  Lu  Lu7  1  0.301179  0.791307  0.806560  1
  Lu  Lu8  1  0.465540  0.308588  0.500000  1
  Lu  Lu9  1  0.803055  0.983003  0.500000  1
  Ga  Ga10  1  0.366162  0.860615  0.226777  1
  Ga  Ga11  1  0.639385  0.133838  0.773223  1
  Ga  Ga12  1  0.865467  0.634533  0.500000  1
  Sn  Sn13  1  0.754750  0.745250  0.000000  1
  Sn  Sn14  1  0.254750  0.245250  0.000000  1
  Ir  Ir15  1  0.125549  0.374451  0.500000  1
