# generated using pymatgen
data_Ho8Ta9Nb3Si16
_symmetry_space_group_name_H-M   'P 1'
_cell_length_a   7.03649507
_cell_length_b   7.03695102
_cell_length_c   12.98725918
_cell_angle_alpha   90.00399290
_cell_angle_beta   89.96300748
_cell_angle_gamma   90.00166731
_symmetry_Int_Tables_number   1
_chemical_formula_structural   Ho8Ta9Nb3Si16
_chemical_formula_sum   'Ho8 Ta9 Nb3 Si16'
_cell_volume   643.07012152
_cell_formula_units_Z   1
loop_
 _symmetry_equiv_pos_site_id
 _symmetry_equiv_pos_as_xyz
  1  'x, y, z'
loop_
 _atom_site_type_symbol
 _atom_site_label
 _atom_site_symmetry_multiplicity
 _atom_site_fract_x
 _atom_site_fract_y
 _atom_site_fract_z
 _atom_site_occupancy
  Ho  Ho0  1  0.998077  0.340819  0.218207  1
  Ho  Ho1  1  0.001720  0.659108  0.718191  1
  Ho  Ho2  1  0.159257  0.498030  0.468292  1
  Ho  Ho3  1  0.500994  0.840655  0.031790  1
  Ho  Ho4  1  0.840674  0.502016  0.968286  1
  Ho  Ho5  1  0.498875  0.159141  0.531810  1
  Ho  Ho6  1  0.340936  0.998694  0.781750  1
  Ho  Ho7  1  0.659158  0.000993  0.281773  1
  Ta  Ta8  1  0.170742  0.171287  0.999722  1
  Ta  Ta9  1  0.829684  0.829197  0.500122  1
  Ta  Ta10  1  0.329216  0.670232  0.249946  1
  Ta  Ta11  1  0.670584  0.329715  0.750251  1
  Ta  Ta12  1  0.153971  0.992020  0.376246  1
  Ta  Ta13  1  0.845950  0.007896  0.876238  1
  Ta  Ta14  1  0.507664  0.654329  0.626427  1
  Ta  Ta15  1  0.346238  0.493082  0.874026  1
  Ta  Ta16  1  0.491941  0.346235  0.125911  1
  Nb  Nb17  1  0.653765  0.506423  0.374070  1
  Nb  Nb18  1  0.993482  0.154018  0.623934  1
  Nb  Nb19  1  0.006429  0.846291  0.123572  1
  Si  Si20  1  0.294293  0.044214  0.186264  1
  Si  Si21  1  0.705495  0.956059  0.686291  1
  Si  Si22  1  0.455693  0.794215  0.436364  1
  Si  Si23  1  0.204773  0.544057  0.063833  1
  Si  Si24  1  0.544437  0.205356  0.936178  1
  Si  Si25  1  0.795188  0.456076  0.564006  1
  Si  Si26  1  0.044257  0.295468  0.813973  1
  Si  Si27  1  0.956060  0.704752  0.313880  1
  Si  Si28  1  0.366430  0.295140  0.318071  1
  Si  Si29  1  0.633402  0.704704  0.818571  1
  Si  Si30  1  0.204835  0.866644  0.568093  1
  Si  Si31  1  0.133121  0.795727  0.931133  1
  Si  Si32  1  0.795404  0.133655  0.068163  1
  Si  Si33  1  0.867051  0.203566  0.431451  1
  Si  Si34  1  0.296522  0.367324  0.681695  1
  Si  Si35  1  0.703684  0.632857  0.181469  1
