# generated using pymatgen
data_DyHo5Al24ZnRu7
_symmetry_space_group_name_H-M   'P 1'
_cell_length_a   8.82230405
_cell_length_b   8.82146307
_cell_length_c   9.52308305
_cell_angle_alpha   89.99530546
_cell_angle_beta   89.99689727
_cell_angle_gamma   119.95264444
_symmetry_Int_Tables_number   1
_chemical_formula_structural   DyHo5Al24ZnRu7
_chemical_formula_sum   'Dy1 Ho5 Al24 Zn1 Ru7'
_cell_volume   642.15206341
_cell_formula_units_Z   1
loop_
 _symmetry_equiv_pos_site_id
 _symmetry_equiv_pos_as_xyz
  1  'x, y, z'
loop_
 _atom_site_type_symbol
 _atom_site_label
 _atom_site_symmetry_multiplicity
 _atom_site_fract_x
 _atom_site_fract_y
 _atom_site_fract_z
 _atom_site_occupancy
  Dy  Dy0  1  0.193031  0.386281  0.247527  1
  Ho  Ho1  1  0.806928  0.613529  0.752397  1
  Ho  Ho2  1  0.613569  0.806994  0.247616  1
  Ho  Ho3  1  0.386464  0.193049  0.752376  1
  Ho  Ho4  1  0.194365  0.805656  0.253264  1
  Ho  Ho5  1  0.805621  0.194403  0.746696  1
  Al  Al6  1  0.329223  0.670963  0.021290  1
  Al  Al7  1  0.670837  0.329163  0.978633  1
  Al  Al8  1  0.666310  0.333685  0.516288  1
  Al  Al9  1  0.333748  0.666427  0.483784  1
  Al  Al10  1  0.162135  0.324203  0.576822  1
  Al  Al11  1  0.837871  0.675777  0.423269  1
  Al  Al12  1  0.675790  0.837858  0.576754  1
  Al  Al13  1  0.849498  0.677996  0.081816  1
  Al  Al14  1  0.324236  0.162076  0.423300  1
  Al  Al15  1  0.150509  0.321982  0.918108  1
  Al  Al16  1  0.162424  0.837561  0.578234  1
  Al  Al17  1  0.322007  0.150449  0.081778  1
  Al  Al18  1  0.837493  0.162386  0.421813  1
  Al  Al19  1  0.678019  0.849505  0.918173  1
  Al  Al20  1  0.837194  0.162647  0.078399  1
  Al  Al21  1  0.162725  0.837294  0.921559  1
  Al  Al22  1  0.561085  0.121055  0.248554  1
  Al  Al23  1  0.438901  0.878911  0.751453  1
  Al  Al24  1  0.878782  0.438948  0.248561  1
  Al  Al25  1  0.121073  0.561087  0.751436  1
  Al  Al26  1  0.563539  0.436652  0.254571  1
  Al  Al27  1  0.436627  0.563377  0.745436  1
  Al  Al28  1  0.999066  0.000736  0.250384  1
  Al  Al29  1  0.000860  0.999132  0.749620  1
  Zn  Zn30  1  0.500014  0.500010  0.999986  1
  Ru  Ru31  1  0.500025  0.000037  0.999985  1
  Ru  Ru32  1  0.999939  0.500049  0.999921  1
  Ru  Ru33  1  0.500040  0.000072  0.500030  1
  Ru  Ru34  1  0.999943  0.500024  0.500076  1
  Ru  Ru35  1  0.500114  0.500045  0.500083  1
  Ru  Ru36  1  0.000007  0.999998  0.999994  1
  Ru  Ru37  1  0.999988  0.999978  0.500013  1
