# generated using pymatgen
data_Ac6Pr2Be3Si12Pt
_symmetry_space_group_name_H-M   'P 1'
_cell_length_a   8.19393001
_cell_length_b   8.19308745
_cell_length_c   9.21939100
_cell_angle_alpha   90.00222554
_cell_angle_beta   89.99808501
_cell_angle_gamma   119.99697036
_symmetry_Int_Tables_number   1
_chemical_formula_structural   Ac6Pr2Be3Si12Pt
_chemical_formula_sum   'Ac6 Pr2 Be3 Si12 Pt1'
_cell_volume   536.02613301
_cell_formula_units_Z   1
loop_
 _symmetry_equiv_pos_site_id
 _symmetry_equiv_pos_as_xyz
  1  'x, y, z'
loop_
 _atom_site_type_symbol
 _atom_site_label
 _atom_site_symmetry_multiplicity
 _atom_site_fract_x
 _atom_site_fract_y
 _atom_site_fract_z
 _atom_site_occupancy
  Ac  Ac0  1  0.499840  0.500160  0.751548  1
  Ac  Ac1  1  0.499918  0.500083  0.248472  1
  Ac  Ac2  1  0.000321  0.500161  0.751548  1
  Ac  Ac3  1  0.000167  0.500083  0.248471  1
  Ac  Ac4  1  0.499839  0.999678  0.751548  1
  Ac  Ac5  1  0.499916  0.999833  0.248471  1
  Pr  Pr6  1  0.000001  0.000003  0.750781  1
  Pr  Pr7  1  0.000002  0.000004  0.249298  1
  Be  Be8  1  0.666669  0.333335  0.999322  1
  Be  Be9  1  0.333331  0.666664  0.000641  1
  Be  Be10  1  0.333331  0.666664  0.499674  1
  Si  Si11  1  0.829531  0.170467  0.000096  1
  Si  Si12  1  0.170839  0.829162  0.999972  1
  Si  Si13  1  0.340934  0.170467  0.000097  1
  Si  Si14  1  0.167871  0.832131  0.499898  1
  Si  Si15  1  0.658323  0.829162  0.999972  1
  Si  Si16  1  0.835076  0.164922  0.500107  1
  Si  Si17  1  0.829532  0.659065  0.000097  1
  Si  Si18  1  0.664259  0.832130  0.499898  1
  Si  Si19  1  0.170840  0.341679  0.999972  1
  Si  Si20  1  0.329844  0.164921  0.500106  1
  Si  Si21  1  0.167871  0.335742  0.499898  1
  Si  Si22  1  0.835077  0.670154  0.500106  1
  Pt  Pt23  1  0.666666  0.333332  0.500009  1
