# generated using pymatgen
data_Hf2Cu2PdRh3
_symmetry_space_group_name_H-M   'P 1'
_cell_length_a   4.00861300
_cell_length_b   4.08708500
_cell_length_c   7.37080700
_cell_angle_alpha   90.00000000
_cell_angle_beta   90.00000000
_cell_angle_gamma   90.00000000
_symmetry_Int_Tables_number   1
_chemical_formula_structural   Hf2Cu2PdRh3
_chemical_formula_sum   'Hf2 Cu2 Pd1 Rh3'
_cell_volume   120.75992652
_cell_formula_units_Z   1
loop_
 _symmetry_equiv_pos_site_id
 _symmetry_equiv_pos_as_xyz
  1  'x, y, z'
loop_
 _atom_site_type_symbol
 _atom_site_label
 _atom_site_symmetry_multiplicity
 _atom_site_fract_x
 _atom_site_fract_y
 _atom_site_fract_z
 _atom_site_occupancy
  Hf  Hf0  1  0.000000  0.000000  0.245324  1
  Hf  Hf1  1  0.000000  0.000000  0.754676  1
  Cu  Cu2  1  0.500000  0.500000  0.248014  1
  Cu  Cu3  1  0.500000  0.500000  0.751986  1
  Pd  Pd4  1  0.000000  0.500000  0.500000  1
  Rh  Rh5  1  0.000000  0.500000  0.000000  1
  Rh  Rh6  1  0.500000  0.000000  0.500000  1
  Rh  Rh7  1  0.500000  0.000000  0.000000  1
