# generated using pymatgen
data_Sr5Mn6Co(AsO4)8
_symmetry_space_group_name_H-M   'P 1'
_cell_length_a   5.30247554
_cell_length_b   9.51608828
_cell_length_c   18.16916800
_cell_angle_alpha   61.68576349
_cell_angle_beta   90.17782603
_cell_angle_gamma   90.00646955
_symmetry_Int_Tables_number   1
_chemical_formula_structural   Sr5Mn6Co(AsO4)8
_chemical_formula_sum   'Sr5 Mn6 Co1 As8 O32'
_cell_volume   807.10425351
_cell_formula_units_Z   1
loop_
 _symmetry_equiv_pos_site_id
 _symmetry_equiv_pos_as_xyz
  1  'x, y, z'
loop_
 _atom_site_type_symbol
 _atom_site_label
 _atom_site_symmetry_multiplicity
 _atom_site_fract_x
 _atom_site_fract_y
 _atom_site_fract_z
 _atom_site_occupancy
  Sr  Sr0  1  0.544747  0.313813  0.231970  1
  Sr  Sr1  1  0.028770  0.696454  0.261014  1
  Sr  Sr2  1  0.455253  0.686187  0.768030  1
  Sr  Sr3  1  0.971230  0.303546  0.738986  1
  Sr  Sr4  1  0.500000  0.000000  0.500000  1
  Mn  Mn5  1  0.481426  0.194206  0.628029  1
  Mn  Mn6  1  0.518574  0.805794  0.371971  1
  Mn  Mn7  1  0.994814  0.805990  0.886240  1
  Mn  Mn8  1  0.005186  0.194010  0.113760  1
  Mn  Mn9  1  0.000000  0.500000  0.500000  1
  Mn  Mn10  1  0.500000  0.500000  0.000000  1
  Co  Co11  1  0.000000  0.000000  0.000000  1
  As  As12  1  0.011865  0.032661  0.337397  1
  As  As13  1  0.485148  0.441635  0.404401  1
  As  As14  1  0.998489  0.568535  0.095707  1
  As  As15  1  0.001511  0.431465  0.904293  1
  As  As16  1  0.988135  0.967339  0.662603  1
  As  As17  1  0.514852  0.558365  0.595599  1
  As  As18  1  0.509038  0.023644  0.857061  1
  As  As19  1  0.490962  0.976356  0.142939  1
  O  O20  1  0.458027  0.832090  0.247296  1
  O  O21  1  0.956315  0.758574  0.013884  1
  O  O22  1  0.388773  0.437417  0.316424  1
  O  O23  1  0.410415  0.162632  0.132339  1
  O  O24  1  0.611227  0.562583  0.683576  1
  O  O25  1  0.042430  0.826979  0.765642  1
  O  O26  1  0.888873  0.549083  0.187867  1
  O  O27  1  0.693734  0.494818  0.898732  1
  O  O28  1  0.705476  0.083491  0.911787  1
  O  O29  1  0.541973  0.167910  0.752704  1
  O  O30  1  0.084510  0.153015  0.648172  1
  O  O31  1  0.306266  0.505182  0.101268  1
  O  O32  1  0.298863  0.587447  0.411493  1
  O  O33  1  0.294524  0.916509  0.088213  1
  O  O34  1  0.663836  0.976533  0.644162  1
  O  O35  1  0.188153  0.020211  0.879191  1
  O  O36  1  0.820749  0.431591  0.077252  1
  O  O37  1  0.111127  0.450917  0.812133  1
  O  O38  1  0.149246  0.905066  0.602817  1
  O  O39  1  0.209294  0.489665  0.602176  1
  O  O40  1  0.811847  0.979789  0.120809  1
  O  O41  1  0.336164  0.023467  0.355838  1
  O  O42  1  0.043685  0.241426  0.986116  1
  O  O43  1  0.436934  0.264951  0.494043  1
  O  O44  1  0.701137  0.412553  0.588507  1
  O  O45  1  0.957570  0.173021  0.234358  1
  O  O46  1  0.589585  0.837368  0.867661  1
  O  O47  1  0.850754  0.094934  0.397183  1
  O  O48  1  0.563066  0.735049  0.505957  1
  O  O49  1  0.790706  0.510335  0.397824  1
  O  O50  1  0.179251  0.568409  0.922748  1
  O  O51  1  0.915490  0.846985  0.351828  1
