# generated using pymatgen
data_Ce4Pr5Nd11Ir12
_symmetry_space_group_name_H-M   'P 1'
_cell_length_a   11.26993262
_cell_length_b   11.27662438
_cell_length_c   6.49820415
_cell_angle_alpha   90.00640494
_cell_angle_beta   90.02408481
_cell_angle_gamma   89.97095824
_symmetry_Int_Tables_number   1
_chemical_formula_structural   Ce4Pr5Nd11Ir12
_chemical_formula_sum   'Ce4 Pr5 Nd11 Ir12'
_cell_volume   825.83576689
_cell_formula_units_Z   1
loop_
 _symmetry_equiv_pos_site_id
 _symmetry_equiv_pos_as_xyz
  1  'x, y, z'
loop_
 _atom_site_type_symbol
 _atom_site_label
 _atom_site_symmetry_multiplicity
 _atom_site_fract_x
 _atom_site_fract_y
 _atom_site_fract_z
 _atom_site_occupancy
  Ce  Ce0  1  0.000006  0.999999  0.999727  1
  Ce  Ce1  1  0.500001  0.500028  0.999823  1
  Ce  Ce2  1  0.500140  0.499689  0.499652  1
  Ce  Ce3  1  0.000002  0.000098  0.500172  1
  Pr  Pr4  1  0.089802  0.290010  0.124263  1
  Pr  Pr5  1  0.790146  0.410292  0.124255  1
  Pr  Pr6  1  0.209574  0.589320  0.123948  1
  Pr  Pr7  1  0.910098  0.709999  0.124312  1
  Pr  Pr8  1  0.410902  0.790415  0.375971  1
  Nd  Nd9  1  0.588818  0.208855  0.376963  1
  Nd  Nd10  1  0.291336  0.089076  0.376854  1
  Nd  Nd11  1  0.708813  0.911493  0.376906  1
  Nd  Nd12  1  0.411098  0.208908  0.876233  1
  Nd  Nd13  1  0.708848  0.088959  0.876245  1
  Nd  Nd14  1  0.291130  0.911438  0.876023  1
  Nd  Nd15  1  0.589235  0.791367  0.876237  1
  Nd  Nd16  1  0.089074  0.708843  0.623716  1
  Nd  Nd17  1  0.910673  0.291069  0.623543  1
  Nd  Nd18  1  0.209012  0.410643  0.623449  1
  Nd  Nd19  1  0.790935  0.589299  0.623694  1
  Ir  Ir20  1  0.146557  0.854791  0.250408  1
  Ir  Ir21  1  0.354495  0.352750  0.250637  1
  Ir  Ir22  1  0.646296  0.646681  0.249806  1
  Ir  Ir23  1  0.852799  0.145428  0.250807  1
  Ir  Ir24  1  0.354047  0.645956  0.749923  1
  Ir  Ir25  1  0.146636  0.146030  0.748719  1
  Ir  Ir26  1  0.853364  0.853986  0.748555  1
  Ir  Ir27  1  0.645906  0.353728  0.748472  1
  Ir  Ir28  1  0.999926  0.499964  0.389082  1
  Ir  Ir29  1  0.500165  0.000393  0.112747  1
  Ir  Ir30  1  0.500215  0.000558  0.613446  1
  Ir  Ir31  1  0.999952  0.499937  0.885415  1
