# generated using pymatgen
data_Pr6Y10MgHg3Ir4
_symmetry_space_group_name_H-M   'P 1'
_cell_length_a   9.78106091
_cell_length_b   9.79395039
_cell_length_c   9.79395000
_cell_angle_alpha   60.00000132
_cell_angle_beta   59.95639928
_cell_angle_gamma   59.95640430
_symmetry_Int_Tables_number   1
_chemical_formula_structural   Pr6Y10MgHg3Ir4
_chemical_formula_sum   'Pr6 Y10 Mg1 Hg3 Ir4'
_cell_volume   662.97971932
_cell_formula_units_Z   1
loop_
 _symmetry_equiv_pos_site_id
 _symmetry_equiv_pos_as_xyz
  1  'x, y, z'
loop_
 _atom_site_type_symbol
 _atom_site_label
 _atom_site_symmetry_multiplicity
 _atom_site_fract_x
 _atom_site_fract_y
 _atom_site_fract_z
 _atom_site_occupancy
  Pr  Pr0  1  0.940113  0.560355  0.560355  1
  Pr  Pr1  1  0.558079  0.940979  0.940979  1
  Pr  Pr2  1  0.558079  0.940979  0.559962  1
  Pr  Pr3  1  0.940113  0.560355  0.939176  1
  Pr  Pr4  1  0.558079  0.559962  0.940979  1
  Pr  Pr5  1  0.940113  0.939176  0.560355  1
  Y  Y6  1  0.347385  0.346473  0.346473  1
  Y  Y7  1  0.347385  0.346473  0.959671  1
  Y  Y8  1  0.347385  0.959671  0.346473  1
  Y  Y9  1  0.953002  0.349000  0.349000  1
  Y  Y10  1  0.810325  0.189075  0.189075  1
  Y  Y11  1  0.185180  0.813905  0.813905  1
  Y  Y12  1  0.185180  0.813905  0.187010  1
  Y  Y13  1  0.810325  0.189075  0.811526  1
  Y  Y14  1  0.185180  0.187010  0.813905  1
  Y  Y15  1  0.810325  0.811526  0.189075  1
  Mg  Mg16  1  0.286414  0.571196  0.571196  1
  Hg  Hg17  1  0.580161  0.584374  0.584374  1
  Hg  Hg18  1  0.580161  0.584374  0.251090  1
  Hg  Hg19  1  0.580161  0.251090  0.584374  1
  Ir  Ir20  1  0.140192  0.141845  0.141845  1
  Ir  Ir21  1  0.140192  0.141845  0.576118  1
  Ir  Ir22  1  0.140192  0.576118  0.141845  1
  Ir  Ir23  1  0.576279  0.141240  0.141240  1
