# generated using pymatgen
data_HoTm3(Ga2Ag)4
_symmetry_space_group_name_H-M   'P 1'
_cell_length_a   4.35718400
_cell_length_b   6.89416322
_cell_length_c   10.22926067
_cell_angle_alpha   90.09717981
_cell_angle_beta   90.00000000
_cell_angle_gamma   90.00000000
_symmetry_Int_Tables_number   1
_chemical_formula_structural   HoTm3(Ga2Ag)4
_chemical_formula_sum   'Ho1 Tm3 Ga8 Ag4'
_cell_volume   307.27772781
_cell_formula_units_Z   1
loop_
 _symmetry_equiv_pos_site_id
 _symmetry_equiv_pos_as_xyz
  1  'x, y, z'
loop_
 _atom_site_type_symbol
 _atom_site_label
 _atom_site_symmetry_multiplicity
 _atom_site_fract_x
 _atom_site_fract_y
 _atom_site_fract_z
 _atom_site_occupancy
  Ho  Ho0  1  0.250000  0.278091  0.675296  1
  Tm  Tm1  1  0.250000  0.777939  0.825268  1
  Tm  Tm2  1  0.750000  0.222015  0.174842  1
  Tm  Tm3  1  0.750000  0.722050  0.325389  1
  Ga  Ga4  1  0.250000  0.702952  0.536212  1
  Ga  Ga5  1  0.750000  0.298933  0.462898  1
  Ga  Ga6  1  0.750000  0.797573  0.036970  1
  Ga  Ga7  1  0.250000  0.199849  0.964652  1
  Ga  Ga8  1  0.250000  0.929577  0.155047  1
  Ga  Ga9  1  0.750000  0.068796  0.846412  1
  Ga  Ga10  1  0.750000  0.571193  0.653883  1
  Ga  Ga11  1  0.250000  0.430671  0.345054  1
  Ag  Ag12  1  0.250000  0.544268  0.095948  1
  Ag  Ag13  1  0.750000  0.455337  0.903027  1
  Ag  Ag14  1  0.750000  0.955733  0.596287  1
  Ag  Ag15  1  0.250000  0.045025  0.402812  1
