# generated using pymatgen
data_DyHoCo9Mo3As7
_symmetry_space_group_name_H-M   'P 1'
_cell_length_a   3.84706000
_cell_length_b   9.40139434
_cell_length_c   9.40139500
_cell_angle_alpha   119.99999178
_cell_angle_beta   90.00000000
_cell_angle_gamma   90.00000000
_symmetry_Int_Tables_number   1
_chemical_formula_structural   DyHoCo9Mo3As7
_chemical_formula_sum   'Dy1 Ho1 Co9 Mo3 As7'
_cell_volume   294.47212928
_cell_formula_units_Z   1
loop_
 _symmetry_equiv_pos_site_id
 _symmetry_equiv_pos_as_xyz
  1  'x, y, z'
loop_
 _atom_site_type_symbol
 _atom_site_label
 _atom_site_symmetry_multiplicity
 _atom_site_fract_x
 _atom_site_fract_y
 _atom_site_fract_z
 _atom_site_occupancy
  Dy  Dy0  1  0.500000  0.333333  0.666667  1
  Ho  Ho1  1  0.000000  0.666667  0.333333  1
  Co  Co2  1  0.000000  0.570113  0.940460  1
  Co  Co3  1  0.000000  0.370347  0.429887  1
  Co  Co4  1  0.000000  0.059540  0.629653  1
  Co  Co5  1  0.000000  0.876319  0.158415  1
  Co  Co6  1  0.000000  0.282096  0.123681  1
  Co  Co7  1  0.000000  0.841585  0.717904  1
  Co  Co8  1  0.500000  0.949091  0.382947  1
  Co  Co9  1  0.500000  0.433855  0.050909  1
  Co  Co10  1  0.500000  0.617053  0.566145  1
  Mo  Mo11  1  0.500000  0.781098  0.902434  1
  Mo  Mo12  1  0.500000  0.121335  0.218902  1
  Mo  Mo13  1  0.500000  0.097566  0.878665  1
  As  As14  1  0.000000  0.000000  0.000000  1
  As  As15  1  0.500000  0.707633  0.120371  1
  As  As16  1  0.500000  0.412739  0.292367  1
  As  As17  1  0.500000  0.879629  0.587261  1
  As  As18  1  0.000000  0.585643  0.699202  1
  As  As19  1  0.000000  0.113560  0.414357  1
  As  As20  1  0.000000  0.300798  0.886440  1
