# generated using pymatgen
data_Sm10Si3Te7
_symmetry_space_group_name_H-M   'P 1'
_cell_length_a   11.63575823
_cell_length_b   11.63575729
_cell_length_c   7.69523600
_cell_angle_alpha   83.66284746
_cell_angle_beta   83.66284797
_cell_angle_gamma   141.93846882
_symmetry_Int_Tables_number   1
_chemical_formula_structural   Sm10Si3Te7
_chemical_formula_sum   'Sm10 Si3 Te7'
_cell_volume   604.39740393
_cell_formula_units_Z   1
loop_
 _symmetry_equiv_pos_site_id
 _symmetry_equiv_pos_as_xyz
  1  'x, y, z'
loop_
 _atom_site_type_symbol
 _atom_site_label
 _atom_site_symmetry_multiplicity
 _atom_site_fract_x
 _atom_site_fract_y
 _atom_site_fract_z
 _atom_site_occupancy
  Sm  Sm0  1  0.264447  0.264447  0.775457  1
  Sm  Sm1  1  0.850344  0.650562  0.750287  1
  Sm  Sm2  1  0.735553  0.735553  0.224543  1
  Sm  Sm3  1  0.459370  0.044265  0.717105  1
  Sm  Sm4  1  0.349438  0.149656  0.249713  1
  Sm  Sm5  1  0.044265  0.459370  0.717105  1
  Sm  Sm6  1  0.955735  0.540630  0.282895  1
  Sm  Sm7  1  0.650562  0.850344  0.750287  1
  Sm  Sm8  1  0.540630  0.955735  0.282895  1
  Sm  Sm9  1  0.149656  0.349438  0.249713  1
  Si  Si10  1  0.500000  0.500000  0.000000  1
  Si  Si11  1  0.196047  0.803953  0.500000  1
  Si  Si12  1  0.803953  0.196047  0.500000  1
  Te  Te13  1  0.895617  0.104383  0.000000  1
  Te  Te14  1  0.400908  0.599092  0.500000  1
  Te  Te15  1  0.000000  0.000000  0.500000  1
  Te  Te16  1  0.599092  0.400908  0.500000  1
  Te  Te17  1  0.104383  0.895617  0.000000  1
  Te  Te18  1  0.700581  0.299419  0.000000  1
  Te  Te19  1  0.299419  0.700581  0.000000  1
