# generated using pymatgen
data_NdErBi2O7
_symmetry_space_group_name_H-M   'P 1'
_cell_length_a   6.65404160
_cell_length_b   6.75902945
_cell_length_c   7.82698863
_cell_angle_alpha   106.53789788
_cell_angle_beta   89.61711364
_cell_angle_gamma   98.38357385
_symmetry_Int_Tables_number   1
_chemical_formula_structural   NdErBi2O7
_chemical_formula_sum   'Nd2 Er2 Bi4 O14'
_cell_volume   333.62428842
_cell_formula_units_Z   2
loop_
 _symmetry_equiv_pos_site_id
 _symmetry_equiv_pos_as_xyz
  1  'x, y, z'
loop_
 _atom_site_type_symbol
 _atom_site_label
 _atom_site_symmetry_multiplicity
 _atom_site_fract_x
 _atom_site_fract_y
 _atom_site_fract_z
 _atom_site_occupancy
  Nd  Nd0  1  0.261043  0.539966  0.884995  1
  Nd  Nd1  1  0.738957  0.460034  0.115005  1
  Er  Er2  1  0.460007  0.005445  0.252400  1
  Er  Er3  1  0.539993  0.994555  0.747600  1
  Bi  Bi4  1  0.000000  0.000000  0.500000  1
  Bi  Bi5  1  0.000000  0.000000  0.000000  1
  Bi  Bi6  1  0.724962  0.458672  0.611059  1
  Bi  Bi7  1  0.275038  0.541328  0.388941  1
  O  O8  1  0.445699  0.659313  0.173261  1
  O  O9  1  0.554301  0.340687  0.826739  1
  O  O10  1  0.304739  0.932938  0.948546  1
  O  O11  1  0.695261  0.067062  0.051454  1
  O  O12  1  0.302256  0.923727  0.514554  1
  O  O13  1  0.697744  0.076273  0.485446  1
  O  O14  1  0.536387  0.353918  0.345453  1
  O  O15  1  0.463613  0.646082  0.654547  1
  O  O16  1  0.931870  0.673826  0.959500  1
  O  O17  1  0.068130  0.326174  0.040500  1
  O  O18  1  0.086726  0.323385  0.622809  1
  O  O19  1  0.913274  0.676615  0.377191  1
  O  O20  1  0.873906  0.930343  0.733321  1
  O  O21  1  0.126094  0.069657  0.266679  1
