# generated using pymatgen
data_Tb2CoReRu2
_symmetry_space_group_name_H-M   'P 1'
_cell_length_a   5.06223786
_cell_length_b   5.49372808
_cell_length_c   5.49372933
_cell_angle_alpha   61.51277275
_cell_angle_beta   58.17490567
_cell_angle_gamma   58.17490251
_symmetry_Int_Tables_number   1
_chemical_formula_structural   Tb2CoReRu2
_chemical_formula_sum   'Tb2 Co1 Re1 Ru2'
_cell_volume   106.03005964
_cell_formula_units_Z   1
loop_
 _symmetry_equiv_pos_site_id
 _symmetry_equiv_pos_as_xyz
  1  'x, y, z'
loop_
 _atom_site_type_symbol
 _atom_site_label
 _atom_site_symmetry_multiplicity
 _atom_site_fract_x
 _atom_site_fract_y
 _atom_site_fract_z
 _atom_site_occupancy
  Tb  Tb0  1  0.116704  0.128416  0.128416  1
  Tb  Tb1  1  0.883296  0.871584  0.871584  1
  Co  Co2  1  0.500000  0.500000  0.500000  1
  Re  Re3  1  0.000000  0.500000  0.500000  1
  Ru  Ru4  1  0.500000  0.000000  0.500000  1
  Ru  Ru5  1  0.500000  0.500000  0.000000  1
