# generated using pymatgen
data_Er5Si6P6Ir16Os3
_symmetry_space_group_name_H-M   'P 1'
_cell_length_a   12.75414900
_cell_length_b   12.75414872
_cell_length_c   3.96534000
_cell_angle_alpha   90.00000000
_cell_angle_beta   90.00000000
_cell_angle_gamma   120.00000263
_symmetry_Int_Tables_number   1
_chemical_formula_structural   Er5Si6P6Ir16Os3
_chemical_formula_sum   'Er5 Si6 P6 Ir16 Os3'
_cell_volume   558.61682762
_cell_formula_units_Z   1
loop_
 _symmetry_equiv_pos_site_id
 _symmetry_equiv_pos_as_xyz
  1  'x, y, z'
loop_
 _atom_site_type_symbol
 _atom_site_label
 _atom_site_symmetry_multiplicity
 _atom_site_fract_x
 _atom_site_fract_y
 _atom_site_fract_z
 _atom_site_occupancy
  Er  Er0  1  0.666667  0.333333  0.000000  1
  Er  Er1  1  0.333333  0.666667  0.000000  1
  Er  Er2  1  0.816275  0.815467  0.500000  1
  Er  Er3  1  0.184533  0.000807  0.500000  1
  Er  Er4  1  0.999193  0.183725  0.500000  1
  Si  Si5  1  0.685226  0.164024  0.500000  1
  Si  Si6  1  0.835976  0.521201  0.500000  1
  Si  Si7  1  0.478799  0.314774  0.500000  1
  Si  Si8  1  0.634522  0.633128  0.000000  1
  Si  Si9  1  0.366872  0.001395  0.000000  1
  Si  Si10  1  0.998605  0.365478  0.000000  1
  P  P11  1  0.175700  0.694815  0.500000  1
  P  P12  1  0.519114  0.824300  0.500000  1
  P  P13  1  0.305185  0.480886  0.500000  1
  P  P14  1  0.178229  0.180646  0.000000  1
  P  P15  1  0.819354  0.997583  0.000000  1
  P  P16  1  0.002417  0.821771  0.000000  1
  Ir  Ir17  1  0.808375  0.178205  0.000000  1
  Ir  Ir18  1  0.821795  0.630170  0.000000  1
  Ir  Ir19  1  0.369830  0.191625  0.000000  1
  Ir  Ir20  1  0.184675  0.803202  0.000000  1
  Ir  Ir21  1  0.618527  0.815325  0.000000  1
  Ir  Ir22  1  0.196798  0.381473  0.000000  1
  Ir  Ir23  1  0.451011  0.443889  0.000000  1
  Ir  Ir24  1  0.556111  0.007122  0.000000  1
  Ir  Ir25  1  0.992878  0.548989  0.000000  1
  Ir  Ir26  1  0.870930  0.357255  0.500000  1
  Ir  Ir27  1  0.642745  0.513675  0.500000  1
  Ir  Ir28  1  0.486325  0.129070  0.500000  1
  Ir  Ir29  1  0.368168  0.872053  0.500000  1
  Ir  Ir30  1  0.503885  0.631832  0.500000  1
  Ir  Ir31  1  0.127947  0.496115  0.500000  1
  Ir  Ir32  1  0.000000  0.000000  0.000000  1
  Os  Os33  1  0.278239  0.285376  0.500000  1
  Os  Os34  1  0.714624  0.992863  0.500000  1
  Os  Os35  1  0.007137  0.721761  0.500000  1
