# generated using pymatgen
data_Sm6Er4Tl3In3Cl2
_symmetry_space_group_name_H-M   'P 1'
_cell_length_a   9.23977600
_cell_length_b   9.24289531
_cell_length_c   6.73239700
_cell_angle_alpha   90.00000000
_cell_angle_beta   90.00000000
_cell_angle_gamma   119.99505893
_symmetry_Int_Tables_number   1
_chemical_formula_structural   Sm6Er4Tl3In3Cl2
_chemical_formula_sum   'Sm6 Er4 Tl3 In3 Cl2'
_cell_volume   497.95654807
_cell_formula_units_Z   1
loop_
 _symmetry_equiv_pos_site_id
 _symmetry_equiv_pos_as_xyz
  1  'x, y, z'
loop_
 _atom_site_type_symbol
 _atom_site_label
 _atom_site_symmetry_multiplicity
 _atom_site_fract_x
 _atom_site_fract_y
 _atom_site_fract_z
 _atom_site_occupancy
  Sm  Sm0  1  0.741332  0.741177  0.250000  1
  Sm  Sm1  1  0.999218  0.740547  0.750000  1
  Sm  Sm2  1  0.740354  0.999518  0.750000  1
  Sm  Sm3  1  0.258581  0.259225  0.750000  1
  Sm  Sm4  1  0.000980  0.259799  0.250000  1
  Sm  Sm5  1  0.259603  0.000583  0.250000  1
  Er  Er6  1  0.333484  0.664420  0.500340  1
  Er  Er7  1  0.666689  0.334937  0.500370  1
  Er  Er8  1  0.333484  0.664420  0.999660  1
  Er  Er9  1  0.666689  0.334937  0.999630  1
  Tl  Tl10  1  0.396457  0.000151  0.750000  1
  Tl  Tl11  1  0.999766  0.603139  0.250000  1
  Tl  Tl12  1  0.603243  0.000347  0.250000  1
  In  In13  1  0.999649  0.396692  0.750000  1
  In  In14  1  0.396896  0.397225  0.250000  1
  In  In15  1  0.603414  0.603753  0.750000  1
  Cl  Cl16  1  0.000082  0.999565  0.499456  1
  Cl  Cl17  1  0.000082  0.999565  0.000544  1
