# generated using pymatgen
data_Hf18TiRe7POs
_symmetry_space_group_name_H-M   'P 1'
_cell_length_a   8.59571207
_cell_length_b   8.60345941
_cell_length_c   8.60384904
_cell_angle_alpha   119.99936615
_cell_angle_beta   90.00199818
_cell_angle_gamma   89.99948837
_symmetry_Int_Tables_number   1
_chemical_formula_structural   Hf18TiRe7POs
_chemical_formula_sum   'Hf18 Ti1 Re7 P1 Os1'
_cell_volume   551.03750720
_cell_formula_units_Z   1
loop_
 _symmetry_equiv_pos_site_id
 _symmetry_equiv_pos_as_xyz
  1  'x, y, z'
loop_
 _atom_site_type_symbol
 _atom_site_label
 _atom_site_symmetry_multiplicity
 _atom_site_fract_x
 _atom_site_fract_y
 _atom_site_fract_z
 _atom_site_occupancy
  Hf  Hf0  1  0.550067  0.803927  0.607859  1
  Hf  Hf1  1  0.550065  0.803934  0.196069  1
  Hf  Hf2  1  0.550061  0.392189  0.196100  1
  Hf  Hf3  1  0.447732  0.196935  0.393867  1
  Hf  Hf4  1  0.447688  0.196971  0.803049  1
  Hf  Hf5  1  0.447625  0.606139  0.803082  1
  Hf  Hf6  1  0.053903  0.197983  0.395977  1
  Hf  Hf7  1  0.053943  0.198010  0.801995  1
  Hf  Hf8  1  0.053958  0.603958  0.801990  1
  Hf  Hf9  1  0.950030  0.806454  0.612907  1
  Hf  Hf10  1  0.950034  0.806417  0.193580  1
  Hf  Hf11  1  0.950010  0.387123  0.193557  1
  Hf  Hf12  1  0.750356  0.459203  0.918352  1
  Hf  Hf13  1  0.750356  0.459194  0.540880  1
  Hf  Hf14  1  0.750380  0.081686  0.540851  1
  Hf  Hf15  1  0.250165  0.541324  0.082673  1
  Hf  Hf16  1  0.250161  0.541302  0.458669  1
  Hf  Hf17  1  0.250185  0.917387  0.458698  1
  Ti  Ti18  1  0.496699  0.000019  0.999997  1
  Re  Re19  1  0.747766  0.110505  0.220975  1
  Re  Re20  1  0.747790  0.110489  0.889552  1
  Re  Re21  1  0.747724  0.779056  0.889553  1
  Re  Re22  1  0.250680  0.888377  0.776794  1
  Re  Re23  1  0.250718  0.888392  0.111552  1
  Re  Re24  1  0.250667  0.223157  0.111575  1
  Re  Re25  1  0.998527  0.999973  0.999969  1
  P  P26  1  0.752473  0.666694  0.333365  1
  Os  Os27  1  0.250235  0.333200  0.666513  1
