# generated using pymatgen
data_Cs2NaSmBi2
_symmetry_space_group_name_H-M   'P 1'
_cell_length_a   10.55722888
_cell_length_b   10.55722892
_cell_length_c   10.55722850
_cell_angle_alpha   136.45651469
_cell_angle_beta   63.55939681
_cell_angle_gamma   136.08900547
_symmetry_Int_Tables_number   1
_chemical_formula_structural   Cs2NaSmBi2
_chemical_formula_sum   'Cs4 Na2 Sm2 Bi4'
_cell_volume   554.85209438
_cell_formula_units_Z   2
loop_
 _symmetry_equiv_pos_site_id
 _symmetry_equiv_pos_as_xyz
  1  'x, y, z'
loop_
 _atom_site_type_symbol
 _atom_site_label
 _atom_site_symmetry_multiplicity
 _atom_site_fract_x
 _atom_site_fract_y
 _atom_site_fract_z
 _atom_site_occupancy
  Cs  Cs0  1  0.323740  0.722947  0.046686  1
  Cs  Cs1  1  0.176260  0.222947  0.399206  1
  Cs  Cs2  1  0.823740  0.777054  0.600794  1
  Cs  Cs3  1  0.676260  0.277054  0.953314  1
  Na  Na4  1  0.249999  0.249999  0.000000  1
  Na  Na5  1  0.750000  0.750000  0.000000  1
  Sm  Sm6  1  0.749999  0.249999  0.500000  1
  Sm  Sm7  1  0.249999  0.750000  0.500000  1
  Bi  Bi8  1  0.904477  0.269654  0.174131  1
  Bi  Bi9  1  0.595523  0.769655  0.365178  1
  Bi  Bi10  1  0.404477  0.230346  0.634823  1
  Bi  Bi11  1  0.095523  0.730345  0.825868  1
