# generated using pymatgen
data_Ce(TmCo)2
_symmetry_space_group_name_H-M   'P 1'
_cell_length_a   3.67420176
_cell_length_b   6.02723256
_cell_length_c   5.86744071
_cell_angle_alpha   120.90505459
_cell_angle_beta   108.24621274
_cell_angle_gamma   89.99998922
_symmetry_Int_Tables_number   1
_chemical_formula_structural   Ce(TmCo)2
_chemical_formula_sum   'Ce1 Tm2 Co2'
_cell_volume   103.79974808
_cell_formula_units_Z   1
loop_
 _symmetry_equiv_pos_site_id
 _symmetry_equiv_pos_as_xyz
  1  'x, y, z'
loop_
 _atom_site_type_symbol
 _atom_site_label
 _atom_site_symmetry_multiplicity
 _atom_site_fract_x
 _atom_site_fract_y
 _atom_site_fract_z
 _atom_site_occupancy
  Ce  Ce0  1  0.000000  0.000000  0.000000  1
  Tm  Tm1  1  0.811058  0.311058  0.622117  1
  Tm  Tm2  1  0.188942  0.688942  0.377883  1
  Co  Co3  1  0.500000  0.292951  0.000000  1
  Co  Co4  1  0.500000  0.707049  0.000000  1
