# generated using pymatgen
data_La5Nd5(NiSn2)2
_symmetry_space_group_name_H-M   'P 1'
_cell_length_a   8.30456393
_cell_length_b   9.17485800
_cell_length_c   12.88329400
_cell_angle_alpha   90.00000000
_cell_angle_beta   90.18422575
_cell_angle_gamma   90.00000000
_symmetry_Int_Tables_number   1
_chemical_formula_structural   La5Nd5(NiSn2)2
_chemical_formula_sum   'La10 Nd10 Ni4 Sn8'
_cell_volume   981.61425510
_cell_formula_units_Z   2
loop_
 _symmetry_equiv_pos_site_id
 _symmetry_equiv_pos_as_xyz
  1  'x, y, z'
loop_
 _atom_site_type_symbol
 _atom_site_label
 _atom_site_symmetry_multiplicity
 _atom_site_fract_x
 _atom_site_fract_y
 _atom_site_fract_z
 _atom_site_occupancy
  La  La0  1  0.837055  0.750000  0.789504  1
  La  La1  1  0.162945  0.250000  0.210496  1
  La  La2  1  0.677264  0.027830  0.566539  1
  La  La3  1  0.322736  0.972170  0.433461  1
  La  La4  1  0.178064  0.972038  0.932774  1
  La  La5  1  0.322736  0.527830  0.433461  1
  La  La6  1  0.821936  0.027962  0.067226  1
  La  La7  1  0.677264  0.472170  0.566539  1
  La  La8  1  0.821936  0.472038  0.067226  1
  La  La9  1  0.178064  0.527962  0.932774  1
  Nd  Nd10  1  0.335751  0.250000  0.710903  1
  Nd  Nd11  1  0.664249  0.750000  0.289097  1
  Nd  Nd12  1  0.363227  0.750000  0.704448  1
  Nd  Nd13  1  0.636773  0.250000  0.295552  1
  Nd  Nd14  1  0.865426  0.250000  0.795715  1
  Nd  Nd15  1  0.134574  0.750000  0.204285  1
  Nd  Nd16  1  0.959880  0.750000  0.501870  1
  Nd  Nd17  1  0.040120  0.250000  0.498130  1
  Nd  Nd18  1  0.458840  0.250000  0.999169  1
  Nd  Nd19  1  0.541160  0.750000  0.000831  1
  Ni  Ni20  1  0.583194  0.750000  0.516890  1
  Ni  Ni21  1  0.416806  0.250000  0.483110  1
  Ni  Ni22  1  0.081170  0.250000  0.983908  1
  Ni  Ni23  1  0.918830  0.750000  0.016092  1
  Sn  Sn24  1  0.565401  0.492159  0.828322  1
  Sn  Sn25  1  0.434599  0.507841  0.171678  1
  Sn  Sn26  1  0.069582  0.504499  0.670281  1
  Sn  Sn27  1  0.434599  0.992159  0.171678  1
  Sn  Sn28  1  0.930418  0.495501  0.329719  1
  Sn  Sn29  1  0.565401  0.007841  0.828322  1
  Sn  Sn30  1  0.930418  0.004499  0.329719  1
  Sn  Sn31  1  0.069582  0.995501  0.670281  1
