# generated using pymatgen
data_Tb8Dy12Si15Ge
_symmetry_space_group_name_H-M   'P 1'
_cell_length_a   7.69168199
_cell_length_b   7.73067960
_cell_length_c   14.12796300
_cell_angle_alpha   89.26781476
_cell_angle_beta   89.85688856
_cell_angle_gamma   89.98005762
_symmetry_Int_Tables_number   1
_chemical_formula_structural   Tb8Dy12Si15Ge
_chemical_formula_sum   'Tb8 Dy12 Si15 Ge1'
_cell_volume   840.00467900
_cell_formula_units_Z   1
loop_
 _symmetry_equiv_pos_site_id
 _symmetry_equiv_pos_as_xyz
  1  'x, y, z'
loop_
 _atom_site_type_symbol
 _atom_site_label
 _atom_site_symmetry_multiplicity
 _atom_site_fract_x
 _atom_site_fract_y
 _atom_site_fract_z
 _atom_site_occupancy
  Tb  Tb0  1  0.990954  0.359448  0.207657  1
  Tb  Tb1  1  0.007188  0.640984  0.708040  1
  Tb  Tb2  1  0.138067  0.496121  0.458778  1
  Tb  Tb3  1  0.506499  0.858832  0.041959  1
  Tb  Tb4  1  0.860724  0.505870  0.957356  1
  Tb  Tb5  1  0.492196  0.141428  0.542049  1
  Tb  Tb6  1  0.361068  0.993428  0.792605  1
  Tb  Tb7  1  0.640965  0.006065  0.291631  1
  Dy  Dy8  1  0.183674  0.181424  0.999840  1
  Dy  Dy9  1  0.816918  0.817737  0.500722  1
  Dy  Dy10  1  0.317534  0.684927  0.249212  1
  Dy  Dy11  1  0.683777  0.317674  0.750072  1
  Dy  Dy12  1  0.135247  0.007632  0.374535  1
  Dy  Dy13  1  0.861926  0.991139  0.875614  1
  Dy  Dy14  1  0.491334  0.638611  0.625712  1
  Dy  Dy15  1  0.362726  0.507749  0.874300  1
  Dy  Dy16  1  0.507796  0.361086  0.125812  1
  Dy  Dy17  1  0.638796  0.495015  0.375259  1
  Dy  Dy18  1  0.008699  0.138122  0.624453  1
  Dy  Dy19  1  0.991594  0.860517  0.123337  1
  Si  Si20  1  0.654777  0.704614  0.812966  1
  Si  Si21  1  0.203994  0.846821  0.562855  1
  Si  Si22  1  0.153931  0.793389  0.935822  1
  Si  Si23  1  0.796286  0.153423  0.063850  1
  Si  Si24  1  0.844549  0.204997  0.436007  1
  Si  Si25  1  0.296125  0.346051  0.686727  1
  Si  Si26  1  0.703899  0.653172  0.186331  1
  Si  Si27  1  0.295921  0.057707  0.186894  1
  Si  Si28  1  0.705154  0.939124  0.688852  1
  Si  Si29  1  0.437854  0.797471  0.438272  1
  Si  Si30  1  0.204878  0.559389  0.061134  1
  Si  Si31  1  0.562746  0.204423  0.939035  1
  Si  Si32  1  0.795187  0.438631  0.561530  1
  Si  Si33  1  0.062321  0.294891  0.811054  1
  Si  Si34  1  0.937784  0.704439  0.311231  1
  Ge  Ge35  1  0.346910  0.297653  0.318493  1
