# generated using pymatgen
data_Dy5Bi3O14
_symmetry_space_group_name_H-M   'P 1'
_cell_length_a   6.59238939
_cell_length_b   6.60960051
_cell_length_c   7.74305870
_cell_angle_alpha   106.78422534
_cell_angle_beta   89.64723678
_cell_angle_gamma   98.66966282
_symmetry_Int_Tables_number   1
_chemical_formula_structural   Dy5Bi3O14
_chemical_formula_sum   'Dy5 Bi3 O14'
_cell_volume   319.07582211
_cell_formula_units_Z   1
loop_
 _symmetry_equiv_pos_site_id
 _symmetry_equiv_pos_as_xyz
  1  'x, y, z'
loop_
 _atom_site_type_symbol
 _atom_site_label
 _atom_site_symmetry_multiplicity
 _atom_site_fract_x
 _atom_site_fract_y
 _atom_site_fract_z
 _atom_site_occupancy
  Dy  Dy0  1  0.461421  0.006678  0.253380  1
  Dy  Dy1  1  0.538004  0.999142  0.750576  1
  Dy  Dy2  1  0.272029  0.535473  0.882359  1
  Dy  Dy3  1  0.736988  0.460735  0.113007  1
  Dy  Dy4  1  0.741233  0.478206  0.618425  1
  Bi  Bi5  1  0.993816  0.999858  0.500582  1
  Bi  Bi6  1  0.999209  0.996284  0.997612  1
  Bi  Bi7  1  0.281002  0.531022  0.388141  1
  O  O8  1  0.452653  0.651375  0.165233  1
  O  O9  1  0.556041  0.353981  0.835039  1
  O  O10  1  0.302062  0.919164  0.950441  1
  O  O11  1  0.698471  0.077993  0.050518  1
  O  O12  1  0.297650  0.931057  0.516737  1
  O  O13  1  0.698105  0.085969  0.492209  1
  O  O14  1  0.550766  0.362339  0.343941  1
  O  O15  1  0.461059  0.639502  0.657838  1
  O  O16  1  0.926270  0.661259  0.951416  1
  O  O17  1  0.070455  0.326340  0.028566  1
  O  O18  1  0.067247  0.342016  0.629255  1
  O  O19  1  0.903368  0.663827  0.379768  1
  O  O20  1  0.870678  0.899603  0.725441  1
  O  O21  1  0.121475  0.078178  0.269518  1
