# generated using pymatgen
data_Tm20TcIr3Au8
_symmetry_space_group_name_H-M   'P 1'
_cell_length_a   11.16155900
_cell_length_b   11.16155900
_cell_length_c   6.29142900
_cell_angle_alpha   90.00000000
_cell_angle_beta   90.00000000
_cell_angle_gamma   90.00000000
_symmetry_Int_Tables_number   1
_chemical_formula_structural   Tm20TcIr3Au8
_chemical_formula_sum   'Tm20 Tc1 Ir3 Au8'
_cell_volume   783.78873705
_cell_formula_units_Z   1
loop_
 _symmetry_equiv_pos_site_id
 _symmetry_equiv_pos_as_xyz
  1  'x, y, z'
loop_
 _atom_site_type_symbol
 _atom_site_label
 _atom_site_symmetry_multiplicity
 _atom_site_fract_x
 _atom_site_fract_y
 _atom_site_fract_z
 _atom_site_occupancy
  Tm  Tm0  1  0.299957  0.082237  0.353525  1
  Tm  Tm1  1  0.300916  0.917187  0.858567  1
  Tm  Tm2  1  0.699084  0.082813  0.858567  1
  Tm  Tm3  1  0.700043  0.917763  0.353525  1
  Tm  Tm4  1  0.582813  0.800916  0.858567  1
  Tm  Tm5  1  0.582237  0.200043  0.353525  1
  Tm  Tm6  1  0.417763  0.799957  0.353525  1
  Tm  Tm7  1  0.417187  0.199084  0.858567  1
  Tm  Tm8  1  0.201058  0.416910  0.642200  1
  Tm  Tm9  1  0.200983  0.582958  0.142339  1
  Tm  Tm10  1  0.799017  0.417042  0.142339  1
  Tm  Tm11  1  0.798942  0.583090  0.642200  1
  Tm  Tm12  1  0.917042  0.700983  0.142339  1
  Tm  Tm13  1  0.916910  0.298942  0.642200  1
  Tm  Tm14  1  0.083090  0.701058  0.642200  1
  Tm  Tm15  1  0.082958  0.299017  0.142339  1
  Tm  Tm16  1  0.000000  0.000000  0.499310  1
  Tm  Tm17  1  0.000000  0.000000  0.999476  1
  Tm  Tm18  1  0.500000  0.500000  0.999476  1
  Tm  Tm19  1  0.500000  0.500000  0.499310  1
  Tc  Tc20  1  0.500000  0.000000  0.110155  1
  Ir  Ir21  1  0.500000  0.000000  0.607724  1
  Ir  Ir22  1  0.000000  0.500000  0.896309  1
  Ir  Ir23  1  0.000000  0.500000  0.396571  1
  Au  Au24  1  0.844784  0.156286  0.250678  1
  Au  Au25  1  0.844662  0.844127  0.750609  1
  Au  Au26  1  0.155338  0.155873  0.750609  1
  Au  Au27  1  0.155216  0.843714  0.250678  1
  Au  Au28  1  0.655873  0.344662  0.750609  1
  Au  Au29  1  0.656286  0.655216  0.250678  1
  Au  Au30  1  0.343714  0.344784  0.250678  1
  Au  Au31  1  0.344127  0.655338  0.750609  1
