# generated using pymatgen
data_HoTiNb5Sn6
_symmetry_space_group_name_H-M   'P 1'
_cell_length_a   5.79232223
_cell_length_b   5.77645991
_cell_length_c   9.68334300
_cell_angle_alpha   90.00000000
_cell_angle_beta   90.00000000
_cell_angle_gamma   119.90946196
_symmetry_Int_Tables_number   1
_chemical_formula_structural   HoTiNb5Sn6
_chemical_formula_sum   'Ho1 Ti1 Nb5 Sn6'
_cell_volume   280.84449696
_cell_formula_units_Z   1
loop_
 _symmetry_equiv_pos_site_id
 _symmetry_equiv_pos_as_xyz
  1  'x, y, z'
loop_
 _atom_site_type_symbol
 _atom_site_label
 _atom_site_symmetry_multiplicity
 _atom_site_fract_x
 _atom_site_fract_y
 _atom_site_fract_z
 _atom_site_occupancy
  Ho  Ho0  1  0.000000  0.000000  0.001194  1
  Ti  Ti1  1  0.000000  0.500000  0.751127  1
  Nb  Nb2  1  0.000000  0.500000  0.250206  1
  Nb  Nb3  1  0.500000  0.500000  0.248780  1
  Nb  Nb4  1  0.500000  0.000000  0.248780  1
  Nb  Nb5  1  0.500000  0.500000  0.750242  1
  Nb  Nb6  1  0.500000  0.000000  0.750242  1
  Sn  Sn7  1  0.000000  0.000000  0.680605  1
  Sn  Sn8  1  0.330898  0.665450  0.500309  1
  Sn  Sn9  1  0.668256  0.334128  0.998851  1
  Sn  Sn10  1  0.331744  0.665872  0.998851  1
  Sn  Sn11  1  0.000000  0.000000  0.320506  1
  Sn  Sn12  1  0.669102  0.334550  0.500309  1
