# generated using pymatgen
data_Th6MnCl15
_symmetry_space_group_name_H-M   'P 1'
_cell_length_a   9.75116661
_cell_length_b   9.75116601
_cell_length_c   9.75116600
_cell_angle_alpha   109.47122269
_cell_angle_beta   109.47122144
_cell_angle_gamma   109.47121519
_symmetry_Int_Tables_number   1
_chemical_formula_structural   Th6MnCl15
_chemical_formula_sum   'Th6 Mn1 Cl15'
_cell_volume   713.75275888
_cell_formula_units_Z   1
loop_
 _symmetry_equiv_pos_site_id
 _symmetry_equiv_pos_as_xyz
  1  'x, y, z'
loop_
 _atom_site_type_symbol
 _atom_site_label
 _atom_site_symmetry_multiplicity
 _atom_site_fract_x
 _atom_site_fract_y
 _atom_site_fract_z
 _atom_site_occupancy
  Th  Th0  1  0.000000  0.244072  0.244072  1
  Th  Th1  1  0.000000  0.755928  0.755928  1
  Th  Th2  1  0.244072  0.000000  0.244072  1
  Th  Th3  1  0.755928  0.000000  0.755928  1
  Th  Th4  1  0.244072  0.244072  0.000000  1
  Th  Th5  1  0.755928  0.755928  0.000000  1
  Mn  Mn6  1  0.000000  0.000000  0.000000  1
  Cl  Cl7  1  0.495634  0.247817  0.247817  1
  Cl  Cl8  1  0.504366  0.752183  0.752183  1
  Cl  Cl9  1  0.000000  0.247817  0.752183  1
  Cl  Cl10  1  0.000000  0.752183  0.247817  1
  Cl  Cl11  1  0.247817  0.495634  0.247817  1
  Cl  Cl12  1  0.752183  0.000000  0.247817  1
  Cl  Cl13  1  0.752183  0.504366  0.752183  1
  Cl  Cl14  1  0.247817  0.000000  0.752183  1
  Cl  Cl15  1  0.247817  0.247817  0.495634  1
  Cl  Cl16  1  0.752183  0.752183  0.504366  1
  Cl  Cl17  1  0.752183  0.247817  0.000000  1
  Cl  Cl18  1  0.247817  0.752183  0.000000  1
  Cl  Cl19  1  0.000000  0.500000  0.500000  1
  Cl  Cl20  1  0.500000  0.000000  0.500000  1
  Cl  Cl21  1  0.500000  0.500000  0.000000  1
