# generated using pymatgen
data_Ho4Ni2C5
_symmetry_space_group_name_H-M   'P 1'
_cell_length_a   3.61637300
_cell_length_b   3.68247300
_cell_length_c   11.57389200
_cell_angle_alpha   90.00000000
_cell_angle_beta   90.00000000
_cell_angle_gamma   90.00000000
_symmetry_Int_Tables_number   1
_chemical_formula_structural   Ho4Ni2C5
_chemical_formula_sum   'Ho4 Ni2 C5'
_cell_volume   154.13178744
_cell_formula_units_Z   1
loop_
 _symmetry_equiv_pos_site_id
 _symmetry_equiv_pos_as_xyz
  1  'x, y, z'
loop_
 _atom_site_type_symbol
 _atom_site_label
 _atom_site_symmetry_multiplicity
 _atom_site_fract_x
 _atom_site_fract_y
 _atom_site_fract_z
 _atom_site_occupancy
  Ho  Ho0  1  0.500000  0.503756  0.203390  1
  Ho  Ho1  1  0.500000  0.503756  0.796610  1
  Ho  Ho2  1  0.500000  0.208447  0.500000  1
  Ho  Ho3  1  0.000000  0.999366  0.000000  1
  Ni  Ni4  1  0.000000  0.697919  0.383843  1
  Ni  Ni5  1  0.000000  0.697919  0.616157  1
  C  C6  1  0.000000  0.000762  0.229324  1
  C  C7  1  0.000000  0.000762  0.770676  1
  C  C8  1  0.000000  0.197809  0.332174  1
  C  C9  1  0.000000  0.197809  0.667826  1
  C  C10  1  0.500000  0.493193  0.000000  1
