# generated using pymatgen
data_Hf16Fe4Os3Rh
_symmetry_space_group_name_H-M   'P 1'
_cell_length_a   8.58786270
_cell_length_b   8.58786165
_cell_length_c   8.58786401
_cell_angle_alpha   59.90839948
_cell_angle_beta   59.90840636
_cell_angle_gamma   59.90839861
_symmetry_Int_Tables_number   1
_chemical_formula_structural   Hf16Fe4Os3Rh
_chemical_formula_sum   'Hf16 Fe4 Os3 Rh1'
_cell_volume   446.92732364
_cell_formula_units_Z   1
loop_
 _symmetry_equiv_pos_site_id
 _symmetry_equiv_pos_as_xyz
  1  'x, y, z'
loop_
 _atom_site_type_symbol
 _atom_site_label
 _atom_site_symmetry_multiplicity
 _atom_site_fract_x
 _atom_site_fract_y
 _atom_site_fract_z
 _atom_site_occupancy
  Hf  Hf0  1  0.690507  0.102918  0.102918  1
  Hf  Hf1  1  0.102918  0.690507  0.102918  1
  Hf  Hf2  1  0.102918  0.102918  0.690507  1
  Hf  Hf3  1  0.101927  0.101927  0.101927  1
  Hf  Hf4  1  0.313087  0.313087  0.690153  1
  Hf  Hf5  1  0.686823  0.686823  0.313372  1
  Hf  Hf6  1  0.313087  0.690153  0.313087  1
  Hf  Hf7  1  0.686823  0.313372  0.686823  1
  Hf  Hf8  1  0.690153  0.313087  0.313087  1
  Hf  Hf9  1  0.313372  0.686823  0.686823  1
  Hf  Hf10  1  0.950760  0.950760  0.549393  1
  Hf  Hf11  1  0.550551  0.550551  0.948014  1
  Hf  Hf12  1  0.950760  0.549393  0.950760  1
  Hf  Hf13  1  0.550551  0.948014  0.550551  1
  Hf  Hf14  1  0.549393  0.950760  0.950760  1
  Hf  Hf15  1  0.948014  0.550551  0.550551  1
  Fe  Fe16  1  0.329520  0.889705  0.889705  1
  Fe  Fe17  1  0.889705  0.329520  0.889705  1
  Fe  Fe18  1  0.889705  0.889705  0.329520  1
  Fe  Fe19  1  0.890901  0.890901  0.890901  1
  Os  Os20  1  0.000847  0.332110  0.332110  1
  Os  Os21  1  0.332110  0.000847  0.332110  1
  Os  Os22  1  0.332110  0.332110  0.000847  1
  Rh  Rh23  1  0.333454  0.333454  0.333454  1
