# generated using pymatgen
data_Nd4TmIr2Ru
_symmetry_space_group_name_H-M   'P 1'
_cell_length_a   11.12226600
_cell_length_b   11.12226600
_cell_length_c   6.55675800
_cell_angle_alpha   90.00000000
_cell_angle_beta   90.00000000
_cell_angle_gamma   90.00000000
_symmetry_Int_Tables_number   1
_chemical_formula_structural   Nd4TmIr2Ru
_chemical_formula_sum   'Nd16 Tm4 Ir8 Ru4'
_cell_volume   811.10244343
_cell_formula_units_Z   4
loop_
 _symmetry_equiv_pos_site_id
 _symmetry_equiv_pos_as_xyz
  1  'x, y, z'
loop_
 _atom_site_type_symbol
 _atom_site_label
 _atom_site_symmetry_multiplicity
 _atom_site_fract_x
 _atom_site_fract_y
 _atom_site_fract_z
 _atom_site_occupancy
  Nd  Nd0  1  0.290927  0.085917  0.380649  1
  Nd  Nd1  1  0.290927  0.914083  0.880649  1
  Nd  Nd2  1  0.709073  0.085917  0.880649  1
  Nd  Nd3  1  0.709073  0.914083  0.380649  1
  Nd  Nd4  1  0.585917  0.790927  0.880649  1
  Nd  Nd5  1  0.585917  0.209073  0.380649  1
  Nd  Nd6  1  0.414083  0.790927  0.380649  1
  Nd  Nd7  1  0.414083  0.209073  0.880649  1
  Nd  Nd8  1  0.209073  0.414083  0.619351  1
  Nd  Nd9  1  0.209073  0.585917  0.119351  1
  Nd  Nd10  1  0.790927  0.414083  0.119351  1
  Nd  Nd11  1  0.790927  0.585917  0.619351  1
  Nd  Nd12  1  0.914083  0.709073  0.119351  1
  Nd  Nd13  1  0.914083  0.290927  0.619351  1
  Nd  Nd14  1  0.085917  0.709073  0.619351  1
  Nd  Nd15  1  0.085917  0.290927  0.119351  1
  Tm  Tm16  1  0.000000  0.000000  0.500000  1
  Tm  Tm17  1  0.000000  0.000000  0.000000  1
  Tm  Tm18  1  0.500000  0.500000  0.000000  1
  Tm  Tm19  1  0.500000  0.500000  0.500000  1
  Ir  Ir20  1  0.853238  0.146762  0.250000  1
  Ir  Ir21  1  0.853238  0.853238  0.750000  1
  Ir  Ir22  1  0.146762  0.146762  0.750000  1
  Ir  Ir23  1  0.146762  0.853238  0.250000  1
  Ir  Ir24  1  0.646762  0.353238  0.750000  1
  Ir  Ir25  1  0.646762  0.646762  0.250000  1
  Ir  Ir26  1  0.353238  0.353238  0.250000  1
  Ir  Ir27  1  0.353238  0.646762  0.750000  1
  Ru  Ru28  1  0.500000  0.000000  0.118245  1
  Ru  Ru29  1  0.500000  0.000000  0.618245  1
  Ru  Ru30  1  0.000000  0.500000  0.881755  1
  Ru  Ru31  1  0.000000  0.500000  0.381755  1
