# generated using pymatgen
data_Dy3LuZn2Ir3
_symmetry_space_group_name_H-M   'P 1'
_cell_length_a   7.30206871
_cell_length_b   7.30605079
_cell_length_c   3.99585000
_cell_angle_alpha   90.00000000
_cell_angle_beta   90.00000000
_cell_angle_gamma   120.01803788
_symmetry_Int_Tables_number   1
_chemical_formula_structural   Dy3LuZn2Ir3
_chemical_formula_sum   'Dy3 Lu1 Zn2 Ir3'
_cell_volume   184.58204120
_cell_formula_units_Z   1
loop_
 _symmetry_equiv_pos_site_id
 _symmetry_equiv_pos_as_xyz
  1  'x, y, z'
loop_
 _atom_site_type_symbol
 _atom_site_label
 _atom_site_symmetry_multiplicity
 _atom_site_fract_x
 _atom_site_fract_y
 _atom_site_fract_z
 _atom_site_occupancy
  Dy  Dy0  1  0.563331  0.580414  0.000000  1
  Dy  Dy1  1  0.436669  0.017083  0.000000  1
  Dy  Dy2  1  0.000000  0.386011  0.000000  1
  Lu  Lu3  1  0.000000  0.759829  0.500000  1
  Zn  Zn4  1  0.253578  0.248249  0.500000  1
  Zn  Zn5  1  0.746422  0.994670  0.500000  1
  Ir  Ir6  1  0.000000  0.007251  0.000000  1
  Ir  Ir7  1  0.671073  0.338783  0.500000  1
  Ir  Ir8  1  0.328927  0.667711  0.500000  1
