# generated using pymatgen
data_Hf6TiGe6Mo3C2
_symmetry_space_group_name_H-M   'P 1'
_cell_length_a   7.80037300
_cell_length_b   7.80037396
_cell_length_c   5.39284700
_cell_angle_alpha   90.00000000
_cell_angle_beta   90.00000000
_cell_angle_gamma   120.00000016
_symmetry_Int_Tables_number   1
_chemical_formula_structural   Hf6TiGe6Mo3C2
_chemical_formula_sum   'Hf6 Ti1 Ge6 Mo3 C2'
_cell_volume   284.17084880
_cell_formula_units_Z   1
loop_
 _symmetry_equiv_pos_site_id
 _symmetry_equiv_pos_as_xyz
  1  'x, y, z'
loop_
 _atom_site_type_symbol
 _atom_site_label
 _atom_site_symmetry_multiplicity
 _atom_site_fract_x
 _atom_site_fract_y
 _atom_site_fract_z
 _atom_site_occupancy
  Hf  Hf0  1  0.764936  0.999796  0.750563  1
  Hf  Hf1  1  0.764936  0.765140  0.249437  1
  Hf  Hf2  1  0.000204  0.235064  0.249437  1
  Hf  Hf3  1  0.000204  0.765140  0.750563  1
  Hf  Hf4  1  0.234860  0.235064  0.750563  1
  Hf  Hf5  1  0.234860  0.999796  0.249437  1
  Ti  Ti6  1  0.666667  0.333333  0.000000  1
  Ge  Ge7  1  0.407774  0.000934  0.749749  1
  Ge  Ge8  1  0.407774  0.406840  0.250251  1
  Ge  Ge9  1  0.999066  0.592226  0.250251  1
  Ge  Ge10  1  0.999066  0.406840  0.749749  1
  Ge  Ge11  1  0.593160  0.592226  0.749749  1
  Ge  Ge12  1  0.593160  0.000934  0.250251  1
  Mo  Mo13  1  0.333333  0.666667  0.500000  1
  Mo  Mo14  1  0.666667  0.333333  0.500000  1
  Mo  Mo15  1  0.333333  0.666667  0.000000  1
  C  C16  1  0.000000  0.000000  0.500000  1
  C  C17  1  0.000000  0.000000  0.000000  1
