# generated using pymatgen
data_Li4Si3Ge(WO5)4
_symmetry_space_group_name_H-M   'P 1'
_cell_length_a   8.12549699
_cell_length_b   7.49241756
_cell_length_c   7.51408798
_cell_angle_alpha   60.56775353
_cell_angle_beta   90.95305614
_cell_angle_gamma   90.91593578
_symmetry_Int_Tables_number   1
_chemical_formula_structural   Li4Si3Ge(WO5)4
_chemical_formula_sum   'Li4 Si3 Ge1 W4 O20'
_cell_volume   398.34333665
_cell_formula_units_Z   1
loop_
 _symmetry_equiv_pos_site_id
 _symmetry_equiv_pos_as_xyz
  1  'x, y, z'
loop_
 _atom_site_type_symbol
 _atom_site_label
 _atom_site_symmetry_multiplicity
 _atom_site_fract_x
 _atom_site_fract_y
 _atom_site_fract_z
 _atom_site_occupancy
  Li  Li0  1  0.431452  0.247054  0.300407  1
  Li  Li1  1  0.564623  0.748240  0.716742  1
  Li  Li2  1  0.067070  0.258502  0.797996  1
  Li  Li3  1  0.936224  0.752335  0.199022  1
  Si  Si4  1  0.892637  0.751485  0.755033  1
  Si  Si5  1  0.104235  0.248559  0.245887  1
  Si  Si6  1  0.394220  0.253966  0.739226  1
  Ge  Ge7  1  0.604991  0.743697  0.259209  1
  W  W8  1  0.746105  0.252919  0.998655  1
  W  W9  1  0.755369  0.247941  0.500065  1
  W  W10  1  0.250771  0.750210  0.997316  1
  W  W11  1  0.242140  0.748777  0.501374  1
  O  O12  1  0.762703  0.552662  0.855424  1
  O  O13  1  0.323027  0.748956  0.745299  1
  O  O14  1  0.268014  0.050667  0.852429  1
  O  O15  1  0.670698  0.245160  0.256899  1
  O  O16  1  0.510100  0.265589  0.913988  1
  O  O17  1  0.994280  0.244023  0.062605  1
  O  O18  1  0.489872  0.727097  0.067345  1
  O  O19  1  0.238044  0.062209  0.348686  1
  O  O20  1  0.760753  0.557402  0.347671  1
  O  O21  1  0.987642  0.256800  0.414306  1
  O  O22  1  0.757774  0.935797  0.653658  1
  O  O23  1  0.491689  0.761813  0.445168  1
  O  O24  1  0.823833  0.251555  0.744770  1
  O  O25  1  0.505219  0.247735  0.562611  1
  O  O26  1  0.177402  0.754182  0.251823  1
  O  O27  1  0.009697  0.730480  0.593304  1
  O  O28  1  0.748074  0.954436  0.141826  1
  O  O29  1  0.003783  0.764226  0.933811  1
  O  O30  1  0.232296  0.449684  0.147666  1
  O  O31  1  0.255264  0.435840  0.649778  1
