# generated using pymatgen
data_Li12Pr12TaW4(IO16)3
_symmetry_space_group_name_H-M   'P 1'
_cell_length_a   10.99043635
_cell_length_b   10.99043688
_cell_length_c   10.99043800
_cell_angle_alpha   109.42840073
_cell_angle_beta   109.42841274
_cell_angle_gamma   109.42840200
_symmetry_Int_Tables_number   1
_chemical_formula_structural   Li12Pr12TaW4(IO16)3
_chemical_formula_sum   'Li12 Pr12 Ta1 W4 I3 O48'
_cell_volume   1023.55112719
_cell_formula_units_Z   1
loop_
 _symmetry_equiv_pos_site_id
 _symmetry_equiv_pos_as_xyz
  1  'x, y, z'
loop_
 _atom_site_type_symbol
 _atom_site_label
 _atom_site_symmetry_multiplicity
 _atom_site_fract_x
 _atom_site_fract_y
 _atom_site_fract_z
 _atom_site_occupancy
  Li  Li0  1  0.250440  0.873385  0.123700  1
  Li  Li1  1  0.376300  0.249560  0.126615  1
  Li  Li2  1  0.122783  0.375354  0.249242  1
  Li  Li3  1  0.626616  0.876301  0.249561  1
  Li  Li4  1  0.124647  0.750759  0.377218  1
  Li  Li5  1  0.749242  0.622783  0.375354  1
  Li  Li6  1  0.250759  0.377218  0.624647  1
  Li  Li7  1  0.875354  0.249241  0.622783  1
  Li  Li8  1  0.373385  0.123700  0.750440  1
  Li  Li9  1  0.877218  0.624647  0.750759  1
  Li  Li10  1  0.623699  0.750440  0.873385  1
  Li  Li11  1  0.749559  0.126615  0.876300  1
  Pr  Pr12  1  0.755510  0.374261  0.130072  1
  Pr  Pr13  1  0.877937  0.750629  0.128749  1
  Pr  Pr14  1  0.371251  0.622063  0.249371  1
  Pr  Pr15  1  0.874262  0.130073  0.255510  1
  Pr  Pr16  1  0.250629  0.128749  0.377937  1
  Pr  Pr17  1  0.630073  0.255510  0.374262  1
  Pr  Pr18  1  0.749371  0.871251  0.622063  1
  Pr  Pr19  1  0.369928  0.744490  0.625739  1
  Pr  Pr20  1  0.125738  0.869926  0.744490  1
  Pr  Pr21  1  0.628750  0.377937  0.750630  1
  Pr  Pr22  1  0.244490  0.625738  0.869927  1
  Pr  Pr23  1  0.122063  0.249372  0.871252  1
  Ta  Ta24  1  0.000000  0.500001  0.500001  1
  W  W25  1  0.499999  0.000000  0.000000  1
  W  W26  1  0.000000  0.500000  0.000000  1
  W  W27  1  0.000000  0.000000  0.500000  1
  W  W28  1  0.500001  0.500001  0.500001  1
  I  I29  1  0.000000  0.000000  0.000000  1
  I  I30  1  0.499999  0.499999  0.000000  1
  I  I31  1  0.499999  0.000000  0.500000  1
  O  O32  1  0.827641  0.906404  0.023374  1
  O  O33  1  0.693554  0.113970  0.021784  1
  O  O34  1  0.193224  0.671250  0.079586  1
  O  O35  1  0.383074  0.406368  0.079639  1
  O  O36  1  0.476625  0.672357  0.093595  1
  O  O37  1  0.114685  0.419906  0.091541  1
  O  O38  1  0.521784  0.193553  0.113968  1
  O  O39  1  0.093632  0.920361  0.116927  1
  O  O40  1  0.978583  0.592890  0.172329  1
  O  O41  1  0.696754  0.580277  0.172156  1
  O  O42  1  0.080276  0.172155  0.196753  1
  O  O43  1  0.613969  0.021784  0.193553  1
  O  O44  1  0.828751  0.920415  0.306775  1
  O  O45  1  0.974126  0.381074  0.300058  1
  O  O46  1  0.406405  0.023374  0.327642  1
  O  O47  1  0.420414  0.306776  0.328750  1
  O  O48  1  0.080095  0.908460  0.385315  1
  O  O49  1  0.800058  0.474126  0.381075  1
  O  O50  1  0.327669  0.521418  0.407109  1
  O  O51  1  0.579639  0.883074  0.406368  1
  O  O52  1  0.591541  0.614686  0.419906  1
  O  O53  1  0.327845  0.803247  0.419724  1
  O  O54  1  0.092888  0.172329  0.478582  1
  O  O55  1  0.881075  0.300057  0.474126  1
  O  O56  1  0.118925  0.699942  0.525874  1
  O  O57  1  0.907111  0.827671  0.521418  1
  O  O58  1  0.408458  0.385314  0.580094  1
  O  O59  1  0.672155  0.196754  0.580277  1
  O  O60  1  0.672329  0.478583  0.592889  1
  O  O61  1  0.420360  0.116926  0.593631  1
  O  O62  1  0.199942  0.525874  0.618925  1
  O  O63  1  0.919906  0.091542  0.614686  1
  O  O64  1  0.579586  0.693224  0.671249  1
  O  O65  1  0.593596  0.976625  0.672358  1
  O  O66  1  0.171249  0.079585  0.693224  1
  O  O67  1  0.025874  0.618925  0.699943  1
  O  O68  1  0.386030  0.978216  0.806446  1
  O  O69  1  0.919724  0.827845  0.803246  1
  O  O70  1  0.303247  0.419724  0.827845  1
  O  O71  1  0.021419  0.407111  0.827671  1
  O  O72  1  0.478215  0.806445  0.886030  1
  O  O73  1  0.906368  0.079640  0.883074  1
  O  O74  1  0.523374  0.327642  0.906404  1
  O  O75  1  0.885315  0.580095  0.908459  1
  O  O76  1  0.616927  0.593633  0.920360  1
  O  O77  1  0.806775  0.328750  0.920413  1
  O  O78  1  0.306446  0.886031  0.978215  1
  O  O79  1  0.172357  0.093595  0.976625  1
