# generated using pymatgen
data_Nd2RhPbAu
_symmetry_space_group_name_H-M   'P 1'
_cell_length_a   8.07030300
_cell_length_b   8.19884000
_cell_length_c   3.77983100
_cell_angle_alpha   90.00000000
_cell_angle_beta   90.00000000
_cell_angle_gamma   90.00000000
_symmetry_Int_Tables_number   1
_chemical_formula_structural   Nd2RhPbAu
_chemical_formula_sum   'Nd4 Rh2 Pb2 Au2'
_cell_volume   250.10054288
_cell_formula_units_Z   2
loop_
 _symmetry_equiv_pos_site_id
 _symmetry_equiv_pos_as_xyz
  1  'x, y, z'
loop_
 _atom_site_type_symbol
 _atom_site_label
 _atom_site_symmetry_multiplicity
 _atom_site_fract_x
 _atom_site_fract_y
 _atom_site_fract_z
 _atom_site_occupancy
  Nd  Nd0  1  0.327917  0.186770  0.500001  1
  Nd  Nd1  1  0.827918  0.313230  0.500001  1
  Nd  Nd2  1  0.176854  0.647694  0.500001  1
  Nd  Nd3  1  0.676854  0.852307  0.500001  1
  Rh  Rh4  1  0.627648  0.124597  0.000000  1
  Rh  Rh5  1  0.127649  0.375403  0.000000  1
  Pb  Pb6  1  0.997009  0.010017  0.000000  1
  Pb  Pb7  1  0.497009  0.489983  0.000000  1
  Au  Au8  1  0.870573  0.619091  0.000000  1
  Au  Au9  1  0.370572  0.880909  0.000000  1
