# generated using pymatgen
data_CaZr4Si7Pt9
_symmetry_space_group_name_H-M   'P 1'
_cell_length_a   10.03203800
_cell_length_b   10.03203734
_cell_length_c   3.99994200
_cell_angle_alpha   90.00000000
_cell_angle_beta   90.00000000
_cell_angle_gamma   120.00000217
_symmetry_Int_Tables_number   1
_chemical_formula_structural   CaZr4Si7Pt9
_chemical_formula_sum   'Ca1 Zr4 Si7 Pt9'
_cell_volume   348.62828926
_cell_formula_units_Z   1
loop_
 _symmetry_equiv_pos_site_id
 _symmetry_equiv_pos_as_xyz
  1  'x, y, z'
loop_
 _atom_site_type_symbol
 _atom_site_label
 _atom_site_symmetry_multiplicity
 _atom_site_fract_x
 _atom_site_fract_y
 _atom_site_fract_z
 _atom_site_occupancy
  Ca  Ca0  1  0.333333  0.666667  0.500000  1
  Zr  Zr1  1  0.000000  0.000000  0.000000  1
  Zr  Zr2  1  0.893311  0.458780  0.500000  1
  Zr  Zr3  1  0.565469  0.106689  0.500000  1
  Zr  Zr4  1  0.541220  0.434531  0.500000  1
  Si  Si5  1  0.243109  0.194934  0.500000  1
  Si  Si6  1  0.805066  0.048176  0.500000  1
  Si  Si7  1  0.951824  0.756891  0.500000  1
  Si  Si8  1  0.554994  0.646835  0.000000  1
  Si  Si9  1  0.353165  0.908158  0.000000  1
  Si  Si10  1  0.091842  0.445006  0.000000  1
  Si  Si11  1  0.666667  0.333333  0.000000  1
  Pt  Pt12  1  0.217796  0.939877  0.500000  1
  Pt  Pt13  1  0.060123  0.277920  0.500000  1
  Pt  Pt14  1  0.722080  0.782204  0.500000  1
  Pt  Pt15  1  0.311569  0.411014  0.000000  1
  Pt  Pt16  1  0.588986  0.900555  0.000000  1
  Pt  Pt17  1  0.099445  0.688431  0.000000  1
  Pt  Pt18  1  0.381047  0.169626  0.000000  1
  Pt  Pt19  1  0.830374  0.211420  0.000000  1
  Pt  Pt20  1  0.788580  0.618953  0.000000  1
