# generated using pymatgen
data_Ce2DyHo(AlIr)4
_symmetry_space_group_name_H-M   'P 1'
_cell_length_a   6.84939408
_cell_length_b   4.31084000
_cell_length_c   7.93848910
_cell_angle_alpha   90.00000000
_cell_angle_beta   89.98206853
_cell_angle_gamma   90.00000000
_symmetry_Int_Tables_number   1
_chemical_formula_structural   Ce2DyHo(AlIr)4
_chemical_formula_sum   'Ce2 Dy1 Ho1 Al4 Ir4'
_cell_volume   234.39691405
_cell_formula_units_Z   1
loop_
 _symmetry_equiv_pos_site_id
 _symmetry_equiv_pos_as_xyz
  1  'x, y, z'
loop_
 _atom_site_type_symbol
 _atom_site_label
 _atom_site_symmetry_multiplicity
 _atom_site_fract_x
 _atom_site_fract_y
 _atom_site_fract_z
 _atom_site_occupancy
  Ce  Ce0  1  0.033708  0.750000  0.821543  1
  Ce  Ce1  1  0.533918  0.750000  0.678676  1
  Dy  Dy2  1  0.464352  0.250000  0.315822  1
  Ho  Ho3  1  0.964248  0.250000  0.183985  1
  Al  Al4  1  0.863898  0.250000  0.557139  1
  Al  Al5  1  0.363683  0.250000  0.942834  1
  Al  Al6  1  0.137745  0.750000  0.433776  1
  Al  Al7  1  0.638112  0.750000  0.066089  1
  Ir  Ir8  1  0.738043  0.250000  0.876694  1
  Ir  Ir9  1  0.237730  0.250000  0.623628  1
  Ir  Ir10  1  0.261858  0.750000  0.114868  1
  Ir  Ir11  1  0.762707  0.750000  0.384946  1
