# generated using pymatgen
data_Rb2Al2O3F2
_symmetry_space_group_name_H-M   'P 1'
_cell_length_a   7.13457086
_cell_length_b   7.13457148
_cell_length_c   6.48356311
_cell_angle_alpha   88.99715911
_cell_angle_beta   88.99715446
_cell_angle_gamma   72.81957648
_symmetry_Int_Tables_number   1
_chemical_formula_structural   Rb2Al2O3F2
_chemical_formula_sum   'Rb4 Al4 O6 F4'
_cell_volume   315.22642463
_cell_formula_units_Z   2
loop_
 _symmetry_equiv_pos_site_id
 _symmetry_equiv_pos_as_xyz
  1  'x, y, z'
loop_
 _atom_site_type_symbol
 _atom_site_label
 _atom_site_symmetry_multiplicity
 _atom_site_fract_x
 _atom_site_fract_y
 _atom_site_fract_z
 _atom_site_occupancy
  Rb  Rb0  1  0.844316  0.844316  0.662389  1
  Rb  Rb1  1  0.598832  0.598832  0.262247  1
  Rb  Rb2  1  0.401168  0.401168  0.737753  1
  Rb  Rb3  1  0.155684  0.155684  0.337611  1
  Al  Al4  1  0.929851  0.323040  0.864442  1
  Al  Al5  1  0.676960  0.070149  0.135558  1
  Al  Al6  1  0.323040  0.929851  0.864442  1
  Al  Al7  1  0.070149  0.676960  0.135558  1
  O  O8  1  0.000000  0.500000  0.000000  1
  O  O9  1  0.871766  0.871766  0.218555  1
  O  O10  1  0.748003  0.251997  0.000000  1
  O  O11  1  0.500000  0.000000  0.000000  1
  O  O12  1  0.251997  0.748003  0.000000  1
  O  O13  1  0.128234  0.128234  0.781445  1
  F  F14  1  0.821299  0.435321  0.632614  1
  F  F15  1  0.564679  0.178701  0.367386  1
  F  F16  1  0.435321  0.821299  0.632614  1
  F  F17  1  0.178701  0.564679  0.367386  1
