# generated using pymatgen
data_CeCdTeO6
_symmetry_space_group_name_H-M   'P 1'
_cell_length_a   5.30111300
_cell_length_b   5.30111300
_cell_length_c   9.23538200
_cell_angle_alpha   90.00000000
_cell_angle_beta   90.00000000
_cell_angle_gamma   90.00000000
_symmetry_Int_Tables_number   1
_chemical_formula_structural   CeCdTeO6
_chemical_formula_sum   'Ce2 Cd2 Te2 O12'
_cell_volume   259.53084901
_cell_formula_units_Z   2
loop_
 _symmetry_equiv_pos_site_id
 _symmetry_equiv_pos_as_xyz
  1  'x, y, z'
loop_
 _atom_site_type_symbol
 _atom_site_label
 _atom_site_symmetry_multiplicity
 _atom_site_fract_x
 _atom_site_fract_y
 _atom_site_fract_z
 _atom_site_occupancy
  Ce  Ce0  1  0.500000  0.000000  0.126126  1
  Ce  Ce1  1  0.000000  0.500000  0.873874  1
  Cd  Cd2  1  0.000000  0.000000  0.500000  1
  Cd  Cd3  1  0.500000  0.500000  0.500000  1
  Te  Te4  1  0.500000  0.000000  0.756444  1
  Te  Te5  1  0.000000  0.500000  0.243556  1
  O  O6  1  0.824262  0.324262  0.084066  1
  O  O7  1  0.175738  0.675738  0.084066  1
  O  O8  1  0.194480  0.694480  0.380243  1
  O  O9  1  0.805520  0.305520  0.380243  1
  O  O10  1  0.759909  0.259909  0.747557  1
  O  O11  1  0.240091  0.740091  0.747557  1
  O  O12  1  0.694480  0.805520  0.619757  1
  O  O13  1  0.259909  0.240091  0.252443  1
  O  O14  1  0.305520  0.194480  0.619757  1
  O  O15  1  0.675738  0.824262  0.915934  1
  O  O16  1  0.324262  0.175738  0.915934  1
  O  O17  1  0.740091  0.759909  0.252443  1
