# generated using pymatgen
data_Nd7BBr12
_symmetry_space_group_name_H-M   'P 1'
_cell_length_a   9.37198687
_cell_length_b   9.37198663
_cell_length_c   9.37198665
_cell_angle_alpha   107.38871641
_cell_angle_beta   107.38872153
_cell_angle_gamma   107.38872798
_symmetry_Int_Tables_number   1
_chemical_formula_structural   Nd7BBr12
_chemical_formula_sum   'Nd7 B1 Br12'
_cell_volume   678.15162319
_cell_formula_units_Z   1
loop_
 _symmetry_equiv_pos_site_id
 _symmetry_equiv_pos_as_xyz
  1  'x, y, z'
loop_
 _atom_site_type_symbol
 _atom_site_label
 _atom_site_symmetry_multiplicity
 _atom_site_fract_x
 _atom_site_fract_y
 _atom_site_fract_z
 _atom_site_occupancy
  Nd  Nd0  1  0.475668  0.475668  0.475668  1
  Nd  Nd1  1  0.902703  0.977369  0.694180  1
  Nd  Nd2  1  0.977369  0.694180  0.902703  1
  Nd  Nd3  1  0.694180  0.902703  0.977369  1
  Nd  Nd4  1  0.041249  0.314433  0.113784  1
  Nd  Nd5  1  0.314433  0.113784  0.041249  1
  Nd  Nd6  1  0.113784  0.041249  0.314433  1
  B  B7  1  0.995763  0.995763  0.995763  1
  Br  Br8  1  0.230330  0.077740  0.691482  1
  Br  Br9  1  0.077740  0.691482  0.230330  1
  Br  Br10  1  0.691482  0.230330  0.077740  1
  Br  Br11  1  0.540141  0.836121  0.616988  1
  Br  Br12  1  0.836121  0.616988  0.540141  1
  Br  Br13  1  0.616988  0.540141  0.836121  1
  Br  Br14  1  0.924813  0.316468  0.780848  1
  Br  Br15  1  0.316468  0.780848  0.924813  1
  Br  Br16  1  0.780848  0.924813  0.316468  1
  Br  Br17  1  0.390331  0.475425  0.148368  1
  Br  Br18  1  0.475425  0.148368  0.390331  1
  Br  Br19  1  0.148368  0.390331  0.475425  1
