# generated using pymatgen
data_Mn4(Pd3Au)3
_symmetry_space_group_name_H-M   'P 1'
_cell_length_a   6.88527826
_cell_length_b   6.88527856
_cell_length_c   6.88527893
_cell_angle_alpha   108.98820814
_cell_angle_beta   108.98820956
_cell_angle_gamma   110.44162316
_symmetry_Int_Tables_number   1
_chemical_formula_structural   Mn4(Pd3Au)3
_chemical_formula_sum   'Mn4 Pd9 Au3'
_cell_volume   251.21700835
_cell_formula_units_Z   1
loop_
 _symmetry_equiv_pos_site_id
 _symmetry_equiv_pos_as_xyz
  1  'x, y, z'
loop_
 _atom_site_type_symbol
 _atom_site_label
 _atom_site_symmetry_multiplicity
 _atom_site_fract_x
 _atom_site_fract_y
 _atom_site_fract_z
 _atom_site_occupancy
  Mn  Mn0  1  0.247363  0.247363  0.494726  1
  Mn  Mn1  1  0.752637  0.752637  0.505274  1
  Mn  Mn2  1  0.247363  0.752637  0.000000  1
  Mn  Mn3  1  0.752637  0.247363  0.000000  1
  Pd  Pd4  1  0.498077  0.249058  0.249018  1
  Pd  Pd5  1  0.501923  0.750942  0.750982  1
  Pd  Pd6  1  0.000040  0.249058  0.750982  1
  Pd  Pd7  1  0.249058  0.000040  0.750982  1
  Pd  Pd8  1  0.999960  0.750942  0.249018  1
  Pd  Pd9  1  0.750942  0.999960  0.249018  1
  Pd  Pd10  1  0.249058  0.498077  0.249018  1
  Pd  Pd11  1  0.750942  0.501923  0.750982  1
  Pd  Pd12  1  0.000000  0.000000  0.000000  1
  Au  Au13  1  0.500000  0.000000  0.500000  1
  Au  Au14  1  0.000000  0.500000  0.500000  1
  Au  Au15  1  0.500000  0.500000  0.000000  1
