# generated using pymatgen
data_Zr4B3(Ru5Pt)2
_symmetry_space_group_name_H-M   'P 1'
_cell_length_a   4.12031600
_cell_length_b   4.12031600
_cell_length_c   16.30088300
_cell_angle_alpha   90.00000000
_cell_angle_beta   90.00000000
_cell_angle_gamma   90.00000000
_symmetry_Int_Tables_number   1
_chemical_formula_structural   Zr4B3(Ru5Pt)2
_chemical_formula_sum   'Zr4 B3 Ru10 Pt2'
_cell_volume   276.74015491
_cell_formula_units_Z   1
loop_
 _symmetry_equiv_pos_site_id
 _symmetry_equiv_pos_as_xyz
  1  'x, y, z'
loop_
 _atom_site_type_symbol
 _atom_site_label
 _atom_site_symmetry_multiplicity
 _atom_site_fract_x
 _atom_site_fract_y
 _atom_site_fract_z
 _atom_site_occupancy
  Zr  Zr0  1  0.000000  0.000000  0.873925  1
  Zr  Zr1  1  0.000000  0.000000  0.126075  1
  Zr  Zr2  1  0.000000  0.000000  0.374949  1
  Zr  Zr3  1  0.000000  0.000000  0.625051  1
  B  B4  1  0.500000  0.500000  0.244019  1
  B  B5  1  0.500000  0.500000  0.500000  1
  B  B6  1  0.500000  0.500000  0.755981  1
  Ru  Ru7  1  0.500000  0.500000  0.880553  1
  Ru  Ru8  1  0.500000  0.500000  0.119447  1
  Ru  Ru9  1  0.500000  0.500000  0.372824  1
  Ru  Ru10  1  0.500000  0.500000  0.627176  1
  Ru  Ru11  1  0.500000  0.000000  0.246832  1
  Ru  Ru12  1  0.500000  0.000000  0.500000  1
  Ru  Ru13  1  0.500000  0.000000  0.753168  1
  Ru  Ru14  1  0.000000  0.500000  0.246832  1
  Ru  Ru15  1  0.000000  0.500000  0.500000  1
  Ru  Ru16  1  0.000000  0.500000  0.753168  1
  Pt  Pt17  1  0.500000  0.000000  0.000000  1
  Pt  Pt18  1  0.000000  0.500000  0.000000  1
