# generated using pymatgen
data_TmLu11Os3Rh
_symmetry_space_group_name_H-M   'P 1'
_cell_length_a   7.25861243
_cell_length_b   8.84620900
_cell_length_c   6.20528600
_cell_angle_alpha   90.00000000
_cell_angle_beta   90.12067121
_cell_angle_gamma   90.00000000
_symmetry_Int_Tables_number   1
_chemical_formula_structural   TmLu11Os3Rh
_chemical_formula_sum   'Tm1 Lu11 Os3 Rh1'
_cell_volume   398.44799285
_cell_formula_units_Z   1
loop_
 _symmetry_equiv_pos_site_id
 _symmetry_equiv_pos_as_xyz
  1  'x, y, z'
loop_
 _atom_site_type_symbol
 _atom_site_label
 _atom_site_symmetry_multiplicity
 _atom_site_fract_x
 _atom_site_fract_y
 _atom_site_fract_z
 _atom_site_occupancy
  Tm  Tm0  1  0.539577  0.250000  0.874798  1
  Lu  Lu1  1  0.672180  0.059166  0.335243  1
  Lu  Lu2  1  0.179049  0.439524  0.168351  1
  Lu  Lu3  1  0.323998  0.561991  0.668620  1
  Lu  Lu4  1  0.822886  0.934079  0.828143  1
  Lu  Lu5  1  0.323998  0.938009  0.668620  1
  Lu  Lu6  1  0.822886  0.565921  0.828143  1
  Lu  Lu7  1  0.672180  0.440834  0.335243  1
  Lu  Lu8  1  0.179049  0.060476  0.168351  1
  Lu  Lu9  1  0.037536  0.250000  0.627693  1
  Lu  Lu10  1  0.462436  0.750000  0.122720  1
  Lu  Lu11  1  0.963016  0.750000  0.372210  1
  Os  Os12  1  0.382588  0.250000  0.463543  1
  Os  Os13  1  0.115703  0.750000  0.962344  1
  Os  Os14  1  0.616428  0.750000  0.533635  1
  Rh  Rh15  1  0.886493  0.250000  0.042342  1
