# generated using pymatgen
data_Ho8Ti(Pd11Pt)2
_symmetry_space_group_name_H-M   'P 1'
_cell_length_a   8.34081000
_cell_length_b   8.34207000
_cell_length_c   8.34207000
_cell_angle_alpha   90.00000000
_cell_angle_beta   90.00000000
_cell_angle_gamma   90.00000000
_symmetry_Int_Tables_number   1
_chemical_formula_structural   Ho8Ti(Pd11Pt)2
_chemical_formula_sum   'Ho8 Ti1 Pd22 Pt2'
_cell_volume   580.43806793
_cell_formula_units_Z   1
loop_
 _symmetry_equiv_pos_site_id
 _symmetry_equiv_pos_as_xyz
  1  'x, y, z'
loop_
 _atom_site_type_symbol
 _atom_site_label
 _atom_site_symmetry_multiplicity
 _atom_site_fract_x
 _atom_site_fract_y
 _atom_site_fract_z
 _atom_site_occupancy
  Ho  Ho0  1  0.252431  0.252524  0.252524  1
  Ho  Ho1  1  0.747569  0.747476  0.747476  1
  Ho  Ho2  1  0.747569  0.747476  0.252524  1
  Ho  Ho3  1  0.747569  0.252524  0.747476  1
  Ho  Ho4  1  0.252431  0.252524  0.747476  1
  Ho  Ho5  1  0.252431  0.747476  0.252524  1
  Ho  Ho6  1  0.252431  0.747476  0.747476  1
  Ho  Ho7  1  0.747569  0.252524  0.252524  1
  Ti  Ti8  1  0.000000  0.000000  0.000000  1
  Pd  Pd9  1  0.261579  0.500000  0.000000  1
  Pd  Pd10  1  0.738421  0.500000  0.000000  1
  Pd  Pd11  1  0.000000  0.261822  0.500000  1
  Pd  Pd12  1  0.500000  0.262538  0.000000  1
  Pd  Pd13  1  0.000000  0.738178  0.500000  1
  Pd  Pd14  1  0.500000  0.737462  0.000000  1
  Pd  Pd15  1  0.500000  0.000000  0.262538  1
  Pd  Pd16  1  0.261579  0.000000  0.500000  1
  Pd  Pd17  1  0.500000  0.000000  0.737462  1
  Pd  Pd18  1  0.738421  0.000000  0.500000  1
  Pd  Pd19  1  0.000000  0.500000  0.261822  1
  Pd  Pd20  1  0.000000  0.500000  0.738178  1
  Pd  Pd21  1  0.253043  0.500000  0.500000  1
  Pd  Pd22  1  0.746957  0.500000  0.500000  1
  Pd  Pd23  1  0.500000  0.253323  0.500000  1
  Pd  Pd24  1  0.500000  0.746677  0.500000  1
  Pd  Pd25  1  0.500000  0.500000  0.253323  1
  Pd  Pd26  1  0.500000  0.500000  0.746677  1
  Pd  Pd27  1  0.000000  0.296369  0.000000  1
  Pd  Pd28  1  0.000000  0.703631  0.000000  1
  Pd  Pd29  1  0.000000  0.000000  0.296369  1
  Pd  Pd30  1  0.000000  0.000000  0.703631  1
  Pt  Pt31  1  0.295014  0.000000  0.000000  1
  Pt  Pt32  1  0.704986  0.000000  0.000000  1
