# generated using pymatgen
data_LiPrP3Ir4
_symmetry_space_group_name_H-M   'P 1'
_cell_length_a   4.03452600
_cell_length_b   10.80724900
_cell_length_c   12.80599400
_cell_angle_alpha   90.00000000
_cell_angle_beta   90.00000000
_cell_angle_gamma   90.00000000
_symmetry_Int_Tables_number   1
_chemical_formula_structural   LiPrP3Ir4
_chemical_formula_sum   'Li4 Pr4 P12 Ir16'
_cell_volume   558.36857776
_cell_formula_units_Z   4
loop_
 _symmetry_equiv_pos_site_id
 _symmetry_equiv_pos_as_xyz
  1  'x, y, z'
loop_
 _atom_site_type_symbol
 _atom_site_label
 _atom_site_symmetry_multiplicity
 _atom_site_fract_x
 _atom_site_fract_y
 _atom_site_fract_z
 _atom_site_occupancy
  Li  Li0  1  0.250000  0.708497  0.993910  1
  Li  Li1  1  0.250000  0.791503  0.493910  1
  Li  Li2  1  0.750000  0.291503  0.006090  1
  Li  Li3  1  0.750000  0.208497  0.506090  1
  Pr  Pr4  1  0.250000  0.576497  0.702781  1
  Pr  Pr5  1  0.250000  0.923503  0.202781  1
  Pr  Pr6  1  0.750000  0.423503  0.297219  1
  Pr  Pr7  1  0.750000  0.076497  0.797219  1
  P  P8  1  0.250000  0.426242  0.114829  1
  P  P9  1  0.250000  0.073758  0.614829  1
  P  P10  1  0.750000  0.573758  0.885171  1
  P  P11  1  0.750000  0.926242  0.385171  1
  P  P12  1  0.250000  0.264690  0.859954  1
  P  P13  1  0.250000  0.235310  0.359954  1
  P  P14  1  0.750000  0.735310  0.140046  1
  P  P15  1  0.750000  0.764690  0.640046  1
  P  P16  1  0.250000  0.605622  0.391777  1
  P  P17  1  0.250000  0.894378  0.891777  1
  P  P18  1  0.750000  0.394378  0.608223  1
  P  P19  1  0.750000  0.105622  0.108223  1
  Ir  Ir20  1  0.250000  0.406465  0.476378  1
  Ir  Ir21  1  0.250000  0.093535  0.976378  1
  Ir  Ir22  1  0.750000  0.593535  0.523622  1
  Ir  Ir23  1  0.750000  0.906465  0.023622  1
  Ir  Ir24  1  0.250000  0.226377  0.172003  1
  Ir  Ir25  1  0.250000  0.273623  0.672003  1
  Ir  Ir26  1  0.750000  0.773623  0.827997  1
  Ir  Ir27  1  0.750000  0.726377  0.327997  1
  Ir  Ir28  1  0.250000  0.876674  0.700029  1
  Ir  Ir29  1  0.250000  0.623326  0.200029  1
  Ir  Ir30  1  0.750000  0.123326  0.299971  1
  Ir  Ir31  1  0.750000  0.376674  0.799971  1
  Ir  Ir32  1  0.250000  0.461737  0.933845  1
  Ir  Ir33  1  0.250000  0.038263  0.433845  1
  Ir  Ir34  1  0.750000  0.538263  0.066155  1
  Ir  Ir35  1  0.750000  0.961737  0.566155  1
