# generated using pymatgen
data_Na8Hf3NiBr24
_symmetry_space_group_name_H-M   'P 1'
_cell_length_a   7.17417700
_cell_length_b   7.17417715
_cell_length_c   26.66783500
_cell_angle_alpha   90.00000000
_cell_angle_beta   90.00000000
_cell_angle_gamma   119.99999468
_symmetry_Int_Tables_number   1
_chemical_formula_structural   Na8Hf3NiBr24
_chemical_formula_sum   'Na8 Hf3 Ni1 Br24'
_cell_volume   1188.67354807
_cell_formula_units_Z   1
loop_
 _symmetry_equiv_pos_site_id
 _symmetry_equiv_pos_as_xyz
  1  'x, y, z'
loop_
 _atom_site_type_symbol
 _atom_site_label
 _atom_site_symmetry_multiplicity
 _atom_site_fract_x
 _atom_site_fract_y
 _atom_site_fract_z
 _atom_site_occupancy
  Na  Na0  1  0.000000  0.000000  0.250301  1
  Na  Na1  1  0.000000  0.000000  0.749699  1
  Na  Na2  1  0.333333  0.666667  0.000348  1
  Na  Na3  1  0.333333  0.666667  0.499623  1
  Na  Na4  1  0.333333  0.666667  0.250238  1
  Na  Na5  1  0.666667  0.333333  0.749762  1
  Na  Na6  1  0.666667  0.333333  0.999652  1
  Na  Na7  1  0.666667  0.333333  0.500377  1
  Hf  Hf8  1  0.000000  0.000000  0.500000  1
  Hf  Hf9  1  0.333333  0.666667  0.749674  1
  Hf  Hf10  1  0.666667  0.333333  0.250326  1
  Ni  Ni11  1  0.000000  0.000000  0.000000  1
  Br  Br12  1  0.370681  0.036500  0.308293  1
  Br  Br13  1  0.333220  0.962711  0.807765  1
  Br  Br14  1  0.999023  0.272462  0.053288  1
  Br  Br15  1  0.000653  0.296700  0.557986  1
  Br  Br16  1  0.963500  0.334182  0.308293  1
  Br  Br17  1  0.037289  0.370509  0.807765  1
  Br  Br18  1  0.370509  0.333220  0.192235  1
  Br  Br19  1  0.334182  0.370681  0.691707  1
  Br  Br20  1  0.296700  0.296047  0.442014  1
  Br  Br21  1  0.272462  0.273439  0.946712  1
  Br  Br22  1  0.703953  0.000653  0.442014  1
  Br  Br23  1  0.273439  0.000977  0.053288  1
  Br  Br24  1  0.296047  0.999347  0.557986  1
  Br  Br25  1  0.727538  0.726561  0.053288  1
  Br  Br26  1  0.703300  0.703953  0.557986  1
  Br  Br27  1  0.665818  0.629319  0.308293  1
  Br  Br28  1  0.629491  0.666780  0.807765  1
  Br  Br29  1  0.962711  0.629491  0.192235  1
  Br  Br30  1  0.036500  0.665818  0.691707  1
  Br  Br31  1  0.999347  0.703300  0.442014  1
  Br  Br32  1  0.000977  0.727538  0.946712  1
  Br  Br33  1  0.726561  0.999023  0.946712  1
  Br  Br34  1  0.666780  0.037289  0.192235  1
  Br  Br35  1  0.629319  0.963500  0.691707  1
