# generated using pymatgen
data_Ho8SnPd7Pt17
_symmetry_space_group_name_H-M   'P 1'
_cell_length_a   8.39665006
_cell_length_b   8.39866400
_cell_length_c   8.40370806
_cell_angle_alpha   89.99914068
_cell_angle_beta   89.98668583
_cell_angle_gamma   89.99994537
_symmetry_Int_Tables_number   1
_chemical_formula_structural   Ho8SnPd7Pt17
_chemical_formula_sum   'Ho8 Sn1 Pd7 Pt17'
_cell_volume   592.63487594
_cell_formula_units_Z   1
loop_
 _symmetry_equiv_pos_site_id
 _symmetry_equiv_pos_as_xyz
  1  'x, y, z'
loop_
 _atom_site_type_symbol
 _atom_site_label
 _atom_site_symmetry_multiplicity
 _atom_site_fract_x
 _atom_site_fract_y
 _atom_site_fract_z
 _atom_site_occupancy
  Ho  Ho0  1  0.252449  0.252364  0.252733  1
  Ho  Ho1  1  0.747048  0.746856  0.746980  1
  Ho  Ho2  1  0.746936  0.747240  0.253068  1
  Ho  Ho3  1  0.747657  0.253115  0.747455  1
  Ho  Ho4  1  0.252355  0.252580  0.747289  1
  Ho  Ho5  1  0.253033  0.747614  0.253193  1
  Ho  Ho6  1  0.252949  0.747392  0.746819  1
  Ho  Ho7  1  0.747535  0.252736  0.252604  1
  Sn  Sn8  1  0.000234  0.000312  0.000197  1
  Pd  Pd9  1  0.500254  0.999998  0.734416  1
  Pd  Pd10  1  0.735268  0.999986  0.500191  1
  Pd  Pd11  1  0.999991  0.500169  0.265104  1
  Pd  Pd12  1  0.999970  0.500178  0.735020  1
  Pd  Pd13  1  0.999957  0.692087  0.999952  1
  Pd  Pd14  1  0.999649  0.999725  0.308568  1
  Pd  Pd15  1  0.999684  0.999734  0.691519  1
  Pt  Pt16  1  0.264455  0.499871  0.000021  1
  Pt  Pt17  1  0.735623  0.499881  0.000003  1
  Pt  Pt18  1  0.000009  0.264766  0.500010  1
  Pt  Pt19  1  0.500001  0.264775  0.999932  1
  Pt  Pt20  1  0.000004  0.734958  0.500011  1
  Pt  Pt21  1  0.499998  0.734645  0.999925  1
  Pt  Pt22  1  0.500199  0.000003  0.265754  1
  Pt  Pt23  1  0.264784  0.999993  0.500120  1
  Pt  Pt24  1  0.253936  0.500046  0.500055  1
  Pt  Pt25  1  0.745998  0.500039  0.500046  1
  Pt  Pt26  1  0.499961  0.254364  0.499895  1
  Pt  Pt27  1  0.499972  0.745739  0.499913  1
  Pt  Pt28  1  0.500030  0.500041  0.254577  1
  Pt  Pt29  1  0.500013  0.500028  0.745242  1
  Pt  Pt30  1  0.308306  0.999561  0.999700  1
  Pt  Pt31  1  0.691785  0.999581  0.999742  1
  Pt  Pt32  1  0.999957  0.309624  0.999945  1
