# generated using pymatgen
data_NdTh7(GePd)8
_symmetry_space_group_name_H-M   'P 1'
_cell_length_a   4.52099500
_cell_length_b   7.78397600
_cell_length_c   14.56891300
_cell_angle_alpha   90.00000000
_cell_angle_beta   90.00000000
_cell_angle_gamma   90.00000000
_symmetry_Int_Tables_number   1
_chemical_formula_structural   NdTh7(GePd)8
_chemical_formula_sum   'Nd1 Th7 Ge8 Pd8'
_cell_volume   512.69922955
_cell_formula_units_Z   1
loop_
 _symmetry_equiv_pos_site_id
 _symmetry_equiv_pos_as_xyz
  1  'x, y, z'
loop_
 _atom_site_type_symbol
 _atom_site_label
 _atom_site_symmetry_multiplicity
 _atom_site_fract_x
 _atom_site_fract_y
 _atom_site_fract_z
 _atom_site_occupancy
  Nd  Nd0  1  0.000000  0.289996  0.000000  1
  Th  Th1  1  0.500000  0.771342  0.747946  1
  Th  Th2  1  0.000000  0.230250  0.753604  1
  Th  Th3  1  0.500000  0.771342  0.252054  1
  Th  Th4  1  0.000000  0.230250  0.246396  1
  Th  Th5  1  0.500000  0.715583  0.000000  1
  Th  Th6  1  0.000000  0.282009  0.500000  1
  Th  Th7  1  0.500000  0.710368  0.500000  1
  Ge  Ge8  1  0.500000  0.407137  0.640317  1
  Ge  Ge9  1  0.000000  0.591435  0.859635  1
  Ge  Ge10  1  0.500000  0.407137  0.359683  1
  Ge  Ge11  1  0.000000  0.591435  0.140365  1
  Ge  Ge12  1  0.500000  0.088990  0.098890  1
  Ge  Ge13  1  0.000000  0.912596  0.398132  1
  Ge  Ge14  1  0.500000  0.088990  0.901110  1
  Ge  Ge15  1  0.000000  0.912596  0.601868  1
  Pd  Pd16  1  0.500000  0.073930  0.615518  1
  Pd  Pd17  1  0.000000  0.924716  0.884950  1
  Pd  Pd18  1  0.500000  0.073930  0.384482  1
  Pd  Pd19  1  0.000000  0.924716  0.115050  1
  Pd  Pd20  1  0.500000  0.417848  0.147047  1
  Pd  Pd21  1  0.000000  0.582777  0.354394  1
  Pd  Pd22  1  0.500000  0.417848  0.852953  1
  Pd  Pd23  1  0.000000  0.582777  0.645606  1
