# generated using pymatgen
data_Nd4ZnAgPt2
_symmetry_space_group_name_H-M   'P 1'
_cell_length_a   4.70332500
_cell_length_b   5.79594329
_cell_length_c   7.55129434
_cell_angle_alpha   91.38869297
_cell_angle_beta   90.00000000
_cell_angle_gamma   90.00000000
_symmetry_Int_Tables_number   1
_chemical_formula_structural   Nd4ZnAgPt2
_chemical_formula_sum   'Nd4 Zn1 Ag1 Pt2'
_cell_volume   205.78937195
_cell_formula_units_Z   1
loop_
 _symmetry_equiv_pos_site_id
 _symmetry_equiv_pos_as_xyz
  1  'x, y, z'
loop_
 _atom_site_type_symbol
 _atom_site_label
 _atom_site_symmetry_multiplicity
 _atom_site_fract_x
 _atom_site_fract_y
 _atom_site_fract_z
 _atom_site_occupancy
  Nd  Nd0  1  0.250000  0.366280  0.703217  1
  Nd  Nd1  1  0.250000  0.148997  0.165345  1
  Nd  Nd2  1  0.750000  0.629542  0.296972  1
  Nd  Nd3  1  0.750000  0.851202  0.835278  1
  Zn  Zn4  1  0.750000  0.130920  0.469848  1
  Ag  Ag5  1  0.250000  0.872563  0.530735  1
  Pt  Pt6  1  0.250000  0.661900  0.044759  1
  Pt  Pt7  1  0.750000  0.338594  0.953846  1
