# generated using pymatgen
data_Sc12CdCo4Rh
_symmetry_space_group_name_H-M   'P 1'
_cell_length_a   7.73043261
_cell_length_b   7.73043205
_cell_length_c   7.73043251
_cell_angle_alpha   110.89773911
_cell_angle_beta   111.57755996
_cell_angle_gamma   105.99410457
_symmetry_Int_Tables_number   1
_chemical_formula_structural   Sc12CdCo4Rh
_chemical_formula_sum   'Sc12 Cd1 Co4 Rh1'
_cell_volume   354.63473933
_cell_formula_units_Z   1
loop_
 _symmetry_equiv_pos_site_id
 _symmetry_equiv_pos_as_xyz
  1  'x, y, z'
loop_
 _atom_site_type_symbol
 _atom_site_label
 _atom_site_symmetry_multiplicity
 _atom_site_fract_x
 _atom_site_fract_y
 _atom_site_fract_z
 _atom_site_occupancy
  Sc  Sc0  1  0.422525  0.223952  0.198572  1
  Sc  Sc1  1  0.577475  0.776048  0.801428  1
  Sc  Sc2  1  0.025380  0.223952  0.801428  1
  Sc  Sc3  1  0.974620  0.776048  0.198572  1
  Sc  Sc4  1  0.312755  0.614612  0.301856  1
  Sc  Sc5  1  0.687245  0.385388  0.698144  1
  Sc  Sc6  1  0.312755  0.010897  0.698144  1
  Sc  Sc7  1  0.687245  0.989103  0.301856  1
  Sc  Sc8  1  0.186141  0.280011  0.466154  1
  Sc  Sc9  1  0.813859  0.719988  0.533846  1
  Sc  Sc10  1  0.186141  0.719988  0.906129  1
  Sc  Sc11  1  0.813859  0.280011  0.093871  1
  Cd  Cd12  1  0.500000  0.500000  0.000000  1
  Co  Co13  1  0.367508  0.000000  0.367508  1
  Co  Co14  1  0.632492  0.000000  0.632492  1
  Co  Co15  1  0.117943  0.617943  0.500000  1
  Co  Co16  1  0.882057  0.382057  0.500000  1
  Rh  Rh17  1  0.000000  0.000000  0.000000  1
