# generated using pymatgen
data_Y4Al15Si3(OsRh2)2
_symmetry_space_group_name_H-M   'P 1'
_cell_length_a   7.52372286
_cell_length_b   7.50535356
_cell_length_c   9.36665787
_cell_angle_alpha   90.03852679
_cell_angle_beta   89.91040198
_cell_angle_gamma   119.28950526
_symmetry_Int_Tables_number   1
_chemical_formula_structural   Y4Al15Si3(OsRh2)2
_chemical_formula_sum   'Y4 Al15 Si3 Os2 Rh4'
_cell_volume   461.30024425
_cell_formula_units_Z   1
loop_
 _symmetry_equiv_pos_site_id
 _symmetry_equiv_pos_as_xyz
  1  'x, y, z'
loop_
 _atom_site_type_symbol
 _atom_site_label
 _atom_site_symmetry_multiplicity
 _atom_site_fract_x
 _atom_site_fract_y
 _atom_site_fract_z
 _atom_site_occupancy
  Y  Y0  1  0.993349  0.672706  0.247506  1
  Y  Y1  1  0.005893  0.321191  0.753273  1
  Y  Y2  1  0.683592  0.999881  0.247621  1
  Y  Y3  1  0.320420  0.006253  0.750068  1
  Al  Al4  1  0.997509  0.666284  0.921329  1
  Al  Al5  1  0.998438  0.663377  0.576341  1
  Al  Al6  1  0.336378  0.000225  0.423462  1
  Al  Al7  1  0.002020  0.336630  0.427173  1
  Al  Al8  1  0.662835  0.998698  0.576322  1
  Al  Al9  1  0.658242  0.994140  0.921657  1
  Al  Al10  1  0.335821  0.000917  0.076690  1
  Al  Al11  1  0.335042  0.334533  0.551906  1
  Al  Al12  1  0.666375  0.666735  0.448157  1
  Al  Al13  1  0.666552  0.667390  0.052944  1
  Al  Al14  1  0.337572  0.334949  0.947971  1
  Al  Al15  1  0.337033  0.550396  0.250113  1
  Al  Al16  1  0.662588  0.447629  0.750264  1
  Al  Al17  1  0.549046  0.338270  0.250279  1
  Al  Al18  1  0.447220  0.660699  0.749366  1
  Si  Si19  1  0.132538  0.128386  0.251133  1
  Si  Si20  1  0.870178  0.871826  0.750229  1
  Si  Si21  1  0.002217  0.336917  0.074454  1
  Os  Os22  1  0.999585  0.008681  0.001309  1
  Os  Os23  1  0.000048  0.000712  0.499794  1
  Rh  Rh24  1  0.679289  0.329228  0.002093  1
  Rh  Rh25  1  0.320328  0.663496  0.000496  1
  Rh  Rh26  1  0.327951  0.671018  0.499035  1
  Rh  Rh27  1  0.671941  0.328834  0.499013  1
