# generated using pymatgen
data_CsSb12Ru3Au
_symmetry_space_group_name_H-M   'P 1'
_cell_length_a   8.26278336
_cell_length_b   8.25507682
_cell_length_c   8.22286515
_cell_angle_alpha   109.36693423
_cell_angle_beta   109.41878981
_cell_angle_gamma   109.56498379
_symmetry_Int_Tables_number   1
_chemical_formula_structural   CsSb12Ru3Au
_chemical_formula_sum   'Cs1 Sb12 Ru3 Au1'
_cell_volume   432.10040875
_cell_formula_units_Z   1
loop_
 _symmetry_equiv_pos_site_id
 _symmetry_equiv_pos_as_xyz
  1  'x, y, z'
loop_
 _atom_site_type_symbol
 _atom_site_label
 _atom_site_symmetry_multiplicity
 _atom_site_fract_x
 _atom_site_fract_y
 _atom_site_fract_z
 _atom_site_occupancy
  Cs  Cs0  1  0.000000  0.000000  0.000000  1
  Sb  Sb1  1  0.163403  0.802636  0.659839  1
  Sb  Sb2  1  0.160347  0.499272  0.338497  1
  Sb  Sb3  1  0.499835  0.659424  0.839437  1
  Sb  Sb4  1  0.339249  0.840484  0.178265  1
  Sb  Sb5  1  0.804116  0.640360  0.142853  1
  Sb  Sb6  1  0.639465  0.836834  0.496838  1
  Sb  Sb7  1  0.195884  0.359640  0.857147  1
  Sb  Sb8  1  0.660751  0.159516  0.821735  1
  Sb  Sb9  1  0.360535  0.163166  0.503162  1
  Sb  Sb10  1  0.500165  0.340576  0.160563  1
  Sb  Sb11  1  0.839653  0.500728  0.661503  1
  Sb  Sb12  1  0.836597  0.197364  0.340161  1
  Ru  Ru13  1  0.000000  0.500000  0.000000  1
  Ru  Ru14  1  0.500000  0.500000  0.500000  1
  Ru  Ru15  1  0.500000  0.000000  0.000000  1
  Au  Au16  1  0.000000  0.000000  0.500000  1
