# generated using pymatgen
data_CaYb3Al18SiIr5
_symmetry_space_group_name_H-M   'P 1'
_cell_length_a   7.59156827
_cell_length_b   7.59269868
_cell_length_c   9.56003635
_cell_angle_alpha   90.20054711
_cell_angle_beta   90.19764755
_cell_angle_gamma   119.70487307
_symmetry_Int_Tables_number   1
_chemical_formula_structural   CaYb3Al18SiIr5
_chemical_formula_sum   'Ca1 Yb3 Al18 Si1 Ir5'
_cell_volume   478.62053264
_cell_formula_units_Z   1
loop_
 _symmetry_equiv_pos_site_id
 _symmetry_equiv_pos_as_xyz
  1  'x, y, z'
loop_
 _atom_site_type_symbol
 _atom_site_label
 _atom_site_symmetry_multiplicity
 _atom_site_fract_x
 _atom_site_fract_y
 _atom_site_fract_z
 _atom_site_occupancy
  Ca  Ca0  1  0.997711  0.675288  0.250102  1
  Yb  Yb1  1  0.002272  0.324688  0.750009  1
  Yb  Yb2  1  0.675249  0.997750  0.250018  1
  Yb  Yb3  1  0.324733  0.002262  0.749987  1
  Al  Al4  1  0.138794  0.138917  0.261016  1
  Al  Al5  1  0.861171  0.861215  0.739023  1
  Al  Al6  1  0.001347  0.346363  0.079021  1
  Al  Al7  1  0.998691  0.653514  0.920614  1
  Al  Al8  1  0.001667  0.664049  0.568758  1
  Al  Al9  1  0.336043  0.998482  0.431530  1
  Al  Al10  1  0.998375  0.335847  0.431545  1
  Al  Al11  1  0.663996  0.001588  0.568614  1
  Al  Al12  1  0.653564  0.998678  0.920735  1
  Al  Al13  1  0.346562  0.001427  0.079088  1
  Al  Al14  1  0.332953  0.332895  0.550404  1
  Al  Al15  1  0.666951  0.667099  0.449751  1
  Al  Al16  1  0.654440  0.654502  0.060420  1
  Al  Al17  1  0.345390  0.345417  0.939352  1
  Al  Al18  1  0.338951  0.550483  0.251726  1
  Al  Al19  1  0.661265  0.449602  0.748299  1
  Al  Al20  1  0.550280  0.338514  0.251746  1
  Al  Al21  1  0.449585  0.661275  0.748274  1
  Si  Si22  1  0.000042  0.000309  0.999685  1
  Ir  Ir23  1  0.670258  0.329172  0.999851  1
  Ir  Ir24  1  0.329733  0.670546  0.999830  1
  Ir  Ir25  1  0.329884  0.670175  0.500143  1
  Ir  Ir26  1  0.670132  0.329548  0.500209  1
  Ir  Ir27  1  0.999963  0.000394  0.500249  1
