# generated using pymatgen
data_La3Nd2Sb3Cl
_symmetry_space_group_name_H-M   'P 1'
_cell_length_a   9.56644300
_cell_length_b   9.56644354
_cell_length_c   6.65122100
_cell_angle_alpha   90.00000000
_cell_angle_beta   90.00000000
_cell_angle_gamma   120.00000158
_symmetry_Int_Tables_number   1
_chemical_formula_structural   La3Nd2Sb3Cl
_chemical_formula_sum   'La6 Nd4 Sb6 Cl2'
_cell_volume   527.14853530
_cell_formula_units_Z   2
loop_
 _symmetry_equiv_pos_site_id
 _symmetry_equiv_pos_as_xyz
  1  'x, y, z'
loop_
 _atom_site_type_symbol
 _atom_site_label
 _atom_site_symmetry_multiplicity
 _atom_site_fract_x
 _atom_site_fract_y
 _atom_site_fract_z
 _atom_site_occupancy
  La  La0  1  0.729915  0.000000  0.750000  1
  La  La1  1  0.000000  0.270085  0.250000  1
  La  La2  1  0.729915  0.729915  0.250000  1
  La  La3  1  0.270085  0.000000  0.250000  1
  La  La4  1  0.270085  0.270085  0.750000  1
  La  La5  1  0.000000  0.729915  0.750000  1
  Nd  Nd6  1  0.333333  0.666667  0.500000  1
  Nd  Nd7  1  0.333333  0.666667  0.000000  1
  Nd  Nd8  1  0.666667  0.333333  0.500000  1
  Nd  Nd9  1  0.666667  0.333333  0.000000  1
  Sb  Sb10  1  0.384597  0.000000  0.750000  1
  Sb  Sb11  1  0.615403  0.000000  0.250000  1
  Sb  Sb12  1  0.000000  0.615403  0.250000  1
  Sb  Sb13  1  0.615403  0.615403  0.750000  1
  Sb  Sb14  1  0.000000  0.384597  0.750000  1
  Sb  Sb15  1  0.384597  0.384597  0.250000  1
  Cl  Cl16  1  0.000000  0.000000  0.500000  1
  Cl  Cl17  1  0.000000  0.000000  0.000000  1
