# generated using pymatgen
data_Er5Si10As2Ir19
_symmetry_space_group_name_H-M   'P 1'
_cell_length_a   12.90382709
_cell_length_b   12.90382725
_cell_length_c   3.96315400
_cell_angle_alpha   90.00000000
_cell_angle_beta   90.00000000
_cell_angle_gamma   119.96652126
_symmetry_Int_Tables_number   1
_chemical_formula_structural   Er5Si10As2Ir19
_chemical_formula_sum   'Er5 Si10 As2 Ir19'
_cell_volume   571.68272303
_cell_formula_units_Z   1
loop_
 _symmetry_equiv_pos_site_id
 _symmetry_equiv_pos_as_xyz
  1  'x, y, z'
loop_
 _atom_site_type_symbol
 _atom_site_label
 _atom_site_symmetry_multiplicity
 _atom_site_fract_x
 _atom_site_fract_y
 _atom_site_fract_z
 _atom_site_occupancy
  Er  Er0  1  0.665902  0.333735  0.000000  1
  Er  Er1  1  0.333735  0.665902  0.000000  1
  Er  Er2  1  0.806478  0.806478  0.500000  1
  Er  Er3  1  0.191487  0.005601  0.500000  1
  Er  Er4  1  0.005601  0.191487  0.500000  1
  Si  Si5  1  0.686517  0.170349  0.500000  1
  Si  Si6  1  0.828767  0.516195  0.500000  1
  Si  Si7  1  0.481827  0.311163  0.500000  1
  Si  Si8  1  0.170349  0.686517  0.500000  1
  Si  Si9  1  0.516195  0.828767  0.500000  1
  Si  Si10  1  0.311163  0.481827  0.500000  1
  Si  Si11  1  0.630803  0.630803  0.000000  1
  Si  Si12  1  0.367913  0.999462  0.000000  1
  Si  Si13  1  0.999462  0.367913  0.000000  1
  Si  Si14  1  0.184561  0.184561  0.000000  1
  As  As15  1  0.823241  0.001557  0.000000  1
  As  As16  1  0.001557  0.823241  0.000000  1
  Ir  Ir17  1  0.804108  0.183738  0.000000  1
  Ir  Ir18  1  0.816181  0.622039  0.000000  1
  Ir  Ir19  1  0.377285  0.194305  0.000000  1
  Ir  Ir20  1  0.183738  0.804108  0.000000  1
  Ir  Ir21  1  0.622039  0.816181  0.000000  1
  Ir  Ir22  1  0.194305  0.377285  0.000000  1
  Ir  Ir23  1  0.447548  0.447548  0.000000  1
  Ir  Ir24  1  0.551600  0.998293  0.000000  1
  Ir  Ir25  1  0.998293  0.551600  0.000000  1
  Ir  Ir26  1  0.285277  0.285277  0.500000  1
  Ir  Ir27  1  0.712865  0.999641  0.500000  1
  Ir  Ir28  1  0.999641  0.712865  0.500000  1
  Ir  Ir29  1  0.872141  0.361127  0.500000  1
  Ir  Ir30  1  0.637792  0.510412  0.500000  1
  Ir  Ir31  1  0.487285  0.125561  0.500000  1
  Ir  Ir32  1  0.361127  0.872141  0.500000  1
  Ir  Ir33  1  0.510412  0.637792  0.500000  1
  Ir  Ir34  1  0.125561  0.487285  0.500000  1
  Ir  Ir35  1  0.007248  0.007248  0.000000  1
