# generated using pymatgen
data_Dy4Ho3Lu(WO6)4
_symmetry_space_group_name_H-M   'P 1'
_cell_length_a   5.38737076
_cell_length_b   7.69535008
_cell_length_c   11.42175855
_cell_angle_alpha   75.45605777
_cell_angle_beta   90.00702732
_cell_angle_gamma   90.06021150
_symmetry_Int_Tables_number   1
_chemical_formula_structural   Dy4Ho3Lu(WO6)4
_chemical_formula_sum   'Dy4 Ho3 Lu1 W4 O24'
_cell_volume   458.34583896
_cell_formula_units_Z   1
loop_
 _symmetry_equiv_pos_site_id
 _symmetry_equiv_pos_as_xyz
  1  'x, y, z'
loop_
 _atom_site_type_symbol
 _atom_site_label
 _atom_site_symmetry_multiplicity
 _atom_site_fract_x
 _atom_site_fract_y
 _atom_site_fract_z
 _atom_site_occupancy
  Dy  Dy0  1  0.258178  0.999390  0.748893  1
  Dy  Dy1  1  0.742042  0.999567  0.250873  1
  Dy  Dy2  1  0.316174  0.500747  0.749139  1
  Dy  Dy3  1  0.684277  0.500258  0.250257  1
  Ho  Ho4  1  0.183164  0.793566  0.078619  1
  Ho  Ho5  1  0.182322  0.205839  0.421775  1
  Ho  Ho6  1  0.816972  0.206411  0.921519  1
  Lu  Lu7  1  0.817067  0.792414  0.579485  1
  W  W8  1  0.744090  0.723794  0.884847  1
  W  W9  1  0.256825  0.723987  0.386621  1
  W  W10  1  0.743547  0.276759  0.614398  1
  W  W11  1  0.256476  0.276503  0.114442  1
  O  O12  1  0.536137  0.154961  0.068684  1
  O  O13  1  0.046333  0.060402  0.103760  1
  O  O14  1  0.018621  0.711836  0.769666  1
  O  O15  1  0.462354  0.156388  0.568558  1
  O  O16  1  0.359419  0.490263  0.386323  1
  O  O17  1  0.949518  0.057312  0.603455  1
  O  O18  1  0.545307  0.792022  0.724593  1
  O  O19  1  0.457793  0.791926  0.227532  1
  O  O20  1  0.146631  0.635714  0.549655  1
  O  O21  1  0.046089  0.938948  0.397368  1
  O  O22  1  0.463468  0.844367  0.930251  1
  O  O23  1  0.457541  0.208587  0.273419  1
  O  O24  1  0.848982  0.365831  0.451014  1
  O  O25  1  0.639657  0.490044  0.885208  1
  O  O26  1  0.360308  0.510376  0.114669  1
  O  O27  1  0.954060  0.939438  0.896129  1
  O  O28  1  0.539598  0.842698  0.433992  1
  O  O29  1  0.980436  0.288798  0.228508  1
  O  O30  1  0.542040  0.209339  0.772973  1
  O  O31  1  0.848857  0.634126  0.048616  1
  O  O32  1  0.020195  0.287826  0.727882  1
  O  O33  1  0.151209  0.366363  0.950820  1
  O  O34  1  0.981309  0.711290  0.271673  1
  O  O35  1  0.643006  0.511907  0.614382  1
