# generated using pymatgen
data_SmTh2(InIr)3
_symmetry_space_group_name_H-M   'P 1'
_cell_length_a   7.73308900
_cell_length_b   7.63844731
_cell_length_c   3.96515800
_cell_angle_alpha   90.00000000
_cell_angle_beta   90.00000000
_cell_angle_gamma   119.59596340
_symmetry_Int_Tables_number   1
_chemical_formula_structural   SmTh2(InIr)3
_chemical_formula_sum   'Sm1 Th2 In3 Ir3'
_cell_volume   203.65872794
_cell_formula_units_Z   1
loop_
 _symmetry_equiv_pos_site_id
 _symmetry_equiv_pos_as_xyz
  1  'x, y, z'
loop_
 _atom_site_type_symbol
 _atom_site_label
 _atom_site_symmetry_multiplicity
 _atom_site_fract_x
 _atom_site_fract_y
 _atom_site_fract_z
 _atom_site_occupancy
  Sm  Sm0  1  0.000000  0.408089  0.000000  1
  Th  Th1  1  0.588388  0.589710  0.000000  1
  Th  Th2  1  0.411612  0.001323  0.000000  1
  In  In3  1  0.000000  0.735701  0.500000  1
  In  In4  1  0.241066  0.252624  0.500000  1
  In  In5  1  0.758934  0.011558  0.500000  1
  Ir  Ir6  1  0.000000  0.988067  0.000000  1
  Ir  Ir7  1  0.647261  0.330093  0.500000  1
  Ir  Ir8  1  0.352739  0.682834  0.500000  1
