# generated using pymatgen
data_ScPa6Cd3O20
_symmetry_space_group_name_H-M   'P 1'
_cell_length_a   10.12290587
_cell_length_b   10.12290779
_cell_length_c   6.55439977
_cell_angle_alpha   83.77610993
_cell_angle_beta   83.77611443
_cell_angle_gamma   141.79987404
_symmetry_Int_Tables_number   1
_chemical_formula_structural   ScPa6Cd3O20
_chemical_formula_sum   'Sc1 Pa6 Cd3 O20'
_cell_volume   391.89575921
_cell_formula_units_Z   1
loop_
 _symmetry_equiv_pos_site_id
 _symmetry_equiv_pos_as_xyz
  1  'x, y, z'
loop_
 _atom_site_type_symbol
 _atom_site_label
 _atom_site_symmetry_multiplicity
 _atom_site_fract_x
 _atom_site_fract_y
 _atom_site_fract_z
 _atom_site_occupancy
  Sc  Sc0  1  0.000000  0.000000  0.500000  1
  Pa  Pa1  1  0.902122  0.097878  0.000000  1
  Pa  Pa2  1  0.401103  0.598897  0.500000  1
  Pa  Pa3  1  0.097878  0.902122  0.000000  1
  Pa  Pa4  1  0.699689  0.300311  0.000000  1
  Pa  Pa5  1  0.598897  0.401103  0.500000  1
  Pa  Pa6  1  0.300311  0.699689  0.000000  1
  Cd  Cd7  1  0.500000  0.500000  0.000000  1
  Cd  Cd8  1  0.200271  0.799729  0.500000  1
  Cd  Cd9  1  0.799729  0.200271  0.500000  1
  O  O10  1  0.268002  0.468936  0.874504  1
  O  O11  1  0.891019  0.891019  0.866954  1
  O  O12  1  0.775498  0.967210  0.368400  1
  O  O13  1  0.032790  0.224502  0.631600  1
  O  O14  1  0.468936  0.268002  0.874504  1
  O  O15  1  0.367217  0.367217  0.391852  1
  O  O16  1  0.632783  0.632783  0.608148  1
  O  O17  1  0.065189  0.667877  0.898318  1
  O  O18  1  0.531064  0.731998  0.125496  1
  O  O19  1  0.967210  0.775498  0.368400  1
  O  O20  1  0.224502  0.032790  0.631600  1
  O  O21  1  0.667877  0.065189  0.898318  1
  O  O22  1  0.108981  0.108981  0.133046  1
  O  O23  1  0.582417  0.192991  0.357914  1
  O  O24  1  0.807009  0.417583  0.642086  1
  O  O25  1  0.417583  0.807009  0.642086  1
  O  O26  1  0.731998  0.531064  0.125496  1
  O  O27  1  0.192991  0.582417  0.357914  1
  O  O28  1  0.332123  0.934811  0.101682  1
  O  O29  1  0.934811  0.332123  0.101682  1
