# generated using pymatgen
data_Tb4Er6Cd7InPd4
_symmetry_space_group_name_H-M   'P 1'
_cell_length_a   3.63320400
_cell_length_b   7.98549164
_cell_length_c   18.37340769
_cell_angle_alpha   89.60502838
_cell_angle_beta   90.00000000
_cell_angle_gamma   90.00000000
_symmetry_Int_Tables_number   1
_chemical_formula_structural   Tb4Er6Cd7InPd4
_chemical_formula_sum   'Tb4 Er6 Cd7 In1 Pd4'
_cell_volume   533.05354470
_cell_formula_units_Z   1
loop_
 _symmetry_equiv_pos_site_id
 _symmetry_equiv_pos_as_xyz
  1  'x, y, z'
loop_
 _atom_site_type_symbol
 _atom_site_label
 _atom_site_symmetry_multiplicity
 _atom_site_fract_x
 _atom_site_fract_y
 _atom_site_fract_z
 _atom_site_occupancy
  Tb  Tb0  1  0.000000  0.497860  0.500361  1
  Tb  Tb1  1  0.000000  0.001653  0.999676  1
  Tb  Tb2  1  0.000000  0.739181  0.281139  1
  Tb  Tb3  1  0.000000  0.260850  0.718515  1
  Er  Er4  1  0.000000  0.758384  0.780669  1
  Er  Er5  1  0.000000  0.241111  0.219317  1
  Er  Er6  1  0.000000  0.613185  0.083857  1
  Er  Er7  1  0.000000  0.387490  0.916308  1
  Er  Er8  1  0.000000  0.886722  0.583761  1
  Er  Er9  1  0.000000  0.113392  0.415844  1
  Cd  Cd10  1  0.500000  0.713267  0.932129  1
  Cd  Cd11  1  0.500000  0.287746  0.068481  1
  Cd  Cd12  1  0.500000  0.785841  0.432438  1
  Cd  Cd13  1  0.500000  0.211879  0.568135  1
  Cd  Cd14  1  0.500000  0.578571  0.648085  1
  Cd  Cd15  1  0.500000  0.422895  0.351612  1
  Cd  Cd16  1  0.500000  0.924694  0.148265  1
  In  In17  1  0.500000  0.075253  0.850802  1
  Pd  Pd18  1  0.500000  0.523860  0.194999  1
  Pd  Pd19  1  0.500000  0.476240  0.805064  1
  Pd  Pd20  1  0.500000  0.971888  0.695881  1
  Pd  Pd21  1  0.500000  0.028040  0.304666  1
