# generated using pymatgen
data_Yb4Al3OsO12
_symmetry_space_group_name_H-M   'P 1'
_cell_length_a   5.27418999
_cell_length_b   5.26767718
_cell_length_c   7.52629705
_cell_angle_alpha   89.83784010
_cell_angle_beta   89.74056145
_cell_angle_gamma   89.94112796
_symmetry_Int_Tables_number   1
_chemical_formula_structural   Yb4Al3OsO12
_chemical_formula_sum   'Yb4 Al3 Os1 O12'
_cell_volume   209.09799156
_cell_formula_units_Z   1
loop_
 _symmetry_equiv_pos_site_id
 _symmetry_equiv_pos_as_xyz
  1  'x, y, z'
loop_
 _atom_site_type_symbol
 _atom_site_label
 _atom_site_symmetry_multiplicity
 _atom_site_fract_x
 _atom_site_fract_y
 _atom_site_fract_z
 _atom_site_occupancy
  Yb  Yb0  1  0.501811  0.526301  0.280935  1
  Yb  Yb1  1  0.004109  0.017592  0.281311  1
  Yb  Yb2  1  0.498189  0.473699  0.719065  1
  Yb  Yb3  1  0.995891  0.982408  0.718689  1
  Al  Al4  1  0.500000  0.000000  0.500000  1
  Al  Al5  1  0.000000  0.500000  0.500000  1
  Al  Al6  1  0.500000  0.000000  0.000000  1
  Os  Os7  1  0.000000  0.500000  0.000000  1
  O  O8  1  0.442456  0.985114  0.241351  1
  O  O9  1  0.060223  0.489426  0.247205  1
  O  O10  1  0.557544  0.014886  0.758649  1
  O  O11  1  0.939777  0.510574  0.752795  1
  O  O12  1  0.811605  0.806070  0.031044  1
  O  O13  1  0.736546  0.267902  0.472989  1
  O  O14  1  0.232039  0.235877  0.525852  1
  O  O15  1  0.305052  0.688837  0.966965  1
  O  O16  1  0.188395  0.193930  0.968956  1
  O  O17  1  0.263454  0.732098  0.527011  1
  O  O18  1  0.767961  0.764123  0.474148  1
  O  O19  1  0.694948  0.311163  0.033035  1
