# generated using pymatgen
data_Dy6Al24Co3Ru5
_symmetry_space_group_name_H-M   'P 1'
_cell_length_a   8.76908991
_cell_length_b   8.76800246
_cell_length_c   9.47738262
_cell_angle_alpha   90.00000178
_cell_angle_beta   90.26110821
_cell_angle_gamma   119.99589362
_symmetry_Int_Tables_number   1
_chemical_formula_structural   Dy6Al24Co3Ru5
_chemical_formula_sum   'Dy6 Al24 Co3 Ru5'
_cell_volume   631.08257422
_cell_formula_units_Z   1
loop_
 _symmetry_equiv_pos_site_id
 _symmetry_equiv_pos_as_xyz
  1  'x, y, z'
loop_
 _atom_site_type_symbol
 _atom_site_label
 _atom_site_symmetry_multiplicity
 _atom_site_fract_x
 _atom_site_fract_y
 _atom_site_fract_z
 _atom_site_occupancy
  Dy  Dy0  1  0.194209  0.806788  0.249683  1
  Dy  Dy1  1  0.194209  0.387421  0.249683  1
  Dy  Dy2  1  0.611722  0.805861  0.251903  1
  Dy  Dy3  1  0.805791  0.193212  0.750317  1
  Dy  Dy4  1  0.805791  0.612579  0.750317  1
  Dy  Dy5  1  0.388278  0.194139  0.748097  1
  Al  Al6  1  0.561878  0.438679  0.250765  1
  Al  Al7  1  0.561878  0.123199  0.250765  1
  Al  Al8  1  0.881532  0.440766  0.254616  1
  Al  Al9  1  0.438122  0.561321  0.749235  1
  Al  Al10  1  0.438122  0.876801  0.749235  1
  Al  Al11  1  0.118468  0.559234  0.745384  1
  Al  Al12  1  0.320808  0.160404  0.423207  1
  Al  Al13  1  0.840931  0.162102  0.424289  1
  Al  Al14  1  0.840931  0.678829  0.424289  1
  Al  Al15  1  0.679192  0.839596  0.576793  1
  Al  Al16  1  0.159069  0.837898  0.575711  1
  Al  Al17  1  0.159069  0.321171  0.575711  1
  Al  Al18  1  0.680234  0.840117  0.923726  1
  Al  Al19  1  0.159697  0.839709  0.922679  1
  Al  Al20  1  0.159697  0.319988  0.922679  1
  Al  Al21  1  0.319766  0.159883  0.076274  1
  Al  Al22  1  0.840303  0.160291  0.077321  1
  Al  Al23  1  0.840303  0.680012  0.077321  1
  Al  Al24  1  0.672773  0.336386  0.514675  1
  Al  Al25  1  0.327227  0.663614  0.485325  1
  Al  Al26  1  0.333058  0.666530  0.013987  1
  Al  Al27  1  0.666942  0.333470  0.986013  1
  Al  Al28  1  0.000524  0.000262  0.250151  1
  Al  Al29  1  0.999476  0.999738  0.749849  1
  Co  Co30  1  0.000000  0.000000  0.500000  1
  Co  Co31  1  0.000000  0.000000  0.000000  1
  Co  Co32  1  0.000000  0.500000  0.500000  1
  Ru  Ru33  1  0.500000  0.500000  0.500000  1
  Ru  Ru34  1  0.500000  0.000000  0.500000  1
  Ru  Ru35  1  0.500000  0.500000  0.000000  1
  Ru  Ru36  1  0.500000  0.000000  0.000000  1
  Ru  Ru37  1  0.000000  0.500000  0.000000  1
