# generated using pymatgen
data_Mn2Be6Ir3Rh
_symmetry_space_group_name_H-M   'P 1'
_cell_length_a   3.91636100
_cell_length_b   5.58467800
_cell_length_c   11.81750100
_cell_angle_alpha   90.00000000
_cell_angle_beta   90.00024242
_cell_angle_gamma   90.00000000
_symmetry_Int_Tables_number   1
_chemical_formula_structural   Mn2Be6Ir3Rh
_chemical_formula_sum   'Mn4 Be12 Ir6 Rh2'
_cell_volume   258.46783351
_cell_formula_units_Z   2
loop_
 _symmetry_equiv_pos_site_id
 _symmetry_equiv_pos_as_xyz
  1  'x, y, z'
loop_
 _atom_site_type_symbol
 _atom_site_label
 _atom_site_symmetry_multiplicity
 _atom_site_fract_x
 _atom_site_fract_y
 _atom_site_fract_z
 _atom_site_occupancy
  Mn  Mn0  1  0.999461  0.500000  0.333836  1
  Mn  Mn1  1  0.500752  0.000000  0.500760  1
  Mn  Mn2  1  0.000366  0.500000  0.665934  1
  Mn  Mn3  1  0.499328  0.000000  0.832688  1
  Be  Be4  1  0.499894  0.259387  0.005385  1
  Be  Be5  1  0.499894  0.740613  0.005385  1
  Be  Be6  1  0.000028  0.240557  0.161265  1
  Be  Be7  1  0.000028  0.759445  0.161265  1
  Be  Be8  1  0.499716  0.238076  0.331470  1
  Be  Be9  1  0.499716  0.761924  0.331470  1
  Be  Be10  1  0.000513  0.249197  0.502276  1
  Be  Be11  1  0.000513  0.750802  0.502276  1
  Be  Be12  1  0.500495  0.250879  0.664420  1
  Be  Be13  1  0.500495  0.749121  0.664420  1
  Be  Be14  1  0.999466  0.261899  0.835230  1
  Be  Be15  1  0.999466  0.738103  0.835230  1
  Ir  Ir16  1  0.999842  0.000000  0.989318  1
  Ir  Ir17  1  0.499910  0.500000  0.177328  1
  Ir  Ir18  1  0.999936  0.000000  0.339786  1
  Ir  Ir19  1  0.500253  0.500000  0.498177  1
  Ir  Ir20  1  0.000353  0.000000  0.668514  1
  Ir  Ir21  1  0.499689  0.500000  0.826894  1
  Rh  Rh22  1  0.999886  0.500000  0.000422  1
  Rh  Rh23  1  0.499997  0.000000  0.166255  1
