# generated using pymatgen
data_PrNdY6(Si3Rh)4
_symmetry_space_group_name_H-M   'P 1'
_cell_length_a   8.21045200
_cell_length_b   8.21045149
_cell_length_c   8.08208800
_cell_angle_alpha   90.00000000
_cell_angle_beta   90.00000000
_cell_angle_gamma   119.99999399
_symmetry_Int_Tables_number   1
_chemical_formula_structural   PrNdY6(Si3Rh)4
_chemical_formula_sum   'Pr1 Nd1 Y6 Si12 Rh4'
_cell_volume   471.83302909
_cell_formula_units_Z   1
loop_
 _symmetry_equiv_pos_site_id
 _symmetry_equiv_pos_as_xyz
  1  'x, y, z'
loop_
 _atom_site_type_symbol
 _atom_site_label
 _atom_site_symmetry_multiplicity
 _atom_site_fract_x
 _atom_site_fract_y
 _atom_site_fract_z
 _atom_site_occupancy
  Pr  Pr0  1  0.000000  0.000000  0.250000  1
  Nd  Nd1  1  0.000000  0.000000  0.750000  1
  Y  Y2  1  0.508324  0.491676  0.250000  1
  Y  Y3  1  0.508324  0.016646  0.250000  1
  Y  Y4  1  0.983354  0.491676  0.250000  1
  Y  Y5  1  0.491568  0.508432  0.750000  1
  Y  Y6  1  0.491568  0.983136  0.750000  1
  Y  Y7  1  0.016864  0.508432  0.750000  1
  Si  Si8  1  0.168481  0.831519  0.502562  1
  Si  Si9  1  0.168481  0.336961  0.502562  1
  Si  Si10  1  0.663039  0.831519  0.502562  1
  Si  Si11  1  0.831486  0.168514  0.499764  1
  Si  Si12  1  0.831486  0.662972  0.499764  1
  Si  Si13  1  0.337028  0.168514  0.499764  1
  Si  Si14  1  0.831486  0.168514  0.000236  1
  Si  Si15  1  0.831486  0.662972  0.000236  1
  Si  Si16  1  0.337028  0.168514  0.000236  1
  Si  Si17  1  0.168481  0.831519  0.997438  1
  Si  Si18  1  0.168481  0.336961  0.997438  1
  Si  Si19  1  0.663039  0.831519  0.997438  1
  Rh  Rh20  1  0.333333  0.666667  0.467053  1
  Rh  Rh21  1  0.666667  0.333333  0.534471  1
  Rh  Rh22  1  0.666667  0.333333  0.965529  1
  Rh  Rh23  1  0.333333  0.666667  0.032947  1
