# generated using pymatgen
data_Tb3YAl4Pt3Rh
_symmetry_space_group_name_H-M   'P 1'
_cell_length_a   4.43588600
_cell_length_b   6.88128107
_cell_length_c   7.79300303
_cell_angle_alpha   89.98703956
_cell_angle_beta   90.00000000
_cell_angle_gamma   90.00000000
_symmetry_Int_Tables_number   1
_chemical_formula_structural   Tb3YAl4Pt3Rh
_chemical_formula_sum   'Tb3 Y1 Al4 Pt3 Rh1'
_cell_volume   237.87812543
_cell_formula_units_Z   1
loop_
 _symmetry_equiv_pos_site_id
 _symmetry_equiv_pos_as_xyz
  1  'x, y, z'
loop_
 _atom_site_type_symbol
 _atom_site_label
 _atom_site_symmetry_multiplicity
 _atom_site_fract_x
 _atom_site_fract_y
 _atom_site_fract_z
 _atom_site_occupancy
  Tb  Tb0  1  0.250000  0.031779  0.678374  1
  Tb  Tb1  1  0.750000  0.973263  0.318825  1
  Tb  Tb2  1  0.750000  0.470348  0.182703  1
  Y  Y3  1  0.250000  0.529684  0.818831  1
  Al  Al4  1  0.250000  0.147066  0.063371  1
  Al  Al5  1  0.250000  0.640513  0.436563  1
  Al  Al6  1  0.750000  0.853939  0.936268  1
  Al  Al7  1  0.750000  0.355064  0.562917  1
  Pt  Pt8  1  0.250000  0.775597  0.117446  1
  Pt  Pt9  1  0.750000  0.726784  0.617101  1
  Pt  Pt10  1  0.750000  0.226331  0.882819  1
  Rh  Rh11  1  0.250000  0.269631  0.384781  1
