# generated using pymatgen
data_Ti8Al15Ir6Pd
_symmetry_space_group_name_H-M   'P 1'
_cell_length_a   8.68078023
_cell_length_b   8.65737799
_cell_length_c   8.66636234
_cell_angle_alpha   120.01162725
_cell_angle_beta   119.92667361
_cell_angle_gamma   90.09927053
_symmetry_Int_Tables_number   1
_chemical_formula_structural   Ti8Al15Ir6Pd
_chemical_formula_sum   'Ti8 Al15 Ir6 Pd1'
_cell_volume   460.56910716
_cell_formula_units_Z   1
loop_
 _symmetry_equiv_pos_site_id
 _symmetry_equiv_pos_as_xyz
  1  'x, y, z'
loop_
 _atom_site_type_symbol
 _atom_site_label
 _atom_site_symmetry_multiplicity
 _atom_site_fract_x
 _atom_site_fract_y
 _atom_site_fract_z
 _atom_site_occupancy
  Ti  Ti0  1  0.790603  0.290222  0.074029  1
  Ti  Ti1  1  0.217419  0.290303  0.499265  1
  Ti  Ti2  1  0.210239  0.708626  0.500331  1
  Ti  Ti3  1  0.215892  0.717070  0.925574  1
  Ti  Ti4  1  0.789324  0.715195  0.500847  1
  Ti  Ti5  1  0.781423  0.284233  0.498938  1
  Ti  Ti6  1  0.385678  0.125699  0.748961  1
  Ti  Ti7  1  0.378920  0.634275  0.256013  1
  Al  Al8  1  0.997263  0.497181  0.499903  1
  Al  Al9  1  0.153677  0.344341  0.191345  1
  Al  Al10  1  0.154156  0.962847  0.809656  1
  Al  Al11  1  0.150824  0.347384  0.804038  1
  Al  Al12  1  0.542432  0.346771  0.196344  1
  Al  Al13  1  0.845626  0.652320  0.806786  1
  Al  Al14  1  0.845275  0.039966  0.192012  1
  Al  Al15  1  0.843128  0.652790  0.188426  1
  Al  Al16  1  0.465249  0.654115  0.810449  1
  Al  Al17  1  0.379068  0.121964  0.257414  1
  Al  Al18  1  0.863146  0.123556  0.746123  1
  Al  Al19  1  0.617408  0.876203  0.253237  1
  Al  Al20  1  0.621272  0.365717  0.743455  1
  Al  Al21  1  0.620999  0.877209  0.742611  1
  Al  Al22  1  0.136377  0.876913  0.254278  1
  Ir  Ir23  1  0.498681  0.999837  0.998946  1
  Ir  Ir24  1  0.497626  0.497739  0.000568  1
  Ir  Ir25  1  0.498063  0.499798  0.498338  1
  Ir  Ir26  1  0.001455  0.499342  0.001651  1
  Ir  Ir27  1  0.999148  0.999290  0.999656  1
  Ir  Ir28  1  0.499875  0.999789  0.500702  1
  Pd  Pd29  1  0.999753  0.999305  0.500102  1
