# generated using pymatgen
data_Ba3Tb(BO3)3
_symmetry_space_group_name_H-M   'P 1'
_cell_length_a   8.24058985
_cell_length_b   8.24058997
_cell_length_c   8.24059000
_cell_angle_alpha   105.58631505
_cell_angle_beta   105.58631214
_cell_angle_gamma   105.58630719
_symmetry_Int_Tables_number   1
_chemical_formula_structural   Ba3Tb(BO3)3
_chemical_formula_sum   'Ba6 Tb2 B6 O18'
_cell_volume   482.88398984
_cell_formula_units_Z   2
loop_
 _symmetry_equiv_pos_site_id
 _symmetry_equiv_pos_as_xyz
  1  'x, y, z'
loop_
 _atom_site_type_symbol
 _atom_site_label
 _atom_site_symmetry_multiplicity
 _atom_site_fract_x
 _atom_site_fract_y
 _atom_site_fract_z
 _atom_site_occupancy
  Ba  Ba0  1  0.350649  0.734077  0.842887  1
  Ba  Ba1  1  0.842887  0.350649  0.734077  1
  Ba  Ba2  1  0.734077  0.842887  0.350649  1
  Ba  Ba3  1  0.649351  0.265923  0.157113  1
  Ba  Ba4  1  0.157113  0.649351  0.265923  1
  Ba  Ba5  1  0.265923  0.157113  0.649351  1
  Tb  Tb6  1  0.500000  0.500000  0.500000  1
  Tb  Tb7  1  0.000000  0.000000  0.000000  1
  B  B8  1  0.710164  0.622109  0.956990  1
  B  B9  1  0.956990  0.710164  0.622109  1
  B  B10  1  0.622109  0.956990  0.710164  1
  B  B11  1  0.043010  0.289836  0.377891  1
  B  B12  1  0.377891  0.043010  0.289836  1
  B  B13  1  0.289836  0.377891  0.043010  1
  O  O14  1  0.061715  0.805925  0.548735  1
  O  O15  1  0.548735  0.061715  0.805925  1
  O  O16  1  0.427617  0.491121  0.210979  1
  O  O17  1  0.491121  0.210979  0.427617  1
  O  O18  1  0.210979  0.427617  0.491121  1
  O  O19  1  0.789021  0.572383  0.508879  1
  O  O20  1  0.572383  0.508879  0.789021  1
  O  O21  1  0.508879  0.789021  0.572383  1
  O  O22  1  0.255874  0.191860  0.983256  1
  O  O23  1  0.191860  0.983256  0.255874  1
  O  O24  1  0.983256  0.255874  0.191860  1
  O  O25  1  0.744126  0.808140  0.016744  1
  O  O26  1  0.808140  0.016744  0.744126  1
  O  O27  1  0.016744  0.744126  0.808140  1
  O  O28  1  0.194075  0.451265  0.938285  1
  O  O29  1  0.451265  0.938285  0.194075  1
  O  O30  1  0.938285  0.194075  0.451265  1
  O  O31  1  0.805925  0.548735  0.061715  1
