# generated using pymatgen
data_Dy4ErSi3O
_symmetry_space_group_name_H-M   'P 1'
_cell_length_a   8.39556000
_cell_length_b   8.39556079
_cell_length_c   6.20413100
_cell_angle_alpha   90.00000000
_cell_angle_beta   90.00000000
_cell_angle_gamma   120.00001264
_symmetry_Int_Tables_number   1
_chemical_formula_structural   Dy4ErSi3O
_chemical_formula_sum   'Dy8 Er2 Si6 O2'
_cell_volume   378.71361294
_cell_formula_units_Z   2
loop_
 _symmetry_equiv_pos_site_id
 _symmetry_equiv_pos_as_xyz
  1  'x, y, z'
loop_
 _atom_site_type_symbol
 _atom_site_label
 _atom_site_symmetry_multiplicity
 _atom_site_fract_x
 _atom_site_fract_y
 _atom_site_fract_z
 _atom_site_occupancy
  Dy  Dy0  1  0.232042  0.000000  0.250348  1
  Dy  Dy1  1  0.767958  0.000000  0.749652  1
  Dy  Dy2  1  0.000000  0.232042  0.250348  1
  Dy  Dy3  1  0.000000  0.767958  0.749652  1
  Dy  Dy4  1  0.767958  0.767958  0.250348  1
  Dy  Dy5  1  0.232042  0.232042  0.749652  1
  Dy  Dy6  1  0.333333  0.666667  0.000000  1
  Dy  Dy7  1  0.666667  0.333333  0.000000  1
  Er  Er8  1  0.666667  0.333333  0.500000  1
  Er  Er9  1  0.333333  0.666667  0.500000  1
  Si  Si10  1  0.601230  0.000000  0.251019  1
  Si  Si11  1  0.398770  0.000000  0.748981  1
  Si  Si12  1  0.000000  0.601230  0.251019  1
  Si  Si13  1  0.000000  0.398770  0.748981  1
  Si  Si14  1  0.398770  0.398770  0.251019  1
  Si  Si15  1  0.601230  0.601230  0.748981  1
  O  O16  1  0.000000  0.000000  0.000000  1
  O  O17  1  0.000000  0.000000  0.500000  1
