# generated using pymatgen
data_Nb3TeI6Cl
_symmetry_space_group_name_H-M   'P 1'
_cell_length_a   7.67269848
_cell_length_b   7.63724509
_cell_length_c   7.44128573
_cell_angle_alpha   89.99999804
_cell_angle_beta   90.56804995
_cell_angle_gamma   119.84727198
_symmetry_Int_Tables_number   1
_chemical_formula_structural   Nb3TeI6Cl
_chemical_formula_sum   'Nb3 Te1 I6 Cl1'
_cell_volume   378.18249162
_cell_formula_units_Z   1
loop_
 _symmetry_equiv_pos_site_id
 _symmetry_equiv_pos_as_xyz
  1  'x, y, z'
loop_
 _atom_site_type_symbol
 _atom_site_label
 _atom_site_symmetry_multiplicity
 _atom_site_fract_x
 _atom_site_fract_y
 _atom_site_fract_z
 _atom_site_occupancy
  Nb  Nb0  1  0.263211  0.131605  0.502166  1
  Nb  Nb1  1  0.865337  0.128739  0.501754  1
  Nb  Nb2  1  0.865337  0.736598  0.501754  1
  Te  Te3  1  0.997210  0.998605  0.219440  1
  I  I4  1  0.494998  0.994896  0.293860  1
  I  I5  1  0.167057  0.831329  0.754134  1
  I  I6  1  0.999161  0.499581  0.298687  1
  I  I7  1  0.664709  0.332354  0.702552  1
  I  I8  1  0.167057  0.335728  0.754134  1
  I  I9  1  0.494998  0.500102  0.293860  1
  Cl  Cl10  1  0.687592  0.843796  0.707259  1
