# generated using pymatgen
data_Pr8Mg2OsPt
_symmetry_space_group_name_H-M   'P 1'
_cell_length_a   10.12612288
_cell_length_b   10.12612229
_cell_length_c   10.20038600
_cell_angle_alpha   59.75709283
_cell_angle_beta   59.75709480
_cell_angle_gamma   59.75328344
_symmetry_Int_Tables_number   1
_chemical_formula_structural   Pr8Mg2OsPt
_chemical_formula_sum   'Pr16 Mg4 Os2 Pt2'
_cell_volume   735.48413682
_cell_formula_units_Z   2
loop_
 _symmetry_equiv_pos_site_id
 _symmetry_equiv_pos_as_xyz
  1  'x, y, z'
loop_
 _atom_site_type_symbol
 _atom_site_label
 _atom_site_symmetry_multiplicity
 _atom_site_fract_x
 _atom_site_fract_y
 _atom_site_fract_z
 _atom_site_occupancy
  Pr  Pr0  1  0.346169  0.346169  0.351343  1
  Pr  Pr1  1  0.346169  0.346169  0.956320  1
  Pr  Pr2  1  0.342292  0.962553  0.347578  1
  Pr  Pr3  1  0.962553  0.342292  0.347578  1
  Pr  Pr4  1  0.816198  0.187601  0.190109  1
  Pr  Pr5  1  0.187601  0.816198  0.806092  1
  Pr  Pr6  1  0.187601  0.816198  0.190109  1
  Pr  Pr7  1  0.816198  0.187601  0.806092  1
  Pr  Pr8  1  0.188057  0.188057  0.811943  1
  Pr  Pr9  1  0.807814  0.807814  0.192186  1
  Pr  Pr10  1  0.938537  0.556283  0.565470  1
  Pr  Pr11  1  0.556283  0.938537  0.939710  1
  Pr  Pr12  1  0.556283  0.938537  0.565470  1
  Pr  Pr13  1  0.938537  0.556283  0.939710  1
  Pr  Pr14  1  0.562733  0.562733  0.937267  1
  Pr  Pr15  1  0.939504  0.939504  0.560496  1
  Mg  Mg16  1  0.578390  0.578390  0.579796  1
  Mg  Mg17  1  0.578390  0.578390  0.263425  1
  Mg  Mg18  1  0.579149  0.261736  0.579558  1
  Mg  Mg19  1  0.261736  0.579149  0.579558  1
  Os  Os20  1  0.144288  0.144288  0.136119  1
  Os  Os21  1  0.144288  0.144288  0.575308  1
  Pt  Pt22  1  0.145794  0.575442  0.139383  1
  Pt  Pt23  1  0.575442  0.145794  0.139383  1
