# generated using pymatgen
data_Hf17Pa(MnRe4)2
_symmetry_space_group_name_H-M   'P 1'
_cell_length_a   8.58257495
_cell_length_b   8.58257537
_cell_length_c   8.53237512
_cell_angle_alpha   90.50290270
_cell_angle_beta   89.49710047
_cell_angle_gamma   119.84092243
_symmetry_Int_Tables_number   1
_chemical_formula_structural   Hf17Pa(MnRe4)2
_chemical_formula_sum   'Hf17 Pa1 Mn2 Re8'
_cell_volume   545.13917529
_cell_formula_units_Z   1
loop_
 _symmetry_equiv_pos_site_id
 _symmetry_equiv_pos_as_xyz
  1  'x, y, z'
loop_
 _atom_site_type_symbol
 _atom_site_label
 _atom_site_symmetry_multiplicity
 _atom_site_fract_x
 _atom_site_fract_y
 _atom_site_fract_z
 _atom_site_occupancy
  Hf  Hf0  1  0.196889  0.390659  0.444742  1
  Hf  Hf1  1  0.609341  0.803111  0.444742  1
  Hf  Hf2  1  0.798165  0.201835  0.557469  1
  Hf  Hf3  1  0.798096  0.597246  0.557971  1
  Hf  Hf4  1  0.402754  0.201904  0.557971  1
  Hf  Hf5  1  0.800566  0.199434  0.942648  1
  Hf  Hf6  1  0.798297  0.599428  0.942336  1
  Hf  Hf7  1  0.400572  0.201703  0.942336  1
  Hf  Hf8  1  0.196446  0.803554  0.052206  1
  Hf  Hf9  1  0.198300  0.397670  0.058884  1
  Hf  Hf10  1  0.602330  0.801700  0.058884  1
  Hf  Hf11  1  0.540164  0.459836  0.250655  1
  Hf  Hf12  1  0.545483  0.082588  0.246830  1
  Hf  Hf13  1  0.917412  0.454517  0.246830  1
  Hf  Hf14  1  0.459993  0.540007  0.752473  1
  Hf  Hf15  1  0.464312  0.921776  0.754730  1
  Hf  Hf16  1  0.078224  0.535688  0.754730  1
  Pa  Pa17  1  0.208409  0.791591  0.437618  1
  Mn  Mn18  1  0.321143  0.678857  0.263534  1
  Mn  Mn19  1  0.665799  0.334201  0.751266  1
  Re  Re20  1  0.889471  0.110529  0.248771  1
  Re  Re21  1  0.886215  0.777934  0.246466  1
  Re  Re22  1  0.222066  0.113785  0.246466  1
  Re  Re23  1  0.110928  0.889072  0.744998  1
  Re  Re24  1  0.110785  0.220993  0.750261  1
  Re  Re25  1  0.779007  0.889215  0.750261  1
  Re  Re26  1  0.999550  0.000450  0.497710  1
  Re  Re27  1  0.999282  0.000718  0.996211  1
