# generated using pymatgen
data_K4Ta3Nb5Si(P2O17)2
_symmetry_space_group_name_H-M   'P 1'
_cell_length_a   10.78115900
_cell_length_b   10.78115900
_cell_length_c   6.52508000
_cell_angle_alpha   90.00000000
_cell_angle_beta   90.00000000
_cell_angle_gamma   90.00000000
_symmetry_Int_Tables_number   1
_chemical_formula_structural   K4Ta3Nb5Si(P2O17)2
_chemical_formula_sum   'K4 Ta3 Nb5 Si1 P4 O34'
_cell_volume   758.43216440
_cell_formula_units_Z   1
loop_
 _symmetry_equiv_pos_site_id
 _symmetry_equiv_pos_as_xyz
  1  'x, y, z'
loop_
 _atom_site_type_symbol
 _atom_site_label
 _atom_site_symmetry_multiplicity
 _atom_site_fract_x
 _atom_site_fract_y
 _atom_site_fract_z
 _atom_site_occupancy
  K  K0  1  0.499962  0.500038  0.500000  1
  K  K1  1  0.000077  0.500075  0.300193  1
  K  K2  1  0.499925  0.999923  0.699807  1
  K  K3  1  0.000140  0.999860  0.500000  1
  Ta  Ta4  1  0.177504  0.179159  0.999732  1
  Ta  Ta5  1  0.820841  0.822496  0.000268  1
  Ta  Ta6  1  0.822490  0.177510  0.000000  1
  Nb  Nb7  1  0.176130  0.823870  0.000000  1
  Nb  Nb8  1  0.500009  0.186387  0.201164  1
  Nb  Nb9  1  0.813613  0.499991  0.798836  1
  Nb  Nb10  1  0.186720  0.500609  0.798483  1
  Nb  Nb11  1  0.499391  0.813280  0.201517  1
  Si  Si12  1  0.500048  0.499952  0.000000  1
  P  P13  1  0.240174  0.240048  0.499838  1
  P  P14  1  0.240291  0.759709  0.500000  1
  P  P15  1  0.759952  0.759826  0.500162  1
  P  P16  1  0.759868  0.240132  0.500000  1
  O  O17  1  0.161800  0.195916  0.311603  1
  O  O18  1  0.838165  0.803931  0.311628  1
  O  O19  1  0.803934  0.161833  0.688315  1
  O  O20  1  0.196530  0.838842  0.686597  1
  O  O21  1  0.838167  0.196066  0.311685  1
  O  O22  1  0.804084  0.838200  0.688397  1
  O  O23  1  0.196069  0.161835  0.688372  1
  O  O24  1  0.161158  0.803470  0.313403  1
  O  O25  1  0.824511  0.999900  0.026703  1
  O  O26  1  0.999668  0.824188  0.972640  1
  O  O27  1  0.000100  0.175489  0.973297  1
  O  O28  1  0.175812  0.000332  0.027360  1
  O  O29  1  0.499978  0.374524  0.148437  1
  O  O30  1  0.625476  0.500022  0.851563  1
  O  O31  1  0.374676  0.499770  0.851370  1
  O  O32  1  0.500230  0.625324  0.148630  1
  O  O33  1  0.378092  0.213889  0.459345  1
  O  O34  1  0.500189  0.000271  0.252967  1
  O  O35  1  0.999729  0.499811  0.747033  1
  O  O36  1  0.363412  0.827358  0.021991  1
  O  O37  1  0.172819  0.361813  0.978045  1
  O  O38  1  0.827266  0.638230  0.977752  1
  O  O39  1  0.638200  0.172791  0.022260  1
  O  O40  1  0.172642  0.636588  0.978009  1
  O  O41  1  0.827209  0.361800  0.977740  1
  O  O42  1  0.638187  0.827181  0.021955  1
  O  O43  1  0.361770  0.172734  0.022248  1
  O  O44  1  0.378225  0.785489  0.458913  1
  O  O45  1  0.214001  0.377832  0.540142  1
  O  O46  1  0.786111  0.621908  0.540655  1
  O  O47  1  0.621983  0.214005  0.459377  1
  O  O48  1  0.214511  0.621775  0.541087  1
  O  O49  1  0.785995  0.378017  0.540623  1
  O  O50  1  0.622168  0.785999  0.459858  1
