# generated using pymatgen
data_Lu2GeB2Ru5
_symmetry_space_group_name_H-M   'P 1'
_cell_length_a   9.49481100
_cell_length_b   9.49481100
_cell_length_c   3.07808600
_cell_angle_alpha   90.00000000
_cell_angle_beta   90.00000000
_cell_angle_gamma   90.00000000
_symmetry_Int_Tables_number   1
_chemical_formula_structural   Lu2GeB2Ru5
_chemical_formula_sum   'Lu4 Ge2 B4 Ru10'
_cell_volume   277.49387280
_cell_formula_units_Z   2
loop_
 _symmetry_equiv_pos_site_id
 _symmetry_equiv_pos_as_xyz
  1  'x, y, z'
loop_
 _atom_site_type_symbol
 _atom_site_label
 _atom_site_symmetry_multiplicity
 _atom_site_fract_x
 _atom_site_fract_y
 _atom_site_fract_z
 _atom_site_occupancy
  Lu  Lu0  1  0.674894  0.174894  0.000000  1
  Lu  Lu1  1  0.325106  0.825106  0.000000  1
  Lu  Lu2  1  0.174894  0.325106  0.000000  1
  Lu  Lu3  1  0.825106  0.674894  0.000000  1
  Ge  Ge4  1  0.000000  0.000000  0.000000  1
  Ge  Ge5  1  0.500000  0.500000  0.000000  1
  B  B6  1  0.122914  0.622914  0.000000  1
  B  B7  1  0.877086  0.377086  0.000000  1
  B  B8  1  0.622914  0.877086  0.000000  1
  B  B9  1  0.377086  0.122914  0.000000  1
  Ru  Ru10  1  0.214006  0.069594  0.500000  1
  Ru  Ru11  1  0.785994  0.930406  0.500000  1
  Ru  Ru12  1  0.069594  0.785994  0.500000  1
  Ru  Ru13  1  0.714006  0.430406  0.500000  1
  Ru  Ru14  1  0.930406  0.214006  0.500000  1
  Ru  Ru15  1  0.285994  0.569594  0.500000  1
  Ru  Ru16  1  0.569594  0.714006  0.500000  1
  Ru  Ru17  1  0.430406  0.285994  0.500000  1
  Ru  Ru18  1  0.500000  0.000000  0.500000  1
  Ru  Ru19  1  0.000000  0.500000  0.500000  1
