# generated using pymatgen
data_Tl6As(IrCl6)3
_symmetry_space_group_name_H-M   'P 1'
_cell_length_a   7.19691100
_cell_length_b   7.19691146
_cell_length_c   18.49689200
_cell_angle_alpha   90.00000000
_cell_angle_beta   90.00000000
_cell_angle_gamma   120.00000247
_symmetry_Int_Tables_number   1
_chemical_formula_structural   Tl6As(IrCl6)3
_chemical_formula_sum   'Tl6 As1 Ir3 Cl18'
_cell_volume   829.70111494
_cell_formula_units_Z   1
loop_
 _symmetry_equiv_pos_site_id
 _symmetry_equiv_pos_as_xyz
  1  'x, y, z'
loop_
 _atom_site_type_symbol
 _atom_site_label
 _atom_site_symmetry_multiplicity
 _atom_site_fract_x
 _atom_site_fract_y
 _atom_site_fract_z
 _atom_site_occupancy
  Tl  Tl0  1  0.000000  0.000000  0.277982  1
  Tl  Tl1  1  0.000000  0.000000  0.713414  1
  Tl  Tl2  1  0.333333  0.666667  0.064122  1
  Tl  Tl3  1  0.666667  0.333333  0.561699  1
  Tl  Tl4  1  0.666667  0.333333  0.954562  1
  Tl  Tl5  1  0.333333  0.666667  0.452255  1
  As  As6  1  0.333333  0.666667  0.848338  1
  Ir  Ir7  1  0.666667  0.333333  0.333218  1
  Ir  Ir8  1  0.666667  0.333333  0.163333  1
  Ir  Ir9  1  0.333333  0.666667  0.663497  1
  Cl  Cl10  1  0.520188  0.040374  0.248398  1
  Cl  Cl11  1  0.488052  0.511948  0.738400  1
  Cl  Cl12  1  0.023896  0.511948  0.738400  1
  Cl  Cl13  1  0.959626  0.479812  0.248398  1
  Cl  Cl14  1  0.520188  0.479812  0.248398  1
  Cl  Cl15  1  0.488052  0.976104  0.738400  1
  Cl  Cl16  1  0.820232  0.640463  0.090896  1
  Cl  Cl17  1  0.179503  0.820497  0.588837  1
  Cl  Cl18  1  0.640995  0.820497  0.588837  1
  Cl  Cl19  1  0.359537  0.179768  0.090896  1
  Cl  Cl20  1  0.820232  0.179768  0.090896  1
  Cl  Cl21  1  0.175891  0.351782  0.917116  1
  Cl  Cl22  1  0.175891  0.824109  0.917116  1
  Cl  Cl23  1  0.179503  0.359005  0.588837  1
  Cl  Cl24  1  0.648218  0.824109  0.917116  1
  Cl  Cl25  1  0.358690  0.179345  0.405547  1
  Cl  Cl26  1  0.820655  0.641310  0.405547  1
  Cl  Cl27  1  0.820655  0.179345  0.405547  1
