# generated using pymatgen
data_Tb4Er8Tc3Pt
_symmetry_space_group_name_H-M   'P 1'
_cell_length_a   6.27947999
_cell_length_b   7.36179868
_cell_length_c   9.11792400
_cell_angle_alpha   90.00000000
_cell_angle_beta   90.00000000
_cell_angle_gamma   89.99315165
_symmetry_Int_Tables_number   1
_chemical_formula_structural   Tb4Er8Tc3Pt
_chemical_formula_sum   'Tb4 Er8 Tc3 Pt1'
_cell_volume   421.50582659
_cell_formula_units_Z   1
loop_
 _symmetry_equiv_pos_site_id
 _symmetry_equiv_pos_as_xyz
  1  'x, y, z'
loop_
 _atom_site_type_symbol
 _atom_site_label
 _atom_site_symmetry_multiplicity
 _atom_site_fract_x
 _atom_site_fract_y
 _atom_site_fract_z
 _atom_site_occupancy
  Tb  Tb0  1  0.874498  0.542026  0.250000  1
  Tb  Tb1  1  0.622357  0.038352  0.250000  1
  Tb  Tb2  1  0.126985  0.456466  0.750000  1
  Tb  Tb3  1  0.372052  0.965586  0.750000  1
  Er  Er4  1  0.328442  0.676295  0.067142  1
  Er  Er5  1  0.165518  0.178205  0.436189  1
  Er  Er6  1  0.667995  0.318802  0.558871  1
  Er  Er7  1  0.836699  0.826510  0.939643  1
  Er  Er8  1  0.667995  0.318802  0.941129  1
  Er  Er9  1  0.836699  0.826510  0.560357  1
  Er  Er10  1  0.328442  0.676295  0.432858  1
  Er  Er11  1  0.165518  0.178205  0.063811  1
  Tc  Tc12  1  0.039260  0.885856  0.250000  1
  Tc  Tc13  1  0.462603  0.387246  0.250000  1
  Tc  Tc14  1  0.955998  0.113048  0.750000  1
  Pt  Pt15  1  0.548937  0.611796  0.750000  1
