# generated using pymatgen
data_Tb4Y4Pd24Pb
_symmetry_space_group_name_H-M   'P 1'
_cell_length_a   8.43893700
_cell_length_b   8.43863700
_cell_length_c   8.43863700
_cell_angle_alpha   89.99985061
_cell_angle_beta   90.00206403
_cell_angle_gamma   90.00206403
_symmetry_Int_Tables_number   1
_chemical_formula_structural   Tb4Y4Pd24Pb
_chemical_formula_sum   'Tb4 Y4 Pd24 Pb1'
_cell_volume   600.94171963
_cell_formula_units_Z   1
loop_
 _symmetry_equiv_pos_site_id
 _symmetry_equiv_pos_as_xyz
  1  'x, y, z'
loop_
 _atom_site_type_symbol
 _atom_site_label
 _atom_site_symmetry_multiplicity
 _atom_site_fract_x
 _atom_site_fract_y
 _atom_site_fract_z
 _atom_site_occupancy
  Tb  Tb0  1  0.252635  0.252628  0.747346  1
  Tb  Tb1  1  0.252635  0.747346  0.252628  1
  Tb  Tb2  1  0.252588  0.747418  0.747418  1
  Tb  Tb3  1  0.747388  0.252603  0.252603  1
  Y  Y4  1  0.252512  0.252530  0.252530  1
  Y  Y5  1  0.747460  0.747445  0.747445  1
  Y  Y6  1  0.747498  0.747516  0.252508  1
  Y  Y7  1  0.747498  0.252508  0.747516  1
  Pd  Pd8  1  0.267568  0.500040  0.999977  1
  Pd  Pd9  1  0.732438  0.499959  0.000025  1
  Pd  Pd10  1  0.999999  0.267566  0.500001  1
  Pd  Pd11  1  0.499992  0.267564  0.000001  1
  Pd  Pd12  1  0.000045  0.732433  0.499998  1
  Pd  Pd13  1  0.499916  0.732437  0.000001  1
  Pd  Pd14  1  0.499992  0.000001  0.267564  1
  Pd  Pd15  1  0.267568  0.999977  0.500040  1
  Pd  Pd16  1  0.499916  0.000001  0.732437  1
  Pd  Pd17  1  0.732438  0.000025  0.499959  1
  Pd  Pd18  1  0.999999  0.500001  0.267566  1
  Pd  Pd19  1  0.000045  0.499998  0.732433  1
  Pd  Pd20  1  0.255649  0.500040  0.500040  1
  Pd  Pd21  1  0.744379  0.499958  0.499958  1
  Pd  Pd22  1  0.500005  0.255633  0.499999  1
  Pd  Pd23  1  0.499921  0.744366  0.499998  1
  Pd  Pd24  1  0.500005  0.499999  0.255633  1
  Pd  Pd25  1  0.499921  0.499998  0.744366  1
  Pd  Pd26  1  0.316305  0.999995  0.999995  1
  Pd  Pd27  1  0.683720  0.000005  0.000005  1
  Pd  Pd28  1  0.999997  0.316304  0.000000  1
  Pd  Pd29  1  0.000006  0.683701  0.000001  1
  Pd  Pd30  1  0.999997  0.000000  0.316304  1
  Pd  Pd31  1  0.000006  0.000001  0.683701  1
  Pb  Pb32  1  0.999954  0.000003  0.000003  1
