# generated using pymatgen
data_Lu8Ta12Si15Sn
_symmetry_space_group_name_H-M   'P 1'
_cell_length_a   6.82826169
_cell_length_b   7.00830267
_cell_length_c   13.36629703
_cell_angle_alpha   89.83612603
_cell_angle_beta   90.25393875
_cell_angle_gamma   89.99406738
_symmetry_Int_Tables_number   1
_chemical_formula_structural   Lu8Ta12Si15Sn
_chemical_formula_sum   'Lu8 Ta12 Si15 Sn1'
_cell_volume   639.62888772
_cell_formula_units_Z   1
loop_
 _symmetry_equiv_pos_site_id
 _symmetry_equiv_pos_as_xyz
  1  'x, y, z'
loop_
 _atom_site_type_symbol
 _atom_site_label
 _atom_site_symmetry_multiplicity
 _atom_site_fract_x
 _atom_site_fract_y
 _atom_site_fract_z
 _atom_site_occupancy
  Lu  Lu0  1  0.495483  0.667481  0.598985  1
  Lu  Lu1  1  0.999893  0.828102  0.904917  1
  Lu  Lu2  1  0.498899  0.327238  0.093669  1
  Lu  Lu3  1  0.013577  0.181389  0.400939  1
  Lu  Lu4  1  0.498022  0.335166  0.403081  1
  Lu  Lu5  1  0.998978  0.171907  0.093941  1
  Lu  Lu6  1  0.500576  0.673397  0.905611  1
  Lu  Lu7  1  0.005564  0.822503  0.600130  1
  Ta  Ta8  1  0.655439  0.185623  0.631644  1
  Ta  Ta9  1  0.159109  0.323876  0.875933  1
  Ta  Ta10  1  0.337101  0.824611  0.123998  1
  Ta  Ta11  1  0.848413  0.659333  0.369245  1
  Ta  Ta12  1  0.330841  0.822667  0.372453  1
  Ta  Ta13  1  0.838223  0.673826  0.123943  1
  Ta  Ta14  1  0.662381  0.175076  0.875662  1
  Ta  Ta15  1  0.161513  0.327341  0.627377  1
  Ta  Ta16  1  0.835431  0.492947  0.751323  1
  Ta  Ta17  1  0.336121  0.009115  0.751332  1
  Ta  Ta18  1  0.163655  0.507008  0.248373  1
  Ta  Ta19  1  0.662926  0.989465  0.243556  1
  Si  Si20  1  0.165961  0.534582  0.040081  1
  Si  Si21  1  0.333533  0.034663  0.959113  1
  Si  Si22  1  0.832359  0.463595  0.539708  1
  Si  Si23  1  0.324368  0.037038  0.541813  1
  Si  Si24  1  0.832562  0.465582  0.959471  1
  Si  Si25  1  0.665892  0.964448  0.039365  1
  Si  Si26  1  0.169169  0.537326  0.462200  1
  Si  Si27  1  0.454383  0.382751  0.754340  1
  Si  Si28  1  0.957175  0.120097  0.750703  1
  Si  Si29  1  0.542154  0.620354  0.248681  1
  Si  Si30  1  0.040820  0.881649  0.247932  1
  Si  Si31  1  0.702562  0.868923  0.751077  1
  Si  Si32  1  0.202545  0.631782  0.752919  1
  Si  Si33  1  0.299196  0.131603  0.248227  1
  Si  Si34  1  0.794874  0.362938  0.247062  1
  Sn  Sn35  1  0.680298  0.964598  0.461200  1
