# generated using pymatgen
data_Y7Pa(TcB6)4
_symmetry_space_group_name_H-M   'P 1'
_cell_length_a   3.70104500
_cell_length_b   9.17245879
_cell_length_c   11.55265019
_cell_angle_alpha   89.82168122
_cell_angle_beta   90.00000000
_cell_angle_gamma   90.00000000
_symmetry_Int_Tables_number   1
_chemical_formula_structural   Y7Pa(TcB6)4
_chemical_formula_sum   'Y7 Pa1 Tc4 B24'
_cell_volume   392.18380430
_cell_formula_units_Z   1
loop_
 _symmetry_equiv_pos_site_id
 _symmetry_equiv_pos_as_xyz
  1  'x, y, z'
loop_
 _atom_site_type_symbol
 _atom_site_label
 _atom_site_symmetry_multiplicity
 _atom_site_fract_x
 _atom_site_fract_y
 _atom_site_fract_z
 _atom_site_occupancy
  Y  Y0  1  0.000000  0.178524  0.912939  1
  Y  Y1  1  0.000000  0.323690  0.414762  1
  Y  Y2  1  0.000000  0.675812  0.586230  1
  Y  Y3  1  0.000000  0.442175  0.128842  1
  Y  Y4  1  0.000000  0.555587  0.870261  1
  Y  Y5  1  0.000000  0.943060  0.371722  1
  Y  Y6  1  0.000000  0.057689  0.630538  1
  Pa  Pa7  1  0.000000  0.824046  0.085792  1
  Tc  Tc8  1  0.000000  0.134817  0.178013  1
  Tc  Tc9  1  0.000000  0.862379  0.824545  1
  Tc  Tc10  1  0.000000  0.640987  0.317692  1
  Tc  Tc11  1  0.000000  0.362327  0.678827  1
  B  B12  1  0.500000  0.052140  0.068083  1
  B  B13  1  0.500000  0.945588  0.933219  1
  B  B14  1  0.500000  0.553929  0.431986  1
  B  B15  1  0.500000  0.447132  0.566580  1
  B  B16  1  0.500000  0.247473  0.081433  1
  B  B17  1  0.500000  0.751790  0.919391  1
  B  B18  1  0.500000  0.747904  0.418947  1
  B  B19  1  0.500000  0.251924  0.581168  1
  B  B20  1  0.500000  0.290629  0.233866  1
  B  B21  1  0.500000  0.708963  0.765674  1
  B  B22  1  0.500000  0.791385  0.265154  1
  B  B23  1  0.500000  0.208847  0.734315  1
  B  B24  1  0.500000  0.130979  0.314600  1
  B  B25  1  0.500000  0.869470  0.686667  1
  B  B26  1  0.500000  0.632414  0.185057  1
  B  B27  1  0.500000  0.368662  0.813611  1
  B  B28  1  0.500000  0.482946  0.287585  1
  B  B29  1  0.500000  0.517597  0.711771  1
  B  B30  1  0.500000  0.982395  0.212162  1
  B  B31  1  0.500000  0.017488  0.787823  1
  B  B32  1  0.500000  0.103069  0.471747  1
  B  B33  1  0.500000  0.897001  0.529552  1
  B  B34  1  0.500000  0.606849  0.029524  1
  B  B35  1  0.500000  0.392338  0.969926  1
