# generated using pymatgen
data_Li3Sm3ZnSn4
_symmetry_space_group_name_H-M   'P 1'
_cell_length_a   4.65639657
_cell_length_b   7.20980640
_cell_length_c   8.76761811
_cell_angle_alpha   115.01957265
_cell_angle_beta   105.39935219
_cell_angle_gamma   90.00000040
_symmetry_Int_Tables_number   1
_chemical_formula_structural   Li3Sm3ZnSn4
_chemical_formula_sum   'Li3 Sm3 Zn1 Sn4'
_cell_volume   255.01434612
_cell_formula_units_Z   1
loop_
 _symmetry_equiv_pos_site_id
 _symmetry_equiv_pos_as_xyz
  1  'x, y, z'
loop_
 _atom_site_type_symbol
 _atom_site_label
 _atom_site_symmetry_multiplicity
 _atom_site_fract_x
 _atom_site_fract_y
 _atom_site_fract_z
 _atom_site_occupancy
  Li  Li0  1  0.326692  0.640510  0.653384  1
  Li  Li1  1  0.670549  0.357164  0.341098  1
  Li  Li2  1  0.328898  0.016146  0.657796  1
  Sm  Sm3  1  0.873563  0.364679  0.747126  1
  Sm  Sm4  1  0.127548  0.632596  0.255096  1
  Sm  Sm5  1  0.000615  0.004298  0.001229  1
  Zn  Zn6  1  0.673477  0.979029  0.346953  1
  Sn  Sn7  1  0.215028  0.217189  0.430055  1
  Sn  Sn8  1  0.784989  0.786278  0.569978  1
  Sn  Sn9  1  0.498017  0.698917  0.996035  1
  Sn  Sn10  1  0.500625  0.303195  0.001250  1
