# generated using pymatgen
data_Ho9Cd5Ni4
_symmetry_space_group_name_H-M   'P 1'
_cell_length_a   10.71541000
_cell_length_b   10.71541000
_cell_length_c   3.59403100
_cell_angle_alpha   90.00000000
_cell_angle_beta   90.00000000
_cell_angle_gamma   90.00000000
_symmetry_Int_Tables_number   1
_chemical_formula_structural   Ho9Cd5Ni4
_chemical_formula_sum   'Ho9 Cd5 Ni4'
_cell_volume   412.66668064
_cell_formula_units_Z   1
loop_
 _symmetry_equiv_pos_site_id
 _symmetry_equiv_pos_as_xyz
  1  'x, y, z'
loop_
 _atom_site_type_symbol
 _atom_site_label
 _atom_site_symmetry_multiplicity
 _atom_site_fract_x
 _atom_site_fract_y
 _atom_site_fract_z
 _atom_site_occupancy
  Ho  Ho0  1  0.325271  0.325271  0.500000  1
  Ho  Ho1  1  0.674729  0.674729  0.500000  1
  Ho  Ho2  1  0.325271  0.674729  0.500000  1
  Ho  Ho3  1  0.674729  0.325271  0.500000  1
  Ho  Ho4  1  0.000000  0.283754  0.500000  1
  Ho  Ho5  1  0.000000  0.716246  0.500000  1
  Ho  Ho6  1  0.283754  0.000000  0.500000  1
  Ho  Ho7  1  0.716246  0.000000  0.500000  1
  Ho  Ho8  1  0.000000  0.000000  0.000000  1
  Cd  Cd9  1  0.500000  0.143800  0.000000  1
  Cd  Cd10  1  0.500000  0.856200  0.000000  1
  Cd  Cd11  1  0.143800  0.500000  0.000000  1
  Cd  Cd12  1  0.856200  0.500000  0.000000  1
  Cd  Cd13  1  0.500000  0.500000  0.000000  1
  Ni  Ni14  1  0.187916  0.187916  0.000000  1
  Ni  Ni15  1  0.812084  0.812084  0.000000  1
  Ni  Ni16  1  0.187916  0.812084  0.000000  1
  Ni  Ni17  1  0.812084  0.187916  0.000000  1
