# generated using pymatgen
data_Zr6GaSN2
_symmetry_space_group_name_H-M   'P 1'
_cell_length_a   5.95807131
_cell_length_b   5.95807063
_cell_length_c   8.59992400
_cell_angle_alpha   90.00000000
_cell_angle_beta   90.00000000
_cell_angle_gamma   146.88031580
_symmetry_Int_Tables_number   1
_chemical_formula_structural   Zr6GaSN2
_chemical_formula_sum   'Zr6 Ga1 S1 N2'
_cell_volume   166.80477781
_cell_formula_units_Z   1
loop_
 _symmetry_equiv_pos_site_id
 _symmetry_equiv_pos_as_xyz
  1  'x, y, z'
loop_
 _atom_site_type_symbol
 _atom_site_label
 _atom_site_symmetry_multiplicity
 _atom_site_fract_x
 _atom_site_fract_y
 _atom_site_fract_z
 _atom_site_occupancy
  Zr  Zr0  1  0.632190  0.367810  0.935965  1
  Zr  Zr1  1  0.372564  0.627436  0.450642  1
  Zr  Zr2  1  0.372564  0.627436  0.049358  1
  Zr  Zr3  1  0.632190  0.367810  0.564035  1
  Zr  Zr4  1  0.933345  0.066655  0.750000  1
  Zr  Zr5  1  0.053310  0.946690  0.250000  1
  Ga  Ga6  1  0.743893  0.256107  0.250000  1
  S  S7  1  0.257093  0.742907  0.750000  1
  N  N8  1  0.001424  0.998576  0.996066  1
  N  N9  1  0.001424  0.998576  0.503934  1
