# generated using pymatgen
data_Ca3Yb2Cr2N7
_symmetry_space_group_name_H-M   'P 1'
_cell_length_a   6.00119971
_cell_length_b   8.55749069
_cell_length_c   8.62262528
_cell_angle_alpha   115.11161011
_cell_angle_beta   96.52764528
_cell_angle_gamma   89.62072395
_symmetry_Int_Tables_number   1
_chemical_formula_structural   Ca3Yb2Cr2N7
_chemical_formula_sum   'Ca6 Yb4 Cr4 N14'
_cell_volume   397.93688904
_cell_formula_units_Z   2
loop_
 _symmetry_equiv_pos_site_id
 _symmetry_equiv_pos_as_xyz
  1  'x, y, z'
loop_
 _atom_site_type_symbol
 _atom_site_label
 _atom_site_symmetry_multiplicity
 _atom_site_fract_x
 _atom_site_fract_y
 _atom_site_fract_z
 _atom_site_occupancy
  Ca  Ca0  1  0.407648  0.788836  0.927914  1
  Ca  Ca1  1  0.594051  0.211314  0.073327  1
  Ca  Ca2  1  0.159504  0.406376  0.671925  1
  Ca  Ca3  1  0.894786  0.842614  0.764752  1
  Ca  Ca4  1  0.105181  0.157161  0.234544  1
  Ca  Ca5  1  0.734797  0.015191  0.434878  1
  Yb  Yb6  1  0.839256  0.593334  0.327643  1
  Yb  Yb7  1  0.262307  0.984526  0.564256  1
  Yb  Yb8  1  0.715272  0.418393  0.851752  1
  Yb  Yb9  1  0.283481  0.581084  0.149586  1
  Cr  Cr10  1  0.576089  0.359872  0.475141  1
  Cr  Cr11  1  0.423545  0.641761  0.524432  1
  Cr  Cr12  1  0.122387  0.216382  0.910956  1
  Cr  Cr13  1  0.878420  0.782407  0.089777  1
  N  N14  1  0.536309  0.554492  0.680158  1
  N  N15  1  0.465548  0.447642  0.320086  1
  N  N16  1  0.153076  0.699473  0.551532  1
  N  N17  1  0.846120  0.304512  0.444345  1
  N  N18  1  0.410101  0.190094  0.466351  1
  N  N19  1  0.588922  0.810089  0.532092  1
  N  N20  1  0.949608  0.142557  0.715338  1
  N  N21  1  0.050462  0.854376  0.286314  1
  N  N22  1  0.231769  0.046733  0.952471  1
  N  N23  1  0.768968  0.952381  0.048389  1
  N  N24  1  0.357029  0.329153  0.897622  1
  N  N25  1  0.971342  0.351720  0.079551  1
  N  N26  1  0.029399  0.648672  0.921619  1
  N  N27  1  0.644623  0.668854  0.103247  1
