# generated using pymatgen
data_Nb4VB2As
_symmetry_space_group_name_H-M   'P 1'
_cell_length_a   7.28974772
_cell_length_b   7.28974709
_cell_length_c   7.28974810
_cell_angle_alpha   129.93037667
_cell_angle_beta   129.93037236
_cell_angle_gamma   73.51809422
_symmetry_Int_Tables_number   1
_chemical_formula_structural   Nb4VB2As
_chemical_formula_sum   'Nb8 V2 B4 As2'
_cell_volume   222.30219708
_cell_formula_units_Z   2
loop_
 _symmetry_equiv_pos_site_id
 _symmetry_equiv_pos_as_xyz
  1  'x, y, z'
loop_
 _atom_site_type_symbol
 _atom_site_label
 _atom_site_symmetry_multiplicity
 _atom_site_fract_x
 _atom_site_fract_y
 _atom_site_fract_z
 _atom_site_occupancy
  Nb  Nb0  1  0.804391  0.304391  0.838612  1
  Nb  Nb1  1  0.195609  0.695609  0.161388  1
  Nb  Nb2  1  0.465779  0.965779  0.161388  1
  Nb  Nb3  1  0.304391  0.465779  0.500000  1
  Nb  Nb4  1  0.034221  0.195609  0.500000  1
  Nb  Nb5  1  0.534221  0.034221  0.838612  1
  Nb  Nb6  1  0.695609  0.534221  0.500000  1
  Nb  Nb7  1  0.965779  0.804391  0.500000  1
  V  V8  1  0.000000  0.000000  0.000000  1
  V  V9  1  0.500000  0.500000  0.000000  1
  B  B10  1  0.118159  0.618159  0.736319  1
  B  B11  1  0.881841  0.381841  0.263681  1
  B  B12  1  0.618159  0.881841  0.500000  1
  B  B13  1  0.381841  0.118159  0.500000  1
  As  As14  1  0.250000  0.250000  0.000000  1
  As  As15  1  0.750000  0.750000  0.000000  1
