# generated using pymatgen
data_PaV2(Co10B3)2
_symmetry_space_group_name_H-M   'P 1'
_cell_length_a   7.44971421
_cell_length_b   7.44878724
_cell_length_c   7.44900502
_cell_angle_alpha   60.00534456
_cell_angle_beta   60.00919557
_cell_angle_gamma   60.00843181
_symmetry_Int_Tables_number   1
_chemical_formula_structural   PaV2(Co10B3)2
_chemical_formula_sum   'Pa1 V2 Co20 B6'
_cell_volume   292.33703507
_cell_formula_units_Z   1
loop_
 _symmetry_equiv_pos_site_id
 _symmetry_equiv_pos_as_xyz
  1  'x, y, z'
loop_
 _atom_site_type_symbol
 _atom_site_label
 _atom_site_symmetry_multiplicity
 _atom_site_fract_x
 _atom_site_fract_y
 _atom_site_fract_z
 _atom_site_occupancy
  Pa  Pa0  1  0.750158  0.750380  0.749735  1
  V  V1  1  0.999931  0.000074  0.999982  1
  V  V2  1  0.249857  0.249931  0.249998  1
  Co  Co3  1  0.611621  0.611634  0.165046  1
  Co  Co4  1  0.611596  0.165150  0.611571  1
  Co  Co5  1  0.165111  0.611630  0.611569  1
  Co  Co6  1  0.611645  0.611674  0.611628  1
  Co  Co7  1  0.377550  0.377473  0.867478  1
  Co  Co8  1  0.377521  0.867434  0.377556  1
  Co  Co9  1  0.867449  0.377472  0.377570  1
  Co  Co10  1  0.377515  0.377442  0.377542  1
  Co  Co11  1  0.003544  0.003474  0.334379  1
  Co  Co12  1  0.658635  0.003446  0.334407  1
  Co  Co13  1  0.003498  0.658673  0.334334  1
  Co  Co14  1  0.658738  0.334432  0.003433  1
  Co  Co15  1  0.003424  0.334397  0.003468  1
  Co  Co16  1  0.003422  0.334378  0.658780  1
  Co  Co17  1  0.334378  0.658681  0.003492  1
  Co  Co18  1  0.334361  0.003444  0.658694  1
  Co  Co19  1  0.334326  0.003455  0.003557  1
  Co  Co20  1  0.003490  0.003436  0.658622  1
  Co  Co21  1  0.003446  0.658629  0.003501  1
  Co  Co22  1  0.658634  0.003432  0.003534  1
  B  B23  1  0.727639  0.727580  0.272409  1
  B  B24  1  0.272346  0.727668  0.272430  1
  B  B25  1  0.727737  0.272254  0.272428  1
  B  B26  1  0.272428  0.272368  0.727649  1
  B  B27  1  0.727681  0.272307  0.727574  1
  B  B28  1  0.272317  0.727652  0.727634  1
