# generated using pymatgen
data_DyY2SnBRh6
_symmetry_space_group_name_H-M   'P 1'
_cell_length_a   5.82699600
_cell_length_b   5.82699551
_cell_length_c   13.84325700
_cell_angle_alpha   90.00000000
_cell_angle_beta   90.00000000
_cell_angle_gamma   120.00000277
_symmetry_Int_Tables_number   1
_chemical_formula_structural   DyY2SnBRh6
_chemical_formula_sum   'Dy2 Y4 Sn2 B2 Rh12'
_cell_volume   407.05988424
_cell_formula_units_Z   2
loop_
 _symmetry_equiv_pos_site_id
 _symmetry_equiv_pos_as_xyz
  1  'x, y, z'
loop_
 _atom_site_type_symbol
 _atom_site_label
 _atom_site_symmetry_multiplicity
 _atom_site_fract_x
 _atom_site_fract_y
 _atom_site_fract_z
 _atom_site_occupancy
  Dy  Dy0  1  0.666667  0.333333  0.589558  1
  Dy  Dy1  1  0.333333  0.666667  0.089558  1
  Y  Y2  1  0.000000  0.000000  0.750092  1
  Y  Y3  1  0.000000  0.000000  0.250092  1
  Y  Y4  1  0.333333  0.666667  0.409101  1
  Y  Y5  1  0.666667  0.333333  0.909101  1
  Sn  Sn6  1  0.333333  0.666667  0.750244  1
  Sn  Sn7  1  0.666667  0.333333  0.250244  1
  B  B8  1  0.000000  0.000000  0.500006  1
  B  B9  1  0.000000  0.000000  0.000006  1
  Rh  Rh10  1  0.344690  0.172346  0.413796  1
  Rh  Rh11  1  0.827654  0.172346  0.413796  1
  Rh  Rh12  1  0.827654  0.655310  0.413796  1
  Rh  Rh13  1  0.172346  0.344690  0.913796  1
  Rh  Rh14  1  0.655356  0.827677  0.586537  1
  Rh  Rh15  1  0.655310  0.827654  0.913796  1
  Rh  Rh16  1  0.344644  0.172323  0.086537  1
  Rh  Rh17  1  0.172323  0.344644  0.586537  1
  Rh  Rh18  1  0.172323  0.827677  0.586537  1
  Rh  Rh19  1  0.827677  0.172323  0.086537  1
  Rh  Rh20  1  0.827677  0.655356  0.086537  1
  Rh  Rh21  1  0.172346  0.827654  0.913796  1
