# generated using pymatgen
data_La14IrPt5
_symmetry_space_group_name_H-M   'P 1'
_cell_length_a   6.59652041
_cell_length_b   10.33466185
_cell_length_c   10.33403994
_cell_angle_alpha   119.99323538
_cell_angle_beta   89.93355152
_cell_angle_gamma   90.00275966
_symmetry_Int_Tables_number   1
_chemical_formula_structural   La14IrPt5
_chemical_formula_sum   'La14 Ir1 Pt5'
_cell_volume   610.15640473
_cell_formula_units_Z   1
loop_
 _symmetry_equiv_pos_site_id
 _symmetry_equiv_pos_as_xyz
  1  'x, y, z'
loop_
 _atom_site_type_symbol
 _atom_site_label
 _atom_site_symmetry_multiplicity
 _atom_site_fract_x
 _atom_site_fract_y
 _atom_site_fract_z
 _atom_site_occupancy
  La  La0  1  0.466093  0.331382  0.662769  1
  La  La1  1  0.961034  0.666817  0.333594  1
  La  La2  1  0.247221  0.126739  0.872573  1
  La  La3  1  0.247260  0.745782  0.872550  1
  La  La4  1  0.252302  0.127421  0.254894  1
  La  La5  1  0.746052  0.878577  0.130537  1
  La  La6  1  0.746155  0.252025  0.130563  1
  La  La7  1  0.746779  0.872874  0.745738  1
  La  La8  1  0.440769  0.537019  0.461133  1
  La  La9  1  0.440691  0.924117  0.461148  1
  La  La10  1  0.441549  0.537962  0.076006  1
  La  La11  1  0.938253  0.457186  0.535749  1
  La  La12  1  0.938128  0.078593  0.535774  1
  La  La13  1  0.941463  0.461904  0.923773  1
  Ir  Ir14  1  0.690474  0.188801  0.377571  1
  Pt  Pt15  1  0.191545  0.811022  0.187697  1
  Pt  Pt16  1  0.191523  0.376674  0.187736  1
  Pt  Pt17  1  0.191810  0.811841  0.623716  1
  Pt  Pt18  1  0.691413  0.188449  0.813259  1
  Pt  Pt19  1  0.691485  0.624815  0.813220  1
