# generated using pymatgen
data_Y4Lu6Sn5Pb3
_symmetry_space_group_name_H-M   'P 1'
_cell_length_a   8.00418200
_cell_length_b   8.12916132
_cell_length_c   15.34829500
_cell_angle_alpha   90.09973882
_cell_angle_beta   90.00000000
_cell_angle_gamma   90.00000000
_symmetry_Int_Tables_number   1
_chemical_formula_structural   Y4Lu6Sn5Pb3
_chemical_formula_sum   'Y8 Lu12 Sn10 Pb6'
_cell_volume   998.67039780
_cell_formula_units_Z   2
loop_
 _symmetry_equiv_pos_site_id
 _symmetry_equiv_pos_as_xyz
  1  'x, y, z'
loop_
 _atom_site_type_symbol
 _atom_site_label
 _atom_site_symmetry_multiplicity
 _atom_site_fract_x
 _atom_site_fract_y
 _atom_site_fract_z
 _atom_site_occupancy
  Y  Y0  1  0.525727  0.324343  0.901536  1
  Y  Y1  1  0.025727  0.175657  0.598464  1
  Y  Y2  1  0.475872  0.680624  0.400649  1
  Y  Y3  1  0.975872  0.819376  0.099351  1
  Y  Y4  1  0.479223  0.675202  0.099329  1
  Y  Y5  1  0.979223  0.824798  0.400671  1
  Y  Y6  1  0.521912  0.320226  0.598501  1
  Y  Y7  1  0.021912  0.179774  0.901499  1
  Lu  Lu8  1  0.364833  0.839791  0.874602  1
  Lu  Lu9  1  0.864833  0.660209  0.625398  1
  Lu  Lu10  1  0.632410  0.160460  0.374851  1
  Lu  Lu11  1  0.132410  0.339540  0.125149  1
  Lu  Lu12  1  0.635463  0.163080  0.124926  1
  Lu  Lu13  1  0.135463  0.336920  0.375074  1
  Lu  Lu14  1  0.364438  0.841413  0.624568  1
  Lu  Lu15  1  0.864438  0.658587  0.875432  1
  Lu  Lu16  1  0.195862  0.504769  0.750158  1
  Lu  Lu17  1  0.695862  0.995231  0.749842  1
  Lu  Lu18  1  0.803661  0.495164  0.248470  1
  Lu  Lu19  1  0.303661  0.004836  0.251530  1
  Sn  Sn20  1  0.295232  0.040300  0.458486  1
  Sn  Sn21  1  0.795232  0.459700  0.041514  1
  Sn  Sn22  1  0.559945  0.622236  0.749496  1
  Sn  Sn23  1  0.059945  0.877764  0.750504  1
  Sn  Sn24  1  0.438885  0.378406  0.250182  1
  Sn  Sn25  1  0.938885  0.121594  0.249818  1
  Sn  Sn26  1  0.331684  0.150908  0.750673  1
  Sn  Sn27  1  0.831684  0.349092  0.749327  1
  Sn  Sn28  1  0.669102  0.850337  0.249940  1
  Sn  Sn29  1  0.169102  0.649663  0.250060  1
  Pb  Pb30  1  0.294298  0.039254  0.041907  1
  Pb  Pb31  1  0.794298  0.460746  0.458093  1
  Pb  Pb32  1  0.706032  0.959253  0.540591  1
  Pb  Pb33  1  0.206032  0.540747  0.959409  1
  Pb  Pb34  1  0.705421  0.959893  0.958963  1
  Pb  Pb35  1  0.205421  0.540107  0.541037  1
