# generated using pymatgen
data_RbLaNdSmB24
_symmetry_space_group_name_H-M   'P 1'
_cell_length_a   7.19469015
_cell_length_b   7.19469024
_cell_length_c   5.91256700
_cell_angle_alpha   90.00000000
_cell_angle_beta   90.00000000
_cell_angle_gamma   109.24690087
_symmetry_Int_Tables_number   1
_chemical_formula_structural   RbLaNdSmB24
_chemical_formula_sum   'Rb1 La1 Nd1 Sm1 B24'
_cell_volume   288.94914940
_cell_formula_units_Z   1
loop_
 _symmetry_equiv_pos_site_id
 _symmetry_equiv_pos_as_xyz
  1  'x, y, z'
loop_
 _atom_site_type_symbol
 _atom_site_label
 _atom_site_symmetry_multiplicity
 _atom_site_fract_x
 _atom_site_fract_y
 _atom_site_fract_z
 _atom_site_occupancy
  Rb  Rb0  1  0.750245  0.249755  0.500000  1
  La  La1  1  0.997998  0.002002  0.000000  1
  Nd  Nd2  1  0.501212  0.498788  0.000000  1
  Sm  Sm3  1  0.251434  0.748566  0.500000  1
  B  B4  1  0.176327  0.326707  0.648529  1
  B  B5  1  0.926834  0.576582  0.149428  1
  B  B6  1  0.673293  0.823673  0.648529  1
  B  B7  1  0.423418  0.073166  0.149428  1
  B  B8  1  0.176327  0.326707  0.351471  1
  B  B9  1  0.926834  0.576582  0.850572  1
  B  B10  1  0.673293  0.823673  0.351471  1
  B  B11  1  0.423418  0.073166  0.850572  1
  B  B12  1  0.400993  0.398489  0.500000  1
  B  B13  1  0.150345  0.650941  0.000000  1
  B  B14  1  0.898095  0.900418  0.500000  1
  B  B15  1  0.648219  0.148055  0.000000  1
  B  B16  1  0.324378  0.174081  0.648498  1
  B  B17  1  0.076985  0.427470  0.149459  1
  B  B18  1  0.825919  0.675622  0.648498  1
  B  B19  1  0.572530  0.923015  0.149459  1
  B  B20  1  0.099582  0.101905  0.500000  1
  B  B21  1  0.851945  0.351781  0.000000  1
  B  B22  1  0.601511  0.599007  0.500000  1
  B  B23  1  0.349059  0.849655  0.000000  1
  B  B24  1  0.324378  0.174081  0.351502  1
  B  B25  1  0.076985  0.427470  0.850541  1
  B  B26  1  0.825919  0.675622  0.351502  1
  B  B27  1  0.572530  0.923015  0.850541  1
