# generated using pymatgen
data_Ti8Al14ReAsRh6
_symmetry_space_group_name_H-M   'P 1'
_cell_length_a   8.64109117
_cell_length_b   8.65198575
_cell_length_c   8.66104415
_cell_angle_alpha   119.91660665
_cell_angle_beta   119.68963949
_cell_angle_gamma   90.07702664
_symmetry_Int_Tables_number   1
_chemical_formula_structural   Ti8Al14ReAsRh6
_chemical_formula_sum   'Ti8 Al14 Re1 As1 Rh6'
_cell_volume   460.27384031
_cell_formula_units_Z   1
loop_
 _symmetry_equiv_pos_site_id
 _symmetry_equiv_pos_as_xyz
  1  'x, y, z'
loop_
 _atom_site_type_symbol
 _atom_site_label
 _atom_site_symmetry_multiplicity
 _atom_site_fract_x
 _atom_site_fract_y
 _atom_site_fract_z
 _atom_site_occupancy
  Ti  Ti0  1  0.795239  0.295478  0.082865  1
  Ti  Ti1  1  0.200337  0.285222  0.499513  1
  Ti  Ti2  1  0.194618  0.715168  0.499846  1
  Ti  Ti3  1  0.210561  0.713550  0.918053  1
  Ti  Ti4  1  0.805917  0.725404  0.502162  1
  Ti  Ti5  1  0.801001  0.279472  0.502873  1
  Ti  Ti6  1  0.376172  0.120226  0.739714  1
  Ti  Ti7  1  0.381922  0.637952  0.258933  1
  Al  Al8  1  0.159863  0.342206  0.187130  1
  Al  Al9  1  0.164374  0.986693  0.830175  1
  Al  Al10  1  0.162016  0.343814  0.825987  1
  Al  Al11  1  0.532608  0.342849  0.190859  1
  Al  Al12  1  0.840275  0.654608  0.810669  1
  Al  Al13  1  0.835159  0.015336  0.171303  1
  Al  Al14  1  0.834401  0.657308  0.169172  1
  Al  Al15  1  0.472384  0.655395  0.813072  1
  Al  Al16  1  0.382977  0.123360  0.264797  1
  Al  Al17  1  0.861389  0.123836  0.746918  1
  Al  Al18  1  0.618014  0.875830  0.253471  1
  Al  Al19  1  0.618448  0.360026  0.737895  1
  Al  Al20  1  0.618761  0.877330  0.738895  1
  Al  Al21  1  0.138512  0.877609  0.256778  1
  Re  Re22  1  0.000195  0.000403  0.501273  1
  As  As23  1  0.995981  0.498157  0.499838  1
  Rh  Rh24  1  0.498242  0.998573  0.998254  1
  Rh  Rh25  1  0.498692  0.497048  0.999350  1
  Rh  Rh26  1  0.498682  0.499399  0.498697  1
  Rh  Rh27  1  0.002091  0.500485  0.002036  1
  Rh  Rh28  1  0.000516  0.999584  0.000414  1
  Rh  Rh29  1  0.500645  0.997675  0.499059  1
