# generated using pymatgen
data_Er8HfZr11Si16
_symmetry_space_group_name_H-M   'P 1'
_cell_length_a   7.30106905
_cell_length_b   7.30106905
_cell_length_c   13.44015115
_cell_angle_alpha   89.98776868
_cell_angle_beta   90.01223132
_cell_angle_gamma   89.99489973
_symmetry_Int_Tables_number   1
_chemical_formula_structural   Er8HfZr11Si16
_chemical_formula_sum   'Er8 Hf1 Zr11 Si16'
_cell_volume   716.43541022
_cell_formula_units_Z   1
loop_
 _symmetry_equiv_pos_site_id
 _symmetry_equiv_pos_as_xyz
  1  'x, y, z'
loop_
 _atom_site_type_symbol
 _atom_site_label
 _atom_site_symmetry_multiplicity
 _atom_site_fract_x
 _atom_site_fract_y
 _atom_site_fract_z
 _atom_site_occupancy
  Er  Er0  1  0.495514  0.152489  0.536297  1
  Er  Er1  1  0.504860  0.847120  0.036238  1
  Er  Er2  1  0.652274  0.004557  0.286111  1
  Er  Er3  1  0.347498  0.995722  0.786338  1
  Er  Er4  1  0.847120  0.504860  0.963762  1
  Er  Er5  1  0.152489  0.495514  0.463703  1
  Er  Er6  1  0.004557  0.652274  0.713889  1
  Er  Er7  1  0.995722  0.347498  0.213662  1
  Hf  Hf8  1  0.176379  0.176379  0.000000  1
  Zr  Zr9  1  0.676223  0.323673  0.750330  1
  Zr  Zr10  1  0.323673  0.676223  0.249670  1
  Zr  Zr11  1  0.823626  0.823626  0.500000  1
  Zr  Zr12  1  0.497430  0.354357  0.124991  1
  Zr  Zr13  1  0.503165  0.645509  0.624985  1
  Zr  Zr14  1  0.853972  0.002814  0.875224  1
  Zr  Zr15  1  0.145774  0.997343  0.374723  1
  Zr  Zr16  1  0.645509  0.503165  0.375015  1
  Zr  Zr17  1  0.354357  0.497430  0.875009  1
  Zr  Zr18  1  0.002814  0.853972  0.124776  1
  Zr  Zr19  1  0.997343  0.145774  0.625277  1
  Si  Si20  1  0.796298  0.143103  0.066404  1
  Si  Si21  1  0.205316  0.857671  0.566570  1
  Si  Si22  1  0.642428  0.705411  0.816631  1
  Si  Si23  1  0.357551  0.294684  0.316453  1
  Si  Si24  1  0.857671  0.205316  0.433430  1
  Si  Si25  1  0.143103  0.796298  0.933596  1
  Si  Si26  1  0.705411  0.642428  0.183369  1
  Si  Si27  1  0.294684  0.357551  0.683547  1
  Si  Si28  1  0.549990  0.203309  0.937333  1
  Si  Si29  1  0.447833  0.796144  0.437068  1
  Si  Si30  1  0.704098  0.948090  0.687353  1
  Si  Si31  1  0.295182  0.052593  0.185989  1
  Si  Si32  1  0.796144  0.447833  0.562932  1
  Si  Si33  1  0.203309  0.549990  0.062667  1
  Si  Si34  1  0.948090  0.704098  0.312647  1
  Si  Si35  1  0.052593  0.295182  0.814011  1
