# generated using pymatgen
data_MnCo7Si4(Mo3C)4
_symmetry_space_group_name_H-M   'P 1'
_cell_length_a   7.85920906
_cell_length_b   7.85920846
_cell_length_c   7.84123631
_cell_angle_alpha   59.92415659
_cell_angle_beta   59.92415783
_cell_angle_gamma   60.00000289
_symmetry_Int_Tables_number   1
_chemical_formula_structural   MnCo7Si4(Mo3C)4
_chemical_formula_sum   'Mn1 Co7 Si4 Mo12 C4'
_cell_volume   342.08055787
_cell_formula_units_Z   1
loop_
 _symmetry_equiv_pos_site_id
 _symmetry_equiv_pos_as_xyz
  1  'x, y, z'
loop_
 _atom_site_type_symbol
 _atom_site_label
 _atom_site_symmetry_multiplicity
 _atom_site_fract_x
 _atom_site_fract_y
 _atom_site_fract_z
 _atom_site_occupancy
  Mn  Mn0  1  0.920969  0.920969  0.237092  1
  Co  Co1  1  0.241248  0.918408  0.921937  1
  Co  Co2  1  0.918408  0.241248  0.921937  1
  Co  Co3  1  0.331470  0.331470  0.333095  1
  Co  Co4  1  0.331470  0.003964  0.333095  1
  Co  Co5  1  0.332048  0.332048  0.003856  1
  Co  Co6  1  0.003964  0.331470  0.333095  1
  Co  Co7  1  0.918408  0.918408  0.921937  1
  Si  Si8  1  0.124958  0.124958  0.625126  1
  Si  Si9  1  0.129129  0.618083  0.123658  1
  Si  Si10  1  0.618083  0.129129  0.123658  1
  Si  Si11  1  0.129129  0.129129  0.123658  1
  Mo  Mo12  1  0.556202  0.556202  0.943887  1
  Mo  Mo13  1  0.944528  0.944528  0.555281  1
  Mo  Mo14  1  0.698346  0.698346  0.302786  1
  Mo  Mo15  1  0.303153  0.696849  0.696844  1
  Mo  Mo16  1  0.698346  0.300522  0.302786  1
  Mo  Mo17  1  0.303153  0.303153  0.696844  1
  Mo  Mo18  1  0.555662  0.944528  0.555281  1
  Mo  Mo19  1  0.300522  0.698346  0.302786  1
  Mo  Mo20  1  0.943708  0.556202  0.943887  1
  Mo  Mo21  1  0.944528  0.555662  0.555281  1
  Mo  Mo22  1  0.696849  0.303153  0.696844  1
  Mo  Mo23  1  0.556202  0.943708  0.943887  1
  C  C24  1  0.624120  0.624120  0.127641  1
  C  C25  1  0.126717  0.624338  0.624606  1
  C  C26  1  0.624338  0.126717  0.624606  1
  C  C27  1  0.624338  0.624338  0.624606  1
