# generated using pymatgen
data_Cs3DyTmBr9
_symmetry_space_group_name_H-M   'P 1'
_cell_length_a   10.47893645
_cell_length_b   10.47893724
_cell_length_c   10.47893657
_cell_angle_alpha   83.18259589
_cell_angle_beta   83.18259565
_cell_angle_gamma   83.18258901
_symmetry_Int_Tables_number   1
_chemical_formula_structural   Cs3DyTmBr9
_chemical_formula_sum   'Cs6 Dy2 Tm2 Br18'
_cell_volume   1128.05346911
_cell_formula_units_Z   2
loop_
 _symmetry_equiv_pos_site_id
 _symmetry_equiv_pos_as_xyz
  1  'x, y, z'
loop_
 _atom_site_type_symbol
 _atom_site_label
 _atom_site_symmetry_multiplicity
 _atom_site_fract_x
 _atom_site_fract_y
 _atom_site_fract_z
 _atom_site_occupancy
  Cs  Cs0  1  0.589605  0.910322  0.250084  1
  Cs  Cs1  1  0.250084  0.589605  0.910322  1
  Cs  Cs2  1  0.910322  0.250084  0.589605  1
  Cs  Cs3  1  0.750084  0.410322  0.089605  1
  Cs  Cs4  1  0.089605  0.750084  0.410322  1
  Cs  Cs5  1  0.410322  0.089605  0.750084  1
  Dy  Dy6  1  0.846573  0.846573  0.846573  1
  Dy  Dy7  1  0.346573  0.346573  0.346573  1
  Tm  Tm8  1  0.153633  0.153633  0.153633  1
  Tm  Tm9  1  0.653633  0.653633  0.653633  1
  Br  Br10  1  0.094781  0.403532  0.249211  1
  Br  Br11  1  0.249211  0.094781  0.403532  1
  Br  Br12  1  0.403532  0.249211  0.094781  1
  Br  Br13  1  0.749211  0.903532  0.594781  1
  Br  Br14  1  0.594781  0.749211  0.903532  1
  Br  Br15  1  0.903532  0.594781  0.749211  1
  Br  Br16  1  0.234598  0.415458  0.579471  1
  Br  Br17  1  0.579471  0.234598  0.415458  1
  Br  Br18  1  0.415458  0.579471  0.234598  1
  Br  Br19  1  0.079471  0.915458  0.734598  1
  Br  Br20  1  0.734598  0.079471  0.915458  1
  Br  Br21  1  0.915458  0.734598  0.079471  1
  Br  Br22  1  0.763890  0.585400  0.423441  1
  Br  Br23  1  0.423441  0.763890  0.585400  1
  Br  Br24  1  0.585400  0.423441  0.763890  1
  Br  Br25  1  0.923441  0.085400  0.263890  1
  Br  Br26  1  0.263890  0.923441  0.085400  1
  Br  Br27  1  0.085400  0.263890  0.923441  1
