# generated using pymatgen
data_Er9Re(SiB4)4
_symmetry_space_group_name_H-M   'P 1'
_cell_length_a   7.11074500
_cell_length_b   7.11074500
_cell_length_c   7.74002100
_cell_angle_alpha   90.00000000
_cell_angle_beta   90.00000000
_cell_angle_gamma   90.00000000
_symmetry_Int_Tables_number   1
_chemical_formula_structural   Er9Re(SiB4)4
_chemical_formula_sum   'Er9 Re1 Si4 B16'
_cell_volume   391.35631690
_cell_formula_units_Z   1
loop_
 _symmetry_equiv_pos_site_id
 _symmetry_equiv_pos_as_xyz
  1  'x, y, z'
loop_
 _atom_site_type_symbol
 _atom_site_label
 _atom_site_symmetry_multiplicity
 _atom_site_fract_x
 _atom_site_fract_y
 _atom_site_fract_z
 _atom_site_occupancy
  Er  Er0  1  0.681985  0.178665  0.231658  1
  Er  Er1  1  0.318015  0.821335  0.768342  1
  Er  Er2  1  0.318015  0.821335  0.231658  1
  Er  Er3  1  0.821335  0.681985  0.231658  1
  Er  Er4  1  0.821335  0.681985  0.768342  1
  Er  Er5  1  0.681985  0.178665  0.768342  1
  Er  Er6  1  0.178665  0.318015  0.768342  1
  Er  Er7  1  0.178665  0.318015  0.231658  1
  Er  Er8  1  0.500000  0.500000  0.500000  1
  Re  Re9  1  0.000000  0.000000  0.500000  1
  Si  Si10  1  0.107438  0.635023  0.500000  1
  Si  Si11  1  0.892562  0.364977  0.500000  1
  Si  Si12  1  0.364977  0.107438  0.500000  1
  Si  Si13  1  0.635023  0.892562  0.500000  1
  B  B14  1  0.172742  0.039429  0.000000  1
  B  B15  1  0.827258  0.960571  0.000000  1
  B  B16  1  0.960571  0.172742  0.000000  1
  B  B17  1  0.327990  0.539717  0.000000  1
  B  B18  1  0.039429  0.827258  0.000000  1
  B  B19  1  0.672010  0.460283  0.000000  1
  B  B20  1  0.539717  0.672010  0.000000  1
  B  B21  1  0.460283  0.327990  0.000000  1
  B  B22  1  0.090141  0.589216  0.000000  1
  B  B23  1  0.909859  0.410784  0.000000  1
  B  B24  1  0.410784  0.090141  0.000000  1
  B  B25  1  0.589216  0.909859  0.000000  1
  B  B26  1  0.000000  0.000000  0.174462  1
  B  B27  1  0.000000  0.000000  0.825538  1
  B  B28  1  0.500000  0.500000  0.832359  1
  B  B29  1  0.500000  0.500000  0.167641  1
