# generated using pymatgen
data_Hf9TiRe3Rh
_symmetry_space_group_name_H-M   'P 1'
_cell_length_a   8.45101700
_cell_length_b   8.69717354
_cell_length_c   8.69625901
_cell_angle_alpha   120.00469382
_cell_angle_beta   90.00000000
_cell_angle_gamma   90.00000000
_symmetry_Int_Tables_number   1
_chemical_formula_structural   Hf9TiRe3Rh
_chemical_formula_sum   'Hf18 Ti2 Re6 Rh2'
_cell_volume   553.51534611
_cell_formula_units_Z   2
loop_
 _symmetry_equiv_pos_site_id
 _symmetry_equiv_pos_as_xyz
  1  'x, y, z'
loop_
 _atom_site_type_symbol
 _atom_site_label
 _atom_site_symmetry_multiplicity
 _atom_site_fract_x
 _atom_site_fract_y
 _atom_site_fract_z
 _atom_site_occupancy
  Hf  Hf0  1  0.555057  0.803152  0.606297  1
  Hf  Hf1  1  0.555047  0.803165  0.196871  1
  Hf  Hf2  1  0.555057  0.393709  0.196860  1
  Hf  Hf3  1  0.444943  0.196848  0.393703  1
  Hf  Hf4  1  0.444953  0.196835  0.803129  1
  Hf  Hf5  1  0.444943  0.606291  0.803140  1
  Hf  Hf6  1  0.055057  0.196848  0.393703  1
  Hf  Hf7  1  0.055047  0.196835  0.803129  1
  Hf  Hf8  1  0.055057  0.606291  0.803140  1
  Hf  Hf9  1  0.944943  0.803152  0.606297  1
  Hf  Hf10  1  0.944953  0.803165  0.196871  1
  Hf  Hf11  1  0.944943  0.393709  0.196860  1
  Hf  Hf12  1  0.750000  0.456551  0.913095  1
  Hf  Hf13  1  0.750000  0.456537  0.543454  1
  Hf  Hf14  1  0.750000  0.086909  0.543462  1
  Hf  Hf15  1  0.250000  0.543449  0.086905  1
  Hf  Hf16  1  0.250000  0.543463  0.456546  1
  Hf  Hf17  1  0.250000  0.913091  0.456538  1
  Ti  Ti18  1  0.500000  0.000000  0.000000  1
  Ti  Ti19  1  0.000000  0.000000  0.000000  1
  Re  Re20  1  0.750000  0.113309  0.226639  1
  Re  Re21  1  0.750000  0.113321  0.886642  1
  Re  Re22  1  0.750000  0.773334  0.886670  1
  Re  Re23  1  0.250000  0.886691  0.773361  1
  Re  Re24  1  0.250000  0.886679  0.113358  1
  Re  Re25  1  0.250000  0.226666  0.113330  1
  Rh  Rh26  1  0.750000  0.666657  0.333307  1
  Rh  Rh27  1  0.250000  0.333343  0.666693  1
