# generated using pymatgen
data_Hg3Mo(OF3)2
_symmetry_space_group_name_H-M   'P 1'
_cell_length_a   6.96594678
_cell_length_b   6.97365355
_cell_length_c   5.42492074
_cell_angle_alpha   90.00000369
_cell_angle_beta   89.89386561
_cell_angle_gamma   120.03660444
_symmetry_Int_Tables_number   1
_chemical_formula_structural   Hg3Mo(OF3)2
_chemical_formula_sum   'Hg3 Mo1 O2 F6'
_cell_volume   228.14095072
_cell_formula_units_Z   1
loop_
 _symmetry_equiv_pos_site_id
 _symmetry_equiv_pos_as_xyz
  1  'x, y, z'
loop_
 _atom_site_type_symbol
 _atom_site_label
 _atom_site_symmetry_multiplicity
 _atom_site_fract_x
 _atom_site_fract_y
 _atom_site_fract_z
 _atom_site_occupancy
  Hg  Hg0  1  0.500000  0.000000  0.000000  1
  Hg  Hg1  1  0.000000  0.500000  0.000000  1
  Hg  Hg2  1  0.500000  0.500000  0.000000  1
  Mo  Mo3  1  0.000000  0.000000  0.500000  1
  O  O4  1  0.666425  0.333213  0.105948  1
  O  O5  1  0.333574  0.666787  0.894053  1
  F  F6  1  0.133428  0.268635  0.282776  1
  F  F7  1  0.133428  0.864795  0.282776  1
  F  F8  1  0.732812  0.866407  0.281857  1
  F  F9  1  0.267189  0.133593  0.718143  1
  F  F10  1  0.866572  0.135205  0.717224  1
  F  F11  1  0.866571  0.731365  0.717224  1
