# generated using pymatgen
data_CeLuWC2
_symmetry_space_group_name_H-M   'P 1'
_cell_length_a   5.65807600
_cell_length_b   5.65807600
_cell_length_c   10.02233200
_cell_angle_alpha   90.00000000
_cell_angle_beta   90.00000000
_cell_angle_gamma   90.00000000
_symmetry_Int_Tables_number   1
_chemical_formula_structural   CeLuWC2
_chemical_formula_sum   'Ce4 Lu4 W4 C8'
_cell_volume   320.85317294
_cell_formula_units_Z   4
loop_
 _symmetry_equiv_pos_site_id
 _symmetry_equiv_pos_as_xyz
  1  'x, y, z'
loop_
 _atom_site_type_symbol
 _atom_site_label
 _atom_site_symmetry_multiplicity
 _atom_site_fract_x
 _atom_site_fract_y
 _atom_site_fract_z
 _atom_site_occupancy
  Ce  Ce0  1  0.179906  0.179906  0.653860  1
  Ce  Ce1  1  0.820092  0.820092  0.653860  1
  Ce  Ce2  1  0.679907  0.320093  0.846139  1
  Ce  Ce3  1  0.320093  0.679907  0.846139  1
  Lu  Lu4  1  0.701828  0.298172  0.159638  1
  Lu  Lu5  1  0.298172  0.701828  0.159638  1
  Lu  Lu6  1  0.201827  0.201827  0.340362  1
  Lu  Lu7  1  0.798171  0.798171  0.340362  1
  W  W8  1  0.179836  0.179836  0.010360  1
  W  W9  1  0.820164  0.820164  0.010360  1
  W  W10  1  0.679836  0.320164  0.489640  1
  W  W11  1  0.320164  0.679836  0.489640  1
  C  C12  1  0.500000  0.000000  0.015249  1
  C  C13  1  0.000000  0.500000  0.015249  1
  C  C14  1  0.000000  0.000000  0.165029  1
  C  C15  1  0.500000  0.500000  0.334971  1
  C  C16  1  0.500000  0.000000  0.484751  1
  C  C17  1  0.000000  0.500000  0.484751  1
  C  C18  1  0.500000  0.500000  0.640006  1
  C  C19  1  0.000000  0.000000  0.859994  1
