# generated using pymatgen
data_La5DyU4O20
_symmetry_space_group_name_H-M   'P 1'
_cell_length_a   6.80440925
_cell_length_b   7.76594738
_cell_length_c   8.68052587
_cell_angle_alpha   101.72591281
_cell_angle_beta   97.72808774
_cell_angle_gamma   107.16306604
_symmetry_Int_Tables_number   1
_chemical_formula_structural   La5DyU4O20
_chemical_formula_sum   'La5 Dy1 U4 O20'
_cell_volume   419.75805584
_cell_formula_units_Z   1
loop_
 _symmetry_equiv_pos_site_id
 _symmetry_equiv_pos_as_xyz
  1  'x, y, z'
loop_
 _atom_site_type_symbol
 _atom_site_label
 _atom_site_symmetry_multiplicity
 _atom_site_fract_x
 _atom_site_fract_y
 _atom_site_fract_z
 _atom_site_occupancy
  La  La0  1  0.611729  0.703543  0.699707  1
  La  La1  1  0.388271  0.296457  0.300293  1
  La  La2  1  0.199121  0.897926  0.893315  1
  La  La3  1  0.000000  0.500000  0.500000  1
  La  La4  1  0.800879  0.102074  0.106685  1
  Dy  Dy5  1  0.000000  0.000000  0.500000  1
  U  U6  1  0.402315  0.804166  0.302405  1
  U  U7  1  0.198232  0.401174  0.901056  1
  U  U8  1  0.801768  0.598826  0.098944  1
  U  U9  1  0.597685  0.195834  0.697595  1
  O  O10  1  0.439298  0.535160  0.132278  1
  O  O11  1  0.558016  0.996372  0.835325  1
  O  O12  1  0.272815  0.152321  0.741838  1
  O  O13  1  0.360536  0.601457  0.436147  1
  O  O14  1  0.055693  0.735044  0.326145  1
  O  O15  1  0.441984  0.003628  0.164675  1
  O  O16  1  0.150213  0.192203  0.027766  1
  O  O17  1  0.560702  0.464840  0.867722  1
  O  O18  1  0.855439  0.343390  0.947824  1
  O  O19  1  0.253757  0.599591  0.764855  1
  O  O20  1  0.955101  0.780141  0.646075  1
  O  O21  1  0.354045  0.056887  0.457458  1
  O  O22  1  0.645955  0.943113  0.542542  1
  O  O23  1  0.044899  0.219859  0.353925  1
  O  O24  1  0.746243  0.400409  0.235145  1
  O  O25  1  0.144561  0.656610  0.052176  1
  O  O26  1  0.849787  0.807797  0.972234  1
  O  O27  1  0.944307  0.264956  0.673855  1
  O  O28  1  0.639464  0.398543  0.563853  1
  O  O29  1  0.727185  0.847679  0.258162  1
