# generated using pymatgen
data_BH2I7
_symmetry_space_group_name_H-M   'P 1'
_cell_length_a   7.28646485
_cell_length_b   8.94023714
_cell_length_c   11.23572766
_cell_angle_alpha   85.90731091
_cell_angle_beta   67.61186641
_cell_angle_gamma   57.18467456
_symmetry_Int_Tables_number   1
_chemical_formula_structural   BH2I7
_chemical_formula_sum   'B1 H2 I7'
_cell_volume   560.10713877
_cell_formula_units_Z   1
loop_
 _symmetry_equiv_pos_site_id
 _symmetry_equiv_pos_as_xyz
  1  'x, y, z'
loop_
 _atom_site_type_symbol
 _atom_site_label
 _atom_site_symmetry_multiplicity
 _atom_site_fract_x
 _atom_site_fract_y
 _atom_site_fract_z
 _atom_site_occupancy
  B  B0  1  0.374922  0.302583  0.935403  1
  H  H1  1  0.393226  0.252557  0.331426  1
  H  H2  1  0.028566  0.546944  0.548851  1
  I  I3  1  0.743791  0.122968  0.813711  1
  I  I4  1  0.749811  0.645659  0.667677  1
  I  I5  1  0.524379  0.842224  0.463491  1
  I  I6  1  0.336398  0.014725  0.282466  1
  I  I7  1  0.430603  0.405276  0.376873  1
  I  I8  1  0.144417  0.208875  0.994287  1
  I  I9  1  0.229405  0.577154  0.999384  1
