# generated using pymatgen
data_TbPa3O8
_symmetry_space_group_name_H-M   'P 1'
_cell_length_a   6.66686632
_cell_length_b   6.66686557
_cell_length_c   6.66686607
_cell_angle_alpha   131.81998443
_cell_angle_beta   131.81997788
_cell_angle_gamma   70.51350152
_symmetry_Int_Tables_number   1
_chemical_formula_structural   TbPa3O8
_chemical_formula_sum   'Tb1 Pa3 O8'
_cell_volume   161.25209712
_cell_formula_units_Z   1
loop_
 _symmetry_equiv_pos_site_id
 _symmetry_equiv_pos_as_xyz
  1  'x, y, z'
loop_
 _atom_site_type_symbol
 _atom_site_label
 _atom_site_symmetry_multiplicity
 _atom_site_fract_x
 _atom_site_fract_y
 _atom_site_fract_z
 _atom_site_occupancy
  Tb  Tb0  1  0.000000  0.000000  0.000000  1
  Pa  Pa1  1  0.250000  0.750000  0.500000  1
  Pa  Pa2  1  0.500000  0.500000  0.000000  1
  Pa  Pa3  1  0.750000  0.250000  0.500000  1
  O  O4  1  0.620617  0.620617  0.493833  1
  O  O5  1  0.873216  0.379383  0.000000  1
  O  O6  1  0.126784  0.126784  0.506167  1
  O  O7  1  0.379383  0.873216  0.000000  1
  O  O8  1  0.379383  0.379383  0.506167  1
  O  O9  1  0.620617  0.126784  0.000000  1
  O  O10  1  0.873216  0.873216  0.493833  1
  O  O11  1  0.126784  0.620617  0.000000  1
