# generated using pymatgen
data_Dy9HoBiPb5
_symmetry_space_group_name_H-M   'P 1'
_cell_length_a   9.09521900
_cell_length_b   9.09126844
_cell_length_c   6.56993900
_cell_angle_alpha   90.00177557
_cell_angle_beta   90.00113385
_cell_angle_gamma   120.01191454
_symmetry_Int_Tables_number   1
_chemical_formula_structural   Dy9HoBiPb5
_chemical_formula_sum   'Dy9 Ho1 Bi1 Pb5'
_cell_volume   470.41098792
_cell_formula_units_Z   1
loop_
 _symmetry_equiv_pos_site_id
 _symmetry_equiv_pos_as_xyz
  1  'x, y, z'
loop_
 _atom_site_type_symbol
 _atom_site_label
 _atom_site_symmetry_multiplicity
 _atom_site_fract_x
 _atom_site_fract_y
 _atom_site_fract_z
 _atom_site_occupancy
  Dy  Dy0  1  0.331702  0.664687  0.999807  1
  Dy  Dy1  1  0.667034  0.335317  0.500188  1
  Dy  Dy2  1  0.667020  0.335322  0.999814  1
  Dy  Dy3  1  0.236142  0.999980  0.250005  1
  Dy  Dy4  1  0.237356  0.237983  0.749998  1
  Dy  Dy5  1  0.999422  0.762042  0.749984  1
  Dy  Dy6  1  0.003270  0.239595  0.250035  1
  Dy  Dy7  1  0.763668  0.760426  0.250028  1
  Dy  Dy8  1  0.762482  0.999978  0.749966  1
  Ho  Ho9  1  0.331701  0.664661  0.500199  1
  Bi  Bi10  1  0.606365  0.999884  0.250076  1
  Pb  Pb11  1  0.605381  0.606507  0.749888  1
  Pb  Pb12  1  0.999166  0.393628  0.749880  1
  Pb  Pb13  1  0.000351  0.605258  0.250104  1
  Pb  Pb14  1  0.394923  0.394886  0.250106  1
  Pb  Pb15  1  0.394017  0.999845  0.749923  1
