# generated using pymatgen
data_Cs10K2Li4Si15Sn
_symmetry_space_group_name_H-M   'P 1'
_cell_length_a   8.11611033
_cell_length_b   10.09849700
_cell_length_c   13.51982330
_cell_angle_alpha   90.00000000
_cell_angle_beta   89.54839360
_cell_angle_gamma   90.00000000
_symmetry_Int_Tables_number   1
_chemical_formula_structural   Cs10K2Li4Si15Sn
_chemical_formula_sum   'Cs10 K2 Li4 Si15 Sn1'
_cell_volume   1108.05727057
_cell_formula_units_Z   1
loop_
 _symmetry_equiv_pos_site_id
 _symmetry_equiv_pos_as_xyz
  1  'x, y, z'
loop_
 _atom_site_type_symbol
 _atom_site_label
 _atom_site_symmetry_multiplicity
 _atom_site_fract_x
 _atom_site_fract_y
 _atom_site_fract_z
 _atom_site_occupancy
  Cs  Cs0  1  0.350153  0.750000  0.587515  1
  Cs  Cs1  1  0.864809  0.750000  0.908630  1
  Cs  Cs2  1  0.642535  0.453722  0.699729  1
  Cs  Cs3  1  0.140302  0.057731  0.800528  1
  Cs  Cs4  1  0.356717  0.954669  0.303467  1
  Cs  Cs5  1  0.855501  0.545404  0.198838  1
  Cs  Cs6  1  0.356717  0.545331  0.303467  1
  Cs  Cs7  1  0.855501  0.954596  0.198838  1
  Cs  Cs8  1  0.642535  0.046278  0.699729  1
  Cs  Cs9  1  0.140302  0.442269  0.800528  1
  K  K10  1  0.660683  0.250000  0.426490  1
  K  K11  1  0.163350  0.250000  0.077937  1
  Li  Li12  1  0.499705  0.495814  0.004959  1
  Li  Li13  1  0.996329  0.999812  0.498307  1
  Li  Li14  1  0.499705  0.004186  0.004959  1
  Li  Li15  1  0.996329  0.500188  0.498307  1
  Si  Si16  1  0.868392  0.750000  0.589423  1
  Si  Si17  1  0.618789  0.250000  0.093939  1
  Si  Si18  1  0.120065  0.250000  0.406249  1
  Si  Si19  1  0.732019  0.632148  0.454363  1
  Si  Si20  1  0.234621  0.868074  0.048962  1
  Si  Si21  1  0.262154  0.132075  0.539752  1
  Si  Si22  1  0.766641  0.367888  0.961309  1
  Si  Si23  1  0.005633  0.250000  0.575641  1
  Si  Si24  1  0.512205  0.250000  0.923225  1
  Si  Si25  1  0.989502  0.750000  0.422202  1
  Si  Si26  1  0.492287  0.750000  0.079171  1
  Si  Si27  1  0.234621  0.631926  0.048962  1
  Si  Si28  1  0.732019  0.867852  0.454363  1
  Si  Si29  1  0.766641  0.132112  0.961309  1
  Si  Si30  1  0.262154  0.367925  0.539752  1
  Sn  Sn31  1  0.381080  0.750000  0.889148  1
