# generated using pymatgen
data_Ba4La2SbOsO12
_symmetry_space_group_name_H-M   'P 1'
_cell_length_a   6.12503152
_cell_length_b   6.12383160
_cell_length_c   10.64907036
_cell_angle_alpha   90.34535300
_cell_angle_beta   106.46780185
_cell_angle_gamma   119.56291965
_symmetry_Int_Tables_number   1
_chemical_formula_structural   Ba4La2SbOsO12
_chemical_formula_sum   'Ba4 La2 Sb1 Os1 O12'
_cell_volume   328.04460574
_cell_formula_units_Z   1
loop_
 _symmetry_equiv_pos_site_id
 _symmetry_equiv_pos_as_xyz
  1  'x, y, z'
loop_
 _atom_site_type_symbol
 _atom_site_label
 _atom_site_symmetry_multiplicity
 _atom_site_fract_x
 _atom_site_fract_y
 _atom_site_fract_z
 _atom_site_occupancy
  Ba  Ba0  1  0.246542  0.125936  0.872520  1
  Ba  Ba1  1  0.250967  0.628614  0.379004  1
  Ba  Ba2  1  0.749033  0.371386  0.620996  1
  Ba  Ba3  1  0.753458  0.874064  0.127480  1
  La  La4  1  0.499753  0.749761  0.749789  1
  La  La5  1  0.500247  0.250239  0.250211  1
  Sb  Sb6  1  0.000000  0.500000  0.000000  1
  Os  Os7  1  0.000000  0.000000  0.500000  1
  O  O8  1  0.812007  0.903616  0.633770  1
  O  O9  1  0.817341  0.406817  0.139056  1
  O  O10  1  0.182659  0.593183  0.860944  1
  O  O11  1  0.187993  0.096384  0.366230  1
  O  O12  1  0.769313  0.134087  0.904372  1
  O  O13  1  0.772731  0.640937  0.403570  1
  O  O14  1  0.227269  0.359063  0.596430  1
  O  O15  1  0.230687  0.865913  0.095628  1
  O  O16  1  0.266688  0.920698  0.609457  1
  O  O17  1  0.273775  0.423021  0.110369  1
  O  O18  1  0.726225  0.576979  0.889631  1
  O  O19  1  0.733312  0.079302  0.390543  1
