# generated using pymatgen
data_Lu3NiAg3Pb2
_symmetry_space_group_name_H-M   'P 1'
_cell_length_a   8.10030800
_cell_length_b   8.10030793
_cell_length_c   3.54677700
_cell_angle_alpha   90.00000000
_cell_angle_beta   90.00000000
_cell_angle_gamma   119.99999213
_symmetry_Int_Tables_number   1
_chemical_formula_structural   Lu3NiAg3Pb2
_chemical_formula_sum   'Lu3 Ni1 Ag3 Pb2'
_cell_volume   201.54294983
_cell_formula_units_Z   1
loop_
 _symmetry_equiv_pos_site_id
 _symmetry_equiv_pos_as_xyz
  1  'x, y, z'
loop_
 _atom_site_type_symbol
 _atom_site_label
 _atom_site_symmetry_multiplicity
 _atom_site_fract_x
 _atom_site_fract_y
 _atom_site_fract_z
 _atom_site_occupancy
  Lu  Lu0  1  0.574942  0.945679  0.500000  1
  Lu  Lu1  1  0.370738  0.425058  0.500000  1
  Lu  Lu2  1  0.054321  0.629262  0.500000  1
  Ni  Ni3  1  0.333333  0.666667  0.000000  1
  Ag  Ag4  1  0.697475  0.707443  0.000000  1
  Ag  Ag5  1  0.009969  0.302525  0.000000  1
  Ag  Ag6  1  0.292557  0.990031  0.000000  1
  Pb  Pb7  1  0.000000  0.000000  0.500000  1
  Pb  Pb8  1  0.666667  0.333333  0.000000  1
