# generated using pymatgen
data_Dy18Er2Sn7Pb9
_symmetry_space_group_name_H-M   'P 1'
_cell_length_a   8.15493919
_cell_length_b   8.21321812
_cell_length_c   15.58899000
_cell_angle_alpha   90.00000000
_cell_angle_beta   90.00000000
_cell_angle_gamma   90.02206826
_symmetry_Int_Tables_number   1
_chemical_formula_structural   Dy18Er2Sn7Pb9
_chemical_formula_sum   'Dy18 Er2 Sn7 Pb9'
_cell_volume   1044.12388256
_cell_formula_units_Z   1
loop_
 _symmetry_equiv_pos_site_id
 _symmetry_equiv_pos_as_xyz
  1  'x, y, z'
loop_
 _atom_site_type_symbol
 _atom_site_label
 _atom_site_symmetry_multiplicity
 _atom_site_fract_x
 _atom_site_fract_y
 _atom_site_fract_z
 _atom_site_occupancy
  Dy  Dy0  1  0.380175  0.838492  0.876772  1
  Dy  Dy1  1  0.880462  0.661057  0.623347  1
  Dy  Dy2  1  0.619831  0.161123  0.377302  1
  Dy  Dy3  1  0.119662  0.337413  0.122867  1
  Dy  Dy4  1  0.619831  0.161123  0.122698  1
  Dy  Dy5  1  0.119662  0.337413  0.377133  1
  Dy  Dy6  1  0.380175  0.838492  0.623228  1
  Dy  Dy7  1  0.880462  0.661057  0.876653  1
  Dy  Dy8  1  0.537746  0.324822  0.895867  1
  Dy  Dy9  1  0.038216  0.174626  0.604355  1
  Dy  Dy10  1  0.464853  0.675210  0.397163  1
  Dy  Dy11  1  0.960100  0.827024  0.101570  1
  Dy  Dy12  1  0.464853  0.675210  0.102837  1
  Dy  Dy13  1  0.960100  0.827024  0.398430  1
  Dy  Dy14  1  0.537746  0.324822  0.604133  1
  Dy  Dy15  1  0.038216  0.174626  0.895645  1
  Dy  Dy16  1  0.787351  0.494917  0.250000  1
  Dy  Dy17  1  0.291221  0.006410  0.250000  1
  Er  Er18  1  0.211038  0.503407  0.750000  1
  Er  Er19  1  0.711005  0.996483  0.750000  1
  Sn  Sn20  1  0.575805  0.622599  0.750000  1
  Sn  Sn21  1  0.076066  0.876772  0.750000  1
  Sn  Sn22  1  0.424548  0.376614  0.250000  1
  Sn  Sn23  1  0.923703  0.121581  0.250000  1
  Sn  Sn24  1  0.345722  0.149270  0.750000  1
  Sn  Sn25  1  0.845655  0.350904  0.750000  1
  Sn  Sn26  1  0.655510  0.850649  0.250000  1
  Pb  Pb27  1  0.280378  0.031711  0.040928  1
  Pb  Pb28  1  0.781594  0.467414  0.459167  1
  Pb  Pb29  1  0.718396  0.968483  0.542073  1
  Pb  Pb30  1  0.218947  0.531451  0.958690  1
  Pb  Pb31  1  0.718396  0.968483  0.957927  1
  Pb  Pb32  1  0.218947  0.531451  0.541310  1
  Pb  Pb33  1  0.280378  0.031711  0.459072  1
  Pb  Pb34  1  0.781594  0.467414  0.040833  1
  Pb  Pb35  1  0.151649  0.652742  0.250000  1
