# generated using pymatgen
data_LiLa2Be2(AsPd5)4
_symmetry_space_group_name_H-M   'P 1'
_cell_length_a   8.84229660
_cell_length_b   8.72730413
_cell_length_c   8.72730359
_cell_angle_alpha   60.87367492
_cell_angle_beta   59.56316175
_cell_angle_gamma   59.56315987
_symmetry_Int_Tables_number   1
_chemical_formula_structural   LiLa2Be2(AsPd5)4
_chemical_formula_sum   'Li1 La2 Be2 As4 Pd20'
_cell_volume   476.05530971
_cell_formula_units_Z   1
loop_
 _symmetry_equiv_pos_site_id
 _symmetry_equiv_pos_as_xyz
  1  'x, y, z'
loop_
 _atom_site_type_symbol
 _atom_site_label
 _atom_site_symmetry_multiplicity
 _atom_site_fract_x
 _atom_site_fract_y
 _atom_site_fract_z
 _atom_site_occupancy
  Li  Li0  1  0.000000  0.000000  0.000000  1
  La  La1  1  0.250000  0.250000  0.250000  1
  La  La2  1  0.750000  0.750000  0.750000  1
  Be  Be3  1  0.733325  0.266675  0.266675  1
  Be  Be4  1  0.266675  0.733325  0.733325  1
  As  As5  1  0.264048  0.735952  0.264048  1
  As  As6  1  0.735952  0.264048  0.735952  1
  As  As7  1  0.264048  0.264048  0.735952  1
  As  As8  1  0.735952  0.735952  0.264048  1
  Pd  Pd9  1  0.393650  0.380207  0.380207  1
  Pd  Pd10  1  0.606350  0.619793  0.619793  1
  Pd  Pd11  1  0.380207  0.393650  0.845939  1
  Pd  Pd12  1  0.380207  0.845939  0.393650  1
  Pd  Pd13  1  0.619793  0.606350  0.154061  1
  Pd  Pd14  1  0.619793  0.154061  0.606350  1
  Pd  Pd15  1  0.845939  0.380207  0.380207  1
  Pd  Pd16  1  0.154061  0.619793  0.619793  1
  Pd  Pd17  1  0.345576  0.000000  0.000000  1
  Pd  Pd18  1  0.654424  0.000000  0.000000  1
  Pd  Pd19  1  0.000000  0.345576  0.654424  1
  Pd  Pd20  1  0.000000  0.654424  0.345576  1
  Pd  Pd21  1  0.988713  0.343605  0.011287  1
  Pd  Pd22  1  0.656395  0.011287  0.343605  1
  Pd  Pd23  1  0.011287  0.656395  0.988713  1
  Pd  Pd24  1  0.343605  0.988713  0.656395  1
  Pd  Pd25  1  0.988713  0.011287  0.343605  1
  Pd  Pd26  1  0.011287  0.988713  0.656395  1
  Pd  Pd27  1  0.656395  0.343605  0.011287  1
  Pd  Pd28  1  0.343605  0.656395  0.988713  1
