# generated using pymatgen
data_Dy12Co2TcNi2Bi
_symmetry_space_group_name_H-M   'P 1'
_cell_length_a   8.34111560
_cell_length_b   8.34106820
_cell_length_c   8.34111758
_cell_angle_alpha   111.41516147
_cell_angle_beta   109.52901248
_cell_angle_gamma   107.49343623
_symmetry_Int_Tables_number   1
_chemical_formula_structural   Dy12Co2TcNi2Bi
_chemical_formula_sum   'Dy12 Co2 Tc1 Ni2 Bi1'
_cell_volume   446.20881163
_cell_formula_units_Z   1
loop_
 _symmetry_equiv_pos_site_id
 _symmetry_equiv_pos_as_xyz
  1  'x, y, z'
loop_
 _atom_site_type_symbol
 _atom_site_label
 _atom_site_symmetry_multiplicity
 _atom_site_fract_x
 _atom_site_fract_y
 _atom_site_fract_z
 _atom_site_occupancy
  Dy  Dy0  1  0.820202  0.714453  0.534654  1
  Dy  Dy1  1  0.179798  0.285547  0.465346  1
  Dy  Dy2  1  0.179798  0.714453  0.894249  1
  Dy  Dy3  1  0.820202  0.285547  0.105751  1
  Dy  Dy4  1  0.686887  0.377038  0.690150  1
  Dy  Dy5  1  0.313113  0.622962  0.309850  1
  Dy  Dy6  1  0.686886  0.996738  0.309853  1
  Dy  Dy7  1  0.313114  0.003262  0.690147  1
  Dy  Dy8  1  0.591087  0.784093  0.806992  1
  Dy  Dy9  1  0.408913  0.215907  0.193008  1
  Dy  Dy10  1  0.977101  0.784093  0.193005  1
  Dy  Dy11  1  0.022899  0.215907  0.806995  1
  Co  Co12  1  0.112938  0.612933  0.499995  1
  Co  Co13  1  0.887062  0.387067  0.500005  1
  Tc  Tc14  1  0.000000  0.000000  0.000000  1
  Ni  Ni15  1  0.636264  0.000000  0.636264  1
  Ni  Ni16  1  0.363736  0.000000  0.363736  1
  Bi  Bi17  1  0.500000  0.500000  0.000000  1
