# generated using pymatgen
data_Tm4Ga4Ru3Rh
_symmetry_space_group_name_H-M   'P 1'
_cell_length_a   4.27397500
_cell_length_b   6.80285019
_cell_length_c   7.70879501
_cell_angle_alpha   89.79366283
_cell_angle_beta   90.00000000
_cell_angle_gamma   90.00000000
_symmetry_Int_Tables_number   1
_chemical_formula_structural   Tm4Ga4Ru3Rh
_chemical_formula_sum   'Tm4 Ga4 Ru3 Rh1'
_cell_volume   224.13339298
_cell_formula_units_Z   1
loop_
 _symmetry_equiv_pos_site_id
 _symmetry_equiv_pos_as_xyz
  1  'x, y, z'
loop_
 _atom_site_type_symbol
 _atom_site_label
 _atom_site_symmetry_multiplicity
 _atom_site_fract_x
 _atom_site_fract_y
 _atom_site_fract_z
 _atom_site_occupancy
  Tm  Tm0  1  0.250000  0.979670  0.310850  1
  Tm  Tm1  1  0.250000  0.482829  0.187588  1
  Tm  Tm2  1  0.750000  0.017663  0.689326  1
  Tm  Tm3  1  0.750000  0.518583  0.811880  1
  Ga  Ga4  1  0.250000  0.338908  0.573035  1
  Ga  Ga5  1  0.250000  0.834831  0.927797  1
  Ga  Ga6  1  0.750000  0.665263  0.428692  1
  Ga  Ga7  1  0.750000  0.164587  0.071096  1
  Ru  Ru8  1  0.250000  0.222536  0.892258  1
  Ru  Ru9  1  0.250000  0.725611  0.607464  1
  Ru  Ru10  1  0.750000  0.774844  0.107188  1
  Rh  Rh11  1  0.750000  0.274677  0.392826  1
