# generated using pymatgen
data_Dy4Lu4Re3B24Rh
_symmetry_space_group_name_H-M   'P 1'
_cell_length_a   3.64412800
_cell_length_b   9.10024643
_cell_length_c   11.48652578
_cell_angle_alpha   90.12484817
_cell_angle_beta   90.00000000
_cell_angle_gamma   90.00000000
_symmetry_Int_Tables_number   1
_chemical_formula_structural   Dy4Lu4Re3B24Rh
_chemical_formula_sum   'Dy4 Lu4 Re3 B24 Rh1'
_cell_volume   380.92057985
_cell_formula_units_Z   1
loop_
 _symmetry_equiv_pos_site_id
 _symmetry_equiv_pos_as_xyz
  1  'x, y, z'
loop_
 _atom_site_type_symbol
 _atom_site_label
 _atom_site_symmetry_multiplicity
 _atom_site_fract_x
 _atom_site_fract_y
 _atom_site_fract_z
 _atom_site_occupancy
  Dy  Dy0  1  0.500000  0.318548  0.415731  1
  Dy  Dy1  1  0.500000  0.678179  0.590657  1
  Dy  Dy2  1  0.500000  0.177528  0.912900  1
  Dy  Dy3  1  0.500000  0.826499  0.081643  1
  Lu  Lu4  1  0.500000  0.441731  0.128489  1
  Lu  Lu5  1  0.500000  0.556028  0.871634  1
  Lu  Lu6  1  0.500000  0.055257  0.628923  1
  Lu  Lu7  1  0.500000  0.944331  0.370430  1
  Re  Re8  1  0.500000  0.139507  0.180854  1
  Re  Re9  1  0.500000  0.860365  0.820034  1
  Re  Re10  1  0.500000  0.361213  0.678857  1
  B  B11  1  0.000000  0.098908  0.472207  1
  B  B12  1  0.000000  0.897800  0.527136  1
  B  B13  1  0.000000  0.400062  0.973092  1
  B  B14  1  0.000000  0.601264  0.028443  1
  B  B15  1  0.000000  0.130397  0.315859  1
  B  B16  1  0.000000  0.868895  0.684439  1
  B  B17  1  0.000000  0.369766  0.815149  1
  B  B18  1  0.000000  0.631326  0.183211  1
  B  B19  1  0.000000  0.054218  0.066908  1
  B  B20  1  0.000000  0.946530  0.932293  1
  B  B21  1  0.000000  0.445961  0.566889  1
  B  B22  1  0.000000  0.554837  0.433407  1
  B  B23  1  0.000000  0.483362  0.287153  1
  B  B24  1  0.000000  0.518064  0.713156  1
  B  B25  1  0.000000  0.017413  0.786187  1
  B  B26  1  0.000000  0.982823  0.212772  1
  B  B27  1  0.000000  0.251273  0.081649  1
  B  B28  1  0.000000  0.749734  0.918573  1
  B  B29  1  0.000000  0.248594  0.581291  1
  B  B30  1  0.000000  0.750872  0.419653  1
  B  B31  1  0.000000  0.293261  0.235591  1
  B  B32  1  0.000000  0.706864  0.765588  1
  B  B33  1  0.000000  0.207081  0.734385  1
  B  B34  1  0.000000  0.792367  0.264781  1
  Rh  Rh35  1  0.500000  0.639146  0.320037  1
