# generated using pymatgen
data_Er4TmNpRu6
_symmetry_space_group_name_H-M   'P 1'
_cell_length_a   5.78837200
_cell_length_b   5.78837183
_cell_length_c   8.20116800
_cell_angle_alpha   90.00000000
_cell_angle_beta   90.00000000
_cell_angle_gamma   120.00000098
_symmetry_Int_Tables_number   1
_chemical_formula_structural   Er4TmNpRu6
_chemical_formula_sum   'Er4 Tm1 Np1 Ru6'
_cell_volume   237.96834545
_cell_formula_units_Z   1
loop_
 _symmetry_equiv_pos_site_id
 _symmetry_equiv_pos_as_xyz
  1  'x, y, z'
loop_
 _atom_site_type_symbol
 _atom_site_label
 _atom_site_symmetry_multiplicity
 _atom_site_fract_x
 _atom_site_fract_y
 _atom_site_fract_z
 _atom_site_occupancy
  Er  Er0  1  0.333333  0.666667  0.435152  1
  Er  Er1  1  0.666667  0.333333  0.564848  1
  Er  Er2  1  0.666667  0.333333  0.947488  1
  Er  Er3  1  0.333333  0.666667  0.052512  1
  Tm  Tm4  1  0.000000  0.000000  0.000000  1
  Np  Np5  1  0.000000  0.000000  0.500000  1
  Ru  Ru6  1  0.169749  0.339498  0.730958  1
  Ru  Ru7  1  0.169749  0.830251  0.730958  1
  Ru  Ru8  1  0.339498  0.169749  0.269042  1
  Ru  Ru9  1  0.830251  0.660502  0.269042  1
  Ru  Ru10  1  0.660502  0.830251  0.730958  1
  Ru  Ru11  1  0.830251  0.169749  0.269042  1
