# generated using pymatgen
data_Pr4Ga(GeRh2)2
_symmetry_space_group_name_H-M   'P 1'
_cell_length_a   11.14536923
_cell_length_b   11.14536923
_cell_length_c   8.08070329
_cell_angle_alpha   70.91783832
_cell_angle_beta   70.91783754
_cell_angle_gamma   29.86526006
_symmetry_Int_Tables_number   1
_chemical_formula_structural   Pr4Ga(GeRh2)2
_chemical_formula_sum   'Pr8 Ga2 Ge4 Rh8'
_cell_volume   470.36318868
_cell_formula_units_Z   2
loop_
 _symmetry_equiv_pos_site_id
 _symmetry_equiv_pos_as_xyz
  1  'x, y, z'
loop_
 _atom_site_type_symbol
 _atom_site_label
 _atom_site_symmetry_multiplicity
 _atom_site_fract_x
 _atom_site_fract_y
 _atom_site_fract_z
 _atom_site_occupancy
  Pr  Pr0  1  0.213805  0.443820  0.394358  1
  Pr  Pr1  1  0.556180  0.786195  0.105642  1
  Pr  Pr2  1  0.443820  0.213805  0.894358  1
  Pr  Pr3  1  0.918087  0.216723  0.336539  1
  Pr  Pr4  1  0.783277  0.081913  0.163461  1
  Pr  Pr5  1  0.081913  0.783277  0.663461  1
  Pr  Pr6  1  0.216723  0.918087  0.836539  1
  Pr  Pr7  1  0.786195  0.556180  0.605642  1
  Ga  Ga8  1  0.637198  0.362802  0.750000  1
  Ga  Ga9  1  0.362802  0.637198  0.250000  1
  Ge  Ge10  1  0.291055  0.053963  0.442693  1
  Ge  Ge11  1  0.946037  0.708945  0.057307  1
  Ge  Ge12  1  0.708945  0.946037  0.557307  1
  Ge  Ge13  1  0.053963  0.291055  0.942693  1
  Rh  Rh14  1  0.300617  0.572227  0.025203  1
  Rh  Rh15  1  0.572227  0.300617  0.525203  1
  Rh  Rh16  1  0.699383  0.427773  0.974797  1
  Rh  Rh17  1  0.075051  0.367320  0.183785  1
  Rh  Rh18  1  0.632680  0.924949  0.316215  1
  Rh  Rh19  1  0.427773  0.699383  0.474797  1
  Rh  Rh20  1  0.924949  0.632680  0.816215  1
  Rh  Rh21  1  0.367320  0.075051  0.683785  1
