# generated using pymatgen
data_Ce2Y18Si15Pd
_symmetry_space_group_name_H-M   'P 1'
_cell_length_a   7.43539853
_cell_length_b   7.77904340
_cell_length_c   14.71042900
_cell_angle_alpha   89.72779583
_cell_angle_beta   89.97843143
_cell_angle_gamma   89.87457513
_symmetry_Int_Tables_number   1
_chemical_formula_structural   Ce2Y18Si15Pd
_chemical_formula_sum   'Ce2 Y18 Si15 Pd1'
_cell_volume   850.84374946
_cell_formula_units_Z   1
loop_
 _symmetry_equiv_pos_site_id
 _symmetry_equiv_pos_as_xyz
  1  'x, y, z'
loop_
 _atom_site_type_symbol
 _atom_site_label
 _atom_site_symmetry_multiplicity
 _atom_site_fract_x
 _atom_site_fract_y
 _atom_site_fract_z
 _atom_site_occupancy
  Ce  Ce0  1  0.524720  0.569441  0.344709  1
  Ce  Ce1  1  0.024847  0.430192  0.654878  1
  Y  Y2  1  0.812834  0.574638  0.873662  1
  Y  Y3  1  0.316823  0.424389  0.126763  1
  Y  Y4  1  0.183373  0.928073  0.372820  1
  Y  Y5  1  0.683402  0.070345  0.627241  1
  Y  Y6  1  0.181995  0.928643  0.627715  1
  Y  Y7  1  0.682546  0.070221  0.372220  1
  Y  Y8  1  0.814734  0.573005  0.126482  1
  Y  Y9  1  0.317269  0.426537  0.872627  1
  Y  Y10  1  0.644118  0.230391  0.999371  1
  Y  Y11  1  0.156269  0.760471  0.000475  1
  Y  Y12  1  0.351197  0.265296  0.499793  1
  Y  Y13  1  0.849795  0.733049  0.500267  1
  Y  Y14  1  0.474600  0.933692  0.843592  1
  Y  Y15  1  0.973172  0.065949  0.153163  1
  Y  Y16  1  0.474455  0.933814  0.156686  1
  Y  Y17  1  0.973448  0.068418  0.846184  1
  Y  Y18  1  0.526174  0.566006  0.652524  1
  Y  Y19  1  0.027009  0.434244  0.348178  1
  Si  Si20  1  0.018847  0.351368  0.000477  1
  Si  Si21  1  0.476416  0.854372  0.500273  1
  Si  Si22  1  0.977613  0.145526  0.500119  1
  Si  Si23  1  0.649363  0.277359  0.789939  1
  Si  Si24  1  0.150877  0.721377  0.209607  1
  Si  Si25  1  0.353379  0.220800  0.289941  1
  Si  Si26  1  0.852610  0.778845  0.710704  1
  Si  Si27  1  0.355629  0.222131  0.709260  1
  Si  Si28  1  0.855772  0.778225  0.289685  1
  Si  Si29  1  0.646734  0.274381  0.208977  1
  Si  Si30  1  0.148422  0.723889  0.790989  1
  Si  Si31  1  0.773605  0.880764  0.000304  1
  Si  Si32  1  0.258936  0.125191  0.999622  1
  Si  Si33  1  0.234310  0.625582  0.501490  1
  Si  Si34  1  0.734357  0.374294  0.499231  1
  Pd  Pd35  1  0.520350  0.659078  0.000038  1
