# generated using pymatgen
data_DyY2Ga6(Ni2Ru)3
_symmetry_space_group_name_H-M   'P 1'
_cell_length_a   9.15440400
_cell_length_b   9.15259488
_cell_length_c   3.91437500
_cell_angle_alpha   90.00000000
_cell_angle_beta   90.00000000
_cell_angle_gamma   120.00977288
_symmetry_Int_Tables_number   1
_chemical_formula_structural   DyY2Ga6(Ni2Ru)3
_chemical_formula_sum   'Dy1 Y2 Ga6 Ni6 Ru3'
_cell_volume   284.00409270
_cell_formula_units_Z   1
loop_
 _symmetry_equiv_pos_site_id
 _symmetry_equiv_pos_as_xyz
  1  'x, y, z'
loop_
 _atom_site_type_symbol
 _atom_site_label
 _atom_site_symmetry_multiplicity
 _atom_site_fract_x
 _atom_site_fract_y
 _atom_site_fract_z
 _atom_site_occupancy
  Dy  Dy0  1  0.000000  0.000000  0.000000  1
  Y  Y1  1  0.333361  0.666654  0.500000  1
  Y  Y2  1  0.666639  0.333346  0.500000  1
  Ga  Ga3  1  0.313783  0.313778  0.500000  1
  Ga  Ga4  1  0.686240  0.999991  0.500000  1
  Ga  Ga5  1  0.686217  0.686222  0.500000  1
  Ga  Ga6  1  0.000005  0.313772  0.500000  1
  Ga  Ga7  1  0.999995  0.686228  0.500000  1
  Ga  Ga8  1  0.313760  0.000009  0.500000  1
  Ni  Ni9  1  0.175739  0.351445  0.000000  1
  Ni  Ni10  1  0.824261  0.648555  0.000000  1
  Ni  Ni11  1  0.175726  0.824275  0.000000  1
  Ni  Ni12  1  0.648556  0.824264  0.000000  1
  Ni  Ni13  1  0.351444  0.175736  0.000000  1
  Ni  Ni14  1  0.824274  0.175725  0.000000  1
  Ru  Ru15  1  0.500000  0.000000  0.000000  1
  Ru  Ru16  1  0.000000  0.500000  0.000000  1
  Ru  Ru17  1  0.500000  0.500000  0.000000  1
