# generated using pymatgen
data_Pr8Y3Ho9Pb16
_symmetry_space_group_name_H-M   'P 1'
_cell_length_a   8.30340101
_cell_length_b   8.39453501
_cell_length_c   15.86704801
_cell_angle_alpha   90.00180016
_cell_angle_beta   90.00386399
_cell_angle_gamma   89.99562171
_symmetry_Int_Tables_number   1
_chemical_formula_structural   Pr8Y3Ho9Pb16
_chemical_formula_sum   'Pr8 Y3 Ho9 Pb16'
_cell_volume   1105.98386331
_cell_formula_units_Z   1
loop_
 _symmetry_equiv_pos_site_id
 _symmetry_equiv_pos_as_xyz
  1  'x, y, z'
loop_
 _atom_site_type_symbol
 _atom_site_label
 _atom_site_symmetry_multiplicity
 _atom_site_fract_x
 _atom_site_fract_y
 _atom_site_fract_z
 _atom_site_occupancy
  Pr  Pr0  1  0.475852  0.677830  0.597402  1
  Pr  Pr1  1  0.975913  0.822191  0.902572  1
  Pr  Pr2  1  0.524100  0.322223  0.097436  1
  Pr  Pr3  1  0.024090  0.177820  0.402582  1
  Pr  Pr4  1  0.524224  0.322326  0.402434  1
  Pr  Pr5  1  0.024171  0.177797  0.097577  1
  Pr  Pr6  1  0.475820  0.677769  0.902460  1
  Pr  Pr7  1  0.975796  0.822135  0.597391  1
  Y  Y8  1  0.633355  0.158030  0.622359  1
  Y  Y9  1  0.133277  0.342014  0.877571  1
  Y  Y10  1  0.366652  0.841967  0.122462  1
  Ho  Ho11  1  0.866868  0.658077  0.377531  1
  Ho  Ho12  1  0.366781  0.841903  0.377605  1
  Ho  Ho13  1  0.866837  0.658133  0.122445  1
  Ho  Ho14  1  0.633152  0.158136  0.877573  1
  Ho  Ho15  1  0.133136  0.341859  0.622433  1
  Ho  Ho16  1  0.798910  0.495254  0.749963  1
  Ho  Ho17  1  0.298940  0.004813  0.749999  1
  Ho  Ho18  1  0.200925  0.504845  0.250113  1
  Ho  Ho19  1  0.701131  0.995001  0.250098  1
  Pb  Pb20  1  0.705918  0.959227  0.456315  1
  Pb  Pb21  1  0.205723  0.540359  0.043606  1
  Pb  Pb22  1  0.294284  0.040347  0.956417  1
  Pb  Pb23  1  0.794433  0.459869  0.543376  1
  Pb  Pb24  1  0.293847  0.040463  0.543431  1
  Pb  Pb25  1  0.793858  0.459546  0.956551  1
  Pb  Pb26  1  0.706162  0.959537  0.043450  1
  Pb  Pb27  1  0.205778  0.540562  0.456498  1
  Pb  Pb28  1  0.437016  0.370733  0.750055  1
  Pb  Pb29  1  0.936931  0.129237  0.749919  1
  Pb  Pb30  1  0.563218  0.629228  0.250185  1
  Pb  Pb31  1  0.062808  0.870571  0.250116  1
  Pb  Pb32  1  0.663059  0.850340  0.750089  1
  Pb  Pb33  1  0.163054  0.649585  0.749883  1
  Pb  Pb34  1  0.336968  0.149661  0.250100  1
  Pb  Pb35  1  0.837014  0.350613  0.250004  1
