# generated using pymatgen
data_Ac2Cd14Pd3
_symmetry_space_group_name_H-M   'P 1'
_cell_length_a   7.61779660
_cell_length_b   7.61779718
_cell_length_c   7.61779720
_cell_angle_alpha   82.94721754
_cell_angle_beta   82.94721685
_cell_angle_gamma   82.94723148
_symmetry_Int_Tables_number   1
_chemical_formula_structural   Ac2Cd14Pd3
_chemical_formula_sum   'Ac2 Cd14 Pd3'
_cell_volume   432.79129007
_cell_formula_units_Z   1
loop_
 _symmetry_equiv_pos_site_id
 _symmetry_equiv_pos_as_xyz
  1  'x, y, z'
loop_
 _atom_site_type_symbol
 _atom_site_label
 _atom_site_symmetry_multiplicity
 _atom_site_fract_x
 _atom_site_fract_y
 _atom_site_fract_z
 _atom_site_occupancy
  Ac  Ac0  1  0.660680  0.660680  0.660680  1
  Ac  Ac1  1  0.339320  0.339320  0.339320  1
  Cd  Cd2  1  0.346913  0.346913  0.849908  1
  Cd  Cd3  1  0.849908  0.346913  0.346913  1
  Cd  Cd4  1  0.105635  0.105635  0.105635  1
  Cd  Cd5  1  0.894365  0.894365  0.894365  1
  Cd  Cd6  1  0.295591  0.704409  0.000000  1
  Cd  Cd7  1  0.704409  0.000000  0.295591  1
  Cd  Cd8  1  0.000000  0.295591  0.704409  1
  Cd  Cd9  1  0.704409  0.295591  0.000000  1
  Cd  Cd10  1  0.295591  0.000000  0.704409  1
  Cd  Cd11  1  0.000000  0.704409  0.295591  1
  Cd  Cd12  1  0.150092  0.653087  0.653087  1
  Cd  Cd13  1  0.653087  0.653087  0.150092  1
  Cd  Cd14  1  0.653087  0.150092  0.653087  1
  Cd  Cd15  1  0.346913  0.849908  0.346913  1
  Pd  Pd16  1  0.000000  0.000000  0.500000  1
  Pd  Pd17  1  0.000000  0.500000  0.000000  1
  Pd  Pd18  1  0.500000  0.000000  0.000000  1
