# generated using pymatgen
data_LiDy16In3Ir3Ru
_symmetry_space_group_name_H-M   'P 1'
_cell_length_a   9.68331962
_cell_length_b   9.68331979
_cell_length_c   9.68332093
_cell_angle_alpha   59.68740930
_cell_angle_beta   59.68740872
_cell_angle_gamma   59.68740788
_symmetry_Int_Tables_number   1
_chemical_formula_structural   LiDy16In3Ir3Ru
_chemical_formula_sum   'Li1 Dy16 In3 Ir3 Ru1'
_cell_volume   637.47466478
_cell_formula_units_Z   1
loop_
 _symmetry_equiv_pos_site_id
 _symmetry_equiv_pos_as_xyz
  1  'x, y, z'
loop_
 _atom_site_type_symbol
 _atom_site_label
 _atom_site_symmetry_multiplicity
 _atom_site_fract_x
 _atom_site_fract_y
 _atom_site_fract_z
 _atom_site_occupancy
  Li  Li0  1  0.820949  0.820949  0.820949  1
  Dy  Dy1  1  0.599896  0.599896  0.599896  1
  Dy  Dy2  1  0.597865  0.597865  0.206233  1
  Dy  Dy3  1  0.597865  0.206233  0.597865  1
  Dy  Dy4  1  0.206233  0.597865  0.597865  1
  Dy  Dy5  1  0.059579  0.441683  0.441683  1
  Dy  Dy6  1  0.437395  0.061424  0.061424  1
  Dy  Dy7  1  0.441683  0.059579  0.441683  1
  Dy  Dy8  1  0.061424  0.437395  0.061424  1
  Dy  Dy9  1  0.441683  0.441683  0.059579  1
  Dy  Dy10  1  0.061424  0.061424  0.437395  1
  Dy  Dy11  1  0.189898  0.810735  0.810735  1
  Dy  Dy12  1  0.809899  0.189886  0.189886  1
  Dy  Dy13  1  0.810735  0.189898  0.810735  1
  Dy  Dy14  1  0.189886  0.809899  0.189886  1
  Dy  Dy15  1  0.810735  0.810735  0.189898  1
  Dy  Dy16  1  0.189886  0.189886  0.809899  1
  In  In17  1  0.832500  0.832500  0.503700  1
  In  In18  1  0.832500  0.503700  0.832500  1
  In  In19  1  0.503700  0.832500  0.832500  1
  Ir  Ir20  1  0.392903  0.392903  0.826682  1
  Ir  Ir21  1  0.392903  0.826682  0.392903  1
  Ir  Ir22  1  0.826682  0.392903  0.392903  1
  Ru  Ru23  1  0.391777  0.391777  0.391777  1
