# generated using pymatgen
data_Ba2PaCrS6
_symmetry_space_group_name_H-M   'P 1'
_cell_length_a   7.04930325
_cell_length_b   7.04982242
_cell_length_c   7.04941804
_cell_angle_alpha   120.00296977
_cell_angle_beta   120.01310451
_cell_angle_gamma   59.99865017
_symmetry_Int_Tables_number   1
_chemical_formula_structural   Ba2PaCrS6
_chemical_formula_sum   'Ba2 Pa1 Cr1 S6'
_cell_volume   247.68826665
_cell_formula_units_Z   1
loop_
 _symmetry_equiv_pos_site_id
 _symmetry_equiv_pos_as_xyz
  1  'x, y, z'
loop_
 _atom_site_type_symbol
 _atom_site_label
 _atom_site_symmetry_multiplicity
 _atom_site_fract_x
 _atom_site_fract_y
 _atom_site_fract_z
 _atom_site_occupancy
  Ba  Ba0  1  0.749955  0.750035  0.249978  1
  Ba  Ba1  1  0.249976  0.250015  0.749957  1
  Pa  Pa2  1  0.000020  0.999997  0.000020  1
  Cr  Cr3  1  0.500206  0.499915  0.500207  1
  S  S4  1  0.739200  0.260759  0.260694  1
  S  S5  1  0.260790  0.739225  0.260789  1
  S  S6  1  0.260789  0.260788  0.260789  1
  S  S7  1  0.739172  0.739249  0.739172  1
  S  S8  1  0.739193  0.260750  0.739194  1
  S  S9  1  0.260696  0.739264  0.739201  1
