# generated using pymatgen
data_Ho3TmLu4In3Co
_symmetry_space_group_name_H-M   'P 1'
_cell_length_a   10.17485200
_cell_length_b   10.17485173
_cell_length_c   6.92656100
_cell_angle_alpha   90.00000000
_cell_angle_beta   90.00000000
_cell_angle_gamma   120.00000088
_symmetry_Int_Tables_number   1
_chemical_formula_structural   Ho3TmLu4In3Co
_chemical_formula_sum   'Ho6 Tm2 Lu8 In6 Co2'
_cell_volume   621.01841903
_cell_formula_units_Z   2
loop_
 _symmetry_equiv_pos_site_id
 _symmetry_equiv_pos_as_xyz
  1  'x, y, z'
loop_
 _atom_site_type_symbol
 _atom_site_label
 _atom_site_symmetry_multiplicity
 _atom_site_fract_x
 _atom_site_fract_y
 _atom_site_fract_z
 _atom_site_occupancy
  Ho  Ho0  1  0.534095  0.068192  0.512960  1
  Ho  Ho1  1  0.931808  0.465905  0.512960  1
  Ho  Ho2  1  0.534095  0.465905  0.512960  1
  Ho  Ho3  1  0.465905  0.931808  0.012960  1
  Ho  Ho4  1  0.068192  0.534095  0.012960  1
  Ho  Ho5  1  0.465905  0.534095  0.012960  1
  Tm  Tm6  1  0.000000  0.000000  0.501260  1
  Tm  Tm7  1  0.000000  0.000000  0.001260  1
  Lu  Lu8  1  0.178768  0.357537  0.719791  1
  Lu  Lu9  1  0.642463  0.821232  0.719791  1
  Lu  Lu10  1  0.178768  0.821232  0.719791  1
  Lu  Lu11  1  0.821232  0.642463  0.219791  1
  Lu  Lu12  1  0.357537  0.178768  0.219791  1
  Lu  Lu13  1  0.821232  0.178768  0.219791  1
  Lu  Lu14  1  0.666667  0.333333  0.905891  1
  Lu  Lu15  1  0.333333  0.666667  0.405891  1
  In  In16  1  0.837230  0.674460  0.762102  1
  In  In17  1  0.325540  0.162770  0.762102  1
  In  In18  1  0.837230  0.162770  0.762102  1
  In  In19  1  0.162770  0.325540  0.262102  1
  In  In20  1  0.674460  0.837230  0.262102  1
  In  In21  1  0.162770  0.837230  0.262102  1
  Co  Co22  1  0.666667  0.333333  0.287293  1
  Co  Co23  1  0.333333  0.666667  0.787293  1
