# generated using pymatgen
data_Nd3Dy(Ni12P5)2
_symmetry_space_group_name_H-M   'P 1'
_cell_length_a   3.67340300
_cell_length_b   10.80974969
_cell_length_c   13.15888801
_cell_angle_alpha   71.80818355
_cell_angle_beta   90.00000000
_cell_angle_gamma   90.00000000
_symmetry_Int_Tables_number   1
_chemical_formula_structural   Nd3Dy(Ni12P5)2
_chemical_formula_sum   'Nd3 Dy1 Ni24 P10'
_cell_volume   496.40325749
_cell_formula_units_Z   1
loop_
 _symmetry_equiv_pos_site_id
 _symmetry_equiv_pos_as_xyz
  1  'x, y, z'
loop_
 _atom_site_type_symbol
 _atom_site_label
 _atom_site_symmetry_multiplicity
 _atom_site_fract_x
 _atom_site_fract_y
 _atom_site_fract_z
 _atom_site_occupancy
  Nd  Nd0  1  0.750000  0.719432  0.317305  1
  Nd  Nd1  1  0.250000  0.247018  0.186981  1
  Nd  Nd2  1  0.750000  0.754403  0.812472  1
  Dy  Dy3  1  0.250000  0.279737  0.682586  1
  Ni  Ni4  1  0.250000  0.841281  0.136198  1
  Ni  Ni5  1  0.750000  0.162524  0.860485  1
  Ni  Ni6  1  0.250000  0.286504  0.440554  1
  Ni  Ni7  1  0.750000  0.711045  0.562620  1
  Ni  Ni8  1  0.250000  0.071440  0.014761  1
  Ni  Ni9  1  0.750000  0.930318  0.984295  1
  Ni  Ni10  1  0.250000  0.064758  0.447335  1
  Ni  Ni11  1  0.750000  0.935082  0.552929  1
  Ni  Ni12  1  0.250000  0.595823  0.696324  1
  Ni  Ni13  1  0.750000  0.402780  0.304882  1
  Ni  Ni14  1  0.250000  0.583039  0.007537  1
  Ni  Ni15  1  0.750000  0.417325  0.991771  1
  Ni  Ni16  1  0.250000  0.576548  0.511057  1
  Ni  Ni17  1  0.750000  0.418271  0.492243  1
  Ni  Ni18  1  0.250000  0.298488  0.916191  1
  Ni  Ni19  1  0.750000  0.701870  0.081360  1
  Ni  Ni20  1  0.250000  0.994763  0.659618  1
  Ni  Ni21  1  0.750000  0.007026  0.339933  1
  Ni  Ni22  1  0.250000  0.840338  0.438252  1
  Ni  Ni23  1  0.750000  0.161323  0.563574  1
  Ni  Ni24  1  0.250000  0.991378  0.848372  1
  Ni  Ni25  1  0.750000  0.011509  0.150678  1
  Ni  Ni26  1  0.250000  0.562317  0.203741  1
  Ni  Ni27  1  0.750000  0.433974  0.795635  1
  P  P28  1  0.250000  0.508671  0.870881  1
  P  P29  1  0.750000  0.490903  0.129332  1
  P  P30  1  0.250000  0.800569  0.983331  1
  P  P31  1  0.750000  0.200602  0.015046  1
  P  P32  1  0.250000  0.493996  0.378458  1
  P  P33  1  0.750000  0.501791  0.622695  1
  P  P34  1  0.250000  0.811716  0.611413  1
  P  P35  1  0.750000  0.187686  0.389866  1
  P  P36  1  0.250000  0.949435  0.259707  1
  P  P37  1  0.750000  0.054315  0.739584  1
