# generated using pymatgen
data_NbV11Fe4(Si2C)4
_symmetry_space_group_name_H-M   'P 1'
_cell_length_a   7.67162338
_cell_length_b   7.67162278
_cell_length_c   7.67305000
_cell_angle_alpha   59.99384568
_cell_angle_beta   59.99384826
_cell_angle_gamma   60.46566118
_symmetry_Int_Tables_number   1
_chemical_formula_structural   NbV11Fe4(Si2C)4
_chemical_formula_sum   'Nb1 V11 Fe4 Si8 C4'
_cell_volume   320.39960264
_cell_formula_units_Z   1
loop_
 _symmetry_equiv_pos_site_id
 _symmetry_equiv_pos_as_xyz
  1  'x, y, z'
loop_
 _atom_site_type_symbol
 _atom_site_label
 _atom_site_symmetry_multiplicity
 _atom_site_fract_x
 _atom_site_fract_y
 _atom_site_fract_z
 _atom_site_occupancy
  Nb  Nb0  1  0.806094  0.806094  0.193906  1
  V  V1  1  0.187203  0.187203  0.812797  1
  V  V2  1  0.810228  0.190655  0.809379  1
  V  V3  1  0.190655  0.810228  0.189738  1
  V  V4  1  0.190655  0.810228  0.809379  1
  V  V5  1  0.810228  0.190655  0.189738  1
  V  V6  1  0.442813  0.442813  0.057187  1
  V  V7  1  0.062091  0.062091  0.437909  1
  V  V8  1  0.435074  0.064746  0.439373  1
  V  V9  1  0.064746  0.435074  0.060807  1
  V  V10  1  0.064746  0.435074  0.439373  1
  V  V11  1  0.435074  0.064746  0.060807  1
  Fe  Fe12  1  0.126357  0.622741  0.625451  1
  Fe  Fe13  1  0.622741  0.126357  0.625451  1
  Fe  Fe14  1  0.624534  0.624534  0.123482  1
  Fe  Fe15  1  0.624534  0.624534  0.627449  1
  Si  Si16  1  0.759982  0.408822  0.415599  1
  Si  Si17  1  0.408822  0.759982  0.415599  1
  Si  Si18  1  0.413890  0.413890  0.758068  1
  Si  Si19  1  0.413890  0.413890  0.414153  1
  Si  Si20  1  0.490243  0.837774  0.835990  1
  Si  Si21  1  0.837774  0.490243  0.835990  1
  Si  Si22  1  0.837967  0.837967  0.496142  1
  Si  Si23  1  0.837967  0.837967  0.827923  1
  C  C24  1  0.618302  0.135764  0.122967  1
  C  C25  1  0.135764  0.618302  0.122967  1
  C  C26  1  0.123812  0.123812  0.626780  1
  C  C27  1  0.123812  0.123812  0.125596  1
