# generated using pymatgen
data_Pr3Nd(AlAu2)6
_symmetry_space_group_name_H-M   'P 1'
_cell_length_a   8.80614503
_cell_length_b   8.80614315
_cell_length_c   8.80614458
_cell_angle_alpha   57.04634316
_cell_angle_beta   57.04635239
_cell_angle_gamma   57.04634943
_symmetry_Int_Tables_number   1
_chemical_formula_structural   Pr3Nd(AlAu2)6
_chemical_formula_sum   'Pr3 Nd1 Al6 Au12'
_cell_volume   450.00457582
_cell_formula_units_Z   1
loop_
 _symmetry_equiv_pos_site_id
 _symmetry_equiv_pos_as_xyz
  1  'x, y, z'
loop_
 _atom_site_type_symbol
 _atom_site_label
 _atom_site_symmetry_multiplicity
 _atom_site_fract_x
 _atom_site_fract_y
 _atom_site_fract_z
 _atom_site_occupancy
  Pr  Pr0  1  0.408595  0.408595  0.408595  1
  Pr  Pr1  1  0.908603  0.908603  0.908603  1
  Pr  Pr2  1  0.591406  0.591406  0.591406  1
  Nd  Nd3  1  0.091427  0.091427  0.091427  1
  Al  Al4  1  0.053986  0.250021  0.445975  1
  Al  Al5  1  0.445975  0.053986  0.250021  1
  Al  Al6  1  0.250021  0.445975  0.053986  1
  Al  Al7  1  0.946005  0.750051  0.553955  1
  Al  Al8  1  0.553955  0.946005  0.750051  1
  Al  Al9  1  0.750051  0.553955  0.946005  1
  Au  Au10  1  0.981736  0.365257  0.702561  1
  Au  Au11  1  0.702561  0.981736  0.365257  1
  Au  Au12  1  0.365257  0.702561  0.981736  1
  Au  Au13  1  0.202454  0.865358  0.481629  1
  Au  Au14  1  0.481629  0.202454  0.865358  1
  Au  Au15  1  0.865358  0.481629  0.202454  1
  Au  Au16  1  0.018302  0.634688  0.297527  1
  Au  Au17  1  0.297527  0.018302  0.634688  1
  Au  Au18  1  0.634688  0.297527  0.018302  1
  Au  Au19  1  0.797587  0.134657  0.518221  1
  Au  Au20  1  0.518221  0.797587  0.134657  1
  Au  Au21  1  0.134657  0.518221  0.797587  1
