# generated using pymatgen
data_TmHfZr2F15
_symmetry_space_group_name_H-M   'P 1'
_cell_length_a   8.14179851
_cell_length_b   8.14179853
_cell_length_c   8.14267301
_cell_angle_alpha   79.88401944
_cell_angle_beta   79.88402268
_cell_angle_gamma   100.10671293
_symmetry_Int_Tables_number   1
_chemical_formula_structural   TmHfZr2F15
_chemical_formula_sum   'Tm2 Hf2 Zr4 F30'
_cell_volume   511.12394445
_cell_formula_units_Z   2
loop_
 _symmetry_equiv_pos_site_id
 _symmetry_equiv_pos_as_xyz
  1  'x, y, z'
loop_
 _atom_site_type_symbol
 _atom_site_label
 _atom_site_symmetry_multiplicity
 _atom_site_fract_x
 _atom_site_fract_y
 _atom_site_fract_z
 _atom_site_occupancy
  Tm  Tm0  1  0.678313  0.321687  0.750000  1
  Tm  Tm1  1  0.321687  0.678313  0.250000  1
  Hf  Hf2  1  0.250428  0.749572  0.750000  1
  Hf  Hf3  1  0.749572  0.250428  0.250000  1
  Zr  Zr4  1  0.821732  0.749461  0.324937  1
  Zr  Zr5  1  0.250539  0.178268  0.175063  1
  Zr  Zr6  1  0.178268  0.250539  0.675063  1
  Zr  Zr7  1  0.749461  0.821732  0.824937  1
  F  F8  1  0.149981  0.184511  0.947862  1
  F  F9  1  0.686317  0.560680  0.848901  1
  F  F10  1  0.041378  0.652984  0.315830  1
  F  F11  1  0.652984  0.041378  0.815830  1
  F  F12  1  0.560680  0.686317  0.348901  1
  F  F13  1  0.184511  0.149981  0.447862  1
  F  F14  1  0.850019  0.815489  0.052138  1
  F  F15  1  0.313683  0.439320  0.151099  1
  F  F16  1  0.958622  0.347016  0.684170  1
  F  F17  1  0.347016  0.958622  0.184170  1
  F  F18  1  0.439320  0.313683  0.651099  1
  F  F19  1  0.815489  0.850019  0.552138  1
  F  F20  1  0.965963  0.034037  0.750000  1
  F  F21  1  0.542476  0.752079  0.030254  1
  F  F22  1  0.247921  0.457524  0.469746  1
  F  F23  1  0.457524  0.247921  0.969746  1
  F  F24  1  0.752079  0.542476  0.530254  1
  F  F25  1  0.034037  0.965963  0.250000  1
  F  F26  1  0.220268  0.726574  0.002025  1
  F  F27  1  0.225711  0.495079  0.780405  1
  F  F28  1  0.995028  0.722948  0.774609  1
  F  F29  1  0.722948  0.995028  0.274609  1
  F  F30  1  0.495079  0.225711  0.280405  1
  F  F31  1  0.726574  0.220268  0.502025  1
  F  F32  1  0.779732  0.273426  0.997975  1
  F  F33  1  0.774289  0.504921  0.219595  1
  F  F34  1  0.004972  0.277052  0.225391  1
  F  F35  1  0.277052  0.004972  0.725391  1
  F  F36  1  0.504921  0.774289  0.719595  1
  F  F37  1  0.273426  0.779732  0.497975  1
