# generated using pymatgen
data_AuBr3F20
_symmetry_space_group_name_H-M   'P 1'
_cell_length_a   8.70654066
_cell_length_b   8.01969910
_cell_length_c   6.22440004
_cell_angle_alpha   90.05155627
_cell_angle_beta   90.07090719
_cell_angle_gamma   89.96495347
_symmetry_Int_Tables_number   1
_chemical_formula_structural   AuBr3F20
_chemical_formula_sum   'Au1 Br3 F20'
_cell_volume   434.61090022
_cell_formula_units_Z   1
loop_
 _symmetry_equiv_pos_site_id
 _symmetry_equiv_pos_as_xyz
  1  'x, y, z'
loop_
 _atom_site_type_symbol
 _atom_site_label
 _atom_site_symmetry_multiplicity
 _atom_site_fract_x
 _atom_site_fract_y
 _atom_site_fract_z
 _atom_site_occupancy
  Au  Au0  1  0.735814  0.097737  0.250434  1
  Br  Br1  1  0.259606  0.586882  0.249214  1
  Br  Br2  1  0.743531  0.404804  0.750806  1
  Br  Br3  1  0.262735  0.912643  0.749606  1
  F  F4  1  0.648879  0.247564  0.022081  1
  F  F5  1  0.336061  0.746006  0.997817  1
  F  F6  1  0.195040  0.446928  0.045914  1
  F  F7  1  0.815056  0.954319  0.029472  1
  F  F8  1  0.543754  0.974346  0.250032  1
  F  F9  1  0.925304  0.227560  0.250895  1
  F  F10  1  0.444329  0.476555  0.249527  1
  F  F11  1  0.068037  0.682400  0.249073  1
  F  F12  1  0.194989  0.446946  0.451712  1
  F  F13  1  0.815043  0.954384  0.471395  1
  F  F14  1  0.648885  0.247698  0.478707  1
  F  F15  1  0.335975  0.745085  0.500373  1
  F  F16  1  0.198616  0.051654  0.546457  1
  F  F17  1  0.808052  0.539850  0.549306  1
  F  F18  1  0.931349  0.309004  0.751078  1
  F  F19  1  0.563559  0.517255  0.750517  1
  F  F20  1  0.071387  0.817491  0.749476  1
  F  F21  1  0.447348  0.021711  0.750069  1
  F  F22  1  0.198785  0.051594  0.952804  1
  F  F23  1  0.807868  0.539586  0.953230  1
