# generated using pymatgen
data_CeSeO5
_symmetry_space_group_name_H-M   'P 1'
_cell_length_a   6.14662253
_cell_length_b   6.14662235
_cell_length_c   8.43130181
_cell_angle_alpha   70.94845871
_cell_angle_beta   109.05153596
_cell_angle_gamma   79.69619364
_symmetry_Int_Tables_number   1
_chemical_formula_structural   CeSeO5
_chemical_formula_sum   'Ce2 Se2 O10'
_cell_volume   269.68963940
_cell_formula_units_Z   2
loop_
 _symmetry_equiv_pos_site_id
 _symmetry_equiv_pos_as_xyz
  1  'x, y, z'
loop_
 _atom_site_type_symbol
 _atom_site_label
 _atom_site_symmetry_multiplicity
 _atom_site_fract_x
 _atom_site_fract_y
 _atom_site_fract_z
 _atom_site_occupancy
  Ce  Ce0  1  0.000000  0.500000  0.500000  1
  Ce  Ce1  1  0.500000  0.000000  0.000000  1
  Se  Se2  1  0.915625  0.915625  0.750000  1
  Se  Se3  1  0.084375  0.084375  0.250000  1
  O  O4  1  0.304232  0.304232  0.750000  1
  O  O5  1  0.695768  0.695768  0.250000  1
  O  O6  1  0.214950  0.816504  0.880191  1
  O  O7  1  0.816504  0.214950  0.619809  1
  O  O8  1  0.785050  0.183496  0.119809  1
  O  O9  1  0.183496  0.785050  0.380191  1
  O  O10  1  0.853624  0.772529  0.611800  1
  O  O11  1  0.772529  0.853624  0.888200  1
  O  O12  1  0.146376  0.227471  0.388200  1
  O  O13  1  0.227471  0.146376  0.111800  1
