# generated using pymatgen
data_Er6Al24Ru5Rh3
_symmetry_space_group_name_H-M   'P 1'
_cell_length_a   8.78581813
_cell_length_b   8.76399658
_cell_length_c   9.51410517
_cell_angle_alpha   89.83020231
_cell_angle_beta   90.16274238
_cell_angle_gamma   119.60034982
_symmetry_Int_Tables_number   1
_chemical_formula_structural   Er6Al24Ru5Rh3
_chemical_formula_sum   'Er6 Al24 Ru5 Rh3'
_cell_volume   636.96482753
_cell_formula_units_Z   1
loop_
 _symmetry_equiv_pos_site_id
 _symmetry_equiv_pos_as_xyz
  1  'x, y, z'
loop_
 _atom_site_type_symbol
 _atom_site_label
 _atom_site_symmetry_multiplicity
 _atom_site_fract_x
 _atom_site_fract_y
 _atom_site_fract_z
 _atom_site_occupancy
  Er  Er0  1  0.192160  0.388110  0.251021  1
  Er  Er1  1  0.807840  0.611890  0.748979  1
  Er  Er2  1  0.614520  0.807509  0.250883  1
  Er  Er3  1  0.385480  0.192491  0.749117  1
  Er  Er4  1  0.191452  0.803915  0.249961  1
  Er  Er5  1  0.808548  0.196085  0.750039  1
  Al  Al6  1  0.331262  0.666392  0.020221  1
  Al  Al7  1  0.668738  0.333608  0.979779  1
  Al  Al8  1  0.667993  0.334422  0.519545  1
  Al  Al9  1  0.332007  0.665578  0.480455  1
  Al  Al10  1  0.163947  0.326019  0.578150  1
  Al  Al11  1  0.836053  0.673981  0.421850  1
  Al  Al12  1  0.674758  0.835103  0.578243  1
  Al  Al13  1  0.837969  0.674702  0.078144  1
  Al  Al14  1  0.325242  0.164897  0.421757  1
  Al  Al15  1  0.162031  0.325298  0.921856  1
  Al  Al16  1  0.162006  0.835767  0.578099  1
  Al  Al17  1  0.324427  0.163015  0.078411  1
  Al  Al18  1  0.837994  0.164233  0.421901  1
  Al  Al19  1  0.675573  0.836985  0.921589  1
  Al  Al20  1  0.838115  0.164082  0.078294  1
  Al  Al21  1  0.161885  0.835918  0.921706  1
  Al  Al22  1  0.560925  0.122129  0.249509  1
  Al  Al23  1  0.439075  0.877871  0.750491  1
  Al  Al24  1  0.877500  0.439188  0.249516  1
  Al  Al25  1  0.122500  0.560812  0.750484  1
  Al  Al26  1  0.561172  0.438693  0.250696  1
  Al  Al27  1  0.438828  0.561307  0.749304  1
  Al  Al28  1  0.998625  0.999565  0.250065  1
  Al  Al29  1  0.001375  0.000435  0.749935  1
  Ru  Ru30  1  0.000000  0.500000  0.000000  1
  Ru  Ru31  1  0.000000  0.500000  0.500000  1
  Ru  Ru32  1  0.500000  0.500000  0.500000  1
  Ru  Ru33  1  0.000000  0.000000  0.000000  1
  Ru  Ru34  1  0.000000  0.000000  0.500000  1
  Rh  Rh35  1  0.500000  0.000000  0.000000  1
  Rh  Rh36  1  0.500000  0.000000  0.500000  1
  Rh  Rh37  1  0.500000  0.500000  0.000000  1
