# generated using pymatgen
data_Tb7Tc2Sn23Pt4
_symmetry_space_group_name_H-M   'P 1'
_cell_length_a   9.93846906
_cell_length_b   9.93846748
_cell_length_c   10.13632870
_cell_angle_alpha   90.58956373
_cell_angle_beta   89.41043523
_cell_angle_gamma   119.58585745
_symmetry_Int_Tables_number   1
_chemical_formula_structural   Tb7Tc2Sn23Pt4
_chemical_formula_sum   'Tb7 Tc2 Sn23 Pt4'
_cell_volume   870.59615450
_cell_formula_units_Z   1
loop_
 _symmetry_equiv_pos_site_id
 _symmetry_equiv_pos_as_xyz
  1  'x, y, z'
loop_
 _atom_site_type_symbol
 _atom_site_label
 _atom_site_symmetry_multiplicity
 _atom_site_fract_x
 _atom_site_fract_y
 _atom_site_fract_z
 _atom_site_occupancy
  Tb  Tb0  1  0.000000  0.000000  0.000000  1
  Tb  Tb1  1  0.480141  0.519859  0.308728  1
  Tb  Tb2  1  0.519859  0.480141  0.691272  1
  Tb  Tb3  1  0.479217  0.957604  0.307526  1
  Tb  Tb4  1  0.520783  0.042396  0.692474  1
  Tb  Tb5  1  0.042396  0.520783  0.307526  1
  Tb  Tb6  1  0.957604  0.479217  0.692474  1
  Tc  Tc7  1  0.833696  0.166304  0.200048  1
  Tc  Tc8  1  0.166304  0.833696  0.799952  1
  Sn  Sn9  1  0.348605  0.993173  0.998501  1
  Sn  Sn10  1  0.651395  0.006827  0.001499  1
  Sn  Sn11  1  0.993173  0.348605  0.001499  1
  Sn  Sn12  1  0.006827  0.651395  0.998501  1
  Sn  Sn13  1  0.645967  0.645967  0.000000  1
  Sn  Sn14  1  0.354033  0.354033  0.000000  1
  Sn  Sn15  1  0.327890  0.672110  0.822902  1
  Sn  Sn16  1  0.672110  0.327890  0.177098  1
  Sn  Sn17  1  0.000000  0.000000  0.500000  1
  Sn  Sn18  1  0.778123  0.221877  0.455548  1
  Sn  Sn19  1  0.221877  0.778123  0.544452  1
  Sn  Sn20  1  0.776317  0.553321  0.459628  1
  Sn  Sn21  1  0.223683  0.446679  0.540372  1
  Sn  Sn22  1  0.446679  0.223683  0.459628  1
  Sn  Sn23  1  0.553321  0.776317  0.540372  1
  Sn  Sn24  1  0.334122  0.665878  0.118718  1
  Sn  Sn25  1  0.665878  0.334122  0.881282  1
  Sn  Sn26  1  0.119876  0.880124  0.283384  1
  Sn  Sn27  1  0.880124  0.119876  0.716616  1
  Sn  Sn28  1  0.118931  0.238755  0.278797  1
  Sn  Sn29  1  0.881069  0.761245  0.721203  1
  Sn  Sn30  1  0.761245  0.881069  0.278797  1
  Sn  Sn31  1  0.238755  0.118931  0.721203  1
  Pt  Pt32  1  0.828755  0.656696  0.199957  1
  Pt  Pt33  1  0.171245  0.343304  0.800043  1
  Pt  Pt34  1  0.343304  0.171245  0.199957  1
  Pt  Pt35  1  0.656696  0.828755  0.800043  1
