# generated using pymatgen
data_Ca9Dy3Ga12(SnO6)8
_symmetry_space_group_name_H-M   'P 1'
_cell_length_a   11.00186471
_cell_length_b   11.02347076
_cell_length_c   11.02347076
_cell_angle_alpha   109.51379984
_cell_angle_beta   109.48967454
_cell_angle_gamma   109.48967677
_symmetry_Int_Tables_number   1
_chemical_formula_structural   Ca9Dy3Ga12(SnO6)8
_chemical_formula_sum   'Ca9 Dy3 Ga12 Sn8 O48'
_cell_volume   1028.14489139
_cell_formula_units_Z   1
loop_
 _symmetry_equiv_pos_site_id
 _symmetry_equiv_pos_as_xyz
  1  'x, y, z'
loop_
 _atom_site_type_symbol
 _atom_site_label
 _atom_site_symmetry_multiplicity
 _atom_site_fract_x
 _atom_site_fract_y
 _atom_site_fract_z
 _atom_site_occupancy
  Ca  Ca0  1  0.126656  0.250195  0.376874  1
  Ca  Ca1  1  0.373344  0.750217  0.123538  1
  Ca  Ca2  1  0.250000  0.875000  0.625000  1
  Ca  Ca3  1  0.875625  0.751168  0.623548  1
  Ca  Ca4  1  0.624375  0.247923  0.875542  1
  Ca  Ca5  1  0.373344  0.123126  0.249805  1
  Ca  Ca6  1  0.624375  0.876452  0.748832  1
  Ca  Ca7  1  0.126656  0.376462  0.749783  1
  Ca  Ca8  1  0.875625  0.624458  0.252077  1
  Dy  Dy9  1  0.250000  0.375000  0.125000  1
  Dy  Dy10  1  0.750000  0.625000  0.875000  1
  Dy  Dy11  1  0.750000  0.125000  0.375000  1
  Ga  Ga12  1  0.250000  0.626252  0.376252  1
  Ga  Ga13  1  0.750000  0.374366  0.624366  1
  Ga  Ga14  1  0.750000  0.875634  0.125634  1
  Ga  Ga15  1  0.376481  0.251154  0.624926  1
  Ga  Ga16  1  0.624089  0.750349  0.374873  1
  Ga  Ga17  1  0.250000  0.123748  0.873748  1
  Ga  Ga18  1  0.123519  0.748444  0.874672  1
  Ga  Ga19  1  0.875911  0.250785  0.126260  1
  Ga  Ga20  1  0.624089  0.373740  0.249215  1
  Ga  Ga21  1  0.376481  0.625328  0.751556  1
  Ga  Ga22  1  0.875911  0.125127  0.749651  1
  Ga  Ga23  1  0.123519  0.875074  0.248846  1
  Sn  Sn24  1  0.999987  0.000456  0.999857  1
  Sn  Sn25  1  0.499019  0.998961  0.499816  1
  Sn  Sn26  1  0.000981  0.500797  0.499942  1
  Sn  Sn27  1  0.499019  0.000058  0.999203  1
  Sn  Sn28  1  0.500013  0.499870  0.000469  1
  Sn  Sn29  1  0.500013  0.500143  0.499544  1
  Sn  Sn30  1  0.000981  0.000184  0.501039  1
  Sn  Sn31  1  0.999987  0.499531  0.000130  1
  O  O32  1  0.470968  0.376785  0.288992  1
  O  O33  1  0.529148  0.621770  0.710307  1
  O  O34  1  0.587808  0.181692  0.211021  1
  O  O35  1  0.912192  0.123213  0.593884  1
  O  O36  1  0.295603  0.475548  0.371573  1
  O  O37  1  0.316849  0.914315  0.293494  1
  O  O38  1  0.418063  0.817980  0.795380  1
  O  O39  1  0.081937  0.877317  0.399917  1
  O  O40  1  0.704438  0.523970  0.627986  1
  O  O41  1  0.683204  0.085879  0.705888  1
  O  O42  1  0.029032  0.318024  0.905817  1
  O  O43  1  0.204397  0.575970  0.179945  1
  O  O44  1  0.120912  0.024208  0.204850  1
  O  O45  1  0.970852  0.681159  0.092622  1
  O  O46  1  0.795562  0.423548  0.819531  1
  O  O47  1  0.878084  0.976520  0.794869  1
  O  O48  1  0.603485  0.924299  0.128839  1
  O  O49  1  0.183151  0.476645  0.597465  1
  O  O50  1  0.402782  0.084788  0.879025  1
  O  O51  1  0.816796  0.522684  0.402675  1
  O  O52  1  0.896515  0.025354  0.320815  1
  O  O53  1  0.379088  0.583938  0.903296  1
  O  O54  1  0.097218  0.976243  0.682006  1
  O  O55  1  0.621916  0.416786  0.098436  1
  O  O56  1  0.379088  0.295150  0.475792  1
  O  O57  1  0.587808  0.906116  0.376787  1
  O  O58  1  0.621916  0.705131  0.523480  1
  O  O59  1  0.418063  0.100083  0.622683  1
  O  O60  1  0.120912  0.596704  0.916062  1
  O  O61  1  0.029032  0.211008  0.123215  1
  O  O62  1  0.878084  0.401564  0.083214  1
  O  O63  1  0.970852  0.789693  0.878230  1
  O  O64  1  0.316849  0.902535  0.023355  1
  O  O65  1  0.912192  0.288979  0.318308  1
  O  O66  1  0.683204  0.097325  0.977316  1
  O  O67  1  0.081937  0.704620  0.682020  1
  O  O68  1  0.183151  0.206506  0.585685  1
  O  O69  1  0.470968  0.594183  0.181976  1
  O  O70  1  0.816796  0.794112  0.414121  1
  O  O71  1  0.529148  0.407378  0.818841  1
  O  O72  1  0.295603  0.320055  0.924030  1
  O  O73  1  0.704438  0.680469  0.076452  1
  O  O74  1  0.204397  0.128427  0.024452  1
  O  O75  1  0.795562  0.872014  0.976030  1
  O  O76  1  0.896515  0.371161  0.575701  1
  O  O77  1  0.097218  0.620975  0.415212  1
  O  O78  1  0.603485  0.179185  0.474646  1
  O  O79  1  0.402782  0.817994  0.523757  1
