# generated using pymatgen
data_Ce2NdEr(SnRu)4
_symmetry_space_group_name_H-M   'P 1'
_cell_length_a   6.25743109
_cell_length_b   6.25743154
_cell_length_c   10.17443778
_cell_angle_alpha   78.21404667
_cell_angle_beta   78.21404644
_cell_angle_gamma   45.15870371
_symmetry_Int_Tables_number   1
_chemical_formula_structural   Ce2NdEr(SnRu)4
_chemical_formula_sum   'Ce2 Nd1 Er1 Sn4 Ru4'
_cell_volume   275.48145015
_cell_formula_units_Z   1
loop_
 _symmetry_equiv_pos_site_id
 _symmetry_equiv_pos_as_xyz
  1  'x, y, z'
loop_
 _atom_site_type_symbol
 _atom_site_label
 _atom_site_symmetry_multiplicity
 _atom_site_fract_x
 _atom_site_fract_y
 _atom_site_fract_z
 _atom_site_occupancy
  Ce  Ce0  1  0.861656  0.861656  0.912153  1
  Ce  Ce1  1  0.140761  0.140761  0.085842  1
  Nd  Nd2  1  0.877616  0.877616  0.407379  1
  Er  Er3  1  0.121613  0.121613  0.595105  1
  Sn  Sn4  1  0.425016  0.425016  0.157248  1
  Sn  Sn5  1  0.405412  0.405412  0.646737  1
  Sn  Sn6  1  0.575176  0.575176  0.840462  1
  Sn  Sn7  1  0.595120  0.595120  0.357367  1
  Ru  Ru8  1  0.815597  0.815597  0.147419  1
  Ru  Ru9  1  0.195476  0.195476  0.306308  1
  Ru  Ru10  1  0.182429  0.182429  0.848660  1
  Ru  Ru11  1  0.804129  0.804129  0.695317  1
