# generated using pymatgen
data_Ho7Lu(Si4Mo3)4
_symmetry_space_group_name_H-M   'P 1'
_cell_length_a   6.75299909
_cell_length_b   6.93765433
_cell_length_c   12.90415048
_cell_angle_alpha   89.96943043
_cell_angle_beta   89.99286431
_cell_angle_gamma   89.98229688
_symmetry_Int_Tables_number   1
_chemical_formula_structural   Ho7Lu(Si4Mo3)4
_chemical_formula_sum   'Ho7 Lu1 Si16 Mo12'
_cell_volume   604.55898735
_cell_formula_units_Z   1
loop_
 _symmetry_equiv_pos_site_id
 _symmetry_equiv_pos_as_xyz
  1  'x, y, z'
loop_
 _atom_site_type_symbol
 _atom_site_label
 _atom_site_symmetry_multiplicity
 _atom_site_fract_x
 _atom_site_fract_y
 _atom_site_fract_z
 _atom_site_occupancy
  Ho  Ho0  1  0.497221  0.332478  0.093943  1
  Ho  Ho1  1  0.997127  0.167358  0.406119  1
  Ho  Ho2  1  0.502884  0.667299  0.593878  1
  Ho  Ho3  1  0.002681  0.832646  0.906508  1
  Ho  Ho4  1  0.502753  0.667581  0.906378  1
  Ho  Ho5  1  0.002869  0.832663  0.593889  1
  Ho  Ho6  1  0.497070  0.332615  0.405732  1
  Lu  Lu7  1  0.996432  0.167971  0.094269  1
  Si  Si8  1  0.659083  0.041744  0.547326  1
  Si  Si9  1  0.159014  0.457676  0.953097  1
  Si  Si10  1  0.339170  0.959430  0.047621  1
  Si  Si11  1  0.840891  0.541748  0.452453  1
  Si  Si12  1  0.340919  0.958243  0.452350  1
  Si  Si13  1  0.841487  0.540174  0.047659  1
  Si  Si14  1  0.659605  0.041773  0.953154  1
  Si  Si15  1  0.159110  0.458346  0.547309  1
  Si  Si16  1  0.534871  0.366519  0.750271  1
  Si  Si17  1  0.034791  0.133297  0.750068  1
  Si  Si18  1  0.465447  0.633608  0.249751  1
  Si  Si19  1  0.965564  0.867620  0.249517  1
  Si  Si20  1  0.802457  0.629571  0.750244  1
  Si  Si21  1  0.302262  0.870190  0.750106  1
  Si  Si22  1  0.196776  0.369216  0.249276  1
  Si  Si23  1  0.698702  0.129991  0.249408  1
  Mo  Mo24  1  0.830283  0.334463  0.625251  1
  Mo  Mo25  1  0.330069  0.165253  0.875103  1
  Mo  Mo26  1  0.169648  0.665646  0.125192  1
  Mo  Mo27  1  0.669806  0.834744  0.374462  1
  Mo  Mo28  1  0.169669  0.665319  0.374535  1
  Mo  Mo29  1  0.670438  0.835118  0.124864  1
  Mo  Mo30  1  0.830726  0.334047  0.875335  1
  Mo  Mo31  1  0.330391  0.165504  0.625204  1
  Mo  Mo32  1  0.665920  0.998424  0.750174  1
  Mo  Mo33  1  0.165984  0.501445  0.750137  1
  Mo  Mo34  1  0.333606  0.002209  0.249666  1
  Mo  Mo35  1  0.834274  0.498074  0.249755  1
