# generated using pymatgen
data_Li3Mg2AuO6
_symmetry_space_group_name_H-M   'P 1'
_cell_length_a   5.24428542
_cell_length_b   5.24428508
_cell_length_c   5.21767302
_cell_angle_alpha   99.60084926
_cell_angle_beta   99.60084479
_cell_angle_gamma   120.03353689
_symmetry_Int_Tables_number   1
_chemical_formula_structural   Li3Mg2AuO6
_chemical_formula_sum   'Li3 Mg2 Au1 O6'
_cell_volume   117.10929742
_cell_formula_units_Z   1
loop_
 _symmetry_equiv_pos_site_id
 _symmetry_equiv_pos_as_xyz
  1  'x, y, z'
loop_
 _atom_site_type_symbol
 _atom_site_label
 _atom_site_symmetry_multiplicity
 _atom_site_fract_x
 _atom_site_fract_y
 _atom_site_fract_z
 _atom_site_occupancy
  Li  Li0  1  0.845153  0.154835  0.499991  1
  Li  Li1  1  0.499998  0.499998  0.499988  1
  Li  Li2  1  0.154835  0.845153  0.499991  1
  Mg  Mg3  1  0.667247  0.332744  0.000037  1
  Mg  Mg4  1  0.332744  0.667247  0.000037  1
  Au  Au5  1  0.000027  0.000027  0.000019  1
  O  O6  1  0.752722  0.752722  0.231917  1
  O  O7  1  0.401456  0.078036  0.234477  1
  O  O8  1  0.078036  0.401456  0.234477  1
  O  O9  1  0.921964  0.598549  0.765507  1
  O  O10  1  0.598549  0.921964  0.765507  1
  O  O11  1  0.247271  0.247271  0.768063  1
