# generated using pymatgen
data_Tb6Er6Th4TlCd3Ir4
_symmetry_space_group_name_H-M   'P 1'
_cell_length_a   9.73268435
_cell_length_b   9.73268469
_cell_length_c   9.73268300
_cell_angle_alpha   60.00000233
_cell_angle_beta   60.00000120
_cell_angle_gamma   60.00000193
_symmetry_Int_Tables_number   1
_chemical_formula_structural   Tb6Er6Th4TlCd3Ir4
_chemical_formula_sum   'Tb6 Er6 Th4 Tl1 Cd3 Ir4'
_cell_volume   651.90286656
_cell_formula_units_Z   1
loop_
 _symmetry_equiv_pos_site_id
 _symmetry_equiv_pos_as_xyz
  1  'x, y, z'
loop_
 _atom_site_type_symbol
 _atom_site_label
 _atom_site_symmetry_multiplicity
 _atom_site_fract_x
 _atom_site_fract_y
 _atom_site_fract_z
 _atom_site_occupancy
  Tb  Tb0  1  0.187605  0.813706  0.813706  1
  Tb  Tb1  1  0.814206  0.186009  0.186009  1
  Tb  Tb2  1  0.813706  0.187605  0.813706  1
  Tb  Tb3  1  0.186009  0.814206  0.186009  1
  Tb  Tb4  1  0.813706  0.813706  0.187605  1
  Tb  Tb5  1  0.186009  0.186009  0.814206  1
  Er  Er6  1  0.063325  0.436641  0.436641  1
  Er  Er7  1  0.436334  0.063378  0.063378  1
  Er  Er8  1  0.436641  0.063325  0.436641  1
  Er  Er9  1  0.063378  0.436334  0.063378  1
  Er  Er10  1  0.436641  0.436641  0.063325  1
  Er  Er11  1  0.063378  0.063378  0.436334  1
  Th  Th12  1  0.599927  0.599927  0.599927  1
  Th  Th13  1  0.599850  0.599850  0.200288  1
  Th  Th14  1  0.599850  0.200288  0.599850  1
  Th  Th15  1  0.200288  0.599850  0.599850  1
  Tl  Tl16  1  0.833766  0.833766  0.833766  1
  Cd  Cd17  1  0.832619  0.832619  0.500251  1
  Cd  Cd18  1  0.832619  0.500251  0.832619  1
  Cd  Cd19  1  0.500251  0.832619  0.832619  1
  Ir  Ir20  1  0.392637  0.392637  0.392637  1
  Ir  Ir21  1  0.392767  0.392767  0.821720  1
  Ir  Ir22  1  0.392767  0.821720  0.392767  1
  Ir  Ir23  1  0.821720  0.392767  0.392767  1
