# generated using pymatgen
data_Ca5Fe2N7
_symmetry_space_group_name_H-M   'P 1'
_cell_length_a   6.02540587
_cell_length_b   8.57733596
_cell_length_c   8.56936724
_cell_angle_alpha   114.59665105
_cell_angle_beta   97.84482171
_cell_angle_gamma   89.41606545
_symmetry_Int_Tables_number   1
_chemical_formula_structural   Ca5Fe2N7
_chemical_formula_sum   'Ca10 Fe4 N14'
_cell_volume   398.39123668
_cell_formula_units_Z   2
loop_
 _symmetry_equiv_pos_site_id
 _symmetry_equiv_pos_as_xyz
  1  'x, y, z'
loop_
 _atom_site_type_symbol
 _atom_site_label
 _atom_site_symmetry_multiplicity
 _atom_site_fract_x
 _atom_site_fract_y
 _atom_site_fract_z
 _atom_site_occupancy
  Ca  Ca0  1  0.846438  0.592314  0.332864  1
  Ca  Ca1  1  0.269564  0.987869  0.574690  1
  Ca  Ca2  1  0.715009  0.416425  0.855247  1
  Ca  Ca3  1  0.284991  0.583575  0.144753  1
  Ca  Ca4  1  0.406824  0.790359  0.917223  1
  Ca  Ca5  1  0.593176  0.209641  0.082777  1
  Ca  Ca6  1  0.153562  0.407686  0.667136  1
  Ca  Ca7  1  0.898515  0.852958  0.770669  1
  Ca  Ca8  1  0.101485  0.147042  0.229331  1
  Ca  Ca9  1  0.730436  0.012131  0.425310  1
  Fe  Fe10  1  0.574519  0.355707  0.473990  1
  Fe  Fe11  1  0.425481  0.644293  0.526010  1
  Fe  Fe12  1  0.121503  0.219371  0.912932  1
  Fe  Fe13  1  0.878497  0.780629  0.087068  1
  N  N14  1  0.533552  0.545783  0.669696  1
  N  N15  1  0.466448  0.454217  0.330304  1
  N  N16  1  0.160589  0.704677  0.570639  1
  N  N17  1  0.839411  0.295323  0.429361  1
  N  N18  1  0.409981  0.187844  0.466754  1
  N  N19  1  0.590019  0.812156  0.533246  1
  N  N20  1  0.950180  0.145912  0.714586  1
  N  N21  1  0.049820  0.854088  0.285414  1
  N  N22  1  0.234807  0.047854  0.952215  1
  N  N23  1  0.765193  0.952146  0.047785  1
  N  N24  1  0.357537  0.326963  0.896899  1
  N  N25  1  0.970630  0.348050  0.080486  1
  N  N26  1  0.029370  0.651950  0.919514  1
  N  N27  1  0.642463  0.673037  0.103101  1
