# generated using pymatgen
data_Dy4Al18Ir5Au
_symmetry_space_group_name_H-M   'P 1'
_cell_length_a   7.59979775
_cell_length_b   7.59980166
_cell_length_c   9.48762701
_cell_angle_alpha   90.00256311
_cell_angle_beta   90.00251832
_cell_angle_gamma   119.68990127
_symmetry_Int_Tables_number   1
_chemical_formula_structural   Dy4Al18Ir5Au
_chemical_formula_sum   'Dy4 Al18 Ir5 Au1'
_cell_volume   476.03745888
_cell_formula_units_Z   1
loop_
 _symmetry_equiv_pos_site_id
 _symmetry_equiv_pos_as_xyz
  1  'x, y, z'
loop_
 _atom_site_type_symbol
 _atom_site_label
 _atom_site_symmetry_multiplicity
 _atom_site_fract_x
 _atom_site_fract_y
 _atom_site_fract_z
 _atom_site_occupancy
  Dy  Dy0  1  0.995703  0.672244  0.751222  1
  Dy  Dy1  1  0.004297  0.327756  0.248778  1
  Dy  Dy2  1  0.672244  0.995704  0.751222  1
  Dy  Dy3  1  0.327756  0.004296  0.248778  1
  Al  Al4  1  0.133843  0.133843  0.756084  1
  Al  Al5  1  0.866157  0.866157  0.243916  1
  Al  Al6  1  0.001164  0.343488  0.578863  1
  Al  Al7  1  0.998836  0.656512  0.421137  1
  Al  Al8  1  0.000178  0.665039  0.073440  1
  Al  Al9  1  0.334961  0.999822  0.926560  1
  Al  Al10  1  0.999822  0.334961  0.926560  1
  Al  Al11  1  0.665039  0.000178  0.073440  1
  Al  Al12  1  0.656512  0.998837  0.421137  1
  Al  Al13  1  0.343488  0.001163  0.578863  1
  Al  Al14  1  0.333310  0.333310  0.053026  1
  Al  Al15  1  0.666690  0.666690  0.946974  1
  Al  Al16  1  0.658433  0.658432  0.558710  1
  Al  Al17  1  0.341567  0.341568  0.441290  1
  Al  Al18  1  0.338603  0.548868  0.751285  1
  Al  Al19  1  0.661397  0.451132  0.248715  1
  Al  Al20  1  0.548868  0.338603  0.751285  1
  Al  Al21  1  0.451132  0.661397  0.248715  1
  Ir  Ir22  1  0.671715  0.328285  0.500000  1
  Ir  Ir23  1  0.328285  0.671715  0.500000  1
  Ir  Ir24  1  0.328271  0.671728  0.000000  1
  Ir  Ir25  1  0.671729  0.328272  0.000000  1
  Ir  Ir26  1  0.000000  0.000000  0.000000  1
  Au  Au27  1  0.000000  0.000000  0.500000  1
