# generated using pymatgen
data_Dy4B4Ir9Pt
_symmetry_space_group_name_H-M   'P 1'
_cell_length_a   10.99087946
_cell_length_b   10.99087947
_cell_length_c   10.99087952
_cell_angle_alpha   28.98714809
_cell_angle_beta   28.98714634
_cell_angle_gamma   28.98715233
_symmetry_Int_Tables_number   1
_chemical_formula_structural   Dy4B4Ir9Pt
_chemical_formula_sum   'Dy4 B4 Ir9 Pt1'
_cell_volume   275.78670725
_cell_formula_units_Z   1
loop_
 _symmetry_equiv_pos_site_id
 _symmetry_equiv_pos_as_xyz
  1  'x, y, z'
loop_
 _atom_site_type_symbol
 _atom_site_label
 _atom_site_symmetry_multiplicity
 _atom_site_fract_x
 _atom_site_fract_y
 _atom_site_fract_z
 _atom_site_occupancy
  Dy  Dy0  1  0.151699  0.151699  0.151699  1
  Dy  Dy1  1  0.950182  0.950182  0.950182  1
  Dy  Dy2  1  0.848301  0.848301  0.848301  1
  Dy  Dy3  1  0.049818  0.049818  0.049818  1
  B  B4  1  0.617678  0.617678  0.617678  1
  B  B5  1  0.716609  0.716609  0.716609  1
  B  B6  1  0.382322  0.382322  0.382322  1
  B  B7  1  0.283391  0.283391  0.283391  1
  Ir  Ir8  1  0.406591  0.900182  0.406591  1
  Ir  Ir9  1  0.900182  0.406591  0.406591  1
  Ir  Ir10  1  0.500000  0.500000  0.000000  1
  Ir  Ir11  1  0.500000  0.000000  0.500000  1
  Ir  Ir12  1  0.000000  0.500000  0.500000  1
  Ir  Ir13  1  0.593409  0.099818  0.593409  1
  Ir  Ir14  1  0.593409  0.593409  0.099818  1
  Ir  Ir15  1  0.099818  0.593409  0.593409  1
  Ir  Ir16  1  0.406591  0.406591  0.900182  1
  Pt  Pt17  1  0.500000  0.500000  0.500000  1
