# generated using pymatgen
data_Sm8GeAsBr12
_symmetry_space_group_name_H-M   'P 1'
_cell_length_a   4.15501800
_cell_length_b   13.50223849
_cell_length_c   14.29984757
_cell_angle_alpha   89.82657019
_cell_angle_beta   90.00000000
_cell_angle_gamma   90.00000000
_symmetry_Int_Tables_number   1
_chemical_formula_structural   Sm8GeAsBr12
_chemical_formula_sum   'Sm8 Ge1 As1 Br12'
_cell_volume   802.24700200
_cell_formula_units_Z   1
loop_
 _symmetry_equiv_pos_site_id
 _symmetry_equiv_pos_as_xyz
  1  'x, y, z'
loop_
 _atom_site_type_symbol
 _atom_site_label
 _atom_site_symmetry_multiplicity
 _atom_site_fract_x
 _atom_site_fract_y
 _atom_site_fract_z
 _atom_site_occupancy
  Sm  Sm0  1  0.500000  0.118858  0.340269  1
  Sm  Sm1  1  0.500000  0.881142  0.659731  1
  Sm  Sm2  1  0.500000  0.619566  0.160709  1
  Sm  Sm3  1  0.500000  0.380434  0.839291  1
  Sm  Sm4  1  0.000000  0.117982  0.578217  1
  Sm  Sm5  1  0.000000  0.882018  0.421783  1
  Sm  Sm6  1  0.000000  0.620055  0.920299  1
  Sm  Sm7  1  0.000000  0.379945  0.079701  1
  Ge  Ge8  1  0.500000  0.500000  0.000000  1
  As  As9  1  0.500000  0.000000  0.500000  1
  Br  Br10  1  0.500000  0.243518  0.162670  1
  Br  Br11  1  0.500000  0.756482  0.837330  1
  Br  Br12  1  0.500000  0.743770  0.337578  1
  Br  Br13  1  0.500000  0.256230  0.662422  1
  Br  Br14  1  0.000000  0.255075  0.411697  1
  Br  Br15  1  0.000000  0.744925  0.588303  1
  Br  Br16  1  0.000000  0.755353  0.088473  1
  Br  Br17  1  0.000000  0.244647  0.911527  1
  Br  Br18  1  0.000000  0.001283  0.243605  1
  Br  Br19  1  0.000000  0.998717  0.756395  1
  Br  Br20  1  0.000000  0.501379  0.256756  1
  Br  Br21  1  0.000000  0.498621  0.743244  1
