# generated using pymatgen
data_Ho2Ga3Tc14C3
_symmetry_space_group_name_H-M   'P 1'
_cell_length_a   6.94623032
_cell_length_b   6.94623069
_cell_length_c   6.94622926
_cell_angle_alpha   82.25881242
_cell_angle_beta   82.25881151
_cell_angle_gamma   82.25880854
_symmetry_Int_Tables_number   1
_chemical_formula_structural   Ho2Ga3Tc14C3
_chemical_formula_sum   'Ho2 Ga3 Tc14 C3'
_cell_volume   326.74855523
_cell_formula_units_Z   1
loop_
 _symmetry_equiv_pos_site_id
 _symmetry_equiv_pos_as_xyz
  1  'x, y, z'
loop_
 _atom_site_type_symbol
 _atom_site_label
 _atom_site_symmetry_multiplicity
 _atom_site_fract_x
 _atom_site_fract_y
 _atom_site_fract_z
 _atom_site_occupancy
  Ho  Ho0  1  0.656230  0.656230  0.656230  1
  Ho  Ho1  1  0.343770  0.343770  0.343770  1
  Ga  Ga2  1  0.000000  0.000000  0.500000  1
  Ga  Ga3  1  0.500000  0.000000  0.000000  1
  Ga  Ga4  1  0.000000  0.500000  0.000000  1
  Tc  Tc5  1  0.722958  0.277042  0.000000  1
  Tc  Tc6  1  0.000000  0.722958  0.277042  1
  Tc  Tc7  1  0.277042  0.000000  0.722958  1
  Tc  Tc8  1  0.000000  0.277042  0.722958  1
  Tc  Tc9  1  0.722958  0.000000  0.277042  1
  Tc  Tc10  1  0.277042  0.722958  0.000000  1
  Tc  Tc11  1  0.352066  0.848398  0.352066  1
  Tc  Tc12  1  0.352066  0.352066  0.848398  1
  Tc  Tc13  1  0.848398  0.352066  0.352066  1
  Tc  Tc14  1  0.647934  0.151602  0.647934  1
  Tc  Tc15  1  0.647934  0.647934  0.151602  1
  Tc  Tc16  1  0.151602  0.647934  0.647934  1
  Tc  Tc17  1  0.904201  0.904201  0.904201  1
  Tc  Tc18  1  0.095799  0.095799  0.095799  1
  C  C19  1  0.500000  0.500000  0.000000  1
  C  C20  1  0.000000  0.500000  0.500000  1
  C  C21  1  0.500000  0.000000  0.500000  1
