# generated using pymatgen
data_Tb2PaFe2
_symmetry_space_group_name_H-M   'P 1'
_cell_length_a   5.95780571
_cell_length_b   5.95780394
_cell_length_c   5.95780523
_cell_angle_alpha   143.53728421
_cell_angle_beta   122.48211903
_cell_angle_gamma   70.04510975
_symmetry_Int_Tables_number   1
_chemical_formula_structural   Tb2PaFe2
_chemical_formula_sum   'Tb2 Pa1 Fe2'
_cell_volume   104.27131295
_cell_formula_units_Z   1
loop_
 _symmetry_equiv_pos_site_id
 _symmetry_equiv_pos_as_xyz
  1  'x, y, z'
loop_
 _atom_site_type_symbol
 _atom_site_label
 _atom_site_symmetry_multiplicity
 _atom_site_fract_x
 _atom_site_fract_y
 _atom_site_fract_z
 _atom_site_occupancy
  Tb  Tb0  1  0.301684  0.801684  0.500000  1
  Tb  Tb1  1  0.698316  0.198316  0.500000  1
  Pa  Pa2  1  0.000000  0.000000  0.000000  1
  Fe  Fe3  1  0.293496  0.500000  0.793496  1
  Fe  Fe4  1  0.706504  0.500000  0.206504  1
