# generated using pymatgen
data_K4Rb8Al3GaSe12
_symmetry_space_group_name_H-M   'P 1'
_cell_length_a   13.44633294
_cell_length_b   8.33742529
_cell_length_c   10.86987503
_cell_angle_alpha   52.72853534
_cell_angle_beta   90.09833909
_cell_angle_gamma   89.96003278
_symmetry_Int_Tables_number   1
_chemical_formula_structural   K4Rb8Al3GaSe12
_chemical_formula_sum   'K4 Rb8 Al3 Ga1 Se12'
_cell_volume   969.72610233
_cell_formula_units_Z   1
loop_
 _symmetry_equiv_pos_site_id
 _symmetry_equiv_pos_as_xyz
  1  'x, y, z'
loop_
 _atom_site_type_symbol
 _atom_site_label
 _atom_site_symmetry_multiplicity
 _atom_site_fract_x
 _atom_site_fract_y
 _atom_site_fract_z
 _atom_site_occupancy
  K  K0  1  0.620851  0.370159  0.476318  1
  K  K1  1  0.120910  0.628407  0.024137  1
  K  K2  1  0.379341  0.629060  0.523905  1
  K  K3  1  0.879289  0.371547  0.975625  1
  Rb  Rb4  1  0.909633  0.339720  0.393707  1
  Rb  Rb5  1  0.409229  0.660183  0.106102  1
  Rb  Rb6  1  0.090544  0.660235  0.606432  1
  Rb  Rb7  1  0.590390  0.339177  0.894003  1
  Rb  Rb8  1  0.190093  0.137077  0.581526  1
  Rb  Rb9  1  0.690371  0.863826  0.918309  1
  Rb  Rb10  1  0.809099  0.863236  0.418707  1
  Rb  Rb11  1  0.309744  0.137163  0.081287  1
  Al  Al12  1  0.939786  0.060592  0.842401  1
  Al  Al13  1  0.439607  0.938782  0.658525  1
  Al  Al14  1  0.060217  0.939339  0.157621  1
  Ga  Ga15  1  0.560783  0.062120  0.339977  1
  Se  Se16  1  0.393600  0.150498  0.380626  1
  Se  Se17  1  0.895095  0.849778  0.120284  1
  Se  Se18  1  0.604958  0.847912  0.623361  1
  Se  Se19  1  0.104868  0.150177  0.879733  1
  Se  Se20  1  0.677144  0.341412  0.195479  1
  Se  Se21  1  0.175417  0.662563  0.302778  1
  Se  Se22  1  0.324559  0.662472  0.802949  1
  Se  Se23  1  0.824586  0.337460  0.697183  1
  Se  Se24  1  0.550570  0.864236  0.246025  1
  Se  Se25  1  0.050524  0.132811  0.252650  1
  Se  Se26  1  0.449368  0.132967  0.752974  1
  Se  Se27  1  0.949426  0.867090  0.747375  1
