# generated using pymatgen
data_Li3Er4HfPt4
_symmetry_space_group_name_H-M   'P 1'
_cell_length_a   4.07637800
_cell_length_b   7.02515553
_cell_length_c   8.57192910
_cell_angle_alpha   87.53139367
_cell_angle_beta   90.00000000
_cell_angle_gamma   90.00000000
_symmetry_Int_Tables_number   1
_chemical_formula_structural   Li3Er4HfPt4
_chemical_formula_sum   'Li3 Er4 Hf1 Pt4'
_cell_volume   245.24814894
_cell_formula_units_Z   1
loop_
 _symmetry_equiv_pos_site_id
 _symmetry_equiv_pos_as_xyz
  1  'x, y, z'
loop_
 _atom_site_type_symbol
 _atom_site_label
 _atom_site_symmetry_multiplicity
 _atom_site_fract_x
 _atom_site_fract_y
 _atom_site_fract_z
 _atom_site_occupancy
  Li  Li0  1  0.250000  0.369531  0.560180  1
  Li  Li1  1  0.250000  0.858182  0.929776  1
  Li  Li2  1  0.750000  0.626526  0.444343  1
  Er  Er3  1  0.250000  0.949855  0.332133  1
  Er  Er4  1  0.250000  0.474985  0.190004  1
  Er  Er5  1  0.750000  0.036026  0.672837  1
  Er  Er6  1  0.750000  0.548244  0.819139  1
  Hf  Hf7  1  0.750000  0.128355  0.055901  1
  Pt  Pt8  1  0.250000  0.257729  0.886789  1
  Pt  Pt9  1  0.250000  0.749815  0.625688  1
  Pt  Pt10  1  0.750000  0.757053  0.122295  1
  Pt  Pt11  1  0.750000  0.243700  0.360916  1
