# generated using pymatgen
data_MgCo3(IrO3)8
_symmetry_space_group_name_H-M   'P 1'
_cell_length_a   4.57194400
_cell_length_b   10.43825498
_cell_length_c   9.14198600
_cell_angle_alpha   64.03258175
_cell_angle_beta   90.05356194
_cell_angle_gamma   90.02293117
_symmetry_Int_Tables_number   1
_chemical_formula_structural   MgCo3(IrO3)8
_chemical_formula_sum   'Mg1 Co3 Ir8 O24'
_cell_volume   392.23804775
_cell_formula_units_Z   1
loop_
 _symmetry_equiv_pos_site_id
 _symmetry_equiv_pos_as_xyz
  1  'x, y, z'
loop_
 _atom_site_type_symbol
 _atom_site_label
 _atom_site_symmetry_multiplicity
 _atom_site_fract_x
 _atom_site_fract_y
 _atom_site_fract_z
 _atom_site_occupancy
  Mg  Mg0  1  0.000029  0.333363  0.333314  1
  Co  Co1  1  0.499971  0.833345  0.833309  1
  Co  Co2  1  0.999986  0.333320  0.833342  1
  Co  Co3  1  0.500020  0.833333  0.333341  1
  Ir  Ir4  1  0.997291  0.001033  0.497879  1
  Ir  Ir5  1  0.002641  0.001755  0.001168  1
  Ir  Ir6  1  0.002726  0.665649  0.168775  1
  Ir  Ir7  1  0.997330  0.664896  0.665509  1
  Ir  Ir8  1  0.503843  0.164035  0.164481  1
  Ir  Ir9  1  0.495974  0.166588  0.669904  1
  Ir  Ir10  1  0.504020  0.500070  0.996765  1
  Ir  Ir11  1  0.496175  0.502617  0.502196  1
  O  O12  1  0.186427  0.833208  0.677014  1
  O  O13  1  0.198258  0.833230  0.181088  1
  O  O14  1  0.319685  0.332205  0.174877  1
  O  O15  1  0.299725  0.334095  0.681816  1
  O  O16  1  0.700251  0.332541  0.984850  1
  O  O17  1  0.680363  0.334443  0.491803  1
  O  O18  1  0.813489  0.833490  0.989668  1
  O  O19  1  0.801780  0.833460  0.485556  1
  O  O20  1  0.192883  0.171232  0.010821  1
  O  O21  1  0.199150  0.162623  0.517978  1
  O  O22  1  0.195124  0.495830  0.844835  1
  O  O23  1  0.196756  0.503735  0.351357  1
  O  O24  1  0.305440  0.996675  0.345146  1
  O  O25  1  0.303123  0.003137  0.849995  1
  O  O26  1  0.301411  0.661800  0.016305  1
  O  O27  1  0.308455  0.672077  0.511611  1
  O  O28  1  0.691604  0.994609  0.155077  1
  O  O29  1  0.698526  0.004910  0.650309  1
  O  O30  1  0.696747  0.663574  0.816623  1
  O  O31  1  0.694659  0.670001  0.321554  1
  O  O32  1  0.803297  0.162941  0.315279  1
  O  O33  1  0.804786  0.170772  0.821893  1
  O  O34  1  0.800918  0.504043  0.148680  1
  O  O35  1  0.807138  0.495369  0.655876  1
