# generated using pymatgen
data_Y3Er9(Si3Ir)4
_symmetry_space_group_name_H-M   'P 1'
_cell_length_a   4.22501600
_cell_length_b   10.58267899
_cell_length_c   12.22370073
_cell_angle_alpha   90.06241426
_cell_angle_beta   90.00000000
_cell_angle_gamma   90.00000000
_symmetry_Int_Tables_number   1
_chemical_formula_structural   Y3Er9(Si3Ir)4
_chemical_formula_sum   'Y3 Er9 Si12 Ir4'
_cell_volume   546.54563691
_cell_formula_units_Z   1
loop_
 _symmetry_equiv_pos_site_id
 _symmetry_equiv_pos_as_xyz
  1  'x, y, z'
loop_
 _atom_site_type_symbol
 _atom_site_label
 _atom_site_symmetry_multiplicity
 _atom_site_fract_x
 _atom_site_fract_y
 _atom_site_fract_z
 _atom_site_occupancy
  Y  Y0  1  0.250000  0.841360  0.300867  1
  Y  Y1  1  0.750000  0.340800  0.199277  1
  Y  Y2  1  0.750000  0.158885  0.699171  1
  Er  Er3  1  0.250000  0.879604  0.020043  1
  Er  Er4  1  0.250000  0.619990  0.520645  1
  Er  Er5  1  0.750000  0.120066  0.979511  1
  Er  Er6  1  0.750000  0.380033  0.480038  1
  Er  Er7  1  0.250000  0.918535  0.603508  1
  Er  Er8  1  0.250000  0.581173  0.102942  1
  Er  Er9  1  0.750000  0.080976  0.397025  1
  Er  Er10  1  0.750000  0.419487  0.896477  1
  Er  Er11  1  0.250000  0.659858  0.800251  1
  Si  Si12  1  0.250000  0.010185  0.821643  1
  Si  Si13  1  0.250000  0.489675  0.321441  1
  Si  Si14  1  0.750000  0.989807  0.178326  1
  Si  Si15  1  0.750000  0.511149  0.679122  1
  Si  Si16  1  0.250000  0.247548  0.841299  1
  Si  Si17  1  0.250000  0.252416  0.341534  1
  Si  Si18  1  0.750000  0.752477  0.158573  1
  Si  Si19  1  0.750000  0.746908  0.659036  1
  Si  Si20  1  0.250000  0.200008  0.543126  1
  Si  Si21  1  0.250000  0.300112  0.042871  1
  Si  Si22  1  0.750000  0.799742  0.457085  1
  Si  Si23  1  0.750000  0.699463  0.955930  1
  Ir  Ir24  1  0.250000  0.390871  0.680199  1
  Ir  Ir25  1  0.250000  0.110040  0.179846  1
  Ir  Ir26  1  0.750000  0.609728  0.320136  1
  Ir  Ir27  1  0.750000  0.889103  0.820078  1
