# generated using pymatgen
data_CeTmZn2SiGe
_symmetry_space_group_name_H-M   'P 1'
_cell_length_a   4.23585500
_cell_length_b   4.23585522
_cell_length_c   15.65395700
_cell_angle_alpha   90.00000000
_cell_angle_beta   90.00000000
_cell_angle_gamma   120.00000611
_symmetry_Int_Tables_number   1
_chemical_formula_structural   CeTmZn2SiGe
_chemical_formula_sum   'Ce2 Tm2 Zn4 Si2 Ge2'
_cell_volume   243.24108618
_cell_formula_units_Z   2
loop_
 _symmetry_equiv_pos_site_id
 _symmetry_equiv_pos_as_xyz
  1  'x, y, z'
loop_
 _atom_site_type_symbol
 _atom_site_label
 _atom_site_symmetry_multiplicity
 _atom_site_fract_x
 _atom_site_fract_y
 _atom_site_fract_z
 _atom_site_occupancy
  Ce  Ce0  1  0.000000  0.000000  0.497193  1
  Ce  Ce1  1  0.000000  0.000000  0.002807  1
  Tm  Tm2  1  0.000000  0.000000  0.750000  1
  Tm  Tm3  1  0.000000  0.000000  0.250000  1
  Zn  Zn4  1  0.666667  0.333333  0.845997  1
  Zn  Zn5  1  0.666667  0.333333  0.654003  1
  Zn  Zn6  1  0.333333  0.666667  0.151456  1
  Zn  Zn7  1  0.333333  0.666667  0.348544  1
  Si  Si8  1  0.666667  0.333333  0.121733  1
  Si  Si9  1  0.666667  0.333333  0.378267  1
  Ge  Ge10  1  0.333333  0.666667  0.883309  1
  Ge  Ge11  1  0.333333  0.666667  0.616691  1
