# generated using pymatgen
data_Li8La7PrSn5BiSb2
_symmetry_space_group_name_H-M   'P 1'
_cell_length_a   9.69448266
_cell_length_b   9.69448227
_cell_length_c   7.85434100
_cell_angle_alpha   89.91504166
_cell_angle_beta   90.08495834
_cell_angle_gamma   119.98163613
_symmetry_Int_Tables_number   1
_chemical_formula_structural   Li8La7PrSn5BiSb2
_chemical_formula_sum   'Li8 La7 Pr1 Sn5 Bi1 Sb2'
_cell_volume   639.39515504
_cell_formula_units_Z   1
loop_
 _symmetry_equiv_pos_site_id
 _symmetry_equiv_pos_as_xyz
  1  'x, y, z'
loop_
 _atom_site_type_symbol
 _atom_site_label
 _atom_site_symmetry_multiplicity
 _atom_site_fract_x
 _atom_site_fract_y
 _atom_site_fract_z
 _atom_site_occupancy
  Li  Li0  1  0.833602  0.166398  0.718986  1
  Li  Li1  1  0.832019  0.666387  0.716070  1
  Li  Li2  1  0.333613  0.167981  0.716070  1
  Li  Li3  1  0.166447  0.833553  0.213642  1
  Li  Li4  1  0.169922  0.334375  0.210029  1
  Li  Li5  1  0.665625  0.830078  0.210029  1
  Li  Li6  1  0.665014  0.334986  0.332256  1
  Li  Li7  1  0.333783  0.666217  0.829954  1
  La  La8  1  0.487134  0.512866  0.507720  1
  La  La9  1  0.484855  0.973578  0.508659  1
  La  La10  1  0.026422  0.515145  0.508659  1
  La  La11  1  0.511270  0.488730  0.002742  1
  La  La12  1  0.507598  0.020330  0.001645  1
  La  La13  1  0.979670  0.492402  0.001645  1
  La  La14  1  0.001413  0.998587  0.505750  1
  Pr  Pr15  1  0.001331  0.998669  0.995981  1
  Sn  Sn16  1  0.166116  0.833884  0.770610  1
  Sn  Sn17  1  0.166145  0.332466  0.771645  1
  Sn  Sn18  1  0.667534  0.833855  0.771645  1
  Sn  Sn19  1  0.667256  0.332744  0.731718  1
  Sn  Sn20  1  0.333209  0.666791  0.232902  1
  Bi  Bi21  1  0.833569  0.166431  0.266336  1
  Sb  Sb22  1  0.833864  0.667409  0.266656  1
  Sb  Sb23  1  0.332591  0.166136  0.266656  1
