# generated using pymatgen
data_Tm8Si(Pd2Pt)8
_symmetry_space_group_name_H-M   'P 1'
_cell_length_a   8.31655200
_cell_length_b   8.32200200
_cell_length_c   8.33157700
_cell_angle_alpha   90.00061275
_cell_angle_beta   89.99814676
_cell_angle_gamma   89.99922892
_symmetry_Int_Tables_number   1
_chemical_formula_structural   Tm8Si(Pd2Pt)8
_chemical_formula_sum   'Tm8 Si1 Pd16 Pt8'
_cell_volume   576.63146334
_cell_formula_units_Z   1
loop_
 _symmetry_equiv_pos_site_id
 _symmetry_equiv_pos_as_xyz
  1  'x, y, z'
loop_
 _atom_site_type_symbol
 _atom_site_label
 _atom_site_symmetry_multiplicity
 _atom_site_fract_x
 _atom_site_fract_y
 _atom_site_fract_z
 _atom_site_occupancy
  Tm  Tm0  1  0.253343  0.253453  0.253279  1
  Tm  Tm1  1  0.746142  0.746250  0.745765  1
  Tm  Tm2  1  0.745952  0.746034  0.254098  1
  Tm  Tm3  1  0.746874  0.253268  0.746535  1
  Tm  Tm4  1  0.253126  0.253274  0.746546  1
  Tm  Tm5  1  0.254041  0.746051  0.254104  1
  Tm  Tm6  1  0.253845  0.746256  0.745772  1
  Tm  Tm7  1  0.746673  0.253446  0.253276  1
  Si  Si8  1  0.000001  0.003671  0.000175  1
  Pd  Pd9  1  0.257741  0.499921  0.000102  1
  Pd  Pd10  1  0.742256  0.499915  0.000095  1
  Pd  Pd11  1  0.000005  0.257666  0.500176  1
  Pd  Pd12  1  0.500002  0.256794  0.000028  1
  Pd  Pd13  1  0.000001  0.741593  0.500140  1
  Pd  Pd14  1  0.499999  0.741815  0.000130  1
  Pd  Pd15  1  0.500004  0.999956  0.257571  1
  Pd  Pd16  1  0.257963  0.000020  0.500168  1
  Pd  Pd17  1  0.499998  0.999999  0.742288  1
  Pd  Pd18  1  0.742034  0.000013  0.500165  1
  Pd  Pd19  1  0.000004  0.500057  0.257920  1
  Pd  Pd20  1  0.999998  0.500089  0.741928  1
  Pd  Pd21  1  0.500001  0.499916  0.747926  1
  Pd  Pd22  1  0.999993  0.721446  0.999809  1
  Pd  Pd23  1  0.000000  0.999214  0.281803  1
  Pd  Pd24  1  0.999995  0.999190  0.718521  1
  Pt  Pt25  1  0.252046  0.499846  0.500098  1
  Pt  Pt26  1  0.747960  0.499848  0.500103  1
  Pt  Pt27  1  0.499999  0.252218  0.500067  1
  Pt  Pt28  1  0.499995  0.747949  0.500129  1
  Pt  Pt29  1  0.499998  0.499794  0.251847  1
  Pt  Pt30  1  0.279895  0.998546  0.999824  1
  Pt  Pt31  1  0.720111  0.998525  0.999811  1
  Pt  Pt32  1  0.000006  0.283970  0.999801  1
