# generated using pymatgen
data_Sc2FeSi(BRu2)2
_symmetry_space_group_name_H-M   'P 1'
_cell_length_a   9.20678200
_cell_length_b   9.20678200
_cell_length_c   2.98332700
_cell_angle_alpha   90.00000000
_cell_angle_beta   90.00000000
_cell_angle_gamma   90.00000000
_symmetry_Int_Tables_number   1
_chemical_formula_structural   Sc2FeSi(BRu2)2
_chemical_formula_sum   'Sc4 Fe2 Si2 B4 Ru8'
_cell_volume   252.88122030
_cell_formula_units_Z   2
loop_
 _symmetry_equiv_pos_site_id
 _symmetry_equiv_pos_as_xyz
  1  'x, y, z'
loop_
 _atom_site_type_symbol
 _atom_site_label
 _atom_site_symmetry_multiplicity
 _atom_site_fract_x
 _atom_site_fract_y
 _atom_site_fract_z
 _atom_site_occupancy
  Sc  Sc0  1  0.175341  0.675341  0.000000  1
  Sc  Sc1  1  0.675341  0.824659  0.000000  1
  Sc  Sc2  1  0.324659  0.175341  0.000000  1
  Sc  Sc3  1  0.824659  0.324659  0.000000  1
  Fe  Fe4  1  0.000000  0.500000  0.500000  1
  Fe  Fe5  1  0.500000  0.000000  0.500000  1
  Si  Si6  1  0.000000  0.000000  0.000000  1
  Si  Si7  1  0.500000  0.500000  0.000000  1
  B  B8  1  0.383808  0.883808  0.000000  1
  B  B9  1  0.883808  0.616192  0.000000  1
  B  B10  1  0.116192  0.383808  0.000000  1
  B  B11  1  0.616192  0.116192  0.000000  1
  Ru  Ru12  1  0.284797  0.435327  0.500000  1
  Ru  Ru13  1  0.715204  0.564673  0.500000  1
  Ru  Ru14  1  0.564673  0.284797  0.500000  1
  Ru  Ru15  1  0.435327  0.715204  0.500000  1
  Ru  Ru16  1  0.935327  0.784796  0.500000  1
  Ru  Ru17  1  0.784796  0.064673  0.500000  1
  Ru  Ru18  1  0.215203  0.935327  0.500000  1
  Ru  Ru19  1  0.064673  0.215203  0.500000  1
