# generated using pymatgen
data_Ac2Er(SnPd)3
_symmetry_space_group_name_H-M   'P 1'
_cell_length_a   7.86239841
_cell_length_b   7.77125677
_cell_length_c   4.20937600
_cell_angle_alpha   90.00000000
_cell_angle_beta   90.00000000
_cell_angle_gamma   119.61727136
_symmetry_Int_Tables_number   1
_chemical_formula_structural   Ac2Er(SnPd)3
_chemical_formula_sum   'Ac2 Er1 Sn3 Pd3'
_cell_volume   223.59221784
_cell_formula_units_Z   1
loop_
 _symmetry_equiv_pos_site_id
 _symmetry_equiv_pos_as_xyz
  1  'x, y, z'
loop_
 _atom_site_type_symbol
 _atom_site_label
 _atom_site_symmetry_multiplicity
 _atom_site_fract_x
 _atom_site_fract_y
 _atom_site_fract_z
 _atom_site_occupancy
  Ac  Ac0  1  0.415798  0.417381  0.500000  1
  Ac  Ac1  1  0.584202  0.001583  0.500000  1
  Er  Er2  1  0.000000  0.590588  0.500000  1
  Sn  Sn3  1  0.764010  0.751832  0.000000  1
  Sn  Sn4  1  0.235990  0.987822  0.000000  1
  Sn  Sn5  1  0.000000  0.250991  0.000000  1
  Pd  Pd6  1  0.691908  0.350769  0.000000  1
  Pd  Pd7  1  0.308092  0.658861  0.000000  1
  Pd  Pd8  1  0.000000  0.990174  0.500000  1
