# generated using pymatgen
data_CeGa4
_symmetry_space_group_name_H-M   'P 1'
_cell_length_a   8.06365384
_cell_length_b   8.06365334
_cell_length_c   8.06365303
_cell_angle_alpha   148.41952300
_cell_angle_beta   132.59930083
_cell_angle_gamma   58.07745422
_symmetry_Int_Tables_number   1
_chemical_formula_structural   CeGa4
_chemical_formula_sum   'Ce2 Ga8'
_cell_volume   200.55902130
_cell_formula_units_Z   2
loop_
 _symmetry_equiv_pos_site_id
 _symmetry_equiv_pos_as_xyz
  1  'x, y, z'
loop_
 _atom_site_type_symbol
 _atom_site_label
 _atom_site_symmetry_multiplicity
 _atom_site_fract_x
 _atom_site_fract_y
 _atom_site_fract_z
 _atom_site_occupancy
  Ce  Ce0  1  0.636214  0.886214  0.750000  1
  Ce  Ce1  1  0.363786  0.113786  0.250000  1
  Ga  Ga2  1  0.000000  0.500000  0.500000  1
  Ga  Ga3  1  0.500000  0.500000  0.000000  1
  Ga  Ga4  1  0.857139  0.107139  0.750000  1
  Ga  Ga5  1  0.142861  0.892861  0.250000  1
  Ga  Ga6  1  0.162301  0.698210  0.464091  1
  Ga  Ga7  1  0.837699  0.301790  0.535909  1
  Ga  Ga8  1  0.265881  0.301790  0.964091  1
  Ga  Ga9  1  0.734119  0.698210  0.035909  1
