# generated using pymatgen
data_MnV(GaI4)4
_symmetry_space_group_name_H-M   'P 1'
_cell_length_a   11.50995585
_cell_length_b   11.50995638
_cell_length_c   13.66676900
_cell_angle_alpha   55.32834671
_cell_angle_beta   55.32834491
_cell_angle_gamma   49.89338981
_symmetry_Int_Tables_number   1
_chemical_formula_structural   MnV(GaI4)4
_chemical_formula_sum   'Mn1 V1 Ga4 I16'
_cell_volume   1078.33086691
_cell_formula_units_Z   1
loop_
 _symmetry_equiv_pos_site_id
 _symmetry_equiv_pos_as_xyz
  1  'x, y, z'
loop_
 _atom_site_type_symbol
 _atom_site_label
 _atom_site_symmetry_multiplicity
 _atom_site_fract_x
 _atom_site_fract_y
 _atom_site_fract_z
 _atom_site_occupancy
  Mn  Mn0  1  0.989988  0.010012  0.750000  1
  V  V1  1  0.007796  0.992204  0.250000  1
  Ga  Ga2  1  0.683954  0.155899  0.031458  1
  Ga  Ga3  1  0.321590  0.844051  0.971107  1
  Ga  Ga4  1  0.844101  0.316046  0.468542  1
  Ga  Ga5  1  0.155949  0.678410  0.528893  1
  I  I6  1  0.872047  0.837753  0.504628  1
  I  I7  1  0.127060  0.166713  0.490735  1
  I  I8  1  0.695768  0.612093  0.438806  1
  I  I9  1  0.612624  0.700225  0.953768  1
  I  I10  1  0.833287  0.872940  0.009265  1
  I  I11  1  0.864643  0.295211  0.276597  1
  I  I12  1  0.146037  0.722676  0.186337  1
  I  I13  1  0.277324  0.853963  0.313663  1
  I  I14  1  0.141669  0.694347  0.720260  1
  I  I15  1  0.299775  0.387376  0.546232  1
  I  I16  1  0.704789  0.135357  0.223403  1
  I  I17  1  0.162247  0.127953  0.995372  1
  I  I18  1  0.387907  0.304232  0.061194  1
  I  I19  1  0.305653  0.858331  0.779740  1
  I  I20  1  0.714786  0.148996  0.683670  1
  I  I21  1  0.851004  0.285214  0.816330  1
