# generated using pymatgen
data_Nd5Bi2As
_symmetry_space_group_name_H-M   'P 1'
_cell_length_a   8.31682100
_cell_length_b   9.46265700
_cell_length_c   12.60062500
_cell_angle_alpha   90.00000000
_cell_angle_beta   90.00000000
_cell_angle_gamma   90.00000000
_symmetry_Int_Tables_number   1
_chemical_formula_structural   Nd5Bi2As
_chemical_formula_sum   'Nd20 Bi8 As4'
_cell_volume   991.65941513
_cell_formula_units_Z   4
loop_
 _symmetry_equiv_pos_site_id
 _symmetry_equiv_pos_as_xyz
  1  'x, y, z'
loop_
 _atom_site_type_symbol
 _atom_site_label
 _atom_site_symmetry_multiplicity
 _atom_site_fract_x
 _atom_site_fract_y
 _atom_site_fract_z
 _atom_site_occupancy
  Nd  Nd0  1  0.811292  0.547309  0.062089  1
  Nd  Nd1  1  0.849542  0.250000  0.789015  1
  Nd  Nd2  1  0.029935  0.750000  0.498726  1
  Nd  Nd3  1  0.366081  0.250000  0.703982  1
  Nd  Nd4  1  0.188708  0.047309  0.937911  1
  Nd  Nd5  1  0.529935  0.250000  0.001274  1
  Nd  Nd6  1  0.866081  0.750000  0.796018  1
  Nd  Nd7  1  0.349542  0.750000  0.710985  1
  Nd  Nd8  1  0.311292  0.452691  0.437911  1
  Nd  Nd9  1  0.650458  0.250000  0.289015  1
  Nd  Nd10  1  0.470065  0.750000  0.998726  1
  Nd  Nd11  1  0.688708  0.547309  0.562089  1
  Nd  Nd12  1  0.970065  0.250000  0.501274  1
  Nd  Nd13  1  0.133919  0.250000  0.203982  1
  Nd  Nd14  1  0.150458  0.750000  0.210985  1
  Nd  Nd15  1  0.188708  0.452691  0.937911  1
  Nd  Nd16  1  0.811292  0.952691  0.062089  1
  Nd  Nd17  1  0.688708  0.952691  0.562089  1
  Nd  Nd18  1  0.311292  0.047309  0.437911  1
  Nd  Nd19  1  0.633919  0.750000  0.296018  1
  Bi  Bi20  1  0.077215  0.006392  0.675155  1
  Bi  Bi21  1  0.922785  0.993608  0.324845  1
  Bi  Bi22  1  0.077215  0.493608  0.675155  1
  Bi  Bi23  1  0.577215  0.993608  0.824845  1
  Bi  Bi24  1  0.422785  0.006392  0.175155  1
  Bi  Bi25  1  0.422785  0.493608  0.175155  1
  Bi  Bi26  1  0.577215  0.506392  0.824845  1
  Bi  Bi27  1  0.922785  0.506392  0.324845  1
  As  As28  1  0.422720  0.750000  0.484254  1
  As  As29  1  0.577280  0.250000  0.515746  1
  As  As30  1  0.077280  0.750000  0.984254  1
  As  As31  1  0.922720  0.250000  0.015746  1
