# generated using pymatgen
data_Tm3In3Cu2Hg
_symmetry_space_group_name_H-M   'P 1'
_cell_length_a   7.56748100
_cell_length_b   7.56748143
_cell_length_c   3.95653200
_cell_angle_alpha   90.00000000
_cell_angle_beta   90.00000000
_cell_angle_gamma   119.99999491
_symmetry_Int_Tables_number   1
_chemical_formula_structural   Tm3In3Cu2Hg
_chemical_formula_sum   'Tm3 In3 Cu2 Hg1'
_cell_volume   196.22215449
_cell_formula_units_Z   1
loop_
 _symmetry_equiv_pos_site_id
 _symmetry_equiv_pos_as_xyz
  1  'x, y, z'
loop_
 _atom_site_type_symbol
 _atom_site_label
 _atom_site_symmetry_multiplicity
 _atom_site_fract_x
 _atom_site_fract_y
 _atom_site_fract_z
 _atom_site_occupancy
  Tm  Tm0  1  0.983357  0.585353  0.500000  1
  Tm  Tm1  1  0.414647  0.398004  0.500000  1
  Tm  Tm2  1  0.601996  0.016643  0.500000  1
  In  In3  1  0.754697  0.744335  0.000000  1
  In  In4  1  0.989639  0.245303  0.000000  1
  In  In5  1  0.255665  0.010361  0.000000  1
  Cu  Cu6  1  0.000000  0.000000  0.500000  1
  Cu  Cu7  1  0.666667  0.333333  0.000000  1
  Hg  Hg8  1  0.333333  0.666667  0.000000  1
