# generated using pymatgen
data_NaCe2(Co3As2)3
_symmetry_space_group_name_H-M   'P 1'
_cell_length_a   3.85528500
_cell_length_b   10.91000900
_cell_length_c   12.64869500
_cell_angle_alpha   90.00000000
_cell_angle_beta   90.00000000
_cell_angle_gamma   90.00000000
_symmetry_Int_Tables_number   1
_chemical_formula_structural   NaCe2(Co3As2)3
_chemical_formula_sum   'Na2 Ce4 Co18 As12'
_cell_volume   532.01921484
_cell_formula_units_Z   2
loop_
 _symmetry_equiv_pos_site_id
 _symmetry_equiv_pos_as_xyz
  1  'x, y, z'
loop_
 _atom_site_type_symbol
 _atom_site_label
 _atom_site_symmetry_multiplicity
 _atom_site_fract_x
 _atom_site_fract_y
 _atom_site_fract_z
 _atom_site_occupancy
  Na  Na0  1  0.000000  0.681394  0.793792  1
  Na  Na1  1  0.000000  0.318606  0.793792  1
  Ce  Ce2  1  0.000000  0.500000  0.532080  1
  Ce  Ce3  1  0.500000  0.000000  0.474608  1
  Ce  Ce4  1  0.500000  0.816291  0.207726  1
  Ce  Ce5  1  0.500000  0.183709  0.207726  1
  Co  Co6  1  0.500000  0.500000  0.156000  1
  Co  Co7  1  0.000000  0.000000  0.849364  1
  Co  Co8  1  0.500000  0.500000  0.691945  1
  Co  Co9  1  0.000000  0.000000  0.300121  1
  Co  Co10  1  0.000000  0.500000  0.980012  1
  Co  Co11  1  0.500000  0.000000  0.011735  1
  Co  Co12  1  0.500000  0.334730  0.994872  1
  Co  Co13  1  0.500000  0.665270  0.994872  1
  Co  Co14  1  0.000000  0.168112  0.003445  1
  Co  Co15  1  0.000000  0.831888  0.003445  1
  Co  Co16  1  0.500000  0.302237  0.431452  1
  Co  Co17  1  0.500000  0.697763  0.431452  1
  Co  Co18  1  0.000000  0.196860  0.573025  1
  Co  Co19  1  0.000000  0.803140  0.573025  1
  Co  Co20  1  0.500000  0.883339  0.708749  1
  Co  Co21  1  0.500000  0.116661  0.708749  1
  Co  Co22  1  0.000000  0.618978  0.289539  1
  Co  Co23  1  0.000000  0.381022  0.289539  1
  As  As24  1  0.500000  0.500000  0.874386  1
  As  As25  1  0.000000  0.000000  0.115856  1
  As  As26  1  0.500000  0.500000  0.345441  1
  As  As27  1  0.000000  0.000000  0.660042  1
  As  As28  1  0.500000  0.305757  0.619694  1
  As  As29  1  0.500000  0.694243  0.619694  1
  As  As30  1  0.000000  0.193209  0.387907  1
  As  As31  1  0.000000  0.806791  0.387907  1
  As  As32  1  0.500000  0.843329  0.889421  1
  As  As33  1  0.500000  0.156671  0.889421  1
  As  As34  1  0.000000  0.649777  0.104582  1
  As  As35  1  0.000000  0.350223  0.104582  1
