# generated using pymatgen
data_YBi3(PSe4)4
_symmetry_space_group_name_H-M   'P 1'
_cell_length_a   7.07247806
_cell_length_b   9.52284162
_cell_length_c   13.75894500
_cell_angle_alpha   59.22328820
_cell_angle_beta   89.96855912
_cell_angle_gamma   89.97059701
_symmetry_Int_Tables_number   1
_chemical_formula_structural   YBi3(PSe4)4
_chemical_formula_sum   'Y1 Bi3 P4 Se16'
_cell_volume   796.16171732
_cell_formula_units_Z   1
loop_
 _symmetry_equiv_pos_site_id
 _symmetry_equiv_pos_as_xyz
  1  'x, y, z'
loop_
 _atom_site_type_symbol
 _atom_site_label
 _atom_site_symmetry_multiplicity
 _atom_site_fract_x
 _atom_site_fract_y
 _atom_site_fract_z
 _atom_site_occupancy
  Y  Y0  1  0.177954  0.555733  0.335800  1
  Bi  Bi1  1  0.337218  0.565672  0.831662  1
  Bi  Bi2  1  0.835037  0.436413  0.665761  1
  Bi  Bi3  1  0.661837  0.439125  0.164007  1
  P  P4  1  0.229783  0.683724  0.044781  1
  P  P5  1  0.735289  0.322476  0.456080  1
  P  P6  1  0.766030  0.314561  0.957189  1
  P  P7  1  0.264231  0.682790  0.540659  1
  Se  Se8  1  0.230866  0.419350  0.587187  1
  Se  Se9  1  0.731411  0.579007  0.910310  1
  Se  Se10  1  0.777508  0.584125  0.408428  1
  Se  Se11  1  0.269831  0.420676  0.090180  1
  Se  Se12  1  0.253848  0.837799  0.356217  1
  Se  Se13  1  0.755761  0.157268  0.142324  1
  Se  Se14  1  0.741386  0.158363  0.640493  1
  Se  Se15  1  0.245717  0.843096  0.859651  1
  Se  Se16  1  0.531685  0.723125  0.611164  1
  Se  Se17  1  0.033557  0.276175  0.886991  1
  Se  Se18  1  0.461476  0.284902  0.386604  1
  Se  Se19  1  0.965528  0.716246  0.119159  1
  Se  Se20  1  0.044146  0.736318  0.634210  1
  Se  Se21  1  0.544417  0.262164  0.864403  1
  Se  Se22  1  0.957317  0.267391  0.364936  1
  Se  Se23  1  0.448166  0.733503  0.141800  1
