# generated using pymatgen
data_Pr16Er4Ru5Pt7
_symmetry_space_group_name_H-M   'P 1'
_cell_length_a   11.38634242
_cell_length_b   11.38634165
_cell_length_c   6.52756500
_cell_angle_alpha   90.11621856
_cell_angle_beta   90.11621855
_cell_angle_gamma   90.09648369
_symmetry_Int_Tables_number   1
_chemical_formula_structural   Pr16Er4Ru5Pt7
_chemical_formula_sum   'Pr16 Er4 Ru5 Pt7'
_cell_volume   846.28618318
_cell_formula_units_Z   1
loop_
 _symmetry_equiv_pos_site_id
 _symmetry_equiv_pos_as_xyz
  1  'x, y, z'
loop_
 _atom_site_type_symbol
 _atom_site_label
 _atom_site_symmetry_multiplicity
 _atom_site_fract_x
 _atom_site_fract_y
 _atom_site_fract_z
 _atom_site_occupancy
  Pr  Pr0  1  0.294290  0.085635  0.375672  1
  Pr  Pr1  1  0.294005  0.909506  0.876069  1
  Pr  Pr2  1  0.705834  0.085633  0.875536  1
  Pr  Pr3  1  0.705586  0.913375  0.374816  1
  Pr  Pr4  1  0.582056  0.791129  0.875556  1
  Pr  Pr5  1  0.586002  0.207510  0.376738  1
  Pr  Pr6  1  0.411412  0.789853  0.382485  1
  Pr  Pr7  1  0.413614  0.205367  0.876163  1
  Pr  Pr8  1  0.208871  0.417944  0.624444  1
  Pr  Pr9  1  0.210147  0.588588  0.117515  1
  Pr  Pr10  1  0.792490  0.413998  0.123262  1
  Pr  Pr11  1  0.794633  0.586386  0.623837  1
  Pr  Pr12  1  0.914365  0.705710  0.124328  1
  Pr  Pr13  1  0.914367  0.294166  0.624464  1
  Pr  Pr14  1  0.090494  0.705995  0.623931  1
  Pr  Pr15  1  0.086625  0.294414  0.125184  1
  Er  Er16  1  0.000037  0.999713  0.500501  1
  Er  Er17  1  0.000287  0.999963  0.999499  1
  Er  Er18  1  0.497546  0.501544  0.998212  1
  Er  Er19  1  0.498456  0.502454  0.501788  1
  Ru  Ru20  1  0.354338  0.645662  0.750000  1
  Ru  Ru21  1  0.500569  0.000886  0.118769  1
  Ru  Ru22  1  0.500130  0.001375  0.616169  1
  Ru  Ru23  1  0.998625  0.499870  0.883831  1
  Ru  Ru24  1  0.999114  0.499431  0.381231  1
  Pt  Pt25  1  0.855151  0.144849  0.250000  1
  Pt  Pt26  1  0.854424  0.855071  0.750079  1
  Pt  Pt27  1  0.144929  0.145576  0.749921  1
  Pt  Pt28  1  0.144558  0.855442  0.250000  1
  Pt  Pt29  1  0.645724  0.354276  0.750000  1
  Pt  Pt30  1  0.647494  0.646172  0.250288  1
  Pt  Pt31  1  0.353828  0.352506  0.249712  1
