# generated using pymatgen
data_La4PrNd(CBr5)2
_symmetry_space_group_name_H-M   'P 1'
_cell_length_a   7.78361799
_cell_length_b   9.30552651
_cell_length_c   9.37072146
_cell_angle_alpha   108.35598203
_cell_angle_beta   97.55747294
_cell_angle_gamma   105.79860068
_symmetry_Int_Tables_number   1
_chemical_formula_structural   La4PrNd(CBr5)2
_chemical_formula_sum   'La4 Pr1 Nd1 C2 Br10'
_cell_volume   602.06276244
_cell_formula_units_Z   1
loop_
 _symmetry_equiv_pos_site_id
 _symmetry_equiv_pos_as_xyz
  1  'x, y, z'
loop_
 _atom_site_type_symbol
 _atom_site_label
 _atom_site_symmetry_multiplicity
 _atom_site_fract_x
 _atom_site_fract_y
 _atom_site_fract_z
 _atom_site_occupancy
  La  La0  1  0.113902  0.044185  0.767990  1
  La  La1  1  0.028466  0.716979  0.916669  1
  La  La2  1  0.973156  0.284135  0.086824  1
  La  La3  1  0.608102  0.845433  0.796632  1
  Pr  Pr4  1  0.387432  0.151114  0.200914  1
  Nd  Nd5  1  0.889051  0.957968  0.229034  1
  C  C6  1  0.907884  0.965843  0.953242  1
  C  C7  1  0.089638  0.033739  0.045177  1
  Br  Br8  1  0.749372  0.915025  0.533060  1
  Br  Br9  1  0.249225  0.085045  0.462664  1
  Br  Br10  1  0.460028  0.823008  0.087509  1
  Br  Br11  1  0.543313  0.180484  0.918502  1
  Br  Br12  1  0.820168  0.264724  0.359129  1
  Br  Br13  1  0.177806  0.729240  0.638815  1
  Br  Br14  1  0.907934  0.632233  0.178230  1
  Br  Br15  1  0.091417  0.373602  0.824540  1
  Br  Br16  1  0.649353  0.528587  0.719759  1
  Br  Br17  1  0.353753  0.468656  0.281311  1
