# generated using pymatgen
data_Y2HoCd3Ge2Au
_symmetry_space_group_name_H-M   'P 1'
_cell_length_a   7.33743425
_cell_length_b   7.33743329
_cell_length_c   4.33611300
_cell_angle_alpha   90.00000000
_cell_angle_beta   90.00000000
_cell_angle_gamma   119.96995857
_symmetry_Int_Tables_number   1
_chemical_formula_structural   Y2HoCd3Ge2Au
_chemical_formula_sum   'Y2 Ho1 Cd3 Ge2 Au1'
_cell_volume   202.23252333
_cell_formula_units_Z   1
loop_
 _symmetry_equiv_pos_site_id
 _symmetry_equiv_pos_as_xyz
  1  'x, y, z'
loop_
 _atom_site_type_symbol
 _atom_site_label
 _atom_site_symmetry_multiplicity
 _atom_site_fract_x
 _atom_site_fract_y
 _atom_site_fract_z
 _atom_site_occupancy
  Y  Y0  1  0.584065  0.999760  0.000000  1
  Y  Y1  1  0.999760  0.584065  0.000000  1
  Ho  Ho2  1  0.415063  0.415063  0.000000  1
  Cd  Cd3  1  0.250962  0.000166  0.500000  1
  Cd  Cd4  1  0.000166  0.250962  0.500000  1
  Cd  Cd5  1  0.748845  0.748845  0.500000  1
  Ge  Ge6  1  0.333736  0.665576  0.500000  1
  Ge  Ge7  1  0.665576  0.333736  0.500000  1
  Au  Au8  1  0.001827  0.001827  0.000000  1
