# generated using pymatgen
data_YbGdDy2(B6Os)2
_symmetry_space_group_name_H-M   'P 1'
_cell_length_a   3.65869400
_cell_length_b   9.17744573
_cell_length_c   11.57137173
_cell_angle_alpha   89.81694771
_cell_angle_beta   90.00000000
_cell_angle_gamma   90.00000000
_symmetry_Int_Tables_number   1
_chemical_formula_structural   YbGdDy2(B6Os)2
_chemical_formula_sum   'Yb2 Gd2 Dy4 B24 Os4'
_cell_volume   388.53535387
_cell_formula_units_Z   2
loop_
 _symmetry_equiv_pos_site_id
 _symmetry_equiv_pos_as_xyz
  1  'x, y, z'
loop_
 _atom_site_type_symbol
 _atom_site_label
 _atom_site_symmetry_multiplicity
 _atom_site_fract_x
 _atom_site_fract_y
 _atom_site_fract_z
 _atom_site_occupancy
  Yb  Yb0  1  0.000000  0.325154  0.414542  1
  Yb  Yb1  1  0.000000  0.674846  0.585458  1
  Gd  Gd2  1  0.000000  0.822638  0.086753  1
  Gd  Gd3  1  0.000000  0.177362  0.913247  1
  Dy  Dy4  1  0.000000  0.942046  0.370771  1
  Dy  Dy5  1  0.000000  0.057954  0.629229  1
  Dy  Dy6  1  0.000000  0.443050  0.130657  1
  Dy  Dy7  1  0.000000  0.556950  0.869343  1
  B  B8  1  0.500000  0.553721  0.432827  1
  B  B9  1  0.500000  0.446279  0.567173  1
  B  B10  1  0.500000  0.053949  0.067628  1
  B  B11  1  0.500000  0.946051  0.932372  1
  B  B12  1  0.500000  0.747114  0.418586  1
  B  B13  1  0.500000  0.252886  0.581414  1
  B  B14  1  0.500000  0.247950  0.081908  1
  B  B15  1  0.500000  0.752050  0.918092  1
  B  B16  1  0.500000  0.790396  0.266196  1
  B  B17  1  0.500000  0.209604  0.733804  1
  B  B18  1  0.500000  0.290171  0.234546  1
  B  B19  1  0.500000  0.709829  0.765454  1
  B  B20  1  0.500000  0.631500  0.186465  1
  B  B21  1  0.500000  0.368500  0.813535  1
  B  B22  1  0.500000  0.131516  0.314042  1
  B  B23  1  0.500000  0.868484  0.685958  1
  B  B24  1  0.500000  0.984155  0.212383  1
  B  B25  1  0.500000  0.015845  0.787617  1
  B  B26  1  0.500000  0.484126  0.288738  1
  B  B27  1  0.500000  0.515874  0.711262  1
  B  B28  1  0.500000  0.603756  0.028698  1
  B  B29  1  0.500000  0.396244  0.971302  1
  B  B30  1  0.500000  0.100988  0.471912  1
  B  B31  1  0.500000  0.899011  0.528088  1
  Os  Os32  1  0.000000  0.639196  0.320016  1
  Os  Os33  1  0.000000  0.360804  0.679984  1
  Os  Os34  1  0.000000  0.137478  0.178493  1
  Os  Os35  1  0.000000  0.862522  0.821507  1
