# generated using pymatgen
data_Zn4Sb(PN2)6
_symmetry_space_group_name_H-M   'P 1'
_cell_length_a   7.26333170
_cell_length_b   7.26333220
_cell_length_c   7.26333200
_cell_angle_alpha   109.47121449
_cell_angle_beta   109.47121589
_cell_angle_gamma   109.47122792
_symmetry_Int_Tables_number   1
_chemical_formula_structural   Zn4Sb(PN2)6
_chemical_formula_sum   'Zn4 Sb1 P6 N12'
_cell_volume   294.97540781
_cell_formula_units_Z   1
loop_
 _symmetry_equiv_pos_site_id
 _symmetry_equiv_pos_as_xyz
  1  'x, y, z'
loop_
 _atom_site_type_symbol
 _atom_site_label
 _atom_site_symmetry_multiplicity
 _atom_site_fract_x
 _atom_site_fract_y
 _atom_site_fract_z
 _atom_site_occupancy
  Zn  Zn0  1  0.000000  0.361174  0.000000  1
  Zn  Zn1  1  0.638826  0.638826  0.638826  1
  Zn  Zn2  1  0.361174  0.000000  0.000000  1
  Zn  Zn3  1  0.000000  0.000000  0.361174  1
  Sb  Sb4  1  0.000000  0.000000  0.000000  1
  P  P5  1  0.750000  0.250000  0.500000  1
  P  P6  1  0.250000  0.750000  0.500000  1
  P  P7  1  0.500000  0.750000  0.250000  1
  P  P8  1  0.500000  0.250000  0.750000  1
  P  P9  1  0.750000  0.500000  0.250000  1
  P  P10  1  0.250000  0.500000  0.750000  1
  N  N11  1  0.561128  0.275980  0.000000  1
  N  N12  1  0.438872  0.438872  0.714852  1
  N  N13  1  0.000000  0.275980  0.561128  1
  N  N14  1  0.275980  0.000000  0.561128  1
  N  N15  1  0.714852  0.438872  0.438872  1
  N  N16  1  0.000000  0.561128  0.275980  1
  N  N17  1  0.561128  0.000000  0.275980  1
  N  N18  1  0.438872  0.714852  0.438872  1
  N  N19  1  0.275980  0.561128  0.000000  1
  N  N20  1  0.724020  0.285148  0.724020  1
  N  N21  1  0.724020  0.724020  0.285148  1
  N  N22  1  0.285148  0.724020  0.724020  1
