# generated using pymatgen
data_Tb20Ir8Ru3Rh
_symmetry_space_group_name_H-M   'P 1'
_cell_length_a   10.87271800
_cell_length_b   10.87271800
_cell_length_c   6.45356300
_cell_angle_alpha   90.00000000
_cell_angle_beta   90.00000000
_cell_angle_gamma   90.00000000
_symmetry_Int_Tables_number   1
_chemical_formula_structural   Tb20Ir8Ru3Rh
_chemical_formula_sum   'Tb20 Ir8 Ru3 Rh1'
_cell_volume   762.91438236
_cell_formula_units_Z   1
loop_
 _symmetry_equiv_pos_site_id
 _symmetry_equiv_pos_as_xyz
  1  'x, y, z'
loop_
 _atom_site_type_symbol
 _atom_site_label
 _atom_site_symmetry_multiplicity
 _atom_site_fract_x
 _atom_site_fract_y
 _atom_site_fract_z
 _atom_site_occupancy
  Tb  Tb0  1  0.291987  0.087741  0.381319  1
  Tb  Tb1  1  0.291646  0.912231  0.876813  1
  Tb  Tb2  1  0.708354  0.087769  0.876813  1
  Tb  Tb3  1  0.708013  0.912259  0.381319  1
  Tb  Tb4  1  0.587769  0.791646  0.876813  1
  Tb  Tb5  1  0.587741  0.208013  0.381319  1
  Tb  Tb6  1  0.412259  0.791987  0.381319  1
  Tb  Tb7  1  0.412231  0.208354  0.876813  1
  Tb  Tb8  1  0.206362  0.413346  0.620905  1
  Tb  Tb9  1  0.206355  0.586878  0.121072  1
  Tb  Tb10  1  0.793645  0.413122  0.121072  1
  Tb  Tb11  1  0.793638  0.586654  0.620905  1
  Tb  Tb12  1  0.913122  0.706355  0.121072  1
  Tb  Tb13  1  0.913346  0.293638  0.620905  1
  Tb  Tb14  1  0.086654  0.706362  0.620905  1
  Tb  Tb15  1  0.086878  0.293645  0.121072  1
  Tb  Tb16  1  0.000000  0.000000  0.500468  1
  Tb  Tb17  1  0.000000  0.000000  0.000740  1
  Tb  Tb18  1  0.500000  0.500000  0.000740  1
  Tb  Tb19  1  0.500000  0.500000  0.500468  1
  Ir  Ir20  1  0.846637  0.151825  0.249567  1
  Ir  Ir21  1  0.846866  0.847754  0.750140  1
  Ir  Ir22  1  0.153134  0.152246  0.750140  1
  Ir  Ir23  1  0.153363  0.848175  0.249567  1
  Ir  Ir24  1  0.652246  0.346866  0.750140  1
  Ir  Ir25  1  0.651825  0.653363  0.249567  1
  Ir  Ir26  1  0.348175  0.346637  0.249567  1
  Ir  Ir27  1  0.347754  0.653134  0.750140  1
  Ru  Ru28  1  0.500000  0.000000  0.621412  1
  Ru  Ru29  1  0.000000  0.500000  0.878028  1
  Ru  Ru30  1  0.000000  0.500000  0.377770  1
  Rh  Rh31  1  0.500000  0.000000  0.121114  1
