# generated using pymatgen
data_Si4Ni17Se4
_symmetry_space_group_name_H-M   'P 1'
_cell_length_a   3.55644300
_cell_length_b   3.55644300
_cell_length_c   25.07033900
_cell_angle_alpha   90.00000000
_cell_angle_beta   90.00000000
_cell_angle_gamma   90.00000000
_symmetry_Int_Tables_number   1
_chemical_formula_structural   Si4Ni17Se4
_chemical_formula_sum   'Si4 Ni17 Se4'
_cell_volume   317.09683815
_cell_formula_units_Z   1
loop_
 _symmetry_equiv_pos_site_id
 _symmetry_equiv_pos_as_xyz
  1  'x, y, z'
loop_
 _atom_site_type_symbol
 _atom_site_label
 _atom_site_symmetry_multiplicity
 _atom_site_fract_x
 _atom_site_fract_y
 _atom_site_fract_z
 _atom_site_occupancy
  Si  Si0  1  0.500000  0.500000  0.430845  1
  Si  Si1  1  0.000000  0.000000  0.929727  1
  Si  Si2  1  0.000000  0.000000  0.068810  1
  Si  Si3  1  0.500000  0.500000  0.569877  1
  Ni  Ni4  1  0.000000  0.500000  0.501494  1
  Ni  Ni5  1  0.500000  0.000000  0.999453  1
  Ni  Ni6  1  0.500000  0.000000  0.501494  1
  Ni  Ni7  1  0.000000  0.500000  0.999453  1
  Ni  Ni8  1  0.000000  0.500000  0.364878  1
  Ni  Ni9  1  0.500000  0.000000  0.862745  1
  Ni  Ni10  1  0.500000  0.000000  0.364878  1
  Ni  Ni11  1  0.000000  0.500000  0.862745  1
  Ni  Ni12  1  0.500000  0.000000  0.135751  1
  Ni  Ni13  1  0.000000  0.500000  0.637880  1
  Ni  Ni14  1  0.000000  0.500000  0.135751  1
  Ni  Ni15  1  0.500000  0.000000  0.637880  1
  Ni  Ni16  1  0.000000  0.000000  0.433963  1
  Ni  Ni17  1  0.500000  0.500000  0.931635  1
  Ni  Ni18  1  0.500000  0.500000  0.067094  1
  Ni  Ni19  1  0.000000  0.000000  0.569307  1
  Ni  Ni20  1  0.500000  0.500000  0.286216  1
  Se  Se21  1  0.000000  0.000000  0.298535  1
  Se  Se22  1  0.500000  0.500000  0.802327  1
  Se  Se23  1  0.500000  0.500000  0.195630  1
  Se  Se24  1  0.000000  0.000000  0.698232  1
