# generated using pymatgen
data_Th2GeH4
_symmetry_space_group_name_H-M   'P 1'
_cell_length_a   6.23206530
_cell_length_b   6.23206500
_cell_length_c   6.23206484
_cell_angle_alpha   106.28227832
_cell_angle_beta   106.28228066
_cell_angle_gamma   116.05669929
_symmetry_Int_Tables_number   1
_chemical_formula_structural   Th2GeH4
_chemical_formula_sum   'Th4 Ge2 H8'
_cell_volume   184.45945010
_cell_formula_units_Z   2
loop_
 _symmetry_equiv_pos_site_id
 _symmetry_equiv_pos_as_xyz
  1  'x, y, z'
loop_
 _atom_site_type_symbol
 _atom_site_label
 _atom_site_symmetry_multiplicity
 _atom_site_fract_x
 _atom_site_fract_y
 _atom_site_fract_z
 _atom_site_occupancy
  Th  Th0  1  0.832766  0.667234  0.500000  1
  Th  Th1  1  0.667234  0.167234  0.834468  1
  Th  Th2  1  0.167234  0.332766  0.500000  1
  Th  Th3  1  0.332766  0.832766  0.165532  1
  Ge  Ge4  1  0.750000  0.750000  0.000000  1
  Ge  Ge5  1  0.250000  0.250000  0.000000  1
  H  H6  1  0.223293  0.974329  0.500000  1
  H  H7  1  0.474329  0.723293  0.500000  1
  H  H8  1  0.723293  0.223293  0.248965  1
  H  H9  1  0.974329  0.474329  0.751035  1
  H  H10  1  0.276707  0.776707  0.751035  1
  H  H11  1  0.525671  0.276707  0.500000  1
  H  H12  1  0.025671  0.525671  0.248965  1
  H  H13  1  0.776707  0.025671  0.500000  1
