# generated using pymatgen
data_Tb4(AgPd3)3
_symmetry_space_group_name_H-M   'P 1'
_cell_length_a   7.22176968
_cell_length_b   7.22177002
_cell_length_c   7.22177100
_cell_angle_alpha   108.39730143
_cell_angle_beta   108.39731068
_cell_angle_gamma   111.64108088
_symmetry_Int_Tables_number   1
_chemical_formula_structural   Tb4(AgPd3)3
_chemical_formula_sum   'Tb4 Ag3 Pd9'
_cell_volume   289.62746847
_cell_formula_units_Z   1
loop_
 _symmetry_equiv_pos_site_id
 _symmetry_equiv_pos_as_xyz
  1  'x, y, z'
loop_
 _atom_site_type_symbol
 _atom_site_label
 _atom_site_symmetry_multiplicity
 _atom_site_fract_x
 _atom_site_fract_y
 _atom_site_fract_z
 _atom_site_occupancy
  Tb  Tb0  1  0.244376  0.244481  0.488857  1
  Tb  Tb1  1  0.755624  0.755519  0.511143  1
  Tb  Tb2  1  0.244377  0.755519  0.999895  1
  Tb  Tb3  1  0.755623  0.244481  0.000105  1
  Ag  Ag4  1  0.500000  0.000000  0.500000  1
  Ag  Ag5  1  0.000000  0.500000  0.500000  1
  Ag  Ag6  1  0.500000  0.500000  0.000000  1
  Pd  Pd7  1  0.500926  0.251913  0.249013  1
  Pd  Pd8  1  0.499074  0.748087  0.750987  1
  Pd  Pd9  1  0.002900  0.251913  0.750988  1
  Pd  Pd10  1  0.251936  0.002912  0.750976  1
  Pd  Pd11  1  0.997100  0.748087  0.249012  1
  Pd  Pd12  1  0.748064  0.997088  0.249024  1
  Pd  Pd13  1  0.251938  0.500962  0.249023  1
  Pd  Pd14  1  0.748062  0.499038  0.750977  1
  Pd  Pd15  1  0.000000  0.000000  0.000000  1
