# generated using pymatgen
data_La18Ho2Ru5Pt7
_symmetry_space_group_name_H-M   'P 1'
_cell_length_a   11.56158498
_cell_length_b   11.56158475
_cell_length_c   6.57194200
_cell_angle_alpha   90.05826421
_cell_angle_beta   90.05826421
_cell_angle_gamma   90.08511936
_symmetry_Int_Tables_number   1
_chemical_formula_structural   La18Ho2Ru5Pt7
_chemical_formula_sum   'La18 Ho2 Ru5 Pt7'
_cell_volume   878.47121554
_cell_formula_units_Z   1
loop_
 _symmetry_equiv_pos_site_id
 _symmetry_equiv_pos_as_xyz
  1  'x, y, z'
loop_
 _atom_site_type_symbol
 _atom_site_label
 _atom_site_symmetry_multiplicity
 _atom_site_fract_x
 _atom_site_fract_y
 _atom_site_fract_z
 _atom_site_occupancy
  La  La0  1  0.298179  0.086567  0.376848  1
  La  La1  1  0.298271  0.907263  0.876590  1
  La  La2  1  0.700975  0.086241  0.876368  1
  La  La3  1  0.700650  0.911569  0.375147  1
  La  La4  1  0.583496  0.789457  0.877136  1
  La  La5  1  0.587212  0.207543  0.378741  1
  La  La6  1  0.409877  0.788912  0.385640  1
  La  La7  1  0.412171  0.205460  0.878658  1
  La  La8  1  0.210543  0.416504  0.622864  1
  La  La9  1  0.211088  0.590123  0.114360  1
  La  La10  1  0.792457  0.412788  0.121259  1
  La  La11  1  0.794540  0.587829  0.621342  1
  La  La12  1  0.913433  0.701821  0.123152  1
  La  La13  1  0.913759  0.299025  0.623632  1
  La  La14  1  0.092737  0.701729  0.623410  1
  La  La15  1  0.088431  0.299350  0.124853  1
  La  La16  1  0.998804  0.999545  0.500506  1
  La  La17  1  0.000455  0.001196  0.999494  1
  Ho  Ho18  1  0.497294  0.501154  0.998169  1
  Ho  Ho19  1  0.498846  0.502706  0.501831  1
  Ru  Ru20  1  0.353824  0.646176  0.750000  1
  Ru  Ru21  1  0.500737  0.000567  0.117011  1
  Ru  Ru22  1  0.500364  0.001494  0.615294  1
  Ru  Ru23  1  0.998506  0.499636  0.884706  1
  Ru  Ru24  1  0.999433  0.499263  0.382989  1
  Pt  Pt25  1  0.844865  0.155135  0.250000  1
  Pt  Pt26  1  0.843668  0.845242  0.750799  1
  Pt  Pt27  1  0.154758  0.156332  0.749201  1
  Pt  Pt28  1  0.154200  0.845800  0.250000  1
  Pt  Pt29  1  0.644827  0.355173  0.750000  1
  Pt  Pt30  1  0.646468  0.644867  0.250044  1
  Pt  Pt31  1  0.355133  0.353532  0.249956  1
