# generated using pymatgen
data_Ho13Er7(Ir2Os)4
_symmetry_space_group_name_H-M   'P 1'
_cell_length_a   10.80342401
_cell_length_b   10.80203002
_cell_length_c   6.38145600
_cell_angle_alpha   90.00385574
_cell_angle_beta   90.00212008
_cell_angle_gamma   90.00465672
_symmetry_Int_Tables_number   1
_chemical_formula_structural   Ho13Er7(Ir2Os)4
_chemical_formula_sum   'Ho13 Er7 Ir8 Os4'
_cell_volume   744.70895805
_cell_formula_units_Z   1
loop_
 _symmetry_equiv_pos_site_id
 _symmetry_equiv_pos_as_xyz
  1  'x, y, z'
loop_
 _atom_site_type_symbol
 _atom_site_label
 _atom_site_symmetry_multiplicity
 _atom_site_fract_x
 _atom_site_fract_y
 _atom_site_fract_z
 _atom_site_occupancy
  Ho  Ho0  1  0.293318  0.086221  0.376187  1
  Ho  Ho1  1  0.293292  0.913820  0.876218  1
  Ho  Ho2  1  0.706735  0.086209  0.876211  1
  Ho  Ho3  1  0.706634  0.913849  0.376261  1
  Ho  Ho4  1  0.586148  0.793352  0.876325  1
  Ho  Ho5  1  0.586183  0.206683  0.376329  1
  Ho  Ho6  1  0.413830  0.793333  0.376321  1
  Ho  Ho7  1  0.413814  0.206653  0.876348  1
  Ho  Ho8  1  0.206388  0.413822  0.623756  1
  Ho  Ho9  1  0.206519  0.586101  0.123767  1
  Ho  Ho10  1  0.793525  0.413730  0.123756  1
  Ho  Ho11  1  0.793556  0.586093  0.623754  1
  Ho  Ho12  1  0.913945  0.706603  0.123733  1
  Er  Er13  1  0.913993  0.293547  0.623473  1
  Er  Er14  1  0.086069  0.706397  0.623475  1
  Er  Er15  1  0.086006  0.293523  0.123516  1
  Er  Er16  1  0.000001  0.000054  0.500059  1
  Er  Er17  1  0.000058  0.000142  0.999939  1
  Er  Er18  1  0.500003  0.499979  0.000105  1
  Er  Er19  1  0.499995  0.499997  0.499948  1
  Ir  Ir20  1  0.848245  0.152178  0.250286  1
  Ir  Ir21  1  0.848145  0.847946  0.749938  1
  Ir  Ir22  1  0.151769  0.152191  0.750342  1
  Ir  Ir23  1  0.151896  0.847922  0.250373  1
  Ir  Ir24  1  0.652201  0.347979  0.749888  1
  Ir  Ir25  1  0.651998  0.652003  0.250009  1
  Ir  Ir26  1  0.347773  0.347964  0.249865  1
  Ir  Ir27  1  0.347821  0.652024  0.749898  1
  Os  Os28  1  0.499975  0.999994  0.122702  1
  Os  Os29  1  0.500013  0.000001  0.622738  1
  Os  Os30  1  0.000080  0.499820  0.877062  1
  Os  Os31  1  0.000071  0.499869  0.377417  1
