# generated using pymatgen
data_TbHo3V4F28
_symmetry_space_group_name_H-M   'P 1'
_cell_length_a   5.48539006
_cell_length_b   8.79652972
_cell_length_c   11.79777047
_cell_angle_alpha   63.40675796
_cell_angle_beta   89.98698221
_cell_angle_gamma   90.00427147
_symmetry_Int_Tables_number   1
_chemical_formula_structural   TbHo3V4F28
_chemical_formula_sum   'Tb1 Ho3 V4 F28'
_cell_volume   509.04584750
_cell_formula_units_Z   1
loop_
 _symmetry_equiv_pos_site_id
 _symmetry_equiv_pos_as_xyz
  1  'x, y, z'
loop_
 _atom_site_type_symbol
 _atom_site_label
 _atom_site_symmetry_multiplicity
 _atom_site_fract_x
 _atom_site_fract_y
 _atom_site_fract_z
 _atom_site_occupancy
  Tb  Tb0  1  0.758328  0.809486  0.769506  1
  Ho  Ho1  1  0.258878  0.194234  0.729514  1
  Ho  Ho2  1  0.241483  0.191805  0.230136  1
  Ho  Ho3  1  0.741383  0.809179  0.269471  1
  V  V4  1  0.754991  0.271924  0.955801  1
  V  V5  1  0.254603  0.726870  0.543294  1
  V  V6  1  0.244728  0.726569  0.046195  1
  V  V7  1  0.744507  0.273922  0.454558  1
  F  F8  1  0.444589  0.706262  0.922949  1
  F  F9  1  0.945608  0.293594  0.577448  1
  F  F10  1  0.553548  0.292238  0.078308  1
  F  F11  1  0.054186  0.706534  0.420573  1
  F  F12  1  0.457282  0.280699  0.544601  1
  F  F13  1  0.956900  0.718750  0.956940  1
  F  F14  1  0.543111  0.719911  0.454089  1
  F  F15  1  0.042376  0.279177  0.045811  1
  F  F16  1  0.772404  0.505307  0.864171  1
  F  F17  1  0.271811  0.492879  0.635175  1
  F  F18  1  0.229505  0.492642  0.137611  1
  F  F19  1  0.728427  0.507364  0.363213  1
  F  F20  1  0.756669  0.040819  0.046774  1
  F  F21  1  0.256734  0.957695  0.452884  1
  F  F22  1  0.243188  0.957104  0.955005  1
  F  F23  1  0.743396  0.042659  0.545724  1
  F  F24  1  0.975373  0.729393  0.637553  1
  F  F25  1  0.476658  0.269495  0.860912  1
  F  F26  1  0.022284  0.269330  0.359961  1
  F  F27  1  0.523416  0.730598  0.140511  1
  F  F28  1  0.044849  0.747939  0.171405  1
  F  F29  1  0.543751  0.252182  0.329710  1
  F  F30  1  0.955783  0.251207  0.830368  1
  F  F31  1  0.452579  0.746626  0.669792  1
  F  F32  1  0.420707  0.973322  0.231153  1
  F  F33  1  0.921000  0.027133  0.268820  1
  F  F34  1  0.580393  0.030941  0.769474  1
  F  F35  1  0.084574  0.974210  0.730589  1
