# generated using pymatgen
data_Ca7NbFe2N9
_symmetry_space_group_name_H-M   'P 1'
_cell_length_a   9.92214000
_cell_length_b   6.07779296
_cell_length_c   9.05107799
_cell_angle_alpha   87.35882281
_cell_angle_beta   90.00000000
_cell_angle_gamma   90.00000000
_symmetry_Int_Tables_number   1
_chemical_formula_structural   Ca7NbFe2N9
_chemical_formula_sum   'Ca14 Nb2 Fe4 N18'
_cell_volume   545.24283524
_cell_formula_units_Z   2
loop_
 _symmetry_equiv_pos_site_id
 _symmetry_equiv_pos_as_xyz
  1  'x, y, z'
loop_
 _atom_site_type_symbol
 _atom_site_label
 _atom_site_symmetry_multiplicity
 _atom_site_fract_x
 _atom_site_fract_y
 _atom_site_fract_z
 _atom_site_occupancy
  Ca  Ca0  1  0.938254  0.432308  0.165155  1
  Ca  Ca1  1  0.079680  0.247391  0.494587  1
  Ca  Ca2  1  0.250000  0.085962  0.803360  1
  Ca  Ca3  1  0.438254  0.567692  0.834845  1
  Ca  Ca4  1  0.579680  0.752609  0.505413  1
  Ca  Ca5  1  0.580024  0.064682  0.827760  1
  Ca  Ca6  1  0.919976  0.064682  0.827760  1
  Ca  Ca7  1  0.419976  0.935318  0.172240  1
  Ca  Ca8  1  0.420320  0.247391  0.494587  1
  Ca  Ca9  1  0.080024  0.935318  0.172240  1
  Ca  Ca10  1  0.920320  0.752609  0.505413  1
  Ca  Ca11  1  0.061746  0.567692  0.834845  1
  Ca  Ca12  1  0.750000  0.914038  0.196640  1
  Ca  Ca13  1  0.561746  0.432308  0.165155  1
  Nb  Nb14  1  0.750000  0.281585  0.440738  1
  Nb  Nb15  1  0.250000  0.718415  0.559262  1
  Fe  Fe16  1  0.250000  0.326863  0.066391  1
  Fe  Fe17  1  0.750000  0.463075  0.727527  1
  Fe  Fe18  1  0.750000  0.673137  0.933609  1
  Fe  Fe19  1  0.250000  0.536925  0.272473  1
  N  N20  1  0.403404  0.227168  0.978406  1
  N  N21  1  0.250000  0.232577  0.265085  1
  N  N22  1  0.903075  0.116571  0.340845  1
  N  N23  1  0.609095  0.358527  0.626161  1
  N  N24  1  0.750000  0.559608  0.332915  1
  N  N25  1  0.250000  0.630321  0.074390  1
  N  N26  1  0.890905  0.358527  0.626161  1
  N  N27  1  0.390905  0.641473  0.373839  1
  N  N28  1  0.750000  0.369679  0.925610  1
  N  N29  1  0.096925  0.883429  0.659155  1
  N  N30  1  0.750000  0.767423  0.734915  1
  N  N31  1  0.109095  0.641473  0.373839  1
  N  N32  1  0.596596  0.772832  0.021594  1
  N  N33  1  0.250000  0.440392  0.667085  1
  N  N34  1  0.403075  0.883429  0.659155  1
  N  N35  1  0.596925  0.116571  0.340845  1
  N  N36  1  0.096596  0.227168  0.978406  1
  N  N37  1  0.903404  0.772832  0.021594  1
