# generated using pymatgen
data_Y2Sc2B12IrW
_symmetry_space_group_name_H-M   'P 1'
_cell_length_a   3.54620600
_cell_length_b   9.05728601
_cell_length_c   11.48595833
_cell_angle_alpha   90.16126299
_cell_angle_beta   90.00000000
_cell_angle_gamma   90.00000000
_symmetry_Int_Tables_number   1
_chemical_formula_structural   Y2Sc2B12IrW
_chemical_formula_sum   'Y4 Sc4 B24 Ir2 W2'
_cell_volume   368.91605697
_cell_formula_units_Z   2
loop_
 _symmetry_equiv_pos_site_id
 _symmetry_equiv_pos_as_xyz
  1  'x, y, z'
loop_
 _atom_site_type_symbol
 _atom_site_label
 _atom_site_symmetry_multiplicity
 _atom_site_fract_x
 _atom_site_fract_y
 _atom_site_fract_z
 _atom_site_occupancy
  Y  Y0  1  0.500000  0.317553  0.413311  1
  Y  Y1  1  0.500000  0.682447  0.586689  1
  Y  Y2  1  0.500000  0.178369  0.915793  1
  Y  Y3  1  0.500000  0.821631  0.084207  1
  Sc  Sc4  1  0.500000  0.444108  0.125487  1
  Sc  Sc5  1  0.500000  0.555892  0.874513  1
  Sc  Sc6  1  0.500000  0.052674  0.626054  1
  Sc  Sc7  1  0.500000  0.947326  0.373946  1
  B  B8  1  0.000000  0.099605  0.474522  1
  B  B9  1  0.000000  0.900395  0.525478  1
  B  B10  1  0.000000  0.401918  0.972524  1
  B  B11  1  0.000000  0.598082  0.027476  1
  B  B12  1  0.000000  0.129492  0.320349  1
  B  B13  1  0.000000  0.870508  0.679651  1
  B  B14  1  0.000000  0.371262  0.817548  1
  B  B15  1  0.000000  0.628738  0.182452  1
  B  B16  1  0.000000  0.052360  0.066050  1
  B  B17  1  0.000000  0.947640  0.933950  1
  B  B18  1  0.000000  0.445066  0.566614  1
  B  B19  1  0.000000  0.554934  0.433386  1
  B  B20  1  0.000000  0.482580  0.286445  1
  B  B21  1  0.000000  0.517420  0.713555  1
  B  B22  1  0.000000  0.022384  0.783593  1
  B  B23  1  0.000000  0.977616  0.216407  1
  B  B24  1  0.000000  0.256273  0.079243  1
  B  B25  1  0.000000  0.743727  0.920757  1
  B  B26  1  0.000000  0.245537  0.580833  1
  B  B27  1  0.000000  0.754463  0.419167  1
  B  B28  1  0.000000  0.299228  0.236359  1
  B  B29  1  0.000000  0.700772  0.763641  1
  B  B30  1  0.000000  0.207075  0.734233  1
  B  B31  1  0.000000  0.792925  0.265767  1
  Ir  Ir32  1  0.500000  0.359899  0.680430  1
  Ir  Ir33  1  0.500000  0.640101  0.319570  1
  W  W34  1  0.500000  0.141161  0.183055  1
  W  W35  1  0.500000  0.858839  0.816945  1
