# generated using pymatgen
data_Nd4In2GaAg2Rh
_symmetry_space_group_name_H-M   'P 1'
_cell_length_a   7.99174554
_cell_length_b   7.99174566
_cell_length_c   3.96656400
_cell_angle_alpha   90.00000000
_cell_angle_beta   90.00000000
_cell_angle_gamma   89.91988933
_symmetry_Int_Tables_number   1
_chemical_formula_structural   Nd4In2GaAg2Rh
_chemical_formula_sum   'Nd4 In2 Ga1 Ag2 Rh1'
_cell_volume   253.33625274
_cell_formula_units_Z   1
loop_
 _symmetry_equiv_pos_site_id
 _symmetry_equiv_pos_as_xyz
  1  'x, y, z'
loop_
 _atom_site_type_symbol
 _atom_site_label
 _atom_site_symmetry_multiplicity
 _atom_site_fract_x
 _atom_site_fract_y
 _atom_site_fract_z
 _atom_site_occupancy
  Nd  Nd0  1  0.679550  0.152989  0.500000  1
  Nd  Nd1  1  0.347011  0.820450  0.500000  1
  Nd  Nd2  1  0.807747  0.692253  0.500000  1
  Nd  Nd3  1  0.176966  0.323034  0.500000  1
  In  In4  1  0.500875  0.496750  0.000000  1
  In  In5  1  0.003250  0.999125  0.000000  1
  Ga  Ga6  1  0.381029  0.118971  0.000000  1
  Ag  Ag7  1  0.120196  0.631650  0.000000  1
  Ag  Ag8  1  0.868350  0.379804  0.000000  1
  Rh  Rh9  1  0.615026  0.884974  0.000000  1
