# generated using pymatgen
data_La18TbHoGa12
_symmetry_space_group_name_H-M   'P 1'
_cell_length_a   7.94320500
_cell_length_b   7.94320500
_cell_length_c   15.00729600
_cell_angle_alpha   90.00000000
_cell_angle_beta   90.00000000
_cell_angle_gamma   90.00000000
_symmetry_Int_Tables_number   1
_chemical_formula_structural   La18TbHoGa12
_chemical_formula_sum   'La18 Tb1 Ho1 Ga12'
_cell_volume   946.87792259
_cell_formula_units_Z   1
loop_
 _symmetry_equiv_pos_site_id
 _symmetry_equiv_pos_as_xyz
  1  'x, y, z'
loop_
 _atom_site_type_symbol
 _atom_site_label
 _atom_site_symmetry_multiplicity
 _atom_site_fract_x
 _atom_site_fract_y
 _atom_site_fract_z
 _atom_site_occupancy
  La  La0  1  0.337545  0.311662  0.103869  1
  La  La1  1  0.838027  0.811308  0.896260  1
  La  La2  1  0.839963  0.182665  0.396043  1
  La  La3  1  0.161973  0.188692  0.896260  1
  La  La4  1  0.662455  0.688338  0.103869  1
  La  La5  1  0.000000  0.500000  0.707244  1
  La  La6  1  0.817467  0.839984  0.603738  1
  La  La7  1  0.317335  0.339963  0.396043  1
  La  La8  1  0.188338  0.837545  0.103869  1
  La  La9  1  0.182533  0.160016  0.603738  1
  La  La10  1  0.811662  0.162455  0.103869  1
  La  La11  1  0.339984  0.682533  0.603738  1
  La  La12  1  0.500000  0.000000  0.292608  1
  La  La13  1  0.688692  0.338027  0.896260  1
  La  La14  1  0.660016  0.317467  0.603738  1
  La  La15  1  0.311308  0.661973  0.896260  1
  La  La16  1  0.160037  0.817335  0.396043  1
  La  La17  1  0.682665  0.660037  0.396043  1
  Tb  Tb18  1  0.500000  0.000000  0.774579  1
  Ho  Ho19  1  0.000000  0.500000  0.226388  1
  Ga  Ga20  1  0.624285  0.383949  0.248060  1
  Ga  Ga21  1  0.876615  0.116279  0.751728  1
  Ga  Ga22  1  0.500000  0.000000  0.499399  1
  Ga  Ga23  1  0.883949  0.875715  0.248060  1
  Ga  Ga24  1  0.000000  0.500000  0.019844  1
  Ga  Ga25  1  0.123385  0.883721  0.751728  1
  Ga  Ga26  1  0.383721  0.376615  0.751728  1
  Ga  Ga27  1  0.116051  0.124285  0.248060  1
  Ga  Ga28  1  0.375715  0.616051  0.248060  1
  Ga  Ga29  1  0.616279  0.623385  0.751728  1
  Ga  Ga30  1  0.500000  0.000000  0.980819  1
  Ga  Ga31  1  0.000000  0.500000  0.500326  1
