# generated using pymatgen
data_Ca3Pr8Dy9Pb16
_symmetry_space_group_name_H-M   'P 1'
_cell_length_a   8.21231200
_cell_length_b   8.44454818
_cell_length_c   15.98228200
_cell_angle_alpha   90.00000000
_cell_angle_beta   90.00000000
_cell_angle_gamma   90.07470225
_symmetry_Int_Tables_number   1
_chemical_formula_structural   Ca3Pr8Dy9Pb16
_chemical_formula_sum   'Ca3 Pr8 Dy9 Pb16'
_cell_volume   1108.35855700
_cell_formula_units_Z   1
loop_
 _symmetry_equiv_pos_site_id
 _symmetry_equiv_pos_as_xyz
  1  'x, y, z'
loop_
 _atom_site_type_symbol
 _atom_site_label
 _atom_site_symmetry_multiplicity
 _atom_site_fract_x
 _atom_site_fract_y
 _atom_site_fract_z
 _atom_site_occupancy
  Ca  Ca0  1  0.806445  0.498021  0.750000  1
  Ca  Ca1  1  0.305950  0.001683  0.750000  1
  Ca  Ca2  1  0.193325  0.501096  0.250000  1
  Pr  Pr3  1  0.487756  0.681268  0.594673  1
  Pr  Pr4  1  0.986733  0.819905  0.905294  1
  Pr  Pr5  1  0.512837  0.321424  0.096130  1
  Pr  Pr6  1  0.015850  0.179793  0.402936  1
  Pr  Pr7  1  0.512837  0.321424  0.403870  1
  Pr  Pr8  1  0.015850  0.179793  0.097064  1
  Pr  Pr9  1  0.487756  0.681268  0.905327  1
  Pr  Pr10  1  0.986733  0.819905  0.594706  1
  Dy  Dy11  1  0.640518  0.161901  0.620054  1
  Dy  Dy12  1  0.140294  0.335519  0.878226  1
  Dy  Dy13  1  0.357324  0.837618  0.122003  1
  Dy  Dy14  1  0.858476  0.662895  0.376676  1
  Dy  Dy15  1  0.357324  0.837618  0.377997  1
  Dy  Dy16  1  0.858476  0.662895  0.123324  1
  Dy  Dy17  1  0.640518  0.161901  0.879946  1
  Dy  Dy18  1  0.140294  0.335519  0.621774  1
  Dy  Dy19  1  0.693408  0.996527  0.250000  1
  Pb  Pb20  1  0.699255  0.959483  0.456243  1
  Pb  Pb21  1  0.195895  0.543464  0.040014  1
  Pb  Pb22  1  0.301195  0.042699  0.960112  1
  Pb  Pb23  1  0.803782  0.457088  0.539180  1
  Pb  Pb24  1  0.301195  0.042699  0.539888  1
  Pb  Pb25  1  0.803782  0.457088  0.960820  1
  Pb  Pb26  1  0.699255  0.959483  0.043757  1
  Pb  Pb27  1  0.195895  0.543464  0.459986  1
  Pb  Pb28  1  0.443195  0.376021  0.750000  1
  Pb  Pb29  1  0.941385  0.123063  0.750000  1
  Pb  Pb30  1  0.555491  0.626678  0.250000  1
  Pb  Pb31  1  0.056082  0.877558  0.250000  1
  Pb  Pb32  1  0.677221  0.859595  0.750000  1
  Pb  Pb33  1  0.179426  0.640004  0.750000  1
  Pb  Pb34  1  0.329384  0.141088  0.250000  1
  Pb  Pb35  1  0.818860  0.352552  0.250000  1
