# generated using pymatgen
data_Tb3Lu2Co19(SiP3)3
_symmetry_space_group_name_H-M   'P 1'
_cell_length_a   12.04132120
_cell_length_b   12.04132108
_cell_length_c   3.68394400
_cell_angle_alpha   90.00000000
_cell_angle_beta   90.00000000
_cell_angle_gamma   120.02073919
_symmetry_Int_Tables_number   1
_chemical_formula_structural   Tb3Lu2Co19(SiP3)3
_chemical_formula_sum   'Tb3 Lu2 Co19 Si3 P9'
_cell_volume   462.48870643
_cell_formula_units_Z   1
loop_
 _symmetry_equiv_pos_site_id
 _symmetry_equiv_pos_as_xyz
  1  'x, y, z'
loop_
 _atom_site_type_symbol
 _atom_site_label
 _atom_site_symmetry_multiplicity
 _atom_site_fract_x
 _atom_site_fract_y
 _atom_site_fract_z
 _atom_site_occupancy
  Tb  Tb0  1  0.333395  0.666432  0.000000  1
  Tb  Tb1  1  0.666432  0.333395  0.000000  1
  Tb  Tb2  1  0.815609  0.815609  0.500000  1
  Lu  Lu3  1  0.185398  0.000235  0.500000  1
  Lu  Lu4  1  0.000235  0.185398  0.500000  1
  Co  Co5  1  0.200649  0.375453  0.000000  1
  Co  Co6  1  0.622984  0.825738  0.000000  1
  Co  Co7  1  0.175816  0.799069  0.000000  1
  Co  Co8  1  0.825738  0.622984  0.000000  1
  Co  Co9  1  0.799069  0.175816  0.000000  1
  Co  Co10  1  0.375453  0.200649  0.000000  1
  Co  Co11  1  0.556791  0.000711  0.000000  1
  Co  Co12  1  0.000711  0.556791  0.000000  1
  Co  Co13  1  0.442192  0.442192  0.000000  1
  Co  Co14  1  0.126490  0.483866  0.500000  1
  Co  Co15  1  0.514666  0.641601  0.500000  1
  Co  Co16  1  0.357835  0.873399  0.500000  1
  Co  Co17  1  0.641601  0.514666  0.500000  1
  Co  Co18  1  0.873399  0.357835  0.500000  1
  Co  Co19  1  0.483866  0.126490  0.500000  1
  Co  Co20  1  0.717363  0.001275  0.500000  1
  Co  Co21  1  0.001275  0.717363  0.500000  1
  Co  Co22  1  0.282135  0.282135  0.500000  1
  Co  Co23  1  0.001195  0.001195  0.000000  1
  Si  Si24  1  0.367840  0.999873  0.000000  1
  Si  Si25  1  0.999873  0.367840  0.000000  1
  Si  Si26  1  0.630092  0.630092  0.000000  1
  P  P27  1  0.313546  0.478129  0.500000  1
  P  P28  1  0.521434  0.835516  0.500000  1
  P  P29  1  0.165006  0.685678  0.500000  1
  P  P30  1  0.835516  0.521434  0.500000  1
  P  P31  1  0.685678  0.165006  0.500000  1
  P  P32  1  0.478129  0.313546  0.500000  1
  P  P33  1  0.820264  0.002206  0.000000  1
  P  P34  1  0.002206  0.820264  0.000000  1
  P  P35  1  0.180120  0.180120  0.000000  1
