# generated using pymatgen
data_Lu10BiPd4Rh
_symmetry_space_group_name_H-M   'P 1'
_cell_length_a   8.73887464
_cell_length_b   8.73887448
_cell_length_c   8.73887402
_cell_angle_alpha   129.90345579
_cell_angle_beta   129.90346024
_cell_angle_gamma   73.56115271
_symmetry_Int_Tables_number   1
_chemical_formula_structural   Lu10BiPd4Rh
_chemical_formula_sum   'Lu10 Bi1 Pd4 Rh1'
_cell_volume   383.25472628
_cell_formula_units_Z   1
loop_
 _symmetry_equiv_pos_site_id
 _symmetry_equiv_pos_as_xyz
  1  'x, y, z'
loop_
 _atom_site_type_symbol
 _atom_site_label
 _atom_site_symmetry_multiplicity
 _atom_site_fract_x
 _atom_site_fract_y
 _atom_site_fract_z
 _atom_site_occupancy
  Lu  Lu0  1  0.983801  0.983801  0.000000  1
  Lu  Lu1  1  0.516199  0.516199  0.000000  1
  Lu  Lu2  1  0.827506  0.286490  0.825722  1
  Lu  Lu3  1  0.213510  0.672494  0.174278  1
  Lu  Lu4  1  0.460770  0.001785  0.174278  1
  Lu  Lu5  1  0.286490  0.460770  0.458985  1
  Lu  Lu6  1  0.039230  0.213510  0.541015  1
  Lu  Lu7  1  0.498215  0.039230  0.825722  1
  Lu  Lu8  1  0.672494  0.498215  0.458985  1
  Lu  Lu9  1  0.001785  0.827506  0.541015  1
  Bi  Bi10  1  0.750000  0.750000  0.000000  1
  Pd  Pd11  1  0.136919  0.636919  0.773839  1
  Pd  Pd12  1  0.863081  0.363081  0.226161  1
  Pd  Pd13  1  0.636919  0.863081  0.500000  1
  Pd  Pd14  1  0.363081  0.136919  0.500000  1
  Rh  Rh15  1  0.250000  0.250000  0.000000  1
