# generated using pymatgen
data_YTh3Al14(Ga2Ir3)2
_symmetry_space_group_name_H-M   'P 1'
_cell_length_a   7.62780901
_cell_length_b   7.63275602
_cell_length_c   9.56071800
_cell_angle_alpha   90.00000000
_cell_angle_beta   90.00000000
_cell_angle_gamma   119.48770105
_symmetry_Int_Tables_number   1
_chemical_formula_structural   YTh3Al14(Ga2Ir3)2
_chemical_formula_sum   'Y1 Th3 Al14 Ga4 Ir6'
_cell_volume   484.53059547
_cell_formula_units_Z   1
loop_
 _symmetry_equiv_pos_site_id
 _symmetry_equiv_pos_as_xyz
  1  'x, y, z'
loop_
 _atom_site_type_symbol
 _atom_site_label
 _atom_site_symmetry_multiplicity
 _atom_site_fract_x
 _atom_site_fract_y
 _atom_site_fract_z
 _atom_site_occupancy
  Y  Y0  1  0.326774  0.005260  0.750000  1
  Th  Th1  1  0.994688  0.671152  0.250000  1
  Th  Th2  1  0.002974  0.326484  0.750000  1
  Th  Th3  1  0.670537  0.994270  0.250000  1
  Al  Al4  1  0.005938  0.336022  0.073466  1
  Al  Al5  1  0.000046  0.668608  0.923523  1
  Al  Al6  1  0.000046  0.668608  0.576477  1
  Al  Al7  1  0.335354  0.004453  0.432216  1
  Al  Al8  1  0.005938  0.336022  0.426534  1
  Al  Al9  1  0.659101  0.995625  0.576110  1
  Al  Al10  1  0.659101  0.995625  0.923890  1
  Al  Al11  1  0.335354  0.004453  0.067784  1
  Al  Al12  1  0.336635  0.333201  0.557071  1
  Al  Al13  1  0.663495  0.663469  0.455313  1
  Al  Al14  1  0.663495  0.663469  0.044687  1
  Al  Al15  1  0.336635  0.333201  0.942929  1
  Al  Al16  1  0.658720  0.450127  0.750000  1
  Al  Al17  1  0.452560  0.663908  0.750000  1
  Ga  Ga18  1  0.137621  0.134627  0.250000  1
  Ga  Ga19  1  0.865933  0.864122  0.750000  1
  Ga  Ga20  1  0.343612  0.544536  0.250000  1
  Ga  Ga21  1  0.544474  0.340197  0.250000  1
  Ir  Ir22  1  0.673616  0.329217  0.997893  1
  Ir  Ir23  1  0.327628  0.670835  0.998038  1
  Ir  Ir24  1  0.327628  0.670835  0.501962  1
  Ir  Ir25  1  0.673616  0.329217  0.502107  1
  Ir  Ir26  1  0.999241  0.001229  0.000652  1
  Ir  Ir27  1  0.999241  0.001229  0.499348  1
