# generated using pymatgen
data_Nd5Sm(In4Te)2
_symmetry_space_group_name_H-M   'P 1'
_cell_length_a   8.59323066
_cell_length_b   8.59322981
_cell_length_c   8.59323060
_cell_angle_alpha   119.30191768
_cell_angle_beta   119.30191990
_cell_angle_gamma   91.21343105
_symmetry_Int_Tables_number   1
_chemical_formula_structural   Nd5Sm(In4Te)2
_chemical_formula_sum   'Nd5 Sm1 In8 Te2'
_cell_volume   453.32261629
_cell_formula_units_Z   1
loop_
 _symmetry_equiv_pos_site_id
 _symmetry_equiv_pos_as_xyz
  1  'x, y, z'
loop_
 _atom_site_type_symbol
 _atom_site_label
 _atom_site_symmetry_multiplicity
 _atom_site_fract_x
 _atom_site_fract_y
 _atom_site_fract_z
 _atom_site_occupancy
  Nd  Nd0  1  0.250000  0.250000  0.000000  1
  Nd  Nd1  1  0.659747  0.159747  0.819494  1
  Nd  Nd2  1  0.340253  0.840253  0.180506  1
  Nd  Nd3  1  0.159747  0.340253  0.500000  1
  Nd  Nd4  1  0.840253  0.659747  0.500000  1
  Sm  Sm5  1  0.750000  0.750000  0.000000  1
  In  In6  1  0.332434  0.831967  0.791198  1
  In  In7  1  0.668033  0.167566  0.208802  1
  In  In8  1  0.040768  0.541235  0.208802  1
  In  In9  1  0.831967  0.040768  0.499533  1
  In  In10  1  0.459232  0.668033  0.500467  1
  In  In11  1  0.958765  0.459232  0.791198  1
  In  In12  1  0.167566  0.958765  0.499533  1
  In  In13  1  0.541235  0.332434  0.500467  1
  Te  Te14  1  0.501205  0.501205  0.000000  1
  Te  Te15  1  0.998795  0.998795  0.000000  1
