# generated using pymatgen
data_Tm11PaGa20
_symmetry_space_group_name_H-M   'P 1'
_cell_length_a   6.06814777
_cell_length_b   9.54863768
_cell_length_c   11.37330692
_cell_angle_alpha   89.98282647
_cell_angle_beta   89.82127290
_cell_angle_gamma   89.96024910
_symmetry_Int_Tables_number   1
_chemical_formula_structural   Tm11PaGa20
_chemical_formula_sum   'Tm11 Pa1 Ga20'
_cell_volume   658.99494746
_cell_formula_units_Z   1
loop_
 _symmetry_equiv_pos_site_id
 _symmetry_equiv_pos_as_xyz
  1  'x, y, z'
loop_
 _atom_site_type_symbol
 _atom_site_label
 _atom_site_symmetry_multiplicity
 _atom_site_fract_x
 _atom_site_fract_y
 _atom_site_fract_z
 _atom_site_occupancy
  Tm  Tm0  1  0.849837  0.748834  0.073736  1
  Tm  Tm1  1  0.651760  0.749685  0.573836  1
  Tm  Tm2  1  0.151208  0.249910  0.925249  1
  Tm  Tm3  1  0.351747  0.251998  0.426406  1
  Tm  Tm4  1  0.608640  0.988989  0.852135  1
  Tm  Tm5  1  0.111528  0.010103  0.648153  1
  Tm  Tm6  1  0.389863  0.489883  0.148402  1
  Tm  Tm7  1  0.109781  0.490080  0.648744  1
  Tm  Tm8  1  0.390071  0.010778  0.148423  1
  Tm  Tm9  1  0.890040  0.990157  0.352082  1
  Tm  Tm10  1  0.608570  0.509879  0.851355  1
  Pa  Pa11  1  0.887638  0.510085  0.352924  1
  Ga  Ga12  1  0.873819  0.051886  0.091835  1
  Ga  Ga13  1  0.626998  0.446787  0.590345  1
  Ga  Ga14  1  0.126437  0.552764  0.908440  1
  Ga  Ga15  1  0.373709  0.949255  0.408422  1
  Ga  Ga16  1  0.126050  0.947440  0.909302  1
  Ga  Ga17  1  0.377981  0.553071  0.408456  1
  Ga  Ga18  1  0.874142  0.446895  0.090446  1
  Ga  Ga19  1  0.626913  0.051875  0.592120  1
  Ga  Ga20  1  0.171806  0.749925  0.252556  1
  Ga  Ga21  1  0.326198  0.749897  0.751788  1
  Ga  Ga22  1  0.825016  0.249170  0.749163  1
  Ga  Ga23  1  0.673225  0.249420  0.246701  1
  Ga  Ga24  1  0.375361  0.750207  0.006136  1
  Ga  Ga25  1  0.124200  0.749527  0.503759  1
  Ga  Ga26  1  0.623794  0.249340  0.993611  1
  Ga  Ga27  1  0.875419  0.249432  0.494926  1
  Ga  Ga28  1  0.604393  0.751517  0.298088  1
  Ga  Ga29  1  0.895695  0.750106  0.798293  1
  Ga  Ga30  1  0.395272  0.249616  0.701077  1
  Ga  Ga31  1  0.102891  0.251489  0.203090  1
