# generated using pymatgen
data_Sr6Al7O16F
_symmetry_space_group_name_H-M   'P 1'
_cell_length_a   10.80023828
_cell_length_b   10.80023757
_cell_length_c   10.80023800
_cell_angle_alpha   109.50511366
_cell_angle_beta   109.50511231
_cell_angle_gamma   109.40345667
_symmetry_Int_Tables_number   1
_chemical_formula_structural   Sr6Al7O16F
_chemical_formula_sum   'Sr12 Al14 O32 F2'
_cell_volume   969.78983620
_cell_formula_units_Z   2
loop_
 _symmetry_equiv_pos_site_id
 _symmetry_equiv_pos_as_xyz
  1  'x, y, z'
loop_
 _atom_site_type_symbol
 _atom_site_label
 _atom_site_symmetry_multiplicity
 _atom_site_fract_x
 _atom_site_fract_y
 _atom_site_fract_z
 _atom_site_occupancy
  Sr  Sr0  1  0.948530  0.448530  0.500000  1
  Sr  Sr1  1  0.801470  0.801470  0.000000  1
  Sr  Sr2  1  0.198530  0.198530  0.000000  1
  Sr  Sr3  1  0.551470  0.051470  0.500000  1
  Sr  Sr4  1  0.375000  0.730457  0.855457  1
  Sr  Sr5  1  0.875000  0.519543  0.144543  1
  Sr  Sr6  1  0.875000  0.984519  0.609519  1
  Sr  Sr7  1  0.375000  0.265481  0.390481  1
  Sr  Sr8  1  0.734519  0.125000  0.109519  1
  Sr  Sr9  1  0.015481  0.625000  0.890481  1
  Sr  Sr10  1  0.480457  0.625000  0.355457  1
  Sr  Sr11  1  0.269543  0.125000  0.644543  1
  Al  Al12  1  0.250000  0.750000  0.500000  1
  Al  Al13  1  0.500000  0.500000  0.000000  1
  Al  Al14  1  0.375000  0.997972  0.122972  1
  Al  Al15  1  0.875000  0.252028  0.877028  1
  Al  Al16  1  0.002028  0.125000  0.377028  1
  Al  Al17  1  0.747972  0.625000  0.622972  1
  Al  Al18  1  0.091438  0.377672  0.254716  1
  Al  Al19  1  0.122956  0.836722  0.745284  1
  Al  Al20  1  0.627044  0.872328  0.213766  1
  Al  Al21  1  0.658562  0.413278  0.786234  1
  Al  Al22  1  0.127672  0.341438  0.754716  1
  Al  Al23  1  0.586722  0.372956  0.245284  1
  Al  Al24  1  0.622328  0.877044  0.713766  1
  Al  Al25  1  0.163278  0.908562  0.286234  1
  O  O26  1  0.635378  0.485532  0.946255  1
  O  O27  1  0.539277  0.689123  0.053745  1
  O  O28  1  0.210723  0.764468  0.649846  1
  O  O29  1  0.114622  0.560877  0.350154  1
  O  O30  1  0.235532  0.885378  0.446255  1
  O  O31  1  0.439123  0.789277  0.553745  1
  O  O32  1  0.514468  0.460723  0.149846  1
  O  O33  1  0.310877  0.364622  0.850154  1
  O  O34  1  0.816902  0.385148  0.863213  1
  O  O35  1  0.933098  0.296313  0.068247  1
  O  O36  1  0.521934  0.953687  0.136787  1
  O  O37  1  0.228066  0.864852  0.931753  1
  O  O38  1  0.321986  0.986181  0.260020  1
  O  O39  1  0.428014  0.188034  0.164196  1
  O  O40  1  0.023839  0.263819  0.835803  1
  O  O41  1  0.726161  0.061966  0.739980  1
  O  O42  1  0.736181  0.571986  0.760020  1
  O  O43  1  0.938034  0.678014  0.664197  1
  O  O44  1  0.013819  0.273839  0.335803  1
  O  O45  1  0.811966  0.976161  0.239980  1
  O  O46  1  0.135148  0.066902  0.363213  1
  O  O47  1  0.046313  0.183098  0.568247  1
  O  O48  1  0.703687  0.771934  0.636787  1
  O  O49  1  0.614852  0.478066  0.431753  1
  O  O50  1  0.745450  0.369772  0.240574  1
  O  O51  1  0.129197  0.504876  0.759426  1
  O  O52  1  0.620803  0.880228  0.875679  1
  O  O53  1  0.004550  0.745124  0.124321  1
  O  O54  1  0.119772  0.995450  0.740574  1
  O  O55  1  0.254876  0.379197  0.259426  1
  O  O56  1  0.630228  0.870803  0.375679  1
  O  O57  1  0.495124  0.254550  0.624321  1
  F  F58  1  0.750000  0.250000  0.500000  1
  F  F59  1  0.000000  0.000000  0.000000  1
