# generated using pymatgen
data_Tm7LuSb20
_symmetry_space_group_name_H-M   'P 1'
_cell_length_a   4.19508400
_cell_length_b   13.10260987
_cell_length_c   14.53257159
_cell_angle_alpha   78.37439804
_cell_angle_beta   90.00000000
_cell_angle_gamma   90.00000000
_symmetry_Int_Tables_number   1
_chemical_formula_structural   Tm7LuSb20
_chemical_formula_sum   'Tm7 Lu1 Sb20'
_cell_volume   782.41805960
_cell_formula_units_Z   1
loop_
 _symmetry_equiv_pos_site_id
 _symmetry_equiv_pos_as_xyz
  1  'x, y, z'
loop_
 _atom_site_type_symbol
 _atom_site_label
 _atom_site_symmetry_multiplicity
 _atom_site_fract_x
 _atom_site_fract_y
 _atom_site_fract_z
 _atom_site_occupancy
  Tm  Tm0  1  0.250000  0.394919  0.770491  1
  Tm  Tm1  1  0.750000  0.605239  0.229510  1
  Tm  Tm2  1  0.250000  0.661895  0.856050  1
  Tm  Tm3  1  0.750000  0.337985  0.144033  1
  Tm  Tm4  1  0.250000  0.669128  0.576455  1
  Tm  Tm5  1  0.750000  0.330880  0.423532  1
  Tm  Tm6  1  0.250000  0.953684  0.359596  1
  Lu  Lu7  1  0.750000  0.046368  0.640153  1
  Sb  Sb8  1  0.250000  0.143267  0.777958  1
  Sb  Sb9  1  0.750000  0.856782  0.222072  1
  Sb  Sb10  1  0.250000  0.143056  0.483801  1
  Sb  Sb11  1  0.750000  0.856652  0.516542  1
  Sb  Sb12  1  0.250000  0.152883  0.170474  1
  Sb  Sb13  1  0.750000  0.847052  0.829464  1
  Sb  Sb14  1  0.250000  0.420579  0.975669  1
  Sb  Sb15  1  0.750000  0.579355  0.024483  1
  Sb  Sb16  1  0.750000  0.029298  0.911507  1
  Sb  Sb17  1  0.250000  0.970569  0.088473  1
  Sb  Sb18  1  0.750000  0.139171  0.322041  1
  Sb  Sb19  1  0.250000  0.861217  0.677838  1
  Sb  Sb20  1  0.750000  0.278763  0.936721  1
  Sb  Sb21  1  0.250000  0.721213  0.063323  1
  Sb  Sb22  1  0.750000  0.284377  0.652952  1
  Sb  Sb23  1  0.250000  0.715534  0.347021  1
  Sb  Sb24  1  0.750000  0.576453  0.734384  1
  Sb  Sb25  1  0.250000  0.423616  0.265572  1
  Sb  Sb26  1  0.750000  0.572184  0.447354  1
  Sb  Sb27  1  0.250000  0.427879  0.552532  1
