# generated using pymatgen
data_Ba4Ca4Si3Sn
_symmetry_space_group_name_H-M   'P 1'
_cell_length_a   5.13502100
_cell_length_b   8.68315348
_cell_length_c   9.34756183
_cell_angle_alpha   89.21707434
_cell_angle_beta   90.00000000
_cell_angle_gamma   90.00000000
_symmetry_Int_Tables_number   1
_chemical_formula_structural   Ba4Ca4Si3Sn
_chemical_formula_sum   'Ba4 Ca4 Si3 Sn1'
_cell_volume   416.75181560
_cell_formula_units_Z   1
loop_
 _symmetry_equiv_pos_site_id
 _symmetry_equiv_pos_as_xyz
  1  'x, y, z'
loop_
 _atom_site_type_symbol
 _atom_site_label
 _atom_site_symmetry_multiplicity
 _atom_site_fract_x
 _atom_site_fract_y
 _atom_site_fract_z
 _atom_site_occupancy
  Ba  Ba0  1  0.250000  0.029095  0.180827  1
  Ba  Ba1  1  0.750000  0.980082  0.816298  1
  Ba  Ba2  1  0.250000  0.524986  0.327905  1
  Ba  Ba3  1  0.750000  0.470649  0.675490  1
  Ca  Ca4  1  0.750000  0.861974  0.435809  1
  Ca  Ca5  1  0.250000  0.638275  0.914686  1
  Ca  Ca6  1  0.750000  0.347418  0.073450  1
  Ca  Ca7  1  0.250000  0.142443  0.572903  1
  Si  Si8  1  0.250000  0.279939  0.889732  1
  Si  Si9  1  0.750000  0.219044  0.396625  1
  Si  Si10  1  0.250000  0.783511  0.606165  1
  Sn  Sn11  1  0.750000  0.722585  0.110109  1
