# generated using pymatgen
data_Ho16ZnIn(AgRh2)2
_symmetry_space_group_name_H-M   'P 1'
_cell_length_a   9.53665889
_cell_length_b   9.51774296
_cell_length_c   9.53665904
_cell_angle_alpha   59.87616246
_cell_angle_beta   59.95176990
_cell_angle_gamma   59.87616359
_symmetry_Int_Tables_number   1
_chemical_formula_structural   Ho16ZnIn(AgRh2)2
_chemical_formula_sum   'Ho16 Zn1 In1 Ag2 Rh4'
_cell_volume   610.71427601
_cell_formula_units_Z   1
loop_
 _symmetry_equiv_pos_site_id
 _symmetry_equiv_pos_as_xyz
  1  'x, y, z'
loop_
 _atom_site_type_symbol
 _atom_site_label
 _atom_site_symmetry_multiplicity
 _atom_site_fract_x
 _atom_site_fract_y
 _atom_site_fract_z
 _atom_site_occupancy
  Ho  Ho0  1  0.189826  0.182432  0.813657  1
  Ho  Ho1  1  0.603451  0.601943  0.194822  1
  Ho  Ho2  1  0.438000  0.061050  0.438000  1
  Ho  Ho3  1  0.440702  0.438980  0.058994  1
  Ho  Ho4  1  0.815711  0.180668  0.815711  1
  Ho  Ho5  1  0.187830  0.811565  0.187830  1
  Ho  Ho6  1  0.437726  0.061544  0.059925  1
  Ho  Ho7  1  0.186131  0.812920  0.814222  1
  Ho  Ho8  1  0.058646  0.441793  0.058646  1
  Ho  Ho9  1  0.814222  0.812920  0.186131  1
  Ho  Ho10  1  0.194822  0.601943  0.603451  1
  Ho  Ho11  1  0.058994  0.438980  0.440702  1
  Ho  Ho12  1  0.059925  0.061544  0.437726  1
  Ho  Ho13  1  0.813657  0.182432  0.189826  1
  Ho  Ho14  1  0.603762  0.193565  0.603762  1
  Ho  Ho15  1  0.600695  0.599822  0.600695  1
  Zn  Zn16  1  0.831011  0.833526  0.831011  1
  In  In17  1  0.828744  0.512315  0.828744  1
  Ag  Ag18  1  0.832867  0.834373  0.502902  1
  Ag  Ag19  1  0.502902  0.834373  0.832867  1
  Rh  Rh20  1  0.393289  0.821021  0.393289  1
  Rh  Rh21  1  0.392978  0.393237  0.392978  1
  Rh  Rh22  1  0.821468  0.393527  0.392641  1
  Rh  Rh23  1  0.392641  0.393527  0.821468  1
