# generated using pymatgen
data_NiHgPbO4
_symmetry_space_group_name_H-M   'P 1'
_cell_length_a   6.52245380
_cell_length_b   6.40382106
_cell_length_c   6.52250376
_cell_angle_alpha   60.61500250
_cell_angle_beta   91.03929165
_cell_angle_gamma   119.37470581
_symmetry_Int_Tables_number   1
_chemical_formula_structural   NiHgPbO4
_chemical_formula_sum   'Ni2 Hg2 Pb2 O8'
_cell_volume   197.78004046
_cell_formula_units_Z   2
loop_
 _symmetry_equiv_pos_site_id
 _symmetry_equiv_pos_as_xyz
  1  'x, y, z'
loop_
 _atom_site_type_symbol
 _atom_site_label
 _atom_site_symmetry_multiplicity
 _atom_site_fract_x
 _atom_site_fract_y
 _atom_site_fract_z
 _atom_site_occupancy
  Ni  Ni0  1  0.375164  0.250294  0.375043  1
  Ni  Ni1  1  0.375004  0.750318  0.375034  1
  Hg  Hg2  1  0.976555  0.999852  0.976597  1
  Hg  Hg3  1  0.773708  0.499874  0.773637  1
  Pb  Pb4  1  0.874887  0.250052  0.374830  1
  Pb  Pb5  1  0.374864  0.749963  0.874895  1
  O  O6  1  0.143207  0.271327  0.142798  1
  O  O7  1  0.594204  0.206348  0.180940  1
  O  O8  1  0.569171  0.706474  0.155664  1
  O  O9  1  0.142822  0.728551  0.143236  1
  O  O10  1  0.606707  0.228668  0.607160  1
  O  O11  1  0.155623  0.293484  0.569150  1
  O  O12  1  0.180907  0.793592  0.594264  1
  O  O13  1  0.607182  0.771202  0.606754  1
