# generated using pymatgen
data_YTm2Zn2(Ga2Ag)3
_symmetry_space_group_name_H-M   'P 1'
_cell_length_a   4.30438196
_cell_length_b   8.27131259
_cell_length_c   8.28039555
_cell_angle_alpha   71.07963689
_cell_angle_beta   74.93503442
_cell_angle_gamma   74.91810071
_symmetry_Int_Tables_number   1
_chemical_formula_structural   YTm2Zn2(Ga2Ag)3
_chemical_formula_sum   'Y1 Tm2 Zn2 Ga6 Ag3'
_cell_volume   264.25188678
_cell_formula_units_Z   1
loop_
 _symmetry_equiv_pos_site_id
 _symmetry_equiv_pos_as_xyz
  1  'x, y, z'
loop_
 _atom_site_type_symbol
 _atom_site_label
 _atom_site_symmetry_multiplicity
 _atom_site_fract_x
 _atom_site_fract_y
 _atom_site_fract_z
 _atom_site_occupancy
  Y  Y0  1  0.000000  0.000000  0.000000  1
  Tm  Tm1  1  0.298894  0.698238  0.703975  1
  Tm  Tm2  1  0.701106  0.301762  0.296025  1
  Zn  Zn3  1  0.339053  0.294470  0.027426  1
  Zn  Zn4  1  0.660947  0.705530  0.972574  1
  Ga  Ga5  1  0.341804  0.032694  0.283697  1
  Ga  Ga6  1  0.658196  0.967306  0.716303  1
  Ga  Ga7  1  0.143094  0.580850  0.132964  1
  Ga  Ga8  1  0.856906  0.419150  0.867036  1
  Ga  Ga9  1  0.144011  0.136413  0.575566  1
  Ga  Ga10  1  0.855989  0.863587  0.424434  1
  Ag  Ag11  1  0.500323  0.304944  0.694412  1
  Ag  Ag12  1  0.499677  0.695056  0.305588  1
  Ag  Ag13  1  0.000000  0.500000  0.500000  1
