# generated using pymatgen
data_Pu(ReO5)2
_symmetry_space_group_name_H-M   'P 1'
_cell_length_a   5.66748759
_cell_length_b   5.83087187
_cell_length_c   8.46372400
_cell_angle_alpha   110.14899137
_cell_angle_beta   111.91846281
_cell_angle_gamma   90.00000397
_symmetry_Int_Tables_number   1
_chemical_formula_structural   Pu(ReO5)2
_chemical_formula_sum   'Pu1 Re2 O10'
_cell_volume   240.92854806
_cell_formula_units_Z   1
loop_
 _symmetry_equiv_pos_site_id
 _symmetry_equiv_pos_as_xyz
  1  'x, y, z'
loop_
 _atom_site_type_symbol
 _atom_site_label
 _atom_site_symmetry_multiplicity
 _atom_site_fract_x
 _atom_site_fract_y
 _atom_site_fract_z
 _atom_site_occupancy
  Pu  Pu0  1  0.000000  0.000000  0.000000  1
  Re  Re1  1  0.333241  0.647100  0.294201  1
  Re  Re2  1  0.666759  0.352900  0.705799  1
  O  O3  1  0.317916  0.819445  0.153913  1
  O  O4  1  0.317916  0.334468  0.153913  1
  O  O5  1  0.682084  0.180555  0.846087  1
  O  O6  1  0.682084  0.665532  0.846087  1
  O  O7  1  0.613568  0.745424  0.490847  1
  O  O8  1  0.386432  0.254576  0.509153  1
  O  O9  1  0.095963  0.907355  0.814711  1
  O  O10  1  0.904037  0.092645  0.185289  1
  O  O11  1  0.068857  0.674892  0.349784  1
  O  O12  1  0.931143  0.325108  0.650216  1
