# generated using pymatgen
data_Hf2Sc6V12Si15As
_symmetry_space_group_name_H-M   'P 1'
_cell_length_a   6.62686242
_cell_length_b   6.63038984
_cell_length_c   12.26151399
_cell_angle_alpha   89.95225813
_cell_angle_beta   89.93054433
_cell_angle_gamma   90.06086187
_symmetry_Int_Tables_number   1
_chemical_formula_structural   Hf2Sc6V12Si15As
_chemical_formula_sum   'Hf2 Sc6 V12 Si15 As1'
_cell_volume   538.75386710
_cell_formula_units_Z   1
loop_
 _symmetry_equiv_pos_site_id
 _symmetry_equiv_pos_as_xyz
  1  'x, y, z'
loop_
 _atom_site_type_symbol
 _atom_site_label
 _atom_site_symmetry_multiplicity
 _atom_site_fract_x
 _atom_site_fract_y
 _atom_site_fract_z
 _atom_site_occupancy
  Hf  Hf0  1  0.003486  0.659295  0.029308  1
  Hf  Hf1  1  0.838898  0.503818  0.280074  1
  Sc  Sc2  1  0.160772  0.497660  0.778887  1
  Sc  Sc3  1  0.501750  0.838051  0.720331  1
  Sc  Sc4  1  0.500519  0.164112  0.221978  1
  Sc  Sc5  1  0.998171  0.337807  0.529666  1
  Sc  Sc6  1  0.663054  0.000764  0.969931  1
  Sc  Sc7  1  0.338236  0.997944  0.470160  1
  V  V8  1  0.330205  0.337555  0.000138  1
  V  V9  1  0.164815  0.830097  0.250559  1
  V  V10  1  0.832306  0.167924  0.750316  1
  V  V11  1  0.668634  0.667791  0.499676  1
  V  V12  1  0.000501  0.161116  0.127159  1
  V  V13  1  0.342669  0.505412  0.375478  1
  V  V14  1  0.659458  0.493116  0.877150  1
  V  V15  1  0.507523  0.343415  0.623656  1
  V  V16  1  0.495443  0.656444  0.123188  1
  V  V17  1  0.993043  0.843113  0.626592  1
  V  V18  1  0.155312  0.003098  0.873995  1
  V  V19  1  0.842362  0.992226  0.372814  1
  Si  Si20  1  0.538444  0.794342  0.315091  1
  Si  Si21  1  0.460001  0.206919  0.814341  1
  Si  Si22  1  0.794137  0.539624  0.685164  1
  Si  Si23  1  0.208818  0.458520  0.186086  1
  Si  Si24  1  0.706285  0.039498  0.564737  1
  Si  Si25  1  0.959553  0.292518  0.934093  1
  Si  Si26  1  0.040927  0.707371  0.436580  1
  Si  Si27  1  0.703651  0.370161  0.071036  1
  Si  Si28  1  0.128886  0.203849  0.320914  1
  Si  Si29  1  0.869348  0.796090  0.820436  1
  Si  Si30  1  0.203568  0.129414  0.679841  1
  Si  Si31  1  0.794739  0.871480  0.179226  1
  Si  Si32  1  0.297403  0.629180  0.570268  1
  Si  Si33  1  0.373386  0.698947  0.925334  1
  Si  Si34  1  0.629215  0.295813  0.429739  1
  As  As35  1  0.294485  0.965513  0.066058  1
