# generated using pymatgen
data_NdZn2AgPt2
_symmetry_space_group_name_H-M   'P 1'
_cell_length_a   5.31679733
_cell_length_b   5.31679651
_cell_length_c   5.59178800
_cell_angle_alpha   58.27381364
_cell_angle_beta   58.27381915
_cell_angle_gamma   60.37463754
_symmetry_Int_Tables_number   1
_chemical_formula_structural   NdZn2AgPt2
_chemical_formula_sum   'Nd1 Zn2 Ag1 Pt2'
_cell_volume   109.05424694
_cell_formula_units_Z   1
loop_
 _symmetry_equiv_pos_site_id
 _symmetry_equiv_pos_as_xyz
  1  'x, y, z'
loop_
 _atom_site_type_symbol
 _atom_site_label
 _atom_site_symmetry_multiplicity
 _atom_site_fract_x
 _atom_site_fract_y
 _atom_site_fract_z
 _atom_site_occupancy
  Nd  Nd0  1  0.256914  0.256914  0.243086  1
  Zn  Zn1  1  0.617867  0.119167  0.631484  1
  Zn  Zn2  1  0.119167  0.617867  0.631484  1
  Ag  Ag3  1  0.008600  0.008600  0.991400  1
  Pt  Pt4  1  0.623727  0.623727  0.627619  1
  Pt  Pt5  1  0.623727  0.623727  0.124929  1
