# generated using pymatgen
data_Y15Er(In3Ni)2
_symmetry_space_group_name_H-M   'P 1'
_cell_length_a   10.49051100
_cell_length_b   10.48237845
_cell_length_c   6.96574644
_cell_angle_alpha   89.92207950
_cell_angle_beta   90.00000000
_cell_angle_gamma   120.02566444
_symmetry_Int_Tables_number   1
_chemical_formula_structural   Y15Er(In3Ni)2
_chemical_formula_sum   'Y15 Er1 In6 Ni2'
_cell_volume   663.19594891
_cell_formula_units_Z   1
loop_
 _symmetry_equiv_pos_site_id
 _symmetry_equiv_pos_as_xyz
  1  'x, y, z'
loop_
 _atom_site_type_symbol
 _atom_site_label
 _atom_site_symmetry_multiplicity
 _atom_site_fract_x
 _atom_site_fract_y
 _atom_site_fract_z
 _atom_site_occupancy
  Y  Y0  1  0.934246  0.467311  0.524941  1
  Y  Y1  1  0.533066  0.467311  0.524941  1
  Y  Y2  1  0.467337  0.934674  0.025533  1
  Y  Y3  1  0.066298  0.533003  0.024400  1
  Y  Y4  1  0.466706  0.533003  0.024400  1
  Y  Y5  1  0.176287  0.352573  0.731183  1
  Y  Y6  1  0.646848  0.824348  0.731023  1
  Y  Y7  1  0.177501  0.824348  0.731023  1
  Y  Y8  1  0.823098  0.646197  0.231510  1
  Y  Y9  1  0.352824  0.175940  0.233172  1
  Y  Y10  1  0.823115  0.175940  0.233172  1
  Y  Y11  1  0.666277  0.332552  0.908879  1
  Y  Y12  1  0.333970  0.667940  0.408615  1
  Y  Y13  1  0.999717  0.999434  0.506839  1
  Y  Y14  1  0.000009  0.000019  0.006875  1
  Er  Er15  1  0.533947  0.067892  0.525265  1
  In  In16  1  0.837197  0.674395  0.764526  1
  In  In17  1  0.326187  0.163264  0.764871  1
  In  In18  1  0.837076  0.163264  0.764871  1
  In  In19  1  0.163015  0.326031  0.264313  1
  In  In20  1  0.674502  0.836638  0.263972  1
  In  In21  1  0.162135  0.836638  0.263972  1
  Ni  Ni22  1  0.665373  0.330744  0.299873  1
  Ni  Ni23  1  0.333270  0.666542  0.797509  1
