# generated using pymatgen
data_Mg5P12Ru19
_symmetry_space_group_name_H-M   'P 1'
_cell_length_a   12.42142600
_cell_length_b   12.42142646
_cell_length_c   3.93217500
_cell_angle_alpha   90.00000000
_cell_angle_beta   90.00000000
_cell_angle_gamma   119.99999877
_symmetry_Int_Tables_number   1
_chemical_formula_structural   Mg5P12Ru19
_chemical_formula_sum   'Mg5 P12 Ru19'
_cell_volume   525.41976246
_cell_formula_units_Z   1
loop_
 _symmetry_equiv_pos_site_id
 _symmetry_equiv_pos_as_xyz
  1  'x, y, z'
loop_
 _atom_site_type_symbol
 _atom_site_label
 _atom_site_symmetry_multiplicity
 _atom_site_fract_x
 _atom_site_fract_y
 _atom_site_fract_z
 _atom_site_occupancy
  Mg  Mg0  1  0.186610  0.186610  0.500000  1
  Mg  Mg1  1  0.813390  0.000000  0.500000  1
  Mg  Mg2  1  0.000000  0.813390  0.500000  1
  Mg  Mg3  1  0.333333  0.666667  0.000000  1
  Mg  Mg4  1  0.666667  0.333333  0.000000  1
  P  P5  1  0.820472  0.820472  0.000000  1
  P  P6  1  0.179528  0.000000  0.000000  1
  P  P7  1  0.000000  0.179528  0.000000  1
  P  P8  1  0.170562  0.469707  0.500000  1
  P  P9  1  0.530293  0.700854  0.500000  1
  P  P10  1  0.299146  0.829438  0.500000  1
  P  P11  1  0.700854  0.530293  0.500000  1
  P  P12  1  0.829438  0.299146  0.500000  1
  P  P13  1  0.469707  0.170562  0.500000  1
  P  P14  1  0.387759  0.387759  0.000000  1
  P  P15  1  0.612241  0.000000  0.000000  1
  P  P16  1  0.000000  0.612241  0.000000  1
  Ru  Ru17  1  0.567563  0.567563  0.000000  1
  Ru  Ru18  1  0.432437  0.000000  0.000000  1
  Ru  Ru19  1  0.000000  0.432437  0.000000  1
  Ru  Ru20  1  0.728839  0.728839  0.500000  1
  Ru  Ru21  1  0.271161  0.000000  0.500000  1
  Ru  Ru22  1  0.000000  0.271161  0.500000  1
  Ru  Ru23  1  0.190056  0.365094  0.000000  1
  Ru  Ru24  1  0.634906  0.824962  0.000000  1
  Ru  Ru25  1  0.175038  0.809944  0.000000  1
  Ru  Ru26  1  0.824962  0.634906  0.000000  1
  Ru  Ru27  1  0.809944  0.175038  0.000000  1
  Ru  Ru28  1  0.365094  0.190056  0.000000  1
  Ru  Ru29  1  0.371178  0.500643  0.500000  1
  Ru  Ru30  1  0.499357  0.870535  0.500000  1
  Ru  Ru31  1  0.129465  0.628822  0.500000  1
  Ru  Ru32  1  0.870535  0.499357  0.500000  1
  Ru  Ru33  1  0.628822  0.129465  0.500000  1
  Ru  Ru34  1  0.500643  0.371178  0.500000  1
  Ru  Ru35  1  0.000000  0.000000  0.000000  1
