# generated using pymatgen
data_Th6Cd23Pt
_symmetry_space_group_name_H-M   'P 1'
_cell_length_a   10.03339735
_cell_length_b   10.03391135
_cell_length_c   10.03330141
_cell_angle_alpha   60.77375576
_cell_angle_beta   60.65952521
_cell_angle_gamma   60.66431190
_symmetry_Int_Tables_number   1
_chemical_formula_structural   Th6Cd23Pt
_chemical_formula_sum   'Th6 Cd23 Pt1'
_cell_volume   725.51463381
_cell_formula_units_Z   1
loop_
 _symmetry_equiv_pos_site_id
 _symmetry_equiv_pos_as_xyz
  1  'x, y, z'
loop_
 _atom_site_type_symbol
 _atom_site_label
 _atom_site_symmetry_multiplicity
 _atom_site_fract_x
 _atom_site_fract_y
 _atom_site_fract_z
 _atom_site_occupancy
  Th  Th0  1  0.797195  0.797183  0.203961  1
  Th  Th1  1  0.202811  0.796074  0.202769  1
  Th  Th2  1  0.795914  0.202900  0.202888  1
  Th  Th3  1  0.202805  0.202817  0.796039  1
  Th  Th4  1  0.797189  0.203926  0.797231  1
  Th  Th5  1  0.204086  0.797100  0.797112  1
  Cd  Cd6  1  0.831890  0.831746  0.501893  1
  Cd  Cd7  1  0.831860  0.501966  0.831745  1
  Cd  Cd8  1  0.501869  0.831859  0.831845  1
  Cd  Cd9  1  0.831883  0.831895  0.831892  1
  Cd  Cd10  1  0.168110  0.168254  0.498107  1
  Cd  Cd11  1  0.168140  0.498034  0.168255  1
  Cd  Cd12  1  0.498131  0.168141  0.168155  1
  Cd  Cd13  1  0.168117  0.168105  0.168108  1
  Cd  Cd14  1  0.622191  0.622233  0.136184  1
  Cd  Cd15  1  0.622200  0.136145  0.622271  1
  Cd  Cd16  1  0.136208  0.622116  0.622187  1
  Cd  Cd17  1  0.621703  0.621472  0.621551  1
  Cd  Cd18  1  0.377809  0.377767  0.863816  1
  Cd  Cd19  1  0.377800  0.863855  0.377729  1
  Cd  Cd20  1  0.863792  0.377884  0.377813  1
  Cd  Cd21  1  0.378297  0.378528  0.378449  1
  Cd  Cd22  1  0.000000  0.000000  0.500000  1
  Cd  Cd23  1  0.500000  0.000000  0.500000  1
  Cd  Cd24  1  0.000000  0.500000  0.500000  1
  Cd  Cd25  1  0.500000  0.500000  0.000000  1
  Cd  Cd26  1  0.000000  0.500000  0.000000  1
  Cd  Cd27  1  0.500000  0.000000  0.000000  1
  Cd  Cd28  1  0.500000  0.500000  0.500000  1
  Pt  Pt29  1  0.000000  0.000000  0.000000  1
