# generated using pymatgen
data_Y8Ga(Si5Mo4)3
_symmetry_space_group_name_H-M   'P 1'
_cell_length_a   6.79075408
_cell_length_b   6.96001525
_cell_length_c   12.99791061
_cell_angle_alpha   90.12530964
_cell_angle_beta   89.96329878
_cell_angle_gamma   90.08518544
_symmetry_Int_Tables_number   1
_chemical_formula_structural   Y8Ga(Si5Mo4)3
_chemical_formula_sum   'Y8 Ga1 Si15 Mo12'
_cell_volume   614.32774952
_cell_formula_units_Z   1
loop_
 _symmetry_equiv_pos_site_id
 _symmetry_equiv_pos_as_xyz
  1  'x, y, z'
loop_
 _atom_site_type_symbol
 _atom_site_label
 _atom_site_symmetry_multiplicity
 _atom_site_fract_x
 _atom_site_fract_y
 _atom_site_fract_z
 _atom_site_occupancy
  Y  Y0  1  0.997036  0.167915  0.094383  1
  Y  Y1  1  0.002913  0.832856  0.906209  1
  Y  Y2  1  0.502036  0.667009  0.905996  1
  Y  Y3  1  0.004220  0.833052  0.593984  1
  Y  Y4  1  0.496812  0.333007  0.094191  1
  Y  Y5  1  0.995820  0.166623  0.404940  1
  Y  Y6  1  0.498599  0.333390  0.404761  1
  Y  Y7  1  0.506439  0.667422  0.594927  1
  Ga  Ga8  1  0.164656  0.455886  0.545696  1
  Si  Si9  1  0.035079  0.136439  0.749057  1
  Si  Si10  1  0.963888  0.866046  0.248350  1
  Si  Si11  1  0.464902  0.636690  0.249441  1
  Si  Si12  1  0.532713  0.364326  0.750751  1
  Si  Si13  1  0.303680  0.869041  0.750606  1
  Si  Si14  1  0.695773  0.128540  0.249634  1
  Si  Si15  1  0.195843  0.372539  0.250168  1
  Si  Si16  1  0.805861  0.628721  0.750207  1
  Si  Si17  1  0.840622  0.544482  0.452662  1
  Si  Si18  1  0.340686  0.957110  0.453253  1
  Si  Si19  1  0.840077  0.543347  0.046724  1
  Si  Si20  1  0.660286  0.042596  0.546854  1
  Si  Si21  1  0.159333  0.455749  0.953975  1
  Si  Si22  1  0.658850  0.042339  0.952915  1
  Si  Si23  1  0.339888  0.957094  0.047314  1
  Mo  Mo24  1  0.165344  0.497628  0.753275  1
  Mo  Mo25  1  0.833887  0.501605  0.249489  1
  Mo  Mo26  1  0.332471  0.001960  0.249475  1
  Mo  Mo27  1  0.668418  0.998706  0.750679  1
  Mo  Mo28  1  0.335403  0.157383  0.628174  1
  Mo  Mo29  1  0.669769  0.836392  0.374114  1
  Mo  Mo30  1  0.167875  0.669805  0.369949  1
  Mo  Mo31  1  0.668377  0.836166  0.125432  1
  Mo  Mo32  1  0.823510  0.336222  0.627161  1
  Mo  Mo33  1  0.330102  0.162858  0.875774  1
  Mo  Mo34  1  0.828831  0.335902  0.875176  1
  Mo  Mo35  1  0.170004  0.663154  0.124304  1
