# generated using pymatgen
data_Zr2Sc2CrRe7
_symmetry_space_group_name_H-M   'P 1'
_cell_length_a   5.24947741
_cell_length_b   5.30762828
_cell_length_c   8.61408257
_cell_angle_alpha   90.00000278
_cell_angle_beta   90.09040433
_cell_angle_gamma   120.36711280
_symmetry_Int_Tables_number   1
_chemical_formula_structural   Zr2Sc2CrRe7
_chemical_formula_sum   'Zr2 Sc2 Cr1 Re7'
_cell_volume   207.07945671
_cell_formula_units_Z   1
loop_
 _symmetry_equiv_pos_site_id
 _symmetry_equiv_pos_as_xyz
  1  'x, y, z'
loop_
 _atom_site_type_symbol
 _atom_site_label
 _atom_site_symmetry_multiplicity
 _atom_site_fract_x
 _atom_site_fract_y
 _atom_site_fract_z
 _atom_site_occupancy
  Zr  Zr0  1  0.335775  0.667888  0.438209  1
  Zr  Zr1  1  0.666387  0.333193  0.937359  1
  Sc  Sc2  1  0.666882  0.333441  0.563017  1
  Sc  Sc3  1  0.335379  0.667690  0.060909  1
  Cr  Cr4  1  0.658270  0.829136  0.749788  1
  Re  Re5  1  0.337848  0.168924  0.249860  1
  Re  Re6  1  0.828726  0.170503  0.249990  1
  Re  Re7  1  0.174991  0.346611  0.750122  1
  Re  Re8  1  0.174991  0.828381  0.750122  1
  Re  Re9  1  0.828726  0.658222  0.249990  1
  Re  Re10  1  0.996959  0.998480  0.507455  1
  Re  Re11  1  0.995067  0.997533  0.993180  1
