# generated using pymatgen
data_Zr7RhAu9
_symmetry_space_group_name_H-M   'P 1'
_cell_length_a   8.43969260
_cell_length_b   8.34752881
_cell_length_c   9.93778705
_cell_angle_alpha   89.75286560
_cell_angle_beta   89.95597891
_cell_angle_gamma   107.25681770
_symmetry_Int_Tables_number   1
_chemical_formula_structural   Zr7RhAu9
_chemical_formula_sum   'Zr14 Rh2 Au18'
_cell_volume   668.59880322
_cell_formula_units_Z   2
loop_
 _symmetry_equiv_pos_site_id
 _symmetry_equiv_pos_as_xyz
  1  'x, y, z'
loop_
 _atom_site_type_symbol
 _atom_site_label
 _atom_site_symmetry_multiplicity
 _atom_site_fract_x
 _atom_site_fract_y
 _atom_site_fract_z
 _atom_site_occupancy
  Zr  Zr0  1  0.692289  0.304994  0.003100  1
  Zr  Zr1  1  0.307711  0.695006  0.996900  1
  Zr  Zr2  1  0.812475  0.187218  0.489608  1
  Zr  Zr3  1  0.187525  0.812782  0.510392  1
  Zr  Zr4  1  0.000000  0.000000  0.000000  1
  Zr  Zr5  1  0.500000  0.500000  0.500000  1
  Zr  Zr6  1  0.004578  0.495080  0.250604  1
  Zr  Zr7  1  0.995422  0.504920  0.749396  1
  Zr  Zr8  1  0.487599  0.993329  0.750296  1
  Zr  Zr9  1  0.512401  0.006671  0.249704  1
  Zr  Zr10  1  0.312548  0.310250  0.189222  1
  Zr  Zr11  1  0.687452  0.689750  0.810778  1
  Zr  Zr12  1  0.185245  0.170689  0.698110  1
  Zr  Zr13  1  0.814755  0.829311  0.301890  1
  Rh  Rh14  1  0.851885  0.145794  0.210079  1
  Rh  Rh15  1  0.148115  0.854206  0.789921  1
  Au  Au16  1  0.642593  0.349846  0.707466  1
  Au  Au17  1  0.652264  0.360519  0.290132  1
  Au  Au18  1  0.357407  0.650154  0.292534  1
  Au  Au19  1  0.347736  0.639481  0.709868  1
  Au  Au20  1  0.847720  0.143282  0.789608  1
  Au  Au21  1  0.152280  0.856718  0.210392  1
  Au  Au22  1  0.941847  0.648315  0.002718  1
  Au  Au23  1  0.058153  0.351685  0.997282  1
  Au  Au24  1  0.557259  0.851343  0.504510  1
  Au  Au25  1  0.147581  0.440477  0.501916  1
  Au  Au26  1  0.442741  0.148657  0.495490  1
  Au  Au27  1  0.852419  0.559523  0.498084  1
  Au  Au28  1  0.351390  0.057965  0.998476  1
  Au  Au29  1  0.648610  0.942035  0.001524  1
  Au  Au30  1  0.106705  0.107110  0.396805  1
  Au  Au31  1  0.893295  0.892890  0.603195  1
  Au  Au32  1  0.396523  0.394934  0.897833  1
  Au  Au33  1  0.603477  0.605066  0.102167  1
