# generated using pymatgen
data_Pr3Mg2InPtPb2
_symmetry_space_group_name_H-M   'P 1'
_cell_length_a   7.74302264
_cell_length_b   7.77321245
_cell_length_c   4.64862800
_cell_angle_alpha   90.00000000
_cell_angle_beta   90.00000000
_cell_angle_gamma   120.12906429
_symmetry_Int_Tables_number   1
_chemical_formula_structural   Pr3Mg2InPtPb2
_chemical_formula_sum   'Pr3 Mg2 In1 Pt1 Pb2'
_cell_volume   241.99155237
_cell_formula_units_Z   1
loop_
 _symmetry_equiv_pos_site_id
 _symmetry_equiv_pos_as_xyz
  1  'x, y, z'
loop_
 _atom_site_type_symbol
 _atom_site_label
 _atom_site_symmetry_multiplicity
 _atom_site_fract_x
 _atom_site_fract_y
 _atom_site_fract_z
 _atom_site_occupancy
  Pr  Pr0  1  0.391639  0.392728  0.000000  1
  Pr  Pr1  1  0.608361  0.001089  0.000000  1
  Pr  Pr2  1  0.000000  0.605636  0.000000  1
  Mg  Mg3  1  0.776516  0.774573  0.500000  1
  Mg  Mg4  1  0.223484  0.998057  0.500000  1
  In  In5  1  0.000000  0.227695  0.500000  1
  Pt  Pt6  1  0.000000  0.992445  0.000000  1
  Pb  Pb7  1  0.663124  0.335450  0.500000  1
  Pb  Pb8  1  0.336876  0.672327  0.500000  1
