# generated using pymatgen
data_K2Ga2As2O7
_symmetry_space_group_name_H-M   'P 1'
_cell_length_a   7.17977991
_cell_length_b   7.17978005
_cell_length_c   7.17978072
_cell_angle_alpha   134.28990328
_cell_angle_beta   96.47490526
_cell_angle_gamma   100.89109568
_symmetry_Int_Tables_number   1
_chemical_formula_structural   K2Ga2As2O7
_chemical_formula_sum   'K2 Ga2 As2 O7'
_cell_volume   243.88676526
_cell_formula_units_Z   1
loop_
 _symmetry_equiv_pos_site_id
 _symmetry_equiv_pos_as_xyz
  1  'x, y, z'
loop_
 _atom_site_type_symbol
 _atom_site_label
 _atom_site_symmetry_multiplicity
 _atom_site_fract_x
 _atom_site_fract_y
 _atom_site_fract_z
 _atom_site_occupancy
  K  K0  1  0.157860  0.157860  0.000000  1
  K  K1  1  0.845062  0.345062  0.500000  1
  Ga  Ga2  1  0.274839  0.944570  0.330268  1
  Ga  Ga3  1  0.614302  0.944570  0.669731  1
  As  As4  1  0.824222  0.609515  0.214707  1
  As  As5  1  0.394810  0.609515  0.785293  1
  O  O6  1  0.784279  0.257490  0.044144  1
  O  O7  1  0.094410  0.742741  0.351668  1
  O  O8  1  0.213346  0.257490  0.473212  1
  O  O9  1  0.538701  0.038701  0.500000  1
  O  O10  1  0.784279  0.740135  0.526788  1
  O  O11  1  0.391072  0.742741  0.648331  1
  O  O12  1  0.213346  0.740135  0.955856  1
