# generated using pymatgen
data_K2Hf3Zr9(BI14)2
_symmetry_space_group_name_H-M   'P 1'
_cell_length_a   11.02423472
_cell_length_b   11.02423418
_cell_length_c   13.06825927
_cell_angle_alpha   89.92572786
_cell_angle_beta   89.92572643
_cell_angle_gamma   94.43984494
_symmetry_Int_Tables_number   1
_chemical_formula_structural   K2Hf3Zr9(BI14)2
_chemical_formula_sum   'K2 Hf3 Zr9 B2 I28'
_cell_volume   1583.46556782
_cell_formula_units_Z   1
loop_
 _symmetry_equiv_pos_site_id
 _symmetry_equiv_pos_as_xyz
  1  'x, y, z'
loop_
 _atom_site_type_symbol
 _atom_site_label
 _atom_site_symmetry_multiplicity
 _atom_site_fract_x
 _atom_site_fract_y
 _atom_site_fract_z
 _atom_site_occupancy
  K  K0  1  0.500681  0.500681  0.000042  1
  K  K1  1  0.999659  0.999659  0.498940  1
  Hf  Hf2  1  0.371239  0.371239  0.404089  1
  Hf  Hf3  1  0.628748  0.628748  0.595778  1
  Hf  Hf4  1  0.128656  0.128656  0.904054  1
  Zr  Zr5  1  0.868759  0.868759  0.097857  1
  Zr  Zr6  1  0.956283  0.167154  0.109210  1
  Zr  Zr7  1  0.042478  0.831694  0.891833  1
  Zr  Zr8  1  0.542880  0.332517  0.608560  1
  Zr  Zr9  1  0.667658  0.457263  0.391150  1
  Zr  Zr10  1  0.457263  0.667658  0.391150  1
  Zr  Zr11  1  0.332517  0.542880  0.608560  1
  Zr  Zr12  1  0.831694  0.042478  0.891833  1
  Zr  Zr13  1  0.167154  0.956283  0.109210  1
  B  B14  1  0.999960  0.999960  0.000098  1
  B  B15  1  0.500047  0.500047  0.499828  1
  I  I16  1  0.112044  0.356952  0.005147  1
  I  I17  1  0.888469  0.640281  0.992921  1
  I  I18  1  0.387765  0.142480  0.505285  1
  I  I19  1  0.857463  0.612206  0.494637  1
  I  I20  1  0.612206  0.857463  0.494637  1
  I  I21  1  0.142480  0.387765  0.505285  1
  I  I22  1  0.640281  0.888469  0.992921  1
  I  I23  1  0.356952  0.112044  0.005147  1
  I  I24  1  0.750873  0.249162  0.000003  1
  I  I25  1  0.249162  0.750873  0.000003  1
  I  I26  1  0.749197  0.251381  0.500006  1
  I  I27  1  0.251381  0.749197  0.500006  1
  I  I28  1  0.897108  0.397687  0.249522  1
  I  I29  1  0.103948  0.603456  0.749641  1
  I  I30  1  0.603456  0.103948  0.749641  1
  I  I31  1  0.397687  0.897108  0.249522  1
  I  I32  1  0.150811  0.150811  0.262143  1
  I  I33  1  0.849862  0.849862  0.737464  1
  I  I34  1  0.349100  0.349100  0.762594  1
  I  I35  1  0.651397  0.651397  0.237175  1
  I  I36  1  0.289555  0.532778  0.251158  1
  I  I37  1  0.710573  0.467349  0.748697  1
  I  I38  1  0.210664  0.967311  0.751516  1
  I  I39  1  0.035250  0.789203  0.250683  1
  I  I40  1  0.789203  0.035250  0.250683  1
  I  I41  1  0.967311  0.210664  0.751516  1
  I  I42  1  0.467349  0.710573  0.748697  1
  I  I43  1  0.532778  0.289555  0.251158  1
