# generated using pymatgen
data_Cs2NaLuAs2
_symmetry_space_group_name_H-M   'P 1'
_cell_length_a   9.80036099
_cell_length_b   9.80036046
_cell_length_c   9.80036089
_cell_angle_alpha   137.27669704
_cell_angle_beta   136.70919471
_cell_angle_gamma   62.45006524
_symmetry_Int_Tables_number   1
_chemical_formula_structural   Cs2NaLuAs2
_chemical_formula_sum   'Cs4 Na2 Lu2 As4'
_cell_volume   432.60256188
_cell_formula_units_Z   2
loop_
 _symmetry_equiv_pos_site_id
 _symmetry_equiv_pos_as_xyz
  1  'x, y, z'
loop_
 _atom_site_type_symbol
 _atom_site_label
 _atom_site_symmetry_multiplicity
 _atom_site_fract_x
 _atom_site_fract_y
 _atom_site_fract_z
 _atom_site_occupancy
  Cs  Cs0  1  0.538193  0.320096  0.218098  1
  Cs  Cs1  1  0.461807  0.679904  0.781902  1
  Cs  Cs2  1  0.101999  0.820096  0.281902  1
  Cs  Cs3  1  0.898001  0.179904  0.718098  1
  Na  Na4  1  0.500000  0.250000  0.750000  1
  Na  Na5  1  0.500000  0.750000  0.250000  1
  Lu  Lu6  1  0.000000  0.250000  0.250000  1
  Lu  Lu7  1  0.000000  0.750000  0.750000  1
  As  As8  1  0.305590  0.088399  0.217191  1
  As  As9  1  0.694410  0.911601  0.782809  1
  As  As10  1  0.871209  0.588399  0.282809  1
  As  As11  1  0.128791  0.411601  0.717191  1
