# generated using pymatgen
data_Hf5ZrCoBr15
_symmetry_space_group_name_H-M   'P 1'
_cell_length_a   9.36718006
_cell_length_b   9.36718092
_cell_length_c   9.36718044
_cell_angle_alpha   109.48878694
_cell_angle_beta   109.48879000
_cell_angle_gamma   109.43608949
_symmetry_Int_Tables_number   1
_chemical_formula_structural   Hf5ZrCoBr15
_chemical_formula_sum   'Hf5 Zr1 Co1 Br15'
_cell_volume   632.70993842
_cell_formula_units_Z   1
loop_
 _symmetry_equiv_pos_site_id
 _symmetry_equiv_pos_as_xyz
  1  'x, y, z'
loop_
 _atom_site_type_symbol
 _atom_site_label
 _atom_site_symmetry_multiplicity
 _atom_site_fract_x
 _atom_site_fract_y
 _atom_site_fract_z
 _atom_site_occupancy
  Hf  Hf0  1  0.227911  0.000138  0.227773  1
  Hf  Hf1  1  0.772364  0.000138  0.772227  1
  Hf  Hf2  1  0.000138  0.772364  0.772227  1
  Hf  Hf3  1  0.000138  0.227911  0.227773  1
  Hf  Hf4  1  0.227027  0.227027  0.000000  1
  Zr  Zr5  1  0.771050  0.771050  0.000000  1
  Co  Co6  1  0.998169  0.998169  0.000000  1
  Br  Br7  1  0.500463  0.000463  0.500000  1
  Br  Br8  1  0.000463  0.500463  0.500000  1
  Br  Br9  1  0.493260  0.493260  0.000000  1
  Br  Br10  1  0.504973  0.755276  0.749697  1
  Br  Br11  1  0.755276  0.005579  0.250303  1
  Br  Br12  1  0.492905  0.246550  0.246355  1
  Br  Br13  1  0.246920  0.246920  0.492982  1
  Br  Br14  1  0.246920  0.753938  0.000000  1
  Br  Br15  1  0.000194  0.246550  0.753645  1
  Br  Br16  1  0.005579  0.755276  0.250303  1
  Br  Br17  1  0.246550  0.000194  0.753645  1
  Br  Br18  1  0.246550  0.492905  0.246355  1
  Br  Br19  1  0.753938  0.246920  0.000000  1
  Br  Br20  1  0.755276  0.504973  0.749697  1
  Br  Br21  1  0.753938  0.753938  0.507018  1
