# generated using pymatgen
data_Th4Cu3Si5
_symmetry_space_group_name_H-M   'P 1'
_cell_length_a   4.12724300
_cell_length_b   4.12724387
_cell_length_c   16.51858800
_cell_angle_alpha   90.00000000
_cell_angle_beta   90.00000000
_cell_angle_gamma   120.00000105
_symmetry_Int_Tables_number   1
_chemical_formula_structural   Th4Cu3Si5
_chemical_formula_sum   'Th4 Cu3 Si5'
_cell_volume   243.68215072
_cell_formula_units_Z   1
loop_
 _symmetry_equiv_pos_site_id
 _symmetry_equiv_pos_as_xyz
  1  'x, y, z'
loop_
 _atom_site_type_symbol
 _atom_site_label
 _atom_site_symmetry_multiplicity
 _atom_site_fract_x
 _atom_site_fract_y
 _atom_site_fract_z
 _atom_site_occupancy
  Th  Th0  1  0.333333  0.666667  0.122862  1
  Th  Th1  1  0.333333  0.666667  0.626443  1
  Th  Th2  1  0.333333  0.666667  0.373557  1
  Th  Th3  1  0.333333  0.666667  0.877138  1
  Cu  Cu4  1  0.666667  0.333333  0.500000  1
  Cu  Cu5  1  0.000000  0.000000  0.248259  1
  Cu  Cu6  1  0.000000  0.000000  0.751741  1
  Si  Si7  1  0.666667  0.333333  0.249686  1
  Si  Si8  1  0.666667  0.333333  0.750314  1
  Si  Si9  1  0.000000  0.000000  0.000000  1
  Si  Si10  1  0.000000  0.000000  0.500000  1
  Si  Si11  1  0.666667  0.333333  0.000000  1
