# generated using pymatgen
data_Hf3ZrMo8
_symmetry_space_group_name_H-M   'P 1'
_cell_length_a   9.32163535
_cell_length_b   9.32163552
_cell_length_c   9.32163593
_cell_angle_alpha   33.44986143
_cell_angle_beta   33.44985693
_cell_angle_gamma   33.44986626
_symmetry_Int_Tables_number   1
_chemical_formula_structural   Hf3ZrMo8
_chemical_formula_sum   'Hf3 Zr1 Mo8'
_cell_volume   219.16550795
_cell_formula_units_Z   1
loop_
 _symmetry_equiv_pos_site_id
 _symmetry_equiv_pos_as_xyz
  1  'x, y, z'
loop_
 _atom_site_type_symbol
 _atom_site_label
 _atom_site_symmetry_multiplicity
 _atom_site_fract_x
 _atom_site_fract_y
 _atom_site_fract_z
 _atom_site_occupancy
  Hf  Hf0  1  0.375018  0.375018  0.375018  1
  Hf  Hf1  1  0.000140  0.000140  0.000140  1
  Hf  Hf2  1  0.499803  0.499803  0.499803  1
  Zr  Zr3  1  0.874984  0.874984  0.874984  1
  Mo  Mo4  1  0.437605  0.938042  0.437605  1
  Mo  Mo5  1  0.937454  0.436893  0.937454  1
  Mo  Mo6  1  0.437605  0.437605  0.938042  1
  Mo  Mo7  1  0.937454  0.937454  0.436893  1
  Mo  Mo8  1  0.187537  0.187537  0.187537  1
  Mo  Mo9  1  0.687466  0.687466  0.687466  1
  Mo  Mo10  1  0.938042  0.437605  0.437605  1
  Mo  Mo11  1  0.436893  0.937454  0.937454  1
