# generated using pymatgen
data_Pr15NdCd4IrRu3
_symmetry_space_group_name_H-M   'P 1'
_cell_length_a   10.01364369
_cell_length_b   10.02393790
_cell_length_c   10.02390964
_cell_angle_alpha   59.85649966
_cell_angle_beta   59.79234537
_cell_angle_gamma   59.79252153
_symmetry_Int_Tables_number   1
_chemical_formula_structural   Pr15NdCd4IrRu3
_chemical_formula_sum   'Pr15 Nd1 Cd4 Ir1 Ru3'
_cell_volume   708.45573494
_cell_formula_units_Z   1
loop_
 _symmetry_equiv_pos_site_id
 _symmetry_equiv_pos_as_xyz
  1  'x, y, z'
loop_
 _atom_site_type_symbol
 _atom_site_label
 _atom_site_symmetry_multiplicity
 _atom_site_fract_x
 _atom_site_fract_y
 _atom_site_fract_z
 _atom_site_occupancy
  Pr  Pr0  1  0.344711  0.346884  0.959678  1
  Pr  Pr1  1  0.344712  0.959679  0.346885  1
  Pr  Pr2  1  0.961092  0.345678  0.345679  1
  Pr  Pr3  1  0.810582  0.191029  0.191031  1
  Pr  Pr4  1  0.191074  0.809963  0.809959  1
  Pr  Pr5  1  0.191430  0.808730  0.190232  1
  Pr  Pr6  1  0.811554  0.191188  0.807789  1
  Pr  Pr7  1  0.191428  0.190231  0.808731  1
  Pr  Pr8  1  0.811555  0.807789  0.191188  1
  Pr  Pr9  1  0.938804  0.561647  0.561643  1
  Pr  Pr10  1  0.560109  0.939573  0.939574  1
  Pr  Pr11  1  0.560810  0.938834  0.562190  1
  Pr  Pr12  1  0.939220  0.560836  0.939846  1
  Pr  Pr13  1  0.560811  0.562189  0.938834  1
  Pr  Pr14  1  0.939222  0.939844  0.560836  1
  Nd  Nd15  1  0.345130  0.346874  0.346863  1
  Cd  Cd16  1  0.579458  0.579277  0.579278  1
  Cd  Cd17  1  0.579288  0.579541  0.260955  1
  Cd  Cd18  1  0.579288  0.260954  0.579543  1
  Cd  Cd19  1  0.261382  0.579159  0.579159  1
  Ir  Ir20  1  0.579064  0.140415  0.140416  1
  Ru  Ru21  1  0.139450  0.137484  0.137487  1
  Ru  Ru22  1  0.139913  0.137964  0.584237  1
  Ru  Ru23  1  0.139911  0.584239  0.137965  1
