# generated using pymatgen
data_TbY2Tm2Pb3
_symmetry_space_group_name_H-M   'P 1'
_cell_length_a   6.57334700
_cell_length_b   9.04756916
_cell_length_c   9.05047704
_cell_angle_alpha   120.00737249
_cell_angle_beta   89.99999367
_cell_angle_gamma   89.99997224
_symmetry_Int_Tables_number   1
_chemical_formula_structural   TbY2Tm2Pb3
_chemical_formula_sum   'Tb2 Y4 Tm4 Pb6'
_cell_volume   466.10987585
_cell_formula_units_Z   2
loop_
 _symmetry_equiv_pos_site_id
 _symmetry_equiv_pos_as_xyz
  1  'x, y, z'
loop_
 _atom_site_type_symbol
 _atom_site_label
 _atom_site_symmetry_multiplicity
 _atom_site_fract_x
 _atom_site_fract_y
 _atom_site_fract_z
 _atom_site_occupancy
  Tb  Tb0  1  0.750005  0.238853  0.000020  1
  Tb  Tb1  1  0.749999  0.760989  0.761070  1
  Y  Y2  1  0.749998  0.999937  0.238966  1
  Y  Y3  1  0.250004  0.761171  0.000004  1
  Y  Y4  1  0.250000  0.238986  0.238928  1
  Y  Y5  1  0.250001  0.000062  0.761009  1
  Tm  Tm6  1  0.499972  0.333284  0.666613  1
  Tm  Tm7  1  0.499972  0.666681  0.333370  1
  Tm  Tm8  1  0.000027  0.666717  0.333370  1
  Tm  Tm9  1  0.000027  0.333320  0.666613  1
  Pb  Pb10  1  0.749989  0.604960  0.000070  1
  Pb  Pb11  1  0.750004  0.395074  0.395187  1
  Pb  Pb12  1  0.750004  0.999955  0.604719  1
  Pb  Pb13  1  0.249989  0.394997  0.999997  1
  Pb  Pb14  1  0.250005  0.604970  0.604923  1
  Pb  Pb15  1  0.250005  0.000044  0.395141  1
