# generated using pymatgen
data_PrFeCoO5
_symmetry_space_group_name_H-M   'P 1'
_cell_length_a   5.80718700
_cell_length_b   7.56127200
_cell_length_c   8.69283600
_cell_angle_alpha   90.00000000
_cell_angle_beta   90.00000000
_cell_angle_gamma   90.00000000
_symmetry_Int_Tables_number   1
_chemical_formula_structural   PrFeCoO5
_chemical_formula_sum   'Pr4 Fe4 Co4 O20'
_cell_volume   381.69999878
_cell_formula_units_Z   4
loop_
 _symmetry_equiv_pos_site_id
 _symmetry_equiv_pos_as_xyz
  1  'x, y, z'
loop_
 _atom_site_type_symbol
 _atom_site_label
 _atom_site_symmetry_multiplicity
 _atom_site_fract_x
 _atom_site_fract_y
 _atom_site_fract_z
 _atom_site_occupancy
  Pr  Pr0  1  0.500000  0.361237  0.328078  1
  Pr  Pr1  1  0.500000  0.638763  0.671922  1
  Pr  Pr2  1  0.500000  0.138763  0.828078  1
  Pr  Pr3  1  0.500000  0.861237  0.171922  1
  Fe  Fe4  1  0.000000  0.112906  0.143771  1
  Fe  Fe5  1  0.000000  0.887094  0.856229  1
  Fe  Fe6  1  0.000000  0.387094  0.643771  1
  Fe  Fe7  1  0.000000  0.612906  0.356229  1
  Co  Co8  1  0.246903  0.000000  0.500000  1
  Co  Co9  1  0.753097  0.000000  0.500000  1
  Co  Co10  1  0.753097  0.500000  0.000000  1
  Co  Co11  1  0.246903  0.500000  0.000000  1
  O  O12  1  0.225463  0.000000  0.000000  1
  O  O13  1  0.774537  0.000000  0.000000  1
  O  O14  1  0.774537  0.500000  0.500000  1
  O  O15  1  0.225463  0.500000  0.500000  1
  O  O16  1  0.000000  0.351006  0.063012  1
  O  O17  1  0.000000  0.648994  0.936988  1
  O  O18  1  0.000000  0.148994  0.563012  1
  O  O19  1  0.000000  0.851006  0.436988  1
  O  O20  1  0.250955  0.096740  0.297728  1
  O  O21  1  0.749045  0.903260  0.702272  1
  O  O22  1  0.250955  0.903260  0.702272  1
  O  O23  1  0.749045  0.403260  0.797728  1
  O  O24  1  0.749045  0.096740  0.297728  1
  O  O25  1  0.250955  0.596740  0.202272  1
  O  O26  1  0.749045  0.596740  0.202272  1
  O  O27  1  0.250955  0.403260  0.797728  1
  O  O28  1  0.500000  0.347969  0.050757  1
  O  O29  1  0.500000  0.652031  0.949243  1
  O  O30  1  0.500000  0.152031  0.550757  1
  O  O31  1  0.500000  0.847969  0.449243  1
