# generated using pymatgen
data_Ce6Zn4Co11Ni
_symmetry_space_group_name_H-M   'P 1'
_cell_length_a   7.66091028
_cell_length_b   7.66091015
_cell_length_c   7.69013685
_cell_angle_alpha   109.54580923
_cell_angle_beta   109.54579727
_cell_angle_gamma   109.16725387
_symmetry_Int_Tables_number   1
_chemical_formula_structural   Ce6Zn4Co11Ni
_chemical_formula_sum   'Ce6 Zn4 Co11 Ni1'
_cell_volume   348.09286475
_cell_formula_units_Z   1
loop_
 _symmetry_equiv_pos_site_id
 _symmetry_equiv_pos_as_xyz
  1  'x, y, z'
loop_
 _atom_site_type_symbol
 _atom_site_label
 _atom_site_symmetry_multiplicity
 _atom_site_fract_x
 _atom_site_fract_y
 _atom_site_fract_z
 _atom_site_occupancy
  Ce  Ce0  1  0.701503  0.701503  0.993675  1
  Ce  Ce1  1  0.292172  0.292172  0.993675  1
  Ce  Ce2  1  0.999860  0.297010  0.296871  1
  Ce  Ce3  1  0.001241  0.701462  0.702703  1
  Ce  Ce4  1  0.297010  0.999860  0.296871  1
  Ce  Ce5  1  0.701462  0.001241  0.702703  1
  Zn  Zn6  1  0.999884  0.499884  0.999768  1
  Zn  Zn7  1  0.499884  0.999884  0.999768  1
  Zn  Zn8  1  0.497731  0.497731  0.498549  1
  Zn  Zn9  1  0.000817  0.000817  0.498549  1
  Co  Co10  1  0.354170  0.647591  0.001761  1
  Co  Co11  1  0.000276  0.646910  0.351018  1
  Co  Co12  1  0.352367  0.000415  0.648702  1
  Co  Co13  1  0.646910  0.000276  0.351018  1
  Co  Co14  1  0.648287  0.296334  0.648702  1
  Co  Co15  1  0.647591  0.354170  0.001761  1
  Co  Co16  1  0.296334  0.648287  0.648702  1
  Co  Co17  1  0.353251  0.353251  0.706501  1
  Co  Co18  1  0.000415  0.352367  0.648702  1
  Co  Co19  1  0.704108  0.350741  0.351018  1
  Co  Co20  1  0.350741  0.704108  0.351018  1
  Ni  Ni21  1  0.653983  0.653983  0.307966  1
