# generated using pymatgen
data_Yb10Ni3Ru
_symmetry_space_group_name_H-M   'P 1'
_cell_length_a   8.52442025
_cell_length_b   8.51267282
_cell_length_c   7.29094379
_cell_angle_alpha   83.28544995
_cell_angle_beta   83.37938181
_cell_angle_gamma   43.57874519
_symmetry_Int_Tables_number   1
_chemical_formula_structural   Yb10Ni3Ru
_chemical_formula_sum   'Yb10 Ni3 Ru1'
_cell_volume   361.85263930
_cell_formula_units_Z   1
loop_
 _symmetry_equiv_pos_site_id
 _symmetry_equiv_pos_as_xyz
  1  'x, y, z'
loop_
 _atom_site_type_symbol
 _atom_site_label
 _atom_site_symmetry_multiplicity
 _atom_site_fract_x
 _atom_site_fract_y
 _atom_site_fract_z
 _atom_site_occupancy
  Yb  Yb0  1  0.020737  0.796411  0.919687  1
  Yb  Yb1  1  0.198338  0.974065  0.581729  1
  Yb  Yb2  1  0.982594  0.198292  0.083944  1
  Yb  Yb3  1  0.795706  0.020145  0.418772  1
  Yb  Yb4  1  0.364818  0.206391  0.817798  1
  Yb  Yb5  1  0.801634  0.633394  0.678751  1
  Yb  Yb6  1  0.634145  0.797375  0.178408  1
  Yb  Yb7  1  0.203744  0.366180  0.323248  1
  Yb  Yb8  1  0.573560  0.424970  0.747919  1
  Yb  Yb9  1  0.425710  0.572567  0.252884  1
  Ni  Ni10  1  0.399841  0.823419  0.920983  1
  Ni  Ni11  1  0.820206  0.403651  0.416154  1
  Ni  Ni12  1  0.601962  0.176856  0.080471  1
  Ru  Ru13  1  0.177007  0.606284  0.579253  1
