# generated using pymatgen
data_YbDy9(In2Pt)4
_symmetry_space_group_name_H-M   'P 1'
_cell_length_a   3.62361800
_cell_length_b   8.18857100
_cell_length_c   18.33866552
_cell_angle_alpha   89.91973110
_cell_angle_beta   90.00000000
_cell_angle_gamma   90.00000000
_symmetry_Int_Tables_number   1
_chemical_formula_structural   YbDy9(In2Pt)4
_chemical_formula_sum   'Yb1 Dy9 In8 Pt4'
_cell_volume   544.14899392
_cell_formula_units_Z   1
loop_
 _symmetry_equiv_pos_site_id
 _symmetry_equiv_pos_as_xyz
  1  'x, y, z'
loop_
 _atom_site_type_symbol
 _atom_site_label
 _atom_site_symmetry_multiplicity
 _atom_site_fract_x
 _atom_site_fract_y
 _atom_site_fract_z
 _atom_site_occupancy
  Yb  Yb0  1  0.000000  0.000000  0.000000  1
  Dy  Dy1  1  0.000000  0.117241  0.414412  1
  Dy  Dy2  1  0.000000  0.882759  0.585588  1
  Dy  Dy3  1  0.000000  0.381896  0.914399  1
  Dy  Dy4  1  0.000000  0.618104  0.085601  1
  Dy  Dy5  1  0.000000  0.243923  0.220765  1
  Dy  Dy6  1  0.000000  0.756077  0.779235  1
  Dy  Dy7  1  0.000000  0.256176  0.720916  1
  Dy  Dy8  1  0.000000  0.743824  0.279084  1
  Dy  Dy9  1  0.000000  0.500000  0.500000  1
  In  In10  1  0.500000  0.426182  0.351518  1
  In  In11  1  0.500000  0.573818  0.648482  1
  In  In12  1  0.500000  0.073171  0.851735  1
  In  In13  1  0.500000  0.926829  0.148265  1
  In  In14  1  0.500000  0.291643  0.067195  1
  In  In15  1  0.500000  0.708357  0.932805  1
  In  In16  1  0.500000  0.208627  0.567188  1
  In  In17  1  0.500000  0.791373  0.432812  1
  Pt  Pt18  1  0.500000  0.024864  0.303226  1
  Pt  Pt19  1  0.500000  0.975136  0.696774  1
  Pt  Pt20  1  0.500000  0.476213  0.803145  1
  Pt  Pt21  1  0.500000  0.523787  0.196855  1
