# generated using pymatgen
data_Ho16Tl5InCoPt
_symmetry_space_group_name_H-M   'P 1'
_cell_length_a   10.36716921
_cell_length_b   10.36714233
_cell_length_c   7.02410503
_cell_angle_alpha   89.99140020
_cell_angle_beta   90.00872337
_cell_angle_gamma   119.94552480
_symmetry_Int_Tables_number   1
_chemical_formula_structural   Ho16Tl5InCoPt
_chemical_formula_sum   'Ho16 Tl5 In1 Co1 Pt1'
_cell_volume   654.15249829
_cell_formula_units_Z   1
loop_
 _symmetry_equiv_pos_site_id
 _symmetry_equiv_pos_as_xyz
  1  'x, y, z'
loop_
 _atom_site_type_symbol
 _atom_site_label
 _atom_site_symmetry_multiplicity
 _atom_site_fract_x
 _atom_site_fract_y
 _atom_site_fract_z
 _atom_site_occupancy
  Ho  Ho0  1  0.531181  0.064355  0.508373  1
  Ho  Ho1  1  0.935644  0.468818  0.508371  1
  Ho  Ho2  1  0.532633  0.467366  0.509342  1
  Ho  Ho3  1  0.461464  0.923234  0.008201  1
  Ho  Ho4  1  0.076771  0.538539  0.008198  1
  Ho  Ho5  1  0.461308  0.538692  0.007239  1
  Ho  Ho6  1  0.177292  0.355284  0.711594  1
  Ho  Ho7  1  0.644715  0.822709  0.711596  1
  Ho  Ho8  1  0.177697  0.822304  0.713546  1
  Ho  Ho9  1  0.824043  0.649588  0.209185  1
  Ho  Ho10  1  0.350413  0.175958  0.209186  1
  Ho  Ho11  1  0.825145  0.174855  0.209531  1
  Ho  Ho12  1  0.666851  0.333148  0.884248  1
  Ho  Ho13  1  0.333082  0.666919  0.398760  1
  Ho  Ho14  1  0.001077  0.998924  0.489391  1
  Ho  Ho15  1  0.000859  0.999141  0.989018  1
  Tl  Tl16  1  0.837350  0.674936  0.752898  1
  Tl  Tl17  1  0.325061  0.162648  0.752899  1
  Tl  Tl18  1  0.837726  0.162281  0.752537  1
  Tl  Tl19  1  0.163248  0.326614  0.256165  1
  Tl  Tl20  1  0.673383  0.836748  0.256171  1
  In  In21  1  0.162720  0.837278  0.254093  1
  Co  Co22  1  0.333404  0.666597  0.778897  1
  Pt  Pt23  1  0.666936  0.333065  0.278597  1
