# generated using pymatgen
data_Tm5S6
_symmetry_space_group_name_H-M   'P 1'
_cell_length_a   6.67009322
_cell_length_b   8.57835247
_cell_length_c   8.59316611
_cell_angle_alpha   83.64036883
_cell_angle_beta   130.55489736
_cell_angle_gamma   130.51201921
_symmetry_Int_Tables_number   1
_chemical_formula_structural   Tm5S6
_chemical_formula_sum   'Tm5 S6'
_cell_volume   239.15394916
_cell_formula_units_Z   1
loop_
 _symmetry_equiv_pos_site_id
 _symmetry_equiv_pos_as_xyz
  1  'x, y, z'
loop_
 _atom_site_type_symbol
 _atom_site_label
 _atom_site_symmetry_multiplicity
 _atom_site_fract_x
 _atom_site_fract_y
 _atom_site_fract_z
 _atom_site_occupancy
  Tm  Tm0  1  0.913676  0.633292  0.452213  1
  Tm  Tm1  1  0.416204  0.798396  0.287681  1
  Tm  Tm2  1  0.415615  0.462573  0.625915  1
  Tm  Tm3  1  0.912330  0.961493  0.121609  1
  Tm  Tm4  1  0.412832  0.133823  0.948890  1
  S  S5  1  0.161709  0.712922  0.869753  1
  S  S6  1  0.665585  0.882932  0.704076  1
  S  S7  1  0.661104  0.547547  0.038287  1
  S  S8  1  0.163841  0.380959  0.205480  1
  S  S9  1  0.171853  0.050070  0.538085  1
  S  S10  1  0.663266  0.214036  0.368503  1
