# generated using pymatgen
data_Hf7Zr3(SiSn3)2
_symmetry_space_group_name_H-M   'P 1'
_cell_length_a   8.63328800
_cell_length_b   8.63328737
_cell_length_c   5.86207200
_cell_angle_alpha   90.00000000
_cell_angle_beta   90.00000000
_cell_angle_gamma   120.00000241
_symmetry_Int_Tables_number   1
_chemical_formula_structural   Hf7Zr3(SiSn3)2
_chemical_formula_sum   'Hf7 Zr3 Si2 Sn6'
_cell_volume   378.38524734
_cell_formula_units_Z   1
loop_
 _symmetry_equiv_pos_site_id
 _symmetry_equiv_pos_as_xyz
  1  'x, y, z'
loop_
 _atom_site_type_symbol
 _atom_site_label
 _atom_site_symmetry_multiplicity
 _atom_site_fract_x
 _atom_site_fract_y
 _atom_site_fract_z
 _atom_site_occupancy
  Hf  Hf0  1  0.666667  0.333333  0.998051  1
  Hf  Hf1  1  0.333333  0.666667  0.998051  1
  Hf  Hf2  1  0.333333  0.666667  0.501949  1
  Hf  Hf3  1  0.666667  0.333333  0.501949  1
  Hf  Hf4  1  0.737337  0.737337  0.750000  1
  Hf  Hf5  1  0.262663  0.000000  0.750000  1
  Hf  Hf6  1  0.000000  0.262663  0.750000  1
  Zr  Zr7  1  0.254163  0.254163  0.250000  1
  Zr  Zr8  1  0.745837  0.000000  0.250000  1
  Zr  Zr9  1  0.000000  0.745837  0.250000  1
  Si  Si10  1  0.000000  0.000000  0.989186  1
  Si  Si11  1  0.000000  0.000000  0.510814  1
  Sn  Sn12  1  0.392461  0.392461  0.750000  1
  Sn  Sn13  1  0.607539  0.000000  0.750000  1
  Sn  Sn14  1  0.000000  0.607539  0.750000  1
  Sn  Sn15  1  0.603521  0.603521  0.250000  1
  Sn  Sn16  1  0.396479  0.000000  0.250000  1
  Sn  Sn17  1  0.000000  0.396479  0.250000  1
