# generated using pymatgen
data_Lu2Ti3P7Rh9
_symmetry_space_group_name_H-M   'P 1'
_cell_length_a   3.76597100
_cell_length_b   9.65741908
_cell_length_c   9.65494000
_cell_angle_alpha   120.00164047
_cell_angle_beta   89.99936101
_cell_angle_gamma   90.00044410
_symmetry_Int_Tables_number   1
_chemical_formula_structural   Lu2Ti3P7Rh9
_chemical_formula_sum   'Lu2 Ti3 P7 Rh9'
_cell_volume   304.09626132
_cell_formula_units_Z   1
loop_
 _symmetry_equiv_pos_site_id
 _symmetry_equiv_pos_as_xyz
  1  'x, y, z'
loop_
 _atom_site_type_symbol
 _atom_site_label
 _atom_site_symmetry_multiplicity
 _atom_site_fract_x
 _atom_site_fract_y
 _atom_site_fract_z
 _atom_site_occupancy
  Lu  Lu0  1  0.261883  0.666673  0.333348  1
  Lu  Lu1  1  0.761873  0.333352  0.666691  1
  Ti  Ti2  1  0.761879  0.100296  0.877009  1
  Ti  Ti3  1  0.761882  0.122948  0.223252  1
  Ti  Ti4  1  0.761884  0.776765  0.899697  1
  P  P5  1  0.261690  0.000002  0.999986  1
  P  P6  1  0.761940  0.871648  0.584439  1
  P  P7  1  0.761926  0.415533  0.287207  1
  P  P8  1  0.761932  0.712763  0.128340  1
  P  P9  1  0.261903  0.116527  0.418604  1
  P  P10  1  0.261907  0.581439  0.697946  1
  P  P11  1  0.261903  0.302077  0.883507  1
  Rh  Rh12  1  0.261937  0.882216  0.159347  1
  Rh  Rh13  1  0.261965  0.840620  0.722789  1
  Rh  Rh14  1  0.261934  0.277122  0.117733  1
  Rh  Rh15  1  0.761949  0.609662  0.554914  1
  Rh  Rh16  1  0.761941  0.445071  0.054746  1
  Rh  Rh17  1  0.761940  0.945267  0.390359  1
  Rh  Rh18  1  0.261928  0.362402  0.437910  1
  Rh  Rh19  1  0.261915  0.562086  0.924531  1
  Rh  Rh20  1  0.261888  0.075531  0.637646  1
