# generated using pymatgen
data_Tb2Dy5CoI12
_symmetry_space_group_name_H-M   'P 1'
_cell_length_a   9.76402592
_cell_length_b   9.76320292
_cell_length_c   9.76099020
_cell_angle_alpha   106.86173476
_cell_angle_beta   106.85566002
_cell_angle_gamma   106.86850034
_symmetry_Int_Tables_number   1
_chemical_formula_structural   Tb2Dy5CoI12
_chemical_formula_sum   'Tb2 Dy5 Co1 I12'
_cell_volume   777.82654105
_cell_formula_units_Z   1
loop_
 _symmetry_equiv_pos_site_id
 _symmetry_equiv_pos_as_xyz
  1  'x, y, z'
loop_
 _atom_site_type_symbol
 _atom_site_label
 _atom_site_symmetry_multiplicity
 _atom_site_fract_x
 _atom_site_fract_y
 _atom_site_fract_z
 _atom_site_occupancy
  Tb  Tb0  1  0.907836  0.711345  0.977846  1
  Tb  Tb1  1  0.711380  0.977951  0.907698  1
  Dy  Dy2  1  0.500017  0.500012  0.499983  1
  Dy  Dy3  1  0.022312  0.092159  0.287999  1
  Dy  Dy4  1  0.092106  0.287813  0.022136  1
  Dy  Dy5  1  0.287831  0.022245  0.091912  1
  Dy  Dy6  1  0.978113  0.908199  0.712158  1
  Co  Co7  1  0.000314  0.000260  0.000103  1
  I  I8  1  0.161099  0.463777  0.386746  1
  I  I9  1  0.463791  0.386746  0.161115  1
  I  I10  1  0.386725  0.161097  0.463786  1
  I  I11  1  0.838931  0.536192  0.613049  1
  I  I12  1  0.535925  0.613051  0.838829  1
  I  I13  1  0.613280  0.838837  0.535967  1
  I  I14  1  0.678206  0.071976  0.225455  1
  I  I15  1  0.071857  0.225077  0.678114  1
  I  I16  1  0.225450  0.678164  0.071970  1
  I  I17  1  0.321657  0.928095  0.774855  1
  I  I18  1  0.928178  0.775059  0.322138  1
  I  I19  1  0.774990  0.321945  0.928141  1
