# generated using pymatgen
data_Tb7Bi(IrO6)4
_symmetry_space_group_name_H-M   'P 1'
_cell_length_a   5.34699623
_cell_length_b   9.25017814
_cell_length_c   9.97222100
_cell_angle_alpha   90.48771676
_cell_angle_beta   89.91256142
_cell_angle_gamma   89.76095482
_symmetry_Int_Tables_number   1
_chemical_formula_structural   Tb7Bi(IrO6)4
_chemical_formula_sum   'Tb7 Bi1 Ir4 O24'
_cell_volume   493.20994469
_cell_formula_units_Z   1
loop_
 _symmetry_equiv_pos_site_id
 _symmetry_equiv_pos_as_xyz
  1  'x, y, z'
loop_
 _atom_site_type_symbol
 _atom_site_label
 _atom_site_symmetry_multiplicity
 _atom_site_fract_x
 _atom_site_fract_y
 _atom_site_fract_z
 _atom_site_occupancy
  Tb  Tb0  1  0.519844  0.100791  0.964716  1
  Tb  Tb1  1  0.021513  0.396540  0.036750  1
  Tb  Tb2  1  0.476005  0.601492  0.536173  1
  Tb  Tb3  1  0.980436  0.901398  0.462013  1
  Tb  Tb4  1  0.540992  0.221255  0.368729  1
  Tb  Tb5  1  0.041673  0.283038  0.629164  1
  Tb  Tb6  1  0.460282  0.716948  0.132455  1
  Bi  Bi7  1  0.965878  0.781303  0.862886  1
  Ir  Ir8  1  0.460709  0.998879  0.643225  1
  Ir  Ir9  1  0.957248  0.504869  0.354508  1
  Ir  Ir10  1  0.541490  0.492505  0.855414  1
  Ir  Ir11  1  0.042827  0.004239  0.146466  1
  O  O12  1  0.324598  0.134765  0.181534  1
  O  O13  1  0.826779  0.365445  0.818499  1
  O  O14  1  0.671402  0.632271  0.319847  1
  O  O15  1  0.175886  0.868225  0.673658  1
  O  O16  1  0.734479  0.116144  0.565464  1
  O  O17  1  0.234531  0.388064  0.433626  1
  O  O18  1  0.267691  0.608167  0.939342  1
  O  O19  1  0.767153  0.885820  0.070757  1
  O  O20  1  0.670904  0.641603  0.739770  1
  O  O21  1  0.184733  0.858342  0.262064  1
  O  O22  1  0.314601  0.142644  0.761249  1
  O  O23  1  0.818646  0.356908  0.238536  1
  O  O24  1  0.663281  0.948900  0.794511  1
  O  O25  1  0.165060  0.554318  0.206094  1
  O  O26  1  0.332229  0.444708  0.705097  1
  O  O27  1  0.836500  0.057791  0.295759  1
  O  O28  1  0.253608  0.090963  0.500289  1
  O  O29  1  0.751773  0.413067  0.498557  1
  O  O30  1  0.743677  0.581618  0.001268  1
  O  O31  1  0.253302  0.911198  0.004106  1
  O  O32  1  0.078925  0.657414  0.474085  1
  O  O33  1  0.585194  0.844720  0.524911  1
  O  O34  1  0.918643  0.153605  0.025367  1
  O  O35  1  0.417507  0.340042  0.973114  1
