# generated using pymatgen
data_Sm2UTc2
_symmetry_space_group_name_H-M   'P 1'
_cell_length_a   6.06957390
_cell_length_b   6.06957568
_cell_length_c   6.06957572
_cell_angle_alpha   139.51014633
_cell_angle_beta   123.90749428
_cell_angle_gamma   71.43534642
_symmetry_Int_Tables_number   1
_chemical_formula_structural   Sm2UTc2
_chemical_formula_sum   'Sm2 U1 Tc2'
_cell_volume   118.14790847
_cell_formula_units_Z   1
loop_
 _symmetry_equiv_pos_site_id
 _symmetry_equiv_pos_as_xyz
  1  'x, y, z'
loop_
 _atom_site_type_symbol
 _atom_site_label
 _atom_site_symmetry_multiplicity
 _atom_site_fract_x
 _atom_site_fract_y
 _atom_site_fract_z
 _atom_site_occupancy
  Sm  Sm0  1  0.699049  0.199049  0.500000  1
  Sm  Sm1  1  0.300952  0.800952  0.500001  1
  U  U2  1  0.000000  0.000000  0.000000  1
  Tc  Tc3  1  0.754400  0.500000  0.254400  1
  Tc  Tc4  1  0.245600  0.500001  0.745601  1
