# generated using pymatgen
data_Dy15YCd4OsPt3
_symmetry_space_group_name_H-M   'P 1'
_cell_length_a   9.70951613
_cell_length_b   9.70951672
_cell_length_c   9.71083453
_cell_angle_alpha   59.57821346
_cell_angle_beta   59.57821715
_cell_angle_gamma   59.56626013
_symmetry_Int_Tables_number   1
_chemical_formula_structural   Dy15YCd4OsPt3
_chemical_formula_sum   'Dy15 Y1 Cd4 Os1 Pt3'
_cell_volume   641.08089129
_cell_formula_units_Z   1
loop_
 _symmetry_equiv_pos_site_id
 _symmetry_equiv_pos_as_xyz
  1  'x, y, z'
loop_
 _atom_site_type_symbol
 _atom_site_label
 _atom_site_symmetry_multiplicity
 _atom_site_fract_x
 _atom_site_fract_y
 _atom_site_fract_z
 _atom_site_occupancy
  Dy  Dy0  1  0.351612  0.351612  0.351610  1
  Dy  Dy1  1  0.349855  0.349855  0.947763  1
  Dy  Dy2  1  0.349951  0.947761  0.349791  1
  Dy  Dy3  1  0.947761  0.349951  0.349791  1
  Dy  Dy4  1  0.814666  0.189096  0.188869  1
  Dy  Dy5  1  0.188912  0.809765  0.809892  1
  Dy  Dy6  1  0.189096  0.814666  0.188869  1
  Dy  Dy7  1  0.809765  0.188912  0.809892  1
  Dy  Dy8  1  0.189049  0.189049  0.814578  1
  Dy  Dy9  1  0.809850  0.809850  0.188800  1
  Dy  Dy10  1  0.935629  0.565194  0.565458  1
  Dy  Dy11  1  0.558401  0.937708  0.937779  1
  Dy  Dy12  1  0.565194  0.935629  0.565458  1
  Dy  Dy13  1  0.937708  0.558401  0.937779  1
  Dy  Dy14  1  0.565505  0.565505  0.935511  1
  Y  Y15  1  0.937492  0.937492  0.558905  1
  Cd  Cd16  1  0.580531  0.580531  0.580566  1
  Cd  Cd17  1  0.581113  0.581113  0.254274  1
  Cd  Cd18  1  0.581035  0.254419  0.581111  1
  Cd  Cd19  1  0.254419  0.581035  0.581111  1
  Os  Os20  1  0.143320  0.143320  0.143030  1
  Pt  Pt21  1  0.143510  0.143510  0.572146  1
  Pt  Pt22  1  0.143503  0.572127  0.143511  1
  Pt  Pt23  1  0.572127  0.143503  0.143511  1
