# generated using pymatgen
data_Tm4Mn2AlOs5
_symmetry_space_group_name_H-M   'P 1'
_cell_length_a   5.34934007
_cell_length_b   5.31510663
_cell_length_c   8.56674600
_cell_angle_alpha   90.00000000
_cell_angle_beta   90.00000000
_cell_angle_gamma   120.22918321
_symmetry_Int_Tables_number   1
_chemical_formula_structural   Tm4Mn2AlOs5
_chemical_formula_sum   'Tm4 Mn2 Al1 Os5'
_cell_volume   210.45105719
_cell_formula_units_Z   1
loop_
 _symmetry_equiv_pos_site_id
 _symmetry_equiv_pos_as_xyz
  1  'x, y, z'
loop_
 _atom_site_type_symbol
 _atom_site_label
 _atom_site_symmetry_multiplicity
 _atom_site_fract_x
 _atom_site_fract_y
 _atom_site_fract_z
 _atom_site_occupancy
  Tm  Tm0  1  0.668343  0.336742  0.562442  1
  Tm  Tm1  1  0.335905  0.671810  0.432684  1
  Tm  Tm2  1  0.335905  0.671810  0.067316  1
  Tm  Tm3  1  0.668343  0.336742  0.937558  1
  Mn  Mn4  1  0.995579  0.991126  0.497167  1
  Mn  Mn5  1  0.995579  0.991126  0.002833  1
  Al  Al6  1  0.164678  0.329356  0.750000  1
  Os  Os7  1  0.177198  0.833723  0.750000  1
  Os  Os8  1  0.656534  0.833733  0.750000  1
  Os  Os9  1  0.829795  0.659563  0.250000  1
  Os  Os10  1  0.831160  0.172147  0.250000  1
  Os  Os11  1  0.340981  0.172123  0.250000  1
