# generated using pymatgen
data_AcMoH9
_symmetry_space_group_name_H-M   'P 1'
_cell_length_a   4.99230700
_cell_length_b   4.99230702
_cell_length_c   9.30941900
_cell_angle_alpha   90.00000000
_cell_angle_beta   90.00000000
_cell_angle_gamma   119.99999323
_symmetry_Int_Tables_number   1
_chemical_formula_structural   AcMoH9
_chemical_formula_sum   'Ac2 Mo2 H18'
_cell_volume   200.93510093
_cell_formula_units_Z   2
loop_
 _symmetry_equiv_pos_site_id
 _symmetry_equiv_pos_as_xyz
  1  'x, y, z'
loop_
 _atom_site_type_symbol
 _atom_site_label
 _atom_site_symmetry_multiplicity
 _atom_site_fract_x
 _atom_site_fract_y
 _atom_site_fract_z
 _atom_site_occupancy
  Ac  Ac0  1  0.000000  0.000000  0.000000  1
  Ac  Ac1  1  0.000000  0.000000  0.500000  1
  Mo  Mo2  1  0.333333  0.666667  0.250000  1
  Mo  Mo3  1  0.666667  0.333333  0.750000  1
  H  H4  1  0.476704  0.523296  0.385702  1
  H  H5  1  0.476704  0.953406  0.385702  1
  H  H6  1  0.046594  0.523296  0.385702  1
  H  H7  1  0.953406  0.476704  0.885702  1
  H  H8  1  0.134972  0.269944  0.250000  1
  H  H9  1  0.865028  0.134972  0.750000  1
  H  H10  1  0.269944  0.134972  0.750000  1
  H  H11  1  0.730056  0.865028  0.250000  1
  H  H12  1  0.134972  0.865028  0.250000  1
  H  H13  1  0.865028  0.730056  0.750000  1
  H  H14  1  0.476704  0.953406  0.114298  1
  H  H15  1  0.523296  0.476704  0.614298  1
  H  H16  1  0.953406  0.476704  0.614298  1
  H  H17  1  0.046594  0.523296  0.114298  1
  H  H18  1  0.476704  0.523296  0.114298  1
  H  H19  1  0.523296  0.046594  0.885702  1
  H  H20  1  0.523296  0.476704  0.885702  1
  H  H21  1  0.523296  0.046594  0.614298  1
