# generated using pymatgen
data_LaY5(Ir7Rh2)2
_symmetry_space_group_name_H-M   'P 1'
_cell_length_a   5.32976900
_cell_length_b   5.32976931
_cell_length_c   17.49220300
_cell_angle_alpha   90.00000000
_cell_angle_beta   90.00000000
_cell_angle_gamma   119.99999185
_symmetry_Int_Tables_number   1
_chemical_formula_structural   LaY5(Ir7Rh2)2
_chemical_formula_sum   'La1 Y5 Ir14 Rh4'
_cell_volume   430.32043921
_cell_formula_units_Z   1
loop_
 _symmetry_equiv_pos_site_id
 _symmetry_equiv_pos_as_xyz
  1  'x, y, z'
loop_
 _atom_site_type_symbol
 _atom_site_label
 _atom_site_symmetry_multiplicity
 _atom_site_fract_x
 _atom_site_fract_y
 _atom_site_fract_z
 _atom_site_occupancy
  La  La0  1  0.333333  0.666667  0.750000  1
  Y  Y1  1  0.333333  0.666667  0.959726  1
  Y  Y2  1  0.666667  0.333333  0.041184  1
  Y  Y3  1  0.666667  0.333333  0.458816  1
  Y  Y4  1  0.333333  0.666667  0.540274  1
  Y  Y5  1  0.666667  0.333333  0.250000  1
  Ir  Ir6  1  0.167477  0.832523  0.374092  1
  Ir  Ir7  1  0.167477  0.334954  0.374092  1
  Ir  Ir8  1  0.665046  0.832523  0.374092  1
  Ir  Ir9  1  0.832481  0.167519  0.624725  1
  Ir  Ir10  1  0.832481  0.664961  0.624725  1
  Ir  Ir11  1  0.335039  0.167519  0.624725  1
  Ir  Ir12  1  0.832481  0.167519  0.875275  1
  Ir  Ir13  1  0.832481  0.664961  0.875275  1
  Ir  Ir14  1  0.335039  0.167519  0.875275  1
  Ir  Ir15  1  0.167477  0.832523  0.125908  1
  Ir  Ir16  1  0.167477  0.334954  0.125908  1
  Ir  Ir17  1  0.665046  0.832523  0.125908  1
  Ir  Ir18  1  0.000000  0.000000  0.499573  1
  Ir  Ir19  1  0.000000  0.000000  0.000427  1
  Rh  Rh20  1  0.333333  0.666667  0.250000  1
  Rh  Rh21  1  0.666667  0.333333  0.750000  1
  Rh  Rh22  1  0.000000  0.000000  0.250000  1
  Rh  Rh23  1  0.000000  0.000000  0.750000  1
