# generated using pymatgen
data_Np3Zn3Ge2Pt
_symmetry_space_group_name_H-M   'P 1'
_cell_length_a   6.70623400
_cell_length_b   6.70623449
_cell_length_c   4.51040800
_cell_angle_alpha   90.00000000
_cell_angle_beta   90.00000000
_cell_angle_gamma   120.00000743
_symmetry_Int_Tables_number   1
_chemical_formula_structural   Np3Zn3Ge2Pt
_chemical_formula_sum   'Np3 Zn3 Ge2 Pt1'
_cell_volume   175.67253416
_cell_formula_units_Z   1
loop_
 _symmetry_equiv_pos_site_id
 _symmetry_equiv_pos_as_xyz
  1  'x, y, z'
loop_
 _atom_site_type_symbol
 _atom_site_label
 _atom_site_symmetry_multiplicity
 _atom_site_fract_x
 _atom_site_fract_y
 _atom_site_fract_z
 _atom_site_occupancy
  Np  Np0  1  0.427078  0.427078  0.500000  1
  Np  Np1  1  0.572922  0.000000  0.500000  1
  Np  Np2  1  0.000000  0.572922  0.500000  1
  Zn  Zn3  1  0.769302  0.769302  0.000000  1
  Zn  Zn4  1  0.230698  0.000000  0.000000  1
  Zn  Zn5  1  0.000000  0.230698  0.000000  1
  Ge  Ge6  1  0.666667  0.333333  0.000000  1
  Ge  Ge7  1  0.333333  0.666667  0.000000  1
  Pt  Pt8  1  0.000000  0.000000  0.500000  1
