# generated using pymatgen
data_Hf16CoIr7N4
_symmetry_space_group_name_H-M   'P 1'
_cell_length_a   8.71746980
_cell_length_b   8.71747075
_cell_length_c   8.71747213
_cell_angle_alpha   59.49421117
_cell_angle_beta   59.49420723
_cell_angle_gamma   59.49421486
_symmetry_Int_Tables_number   1
_chemical_formula_structural   Hf16CoIr7N4
_chemical_formula_sum   'Hf16 Co1 Ir7 N4'
_cell_volume   463.05406305
_cell_formula_units_Z   1
loop_
 _symmetry_equiv_pos_site_id
 _symmetry_equiv_pos_as_xyz
  1  'x, y, z'
loop_
 _atom_site_type_symbol
 _atom_site_label
 _atom_site_symmetry_multiplicity
 _atom_site_fract_x
 _atom_site_fract_y
 _atom_site_fract_z
 _atom_site_occupancy
  Hf  Hf0  1  0.101148  0.638425  0.638425  1
  Hf  Hf1  1  0.638425  0.101148  0.638425  1
  Hf  Hf2  1  0.638425  0.638425  0.101148  1
  Hf  Hf3  1  0.618609  0.618609  0.618609  1
  Hf  Hf4  1  0.817781  0.817781  0.180951  1
  Hf  Hf5  1  0.187794  0.187794  0.814912  1
  Hf  Hf6  1  0.817781  0.180951  0.817781  1
  Hf  Hf7  1  0.187794  0.814912  0.187794  1
  Hf  Hf8  1  0.180951  0.817781  0.817781  1
  Hf  Hf9  1  0.814912  0.187794  0.187794  1
  Hf  Hf10  1  0.436849  0.436849  0.067104  1
  Hf  Hf11  1  0.069175  0.069175  0.434608  1
  Hf  Hf12  1  0.436849  0.067104  0.436849  1
  Hf  Hf13  1  0.069175  0.434608  0.069175  1
  Hf  Hf14  1  0.067104  0.436849  0.436849  1
  Hf  Hf15  1  0.434608  0.069175  0.069175  1
  Co  Co16  1  0.852117  0.852117  0.852117  1
  Ir  Ir17  1  0.762491  0.404575  0.404575  1
  Ir  Ir18  1  0.404575  0.762491  0.404575  1
  Ir  Ir19  1  0.404575  0.404575  0.762491  1
  Ir  Ir20  1  0.415369  0.415369  0.415369  1
  Ir  Ir21  1  0.476794  0.832213  0.832213  1
  Ir  Ir22  1  0.832213  0.476794  0.832213  1
  Ir  Ir23  1  0.832213  0.832213  0.476794  1
  N  N24  1  0.623068  0.127306  0.127306  1
  N  N25  1  0.127306  0.623068  0.127306  1
  N  N26  1  0.127306  0.127306  0.623068  1
  N  N27  1  0.124598  0.124598  0.124598  1
