# generated using pymatgen
data_Tb3Y(In2Pd3)4
_symmetry_space_group_name_H-M   'P 1'
_cell_length_a   4.63892800
_cell_length_b   9.81307301
_cell_length_c   10.37417501
_cell_angle_alpha   89.99547018
_cell_angle_beta   90.00000000
_cell_angle_gamma   90.00000000
_symmetry_Int_Tables_number   1
_chemical_formula_structural   Tb3Y(In2Pd3)4
_chemical_formula_sum   'Tb3 Y1 In8 Pd12'
_cell_volume   472.25463672
_cell_formula_units_Z   1
loop_
 _symmetry_equiv_pos_site_id
 _symmetry_equiv_pos_as_xyz
  1  'x, y, z'
loop_
 _atom_site_type_symbol
 _atom_site_label
 _atom_site_symmetry_multiplicity
 _atom_site_fract_x
 _atom_site_fract_y
 _atom_site_fract_z
 _atom_site_occupancy
  Tb  Tb0  1  0.250000  0.445715  0.724635  1
  Tb  Tb1  1  0.250000  0.054304  0.224512  1
  Tb  Tb2  1  0.750000  0.554308  0.275388  1
  Y  Y3  1  0.750000  0.945585  0.775315  1
  In  In4  1  0.250000  0.886286  0.513597  1
  In  In5  1  0.250000  0.613749  0.013541  1
  In  In6  1  0.750000  0.113681  0.486582  1
  In  In7  1  0.750000  0.386287  0.986371  1
  In  In8  1  0.250000  0.162588  0.893869  1
  In  In9  1  0.250000  0.337250  0.393969  1
  In  In10  1  0.750000  0.837333  0.105921  1
  In  In11  1  0.750000  0.662814  0.606150  1
  Pd  Pd12  1  0.250000  0.144108  0.624022  1
  Pd  Pd13  1  0.250000  0.355721  0.123961  1
  Pd  Pd14  1  0.750000  0.855756  0.376058  1
  Pd  Pd15  1  0.750000  0.644208  0.876028  1
  Pd  Pd16  1  0.250000  0.744075  0.740659  1
  Pd  Pd17  1  0.250000  0.756002  0.240730  1
  Pd  Pd18  1  0.750000  0.256010  0.259310  1
  Pd  Pd19  1  0.750000  0.244095  0.759338  1
  Pd  Pd20  1  0.250000  0.896198  0.973440  1
  Pd  Pd21  1  0.250000  0.603805  0.473408  1
  Pd  Pd22  1  0.750000  0.103890  0.026614  1
  Pd  Pd23  1  0.750000  0.396233  0.526581  1
