# generated using pymatgen
data_SmCu3P2Pd
_symmetry_space_group_name_H-M   'P 1'
_cell_length_a   7.37838200
_cell_length_b   7.40239300
_cell_length_c   3.85687800
_cell_angle_alpha   90.00000000
_cell_angle_beta   90.00000000
_cell_angle_gamma   90.00000000
_symmetry_Int_Tables_number   1
_chemical_formula_structural   SmCu3P2Pd
_chemical_formula_sum   'Sm2 Cu6 P4 Pd2'
_cell_volume   210.65374101
_cell_formula_units_Z   2
loop_
 _symmetry_equiv_pos_site_id
 _symmetry_equiv_pos_as_xyz
  1  'x, y, z'
loop_
 _atom_site_type_symbol
 _atom_site_label
 _atom_site_symmetry_multiplicity
 _atom_site_fract_x
 _atom_site_fract_y
 _atom_site_fract_z
 _atom_site_occupancy
  Sm  Sm0  1  0.997730  0.998993  0.000000  1
  Sm  Sm1  1  0.497730  0.501007  0.500000  1
  Cu  Cu2  1  0.414211  0.845547  0.000000  1
  Cu  Cu3  1  0.914211  0.654453  0.500000  1
  Cu  Cu4  1  0.832577  0.413619  0.000000  1
  Cu  Cu5  1  0.585743  0.165959  0.000000  1
  Cu  Cu6  1  0.085743  0.334041  0.500000  1
  Cu  Cu7  1  0.332577  0.086381  0.500000  1
  P  P8  1  0.285742  0.275638  0.000000  1
  P  P9  1  0.720101  0.710032  0.000000  1
  P  P10  1  0.785742  0.224362  0.500000  1
  P  P11  1  0.220101  0.789968  0.500000  1
  Pd  Pd12  1  0.663895  0.913883  0.500000  1
  Pd  Pd13  1  0.163895  0.586117  0.000000  1
