# generated using pymatgen
data_Y11LuInCo4Ag
_symmetry_space_group_name_H-M   'P 1'
_cell_length_a   8.40249740
_cell_length_b   8.41058686
_cell_length_c   8.40249739
_cell_angle_alpha   111.12296763
_cell_angle_beta   110.35428719
_cell_angle_gamma   106.92848771
_symmetry_Int_Tables_number   1
_chemical_formula_structural   Y11LuInCo4Ag
_chemical_formula_sum   'Y11 Lu1 In1 Co4 Ag1'
_cell_volume   456.63907268
_cell_formula_units_Z   1
loop_
 _symmetry_equiv_pos_site_id
 _symmetry_equiv_pos_as_xyz
  1  'x, y, z'
loop_
 _atom_site_type_symbol
 _atom_site_label
 _atom_site_symmetry_multiplicity
 _atom_site_fract_x
 _atom_site_fract_y
 _atom_site_fract_z
 _atom_site_occupancy
  Y  Y0  1  0.428493  0.221312  0.205456  1
  Y  Y1  1  0.573335  0.778631  0.797259  1
  Y  Y2  1  0.015855  0.221312  0.792819  1
  Y  Y3  1  0.981372  0.778631  0.205296  1
  Y  Y4  1  0.185268  0.290786  0.478264  1
  Y  Y5  1  0.812387  0.709566  0.520554  1
  Y  Y6  1  0.189012  0.709566  0.897179  1
  Y  Y7  1  0.812521  0.290786  0.105517  1
  Y  Y8  1  0.314790  0.618719  0.303929  1
  Y  Y9  1  0.685771  0.381687  0.695917  1
  Y  Y10  1  0.314891  0.010576  0.695685  1
  Lu  Lu11  1  0.684458  0.992186  0.307728  1
  In  In12  1  0.500270  0.500842  0.000572  1
  Co  Co13  1  0.383140  0.999052  0.379282  1
  Co  Co14  1  0.619769  0.999052  0.615912  1
  Co  Co15  1  0.109838  0.610545  0.500706  1
  Co  Co16  1  0.887925  0.386542  0.498618  1
  Ag  Ag17  1  0.000904  0.000211  0.999307  1
