# generated using pymatgen
data_TbDyMg2(B6Os)2
_symmetry_space_group_name_H-M   'P 1'
_cell_length_a   3.58185100
_cell_length_b   8.91171811
_cell_length_c   11.29249911
_cell_angle_alpha   89.98301563
_cell_angle_beta   90.00000000
_cell_angle_gamma   90.00000000
_symmetry_Int_Tables_number   1
_chemical_formula_structural   TbDyMg2(B6Os)2
_chemical_formula_sum   'Tb2 Dy2 Mg4 B24 Os4'
_cell_volume   360.46159697
_cell_formula_units_Z   2
loop_
 _symmetry_equiv_pos_site_id
 _symmetry_equiv_pos_as_xyz
  1  'x, y, z'
loop_
 _atom_site_type_symbol
 _atom_site_label
 _atom_site_symmetry_multiplicity
 _atom_site_fract_x
 _atom_site_fract_y
 _atom_site_fract_z
 _atom_site_occupancy
  Tb  Tb0  1  0.000000  0.323234  0.413598  1
  Tb  Tb1  1  0.000000  0.676766  0.586402  1
  Dy  Dy2  1  0.000000  0.823584  0.086373  1
  Dy  Dy3  1  0.000000  0.176416  0.913627  1
  Mg  Mg4  1  0.000000  0.943723  0.371498  1
  Mg  Mg5  1  0.000000  0.056277  0.628502  1
  Mg  Mg6  1  0.000000  0.443704  0.128127  1
  Mg  Mg7  1  0.000000  0.556296  0.871873  1
  B  B8  1  0.500000  0.555930  0.431816  1
  B  B9  1  0.500000  0.444070  0.568184  1
  B  B10  1  0.500000  0.055823  0.067725  1
  B  B11  1  0.500000  0.944177  0.932275  1
  B  B12  1  0.500000  0.755250  0.417662  1
  B  B13  1  0.500000  0.244750  0.582338  1
  B  B14  1  0.500000  0.255141  0.081787  1
  B  B15  1  0.500000  0.744859  0.918213  1
  B  B16  1  0.500000  0.793366  0.263066  1
  B  B17  1  0.500000  0.206634  0.736934  1
  B  B18  1  0.500000  0.293196  0.236313  1
  B  B19  1  0.500000  0.706804  0.763687  1
  B  B20  1  0.500000  0.627573  0.182193  1
  B  B21  1  0.500000  0.372427  0.817807  1
  B  B22  1  0.500000  0.127340  0.317288  1
  B  B23  1  0.500000  0.872660  0.682712  1
  B  B24  1  0.500000  0.981033  0.213083  1
  B  B25  1  0.500000  0.018967  0.786917  1
  B  B26  1  0.500000  0.481196  0.286364  1
  B  B27  1  0.500000  0.518804  0.713636  1
  B  B28  1  0.500000  0.592428  0.025366  1
  B  B29  1  0.500000  0.407572  0.974634  1
  B  B30  1  0.500000  0.092177  0.474651  1
  B  B31  1  0.500000  0.907823  0.525349  1
  Os  Os32  1  0.000000  0.640910  0.317658  1
  Os  Os33  1  0.000000  0.359090  0.682342  1
  Os  Os34  1  0.000000  0.140593  0.181667  1
  Os  Os35  1  0.000000  0.859407  0.818333  1
