# generated using pymatgen
data_Tm12ZnInFe4
_symmetry_space_group_name_H-M   'P 1'
_cell_length_a   8.23331972
_cell_length_b   8.23332024
_cell_length_c   8.23331977
_cell_angle_alpha   111.17010924
_cell_angle_beta   110.93254868
_cell_angle_gamma   106.35531037
_symmetry_Int_Tables_number   1
_chemical_formula_structural   Tm12ZnInFe4
_chemical_formula_sum   'Tm12 Zn1 In1 Fe4'
_cell_volume   428.69008135
_cell_formula_units_Z   1
loop_
 _symmetry_equiv_pos_site_id
 _symmetry_equiv_pos_as_xyz
  1  'x, y, z'
loop_
 _atom_site_type_symbol
 _atom_site_label
 _atom_site_symmetry_multiplicity
 _atom_site_fract_x
 _atom_site_fract_y
 _atom_site_fract_z
 _atom_site_occupancy
  Tm  Tm0  1  0.433041  0.224918  0.208123  1
  Tm  Tm1  1  0.566959  0.775082  0.791877  1
  Tm  Tm2  1  0.016795  0.224918  0.791877  1
  Tm  Tm3  1  0.983205  0.775082  0.208123  1
  Tm  Tm4  1  0.187492  0.287874  0.475367  1
  Tm  Tm5  1  0.812508  0.712126  0.524633  1
  Tm  Tm6  1  0.187492  0.712126  0.899619  1
  Tm  Tm7  1  0.812508  0.287874  0.100381  1
  Tm  Tm8  1  0.313806  0.614914  0.301109  1
  Tm  Tm9  1  0.686194  0.385086  0.698891  1
  Tm  Tm10  1  0.313806  0.012697  0.698891  1
  Tm  Tm11  1  0.686194  0.987303  0.301109  1
  Zn  Zn12  1  0.000000  0.000000  0.000000  1
  In  In13  1  0.500000  0.500000  0.000000  1
  Fe  Fe14  1  0.382963  0.000000  0.382963  1
  Fe  Fe15  1  0.617037  0.000000  0.617037  1
  Fe  Fe16  1  0.108028  0.608028  0.500000  1
  Fe  Fe17  1  0.891972  0.391972  0.500000  1
