# generated using pymatgen
data_TaTi5(GaFe2)6
_symmetry_space_group_name_H-M   'P 1'
_cell_length_a   4.13662504
_cell_length_b   5.85715400
_cell_length_c   12.40458511
_cell_angle_alpha   90.00000000
_cell_angle_beta   89.98484853
_cell_angle_gamma   90.00000000
_symmetry_Int_Tables_number   1
_chemical_formula_structural   TaTi5(GaFe2)6
_chemical_formula_sum   'Ta1 Ti5 Ga6 Fe12'
_cell_volume   300.54881987
_cell_formula_units_Z   1
loop_
 _symmetry_equiv_pos_site_id
 _symmetry_equiv_pos_as_xyz
  1  'x, y, z'
loop_
 _atom_site_type_symbol
 _atom_site_label
 _atom_site_symmetry_multiplicity
 _atom_site_fract_x
 _atom_site_fract_y
 _atom_site_fract_z
 _atom_site_occupancy
  Ta  Ta0  1  0.499890  0.499999  0.833369  1
  Ti  Ti1  1  0.000022  0.000000  0.000264  1
  Ti  Ti2  1  0.500079  0.499999  0.166676  1
  Ti  Ti3  1  0.000105  0.000000  0.333424  1
  Ti  Ti4  1  0.500009  0.499999  0.500000  1
  Ti  Ti5  1  0.999886  0.000000  0.666307  1
  Ga  Ga6  1  0.000037  0.499999  0.001221  1
  Ga  Ga7  1  0.500130  0.000000  0.166852  1
  Ga  Ga8  1  0.000096  0.499999  0.333305  1
  Ga  Ga9  1  0.500013  0.000000  0.499806  1
  Ga  Ga10  1  0.999853  0.499999  0.665443  1
  Ga  Ga11  1  0.499886  0.000000  0.833326  1
  Fe  Fe12  1  0.500033  0.248586  0.001617  1
  Fe  Fe13  1  0.500033  0.751415  0.001617  1
  Fe  Fe14  1  0.000106  0.250149  0.167534  1
  Fe  Fe15  1  0.000106  0.749850  0.167534  1
  Fe  Fe16  1  0.500106  0.249656  0.333383  1
  Fe  Fe17  1  0.500106  0.750345  0.333383  1
  Fe  Fe18  1  0.000011  0.250181  0.499100  1
  Fe  Fe19  1  0.000011  0.749818  0.499100  1
  Fe  Fe20  1  0.499863  0.248601  0.665028  1
  Fe  Fe21  1  0.499863  0.751400  0.665028  1
  Fe  Fe22  1  0.999878  0.247403  0.833342  1
  Fe  Fe23  1  0.999878  0.752596  0.833342  1
