# generated using pymatgen
data_UBi(P2O7)2
_symmetry_space_group_name_H-M   'P 1'
_cell_length_a   8.89328327
_cell_length_b   5.28975878
_cell_length_c   7.44248827
_cell_angle_alpha   70.93810918
_cell_angle_beta   90.95713732
_cell_angle_gamma   90.09409229
_symmetry_Int_Tables_number   1
_chemical_formula_structural   UBi(P2O7)2
_chemical_formula_sum   'U1 Bi1 P4 O14'
_cell_volume   330.87218971
_cell_formula_units_Z   1
loop_
 _symmetry_equiv_pos_site_id
 _symmetry_equiv_pos_as_xyz
  1  'x, y, z'
loop_
 _atom_site_type_symbol
 _atom_site_label
 _atom_site_symmetry_multiplicity
 _atom_site_fract_x
 _atom_site_fract_y
 _atom_site_fract_z
 _atom_site_occupancy
  U  U0  1  0.048507  0.198221  0.289095  1
  Bi  Bi1  1  0.547520  0.797138  0.724665  1
  P  P2  1  0.266280  0.773280  0.090233  1
  P  P3  1  0.779943  0.222501  0.908513  1
  P  P4  1  0.379679  0.416050  0.459968  1
  P  P5  1  0.867019  0.592874  0.537804  1
  O  O6  1  0.371539  0.593682  0.582946  1
  O  O7  1  0.640862  0.381622  0.918655  1
  O  O8  1  0.133052  0.575461  0.102281  1
  O  O9  1  0.223661  0.270513  0.463378  1
  O  O10  1  0.878798  0.160450  0.095195  1
  O  O11  1  0.208271  0.999379  0.162206  1
  O  O12  1  0.336625  0.875457  0.898808  1
  O  O13  1  0.991921  0.809085  0.491766  1
  O  O14  1  0.393177  0.608519  0.238915  1
  O  O15  1  0.894065  0.405902  0.418413  1
  O  O16  1  0.508178  0.218811  0.494810  1
  O  O17  1  0.754649  0.971391  0.857566  1
  O  O18  1  0.710941  0.713216  0.509513  1
  O  O19  1  0.897037  0.416451  0.755270  1
