# generated using pymatgen
data_Tb4Er5LuSn8
_symmetry_space_group_name_H-M   'P 1'
_cell_length_a   7.99629400
_cell_length_b   8.13851700
_cell_length_c   15.39006600
_cell_angle_alpha   90.00000000
_cell_angle_beta   90.00000000
_cell_angle_gamma   90.00000000
_symmetry_Int_Tables_number   1
_chemical_formula_structural   Tb4Er5LuSn8
_chemical_formula_sum   'Tb8 Er10 Lu2 Sn16'
_cell_volume   1001.55432510
_cell_formula_units_Z   2
loop_
 _symmetry_equiv_pos_site_id
 _symmetry_equiv_pos_as_xyz
  1  'x, y, z'
loop_
 _atom_site_type_symbol
 _atom_site_label
 _atom_site_symmetry_multiplicity
 _atom_site_fract_x
 _atom_site_fract_y
 _atom_site_fract_z
 _atom_site_occupancy
  Tb  Tb0  1  0.520423  0.320488  0.902940  1
  Tb  Tb1  1  0.020423  0.179512  0.597060  1
  Tb  Tb2  1  0.479542  0.679497  0.402777  1
  Tb  Tb3  1  0.979542  0.820503  0.097223  1
  Tb  Tb4  1  0.479542  0.679497  0.097223  1
  Tb  Tb5  1  0.979542  0.820503  0.402777  1
  Tb  Tb6  1  0.520423  0.320488  0.597060  1
  Tb  Tb7  1  0.020423  0.179512  0.902940  1
  Er  Er8  1  0.366782  0.836400  0.877611  1
  Er  Er9  1  0.866782  0.663600  0.622389  1
  Er  Er10  1  0.633123  0.163508  0.377362  1
  Er  Er11  1  0.133123  0.336492  0.122638  1
  Er  Er12  1  0.633123  0.163508  0.122638  1
  Er  Er13  1  0.133123  0.336492  0.377362  1
  Er  Er14  1  0.366782  0.836400  0.622389  1
  Er  Er15  1  0.866782  0.663600  0.877611  1
  Er  Er16  1  0.197846  0.503614  0.750000  1
  Er  Er17  1  0.697846  0.996386  0.750000  1
  Lu  Lu18  1  0.802166  0.496232  0.250000  1
  Lu  Lu19  1  0.302166  0.003768  0.250000  1
  Sn  Sn20  1  0.294446  0.036973  0.042021  1
  Sn  Sn21  1  0.794446  0.463027  0.457979  1
  Sn  Sn22  1  0.705461  0.962940  0.541531  1
  Sn  Sn23  1  0.205461  0.537060  0.958469  1
  Sn  Sn24  1  0.705461  0.962940  0.958469  1
  Sn  Sn25  1  0.205461  0.537060  0.541531  1
  Sn  Sn26  1  0.294446  0.036973  0.457979  1
  Sn  Sn27  1  0.794446  0.463027  0.042021  1
  Sn  Sn28  1  0.564438  0.620354  0.750000  1
  Sn  Sn29  1  0.064438  0.879646  0.750000  1
  Sn  Sn30  1  0.436270  0.379676  0.250000  1
  Sn  Sn31  1  0.936270  0.120324  0.250000  1
  Sn  Sn32  1  0.329034  0.146848  0.750000  1
  Sn  Sn33  1  0.829034  0.353152  0.750000  1
  Sn  Sn34  1  0.670693  0.852436  0.250000  1
  Sn  Sn35  1  0.170693  0.647564  0.250000  1
