# generated using pymatgen
data_Dy16Cd2Ni3Hg2Ru
_symmetry_space_group_name_H-M   'P 1'
_cell_length_a   9.55407282
_cell_length_b   9.55407289
_cell_length_c   9.55984443
_cell_angle_alpha   59.71018294
_cell_angle_beta   59.71018475
_cell_angle_gamma   59.75176169
_symmetry_Int_Tables_number   1
_chemical_formula_structural   Dy16Cd2Ni3Hg2Ru
_chemical_formula_sum   'Dy16 Cd2 Ni3 Hg2 Ru1'
_cell_volume   613.17198885
_cell_formula_units_Z   1
loop_
 _symmetry_equiv_pos_site_id
 _symmetry_equiv_pos_as_xyz
  1  'x, y, z'
loop_
 _atom_site_type_symbol
 _atom_site_label
 _atom_site_symmetry_multiplicity
 _atom_site_fract_x
 _atom_site_fract_y
 _atom_site_fract_z
 _atom_site_occupancy
  Dy  Dy0  1  0.597361  0.597361  0.597510  1
  Dy  Dy1  1  0.601761  0.601761  0.201729  1
  Dy  Dy2  1  0.602494  0.200176  0.601929  1
  Dy  Dy3  1  0.200176  0.602494  0.601929  1
  Dy  Dy4  1  0.060356  0.437871  0.438878  1
  Dy  Dy5  1  0.437256  0.060927  0.061211  1
  Dy  Dy6  1  0.437871  0.060356  0.438878  1
  Dy  Dy7  1  0.060927  0.437256  0.061211  1
  Dy  Dy8  1  0.437747  0.437747  0.060993  1
  Dy  Dy9  1  0.060145  0.060145  0.438501  1
  Dy  Dy10  1  0.185394  0.815464  0.816072  1
  Dy  Dy11  1  0.808813  0.187221  0.188860  1
  Dy  Dy12  1  0.815464  0.185394  0.816072  1
  Dy  Dy13  1  0.187221  0.808813  0.188860  1
  Dy  Dy14  1  0.815065  0.815065  0.187196  1
  Dy  Dy15  1  0.187611  0.187611  0.809543  1
  Cd  Cd16  1  0.829449  0.506433  0.829705  1
  Cd  Cd17  1  0.506433  0.829449  0.829705  1
  Ni  Ni18  1  0.392076  0.392076  0.824241  1
  Ni  Ni19  1  0.392106  0.824230  0.392229  1
  Ni  Ni20  1  0.824230  0.392106  0.392229  1
  Hg  Hg21  1  0.833355  0.833355  0.834860  1
  Hg  Hg22  1  0.833373  0.833373  0.494060  1
  Ru  Ru23  1  0.393317  0.393317  0.393602  1
