# generated using pymatgen
data_La12Co5NiHg
_symmetry_space_group_name_H-M   'P 1'
_cell_length_a   8.79540633
_cell_length_b   8.82533134
_cell_length_c   8.79540600
_cell_angle_alpha   110.00736439
_cell_angle_beta   109.30854939
_cell_angle_gamma   108.96159792
_symmetry_Int_Tables_number   1
_chemical_formula_structural   La12Co5NiHg
_chemical_formula_sum   'La12 Co5 Ni1 Hg1'
_cell_volume   526.40537598
_cell_formula_units_Z   1
loop_
 _symmetry_equiv_pos_site_id
 _symmetry_equiv_pos_as_xyz
  1  'x, y, z'
loop_
 _atom_site_type_symbol
 _atom_site_label
 _atom_site_symmetry_multiplicity
 _atom_site_fract_x
 _atom_site_fract_y
 _atom_site_fract_z
 _atom_site_occupancy
  La  La0  1  0.810516  0.686317  0.496172  1
  La  La1  1  0.190458  0.314613  0.503813  1
  La  La2  1  0.190143  0.686317  0.875801  1
  La  La3  1  0.810802  0.314613  0.124154  1
  La  La4  1  0.687401  0.495561  0.808161  1
  La  La5  1  0.312815  0.503211  0.190395  1
  La  La6  1  0.687493  0.878860  0.191366  1
  La  La7  1  0.312840  0.122870  0.810031  1
  La  La8  1  0.496044  0.808158  0.687803  1
  La  La9  1  0.486925  0.182251  0.304343  1
  La  La10  1  0.120355  0.808158  0.312114  1
  La  La11  1  0.877909  0.182251  0.695327  1
  Co  Co12  1  0.129648  0.629396  0.499748  1
  Co  Co13  1  0.378913  0.498612  0.880442  1
  Co  Co14  1  0.618171  0.498612  0.119699  1
  Co  Co15  1  0.504518  0.887318  0.382800  1
  Co  Co16  1  0.504712  0.122313  0.617601  1
  Ni  Ni17  1  0.881453  0.381678  0.500226  1
  Hg  Hg18  1  0.998885  0.998891  0.000004  1
