# generated using pymatgen
data_YbCe(MnAl5)4
_symmetry_space_group_name_H-M   'P 1'
_cell_length_a   6.82445173
_cell_length_b   6.82427404
_cell_length_c   9.07073000
_cell_angle_alpha   90.00000000
_cell_angle_beta   90.00000000
_cell_angle_gamma   97.24590893
_symmetry_Int_Tables_number   1
_chemical_formula_structural   YbCe(MnAl5)4
_chemical_formula_sum   'Yb1 Ce1 Mn4 Al20'
_cell_volume   419.06775712
_cell_formula_units_Z   1
loop_
 _symmetry_equiv_pos_site_id
 _symmetry_equiv_pos_as_xyz
  1  'x, y, z'
loop_
 _atom_site_type_symbol
 _atom_site_label
 _atom_site_symmetry_multiplicity
 _atom_site_fract_x
 _atom_site_fract_y
 _atom_site_fract_z
 _atom_site_occupancy
  Yb  Yb0  1  0.123393  0.876591  0.750000  1
  Ce  Ce1  1  0.876329  0.123695  0.250000  1
  Mn  Mn2  1  0.999603  0.497372  0.499549  1
  Mn  Mn3  1  0.999603  0.497372  0.000451  1
  Mn  Mn4  1  0.502642  0.000399  0.499548  1
  Mn  Mn5  1  0.502642  0.000399  0.000452  1
  Al  Al6  1  0.229336  0.228027  0.500911  1
  Al  Al7  1  0.772000  0.770649  0.999101  1
  Al  Al8  1  0.772000  0.770649  0.500899  1
  Al  Al9  1  0.229336  0.228027  0.999089  1
  Al  Al10  1  0.374385  0.625591  0.544423  1
  Al  Al11  1  0.624665  0.375358  0.048836  1
  Al  Al12  1  0.587507  0.868218  0.750000  1
  Al  Al13  1  0.410666  0.131400  0.250000  1
  Al  Al14  1  0.868611  0.589310  0.250000  1
  Al  Al15  1  0.131754  0.412493  0.750000  1
  Al  Al16  1  0.474648  0.218878  0.750000  1
  Al  Al17  1  0.523535  0.779959  0.250000  1
  Al  Al18  1  0.220028  0.476464  0.250000  1
  Al  Al19  1  0.781122  0.525340  0.750000  1
  Al  Al20  1  0.158712  0.841255  0.403206  1
  Al  Al21  1  0.839859  0.160174  0.901734  1
  Al  Al22  1  0.839859  0.160174  0.598266  1
  Al  Al23  1  0.158712  0.841255  0.096794  1
  Al  Al24  1  0.374385  0.625591  0.955577  1
  Al  Al25  1  0.624665  0.375358  0.451164  1
