# generated using pymatgen
data_Th6ZnSn5Ir6
_symmetry_space_group_name_H-M   'P 1'
_cell_length_a   7.54800968
_cell_length_b   7.54800982
_cell_length_c   8.26498898
_cell_angle_alpha   89.98930048
_cell_angle_beta   90.01069697
_cell_angle_gamma   120.08017982
_symmetry_Int_Tables_number   1
_chemical_formula_structural   Th6ZnSn5Ir6
_chemical_formula_sum   'Th6 Zn1 Sn5 Ir6'
_cell_volume   407.46128623
_cell_formula_units_Z   1
loop_
 _symmetry_equiv_pos_site_id
 _symmetry_equiv_pos_as_xyz
  1  'x, y, z'
loop_
 _atom_site_type_symbol
 _atom_site_label
 _atom_site_symmetry_multiplicity
 _atom_site_fract_x
 _atom_site_fract_y
 _atom_site_fract_z
 _atom_site_occupancy
  Th  Th0  1  0.411997  0.005677  0.254060  1
  Th  Th1  1  0.580993  0.582136  0.743509  1
  Th  Th2  1  0.582136  0.580993  0.256491  1
  Th  Th3  1  0.005615  0.412035  0.254034  1
  Th  Th4  1  0.005677  0.411997  0.745940  1
  Th  Th5  1  0.412035  0.005615  0.745966  1
  Zn  Zn6  1  0.249922  0.249922  0.500000  1
  Sn  Sn7  1  0.248367  0.248367  0.000000  1
  Sn  Sn8  1  0.745403  0.998008  0.000311  1
  Sn  Sn9  1  0.004334  0.759441  0.500230  1
  Sn  Sn10  1  0.759441  0.004334  0.499770  1
  Sn  Sn11  1  0.998008  0.745403  0.999689  1
  Ir  Ir12  1  0.668678  0.335511  0.500467  1
  Ir  Ir13  1  0.660984  0.329852  0.999021  1
  Ir  Ir14  1  0.329852  0.660984  0.000979  1
  Ir  Ir15  1  0.335511  0.668678  0.499533  1
  Ir  Ir16  1  0.000261  0.000787  0.751829  1
  Ir  Ir17  1  0.000787  0.000261  0.248171  1
