# generated using pymatgen
data_Th2SnPt2
_symmetry_space_group_name_H-M   'P 1'
_cell_length_a   7.94562000
_cell_length_b   7.94562000
_cell_length_c   3.86033900
_cell_angle_alpha   90.00000000
_cell_angle_beta   90.00000000
_cell_angle_gamma   90.00000000
_symmetry_Int_Tables_number   1
_chemical_formula_structural   Th2SnPt2
_chemical_formula_sum   'Th4 Sn2 Pt4'
_cell_volume   243.71430798
_cell_formula_units_Z   2
loop_
 _symmetry_equiv_pos_site_id
 _symmetry_equiv_pos_as_xyz
  1  'x, y, z'
loop_
 _atom_site_type_symbol
 _atom_site_label
 _atom_site_symmetry_multiplicity
 _atom_site_fract_x
 _atom_site_fract_y
 _atom_site_fract_z
 _atom_site_occupancy
  Th  Th0  1  0.326012  0.173988  0.499999  1
  Th  Th1  1  0.826013  0.326012  0.499999  1
  Th  Th2  1  0.173988  0.673988  0.499999  1
  Th  Th3  1  0.673988  0.826013  0.499999  1
  Sn  Sn4  1  0.000000  0.000000  0.000000  1
  Sn  Sn5  1  0.500000  0.500000  0.000000  1
  Pt  Pt6  1  0.628740  0.128739  0.000000  1
  Pt  Pt7  1  0.128739  0.371261  0.000000  1
  Pt  Pt8  1  0.871261  0.628740  0.000000  1
  Pt  Pt9  1  0.371261  0.871261  0.000000  1
