# generated using pymatgen
data_DyY3(Ir3Rh)2
_symmetry_space_group_name_H-M   'P 1'
_cell_length_a   9.27385317
_cell_length_b   9.27385394
_cell_length_c   9.27123615
_cell_angle_alpha   33.62246894
_cell_angle_beta   33.62246415
_cell_angle_gamma   33.63855502
_symmetry_Int_Tables_number   1
_chemical_formula_structural   DyY3(Ir3Rh)2
_chemical_formula_sum   'Dy1 Y3 Ir6 Rh2'
_cell_volume   217.84675108
_cell_formula_units_Z   1
loop_
 _symmetry_equiv_pos_site_id
 _symmetry_equiv_pos_as_xyz
  1  'x, y, z'
loop_
 _atom_site_type_symbol
 _atom_site_label
 _atom_site_symmetry_multiplicity
 _atom_site_fract_x
 _atom_site_fract_y
 _atom_site_fract_z
 _atom_site_occupancy
  Dy  Dy0  1  0.686680  0.686680  0.688954  1
  Y  Y1  1  0.186671  0.186671  0.189037  1
  Y  Y2  1  0.813290  0.813290  0.810965  1
  Y  Y3  1  0.313411  0.313411  0.310961  1
  Ir  Ir4  1  0.000037  0.000037  0.999959  1
  Ir  Ir5  1  0.499955  0.499955  0.500066  1
  Ir  Ir6  1  0.749744  0.249940  0.250030  1
  Ir  Ir7  1  0.250325  0.750008  0.749943  1
  Ir  Ir8  1  0.249940  0.749744  0.250030  1
  Ir  Ir9  1  0.750008  0.250325  0.749943  1
  Rh  Rh10  1  0.249900  0.249900  0.750021  1
  Rh  Rh11  1  0.750041  0.750041  0.250090  1
