# generated using pymatgen
data_Pr3MnNbC6
_symmetry_space_group_name_H-M   'P 1'
_cell_length_a   8.46868600
_cell_length_b   8.46868518
_cell_length_c   5.32007400
_cell_angle_alpha   90.00000000
_cell_angle_beta   90.00000000
_cell_angle_gamma   119.99998652
_symmetry_Int_Tables_number   1
_chemical_formula_structural   Pr3MnNbC6
_chemical_formula_sum   'Pr6 Mn2 Nb2 C12'
_cell_volume   330.43069428
_cell_formula_units_Z   2
loop_
 _symmetry_equiv_pos_site_id
 _symmetry_equiv_pos_as_xyz
  1  'x, y, z'
loop_
 _atom_site_type_symbol
 _atom_site_label
 _atom_site_symmetry_multiplicity
 _atom_site_fract_x
 _atom_site_fract_y
 _atom_site_fract_z
 _atom_site_occupancy
  Pr  Pr0  1  0.611823  0.678566  0.750000  1
  Pr  Pr1  1  0.933256  0.611823  0.250000  1
  Pr  Pr2  1  0.678566  0.066744  0.250000  1
  Pr  Pr3  1  0.321434  0.933256  0.750000  1
  Pr  Pr4  1  0.066744  0.388177  0.750000  1
  Pr  Pr5  1  0.388177  0.321434  0.250000  1
  Mn  Mn6  1  0.666667  0.333333  0.750000  1
  Mn  Mn7  1  0.333333  0.666667  0.250000  1
  Nb  Nb8  1  0.000000  0.000000  0.500000  1
  Nb  Nb9  1  0.000000  0.000000  0.000000  1
  C  C10  1  0.952995  0.755142  0.750000  1
  C  C11  1  0.197853  0.952995  0.250000  1
  C  C12  1  0.755142  0.802147  0.250000  1
  C  C13  1  0.244858  0.197853  0.750000  1
  C  C14  1  0.802147  0.047005  0.750000  1
  C  C15  1  0.047005  0.244858  0.250000  1
  C  C16  1  0.854280  0.568249  0.750000  1
  C  C17  1  0.286031  0.854280  0.250000  1
  C  C18  1  0.568249  0.713969  0.250000  1
  C  C19  1  0.431751  0.286031  0.750000  1
  C  C20  1  0.145720  0.431751  0.250000  1
  C  C21  1  0.713969  0.145720  0.750000  1
