# generated using pymatgen
data_Er16Al4IrRu3
_symmetry_space_group_name_H-M   'P 1'
_cell_length_a   9.40499200
_cell_length_b   9.44555661
_cell_length_c   9.40499200
_cell_angle_alpha   60.14196186
_cell_angle_beta   60.00000002
_cell_angle_gamma   60.14196387
_symmetry_Int_Tables_number   1
_chemical_formula_structural   Er16Al4IrRu3
_chemical_formula_sum   'Er16 Al4 Ir1 Ru3'
_cell_volume   592.04945909
_cell_formula_units_Z   1
loop_
 _symmetry_equiv_pos_site_id
 _symmetry_equiv_pos_as_xyz
  1  'x, y, z'
loop_
 _atom_site_type_symbol
 _atom_site_label
 _atom_site_symmetry_multiplicity
 _atom_site_fract_x
 _atom_site_fract_y
 _atom_site_fract_z
 _atom_site_occupancy
  Er  Er0  1  0.061536  0.061527  0.438469  1
  Er  Er1  1  0.647527  0.057418  0.647527  1
  Er  Er2  1  0.193951  0.806100  0.193951  1
  Er  Er3  1  0.438469  0.061527  0.438469  1
  Er  Er4  1  0.195535  0.192639  0.805914  1
  Er  Er5  1  0.646952  0.647874  0.646952  1
  Er  Er6  1  0.058223  0.647874  0.646952  1
  Er  Er7  1  0.438469  0.061527  0.061536  1
  Er  Er8  1  0.646952  0.647874  0.058223  1
  Er  Er9  1  0.193951  0.806100  0.805999  1
  Er  Er10  1  0.805914  0.192639  0.805914  1
  Er  Er11  1  0.805914  0.192639  0.195535  1
  Er  Er12  1  0.805999  0.806100  0.193951  1
  Er  Er13  1  0.061688  0.438948  0.437677  1
  Er  Er14  1  0.437677  0.438948  0.061688  1
  Er  Er15  1  0.061688  0.438948  0.061688  1
  Al  Al16  1  0.732551  0.422246  0.422601  1
  Al  Al17  1  0.422601  0.422246  0.732551  1
  Al  Al18  1  0.422181  0.733459  0.422181  1
  Al  Al19  1  0.422601  0.422246  0.422601  1
  Ir  Ir20  1  0.857757  0.426728  0.857757  1
  Ru  Ru21  1  0.858361  0.858133  0.858361  1
  Ru  Ru22  1  0.425148  0.858133  0.858361  1
  Ru  Ru23  1  0.858361  0.858133  0.425148  1
