# generated using pymatgen
data_KLiSm(P3Pd10)2
_symmetry_space_group_name_H-M   'P 1'
_cell_length_a   8.66879242
_cell_length_b   8.66879338
_cell_length_c   8.66879200
_cell_angle_alpha   59.99999764
_cell_angle_beta   59.99999397
_cell_angle_gamma   59.99999744
_symmetry_Int_Tables_number   1
_chemical_formula_structural   KLiSm(P3Pd10)2
_chemical_formula_sum   'K1 Li1 Sm1 P6 Pd20'
_cell_volume   460.63910543
_cell_formula_units_Z   1
loop_
 _symmetry_equiv_pos_site_id
 _symmetry_equiv_pos_as_xyz
  1  'x, y, z'
loop_
 _atom_site_type_symbol
 _atom_site_label
 _atom_site_symmetry_multiplicity
 _atom_site_fract_x
 _atom_site_fract_y
 _atom_site_fract_z
 _atom_site_occupancy
  K  K0  1  0.250000  0.250000  0.250000  1
  Li  Li1  1  0.000000  0.000000  0.000000  1
  Sm  Sm2  1  0.750000  0.750000  0.750000  1
  P  P3  1  0.738550  0.261450  0.261450  1
  P  P4  1  0.261450  0.738550  0.738550  1
  P  P5  1  0.261450  0.738550  0.261450  1
  P  P6  1  0.738550  0.261450  0.738550  1
  P  P7  1  0.261450  0.261450  0.738550  1
  P  P8  1  0.738550  0.738550  0.261450  1
  Pd  Pd9  1  0.388686  0.388686  0.388686  1
  Pd  Pd10  1  0.615041  0.615041  0.615041  1
  Pd  Pd11  1  0.388686  0.388686  0.833941  1
  Pd  Pd12  1  0.388686  0.833941  0.388686  1
  Pd  Pd13  1  0.615041  0.615041  0.154879  1
  Pd  Pd14  1  0.615041  0.154879  0.615041  1
  Pd  Pd15  1  0.833941  0.388686  0.388686  1
  Pd  Pd16  1  0.154879  0.615041  0.615041  1
  Pd  Pd17  1  0.347604  0.995959  0.995959  1
  Pd  Pd18  1  0.660480  0.995959  0.995959  1
  Pd  Pd19  1  0.995959  0.347604  0.660480  1
  Pd  Pd20  1  0.995959  0.660480  0.347604  1
  Pd  Pd21  1  0.995959  0.347604  0.995959  1
  Pd  Pd22  1  0.660480  0.995959  0.347604  1
  Pd  Pd23  1  0.995959  0.660480  0.995959  1
  Pd  Pd24  1  0.347604  0.995959  0.660480  1
  Pd  Pd25  1  0.995959  0.995959  0.347604  1
  Pd  Pd26  1  0.995959  0.995959  0.660480  1
  Pd  Pd27  1  0.660480  0.347604  0.995959  1
  Pd  Pd28  1  0.347604  0.660480  0.995959  1
