# generated using pymatgen
data_Nd8Cd2CoNi
_symmetry_space_group_name_H-M   'P 1'
_cell_length_a   9.83990813
_cell_length_b   9.83980926
_cell_length_c   9.85329400
_cell_angle_alpha   59.95667316
_cell_angle_beta   59.95695459
_cell_angle_gamma   59.90330588
_symmetry_Int_Tables_number   1
_chemical_formula_structural   Nd8Cd2CoNi
_chemical_formula_sum   'Nd16 Cd4 Co2 Ni2'
_cell_volume   673.66255959
_cell_formula_units_Z   2
loop_
 _symmetry_equiv_pos_site_id
 _symmetry_equiv_pos_as_xyz
  1  'x, y, z'
loop_
 _atom_site_type_symbol
 _atom_site_label
 _atom_site_symmetry_multiplicity
 _atom_site_fract_x
 _atom_site_fract_y
 _atom_site_fract_z
 _atom_site_occupancy
  Nd  Nd0  1  0.596379  0.596414  0.599648  1
  Nd  Nd1  1  0.596335  0.596364  0.207603  1
  Nd  Nd2  1  0.595526  0.208352  0.598003  1
  Nd  Nd3  1  0.208371  0.595542  0.597985  1
  Nd  Nd4  1  0.064147  0.438667  0.440477  1
  Nd  Nd5  1  0.438685  0.064049  0.056780  1
  Nd  Nd6  1  0.438668  0.064142  0.440477  1
  Nd  Nd7  1  0.064054  0.438685  0.056772  1
  Nd  Nd8  1  0.439085  0.439080  0.060976  1
  Nd  Nd9  1  0.059471  0.059440  0.440538  1
  Nd  Nd10  1  0.188243  0.810907  0.813591  1
  Nd  Nd11  1  0.810873  0.188260  0.187288  1
  Nd  Nd12  1  0.810909  0.188244  0.813580  1
  Nd  Nd13  1  0.188259  0.810870  0.187281  1
  Nd  Nd14  1  0.811698  0.811686  0.188309  1
  Nd  Nd15  1  0.187330  0.187324  0.812657  1
  Cd  Cd16  1  0.829565  0.829558  0.829740  1
  Cd  Cd17  1  0.829566  0.829560  0.511136  1
  Cd  Cd18  1  0.830405  0.509624  0.829984  1
  Cd  Cd19  1  0.509623  0.830403  0.829986  1
  Co  Co20  1  0.392443  0.392452  0.390785  1
  Co  Co21  1  0.392439  0.392447  0.824323  1
  Ni  Ni22  1  0.392719  0.825217  0.391037  1
  Ni  Ni23  1  0.825209  0.392716  0.391042  1
