# generated using pymatgen
data_Tb3YP7Ir8
_symmetry_space_group_name_H-M   'P 1'
_cell_length_a   3.95242600
_cell_length_b   12.70203503
_cell_length_c   13.13111903
_cell_angle_alpha   80.85318645
_cell_angle_beta   90.00000000
_cell_angle_gamma   90.00000000
_symmetry_Int_Tables_number   1
_chemical_formula_structural   Tb3YP7Ir8
_chemical_formula_sum   'Tb6 Y2 P14 Ir16'
_cell_volume   650.85013975
_cell_formula_units_Z   2
loop_
 _symmetry_equiv_pos_site_id
 _symmetry_equiv_pos_as_xyz
  1  'x, y, z'
loop_
 _atom_site_type_symbol
 _atom_site_label
 _atom_site_symmetry_multiplicity
 _atom_site_fract_x
 _atom_site_fract_y
 _atom_site_fract_z
 _atom_site_occupancy
  Tb  Tb0  1  0.250000  0.102524  0.789312  1
  Tb  Tb1  1  0.750000  0.897476  0.210688  1
  Tb  Tb2  1  0.250000  0.279008  0.102109  1
  Tb  Tb3  1  0.750000  0.720992  0.897891  1
  Tb  Tb4  1  0.250000  0.520451  0.293861  1
  Tb  Tb5  1  0.750000  0.479549  0.706139  1
  Y  Y6  1  0.250000  0.209160  0.438038  1
  Y  Y7  1  0.750000  0.790840  0.561962  1
  P  P8  1  0.250000  0.051518  0.100359  1
  P  P9  1  0.750000  0.948482  0.899641  1
  P  P10  1  0.250000  0.312263  0.688975  1
  P  P11  1  0.750000  0.687737  0.311025  1
  P  P12  1  0.250000  0.607711  0.566682  1
  P  P13  1  0.750000  0.392289  0.433318  1
  P  P14  1  0.250000  0.843218  0.717978  1
  P  P15  1  0.750000  0.156782  0.282022  1
  P  P16  1  0.750000  0.257972  0.919894  1
  P  P17  1  0.250000  0.742028  0.080106  1
  P  P18  1  0.750000  0.092982  0.588345  1
  P  P19  1  0.250000  0.907018  0.411655  1
  P  P20  1  0.750000  0.472551  0.129105  1
  P  P21  1  0.250000  0.527449  0.870895  1
  Ir  Ir22  1  0.250000  0.990651  0.576241  1
  Ir  Ir23  1  0.750000  0.009349  0.423759  1
  Ir  Ir24  1  0.250000  0.662606  0.731224  1
  Ir  Ir25  1  0.750000  0.337394  0.268776  1
  Ir  Ir26  1  0.250000  0.554790  0.045037  1
  Ir  Ir27  1  0.750000  0.445210  0.954963  1
  Ir  Ir28  1  0.250000  0.060342  0.272734  1
  Ir  Ir29  1  0.750000  0.939658  0.727266  1
  Ir  Ir30  1  0.250000  0.421804  0.523838  1
  Ir  Ir31  1  0.750000  0.578196  0.476162  1
  Ir  Ir32  1  0.250000  0.914970  0.997616  1
  Ir  Ir33  1  0.750000  0.085030  0.002384  1
  Ir  Ir34  1  0.250000  0.729365  0.395254  1
  Ir  Ir35  1  0.750000  0.270635  0.604746  1
  Ir  Ir36  1  0.250000  0.341590  0.858006  1
  Ir  Ir37  1  0.750000  0.658410  0.141994  1
