# generated using pymatgen
data_FeNi3(BiO3)8
_symmetry_space_group_name_H-M   'P 1'
_cell_length_a   4.92520456
_cell_length_b   9.85313694
_cell_length_c   9.92426000
_cell_angle_alpha   90.00001163
_cell_angle_beta   90.00000000
_cell_angle_gamma   90.05240052
_symmetry_Int_Tables_number   1
_chemical_formula_structural   FeNi3(BiO3)8
_chemical_formula_sum   'Fe1 Ni3 Bi8 O24'
_cell_volume   481.61138377
_cell_formula_units_Z   1
loop_
 _symmetry_equiv_pos_site_id
 _symmetry_equiv_pos_as_xyz
  1  'x, y, z'
loop_
 _atom_site_type_symbol
 _atom_site_label
 _atom_site_symmetry_multiplicity
 _atom_site_fract_x
 _atom_site_fract_y
 _atom_site_fract_z
 _atom_site_occupancy
  Fe  Fe0  1  0.999985  0.499981  0.000000  1
  Ni  Ni1  1  0.499342  0.750158  0.500000  1
  Ni  Ni2  1  0.999963  0.999972  0.999999  1
  Ni  Ni3  1  0.500695  0.249832  0.500000  1
  Bi  Bi4  1  0.000003  0.000003  0.333436  1
  Bi  Bi5  1  0.000001  0.500006  0.333869  1
  Bi  Bi6  1  0.000003  0.000003  0.666564  1
  Bi  Bi7  1  0.000001  0.500006  0.666131  1
  Bi  Bi8  1  0.501895  0.248023  0.167445  1
  Bi  Bi9  1  0.498099  0.751976  0.167443  1
  Bi  Bi10  1  0.501895  0.248023  0.832555  1
  Bi  Bi11  1  0.498099  0.751975  0.832557  1
  O  O12  1  0.200564  0.399758  0.500000  1
  O  O13  1  0.199891  0.900037  0.500000  1
  O  O14  1  0.301592  0.151645  0.000000  1
  O  O15  1  0.296826  0.647737  0.000000  1
  O  O16  1  0.703171  0.352268  0.000000  1
  O  O17  1  0.698398  0.848357  0.000000  1
  O  O18  1  0.800113  0.099963  0.500000  1
  O  O19  1  0.799440  0.600247  0.500000  1
  O  O20  1  0.188595  0.405956  0.158442  1
  O  O21  1  0.188547  0.905273  0.161806  1
  O  O22  1  0.188595  0.405956  0.841558  1
  O  O23  1  0.188547  0.905273  0.838194  1
  O  O24  1  0.309259  0.155947  0.337675  1
  O  O25  1  0.310804  0.653858  0.336579  1
  O  O26  1  0.309259  0.155947  0.662325  1
  O  O27  1  0.310804  0.653858  0.663422  1
  O  O28  1  0.689196  0.346148  0.336578  1
  O  O29  1  0.690744  0.844058  0.337673  1
  O  O30  1  0.689196  0.346148  0.663422  1
  O  O31  1  0.690745  0.844058  0.662327  1
  O  O32  1  0.811453  0.094727  0.161806  1
  O  O33  1  0.811411  0.594048  0.158441  1
  O  O34  1  0.811453  0.094726  0.838194  1
  O  O35  1  0.811412  0.594049  0.841559  1
