# generated using pymatgen
data_Tb2PaMn2Ga6Co7
_symmetry_space_group_name_H-M   'P 1'
_cell_length_a   4.15120800
_cell_length_b   8.72615396
_cell_length_c   8.77301519
_cell_angle_alpha   59.84428695
_cell_angle_beta   90.00000000
_cell_angle_gamma   90.00000000
_symmetry_Int_Tables_number   1
_chemical_formula_structural   Tb2PaMn2Ga6Co7
_chemical_formula_sum   'Tb2 Pa1 Mn2 Ga6 Co7'
_cell_volume   274.78517658
_cell_formula_units_Z   1
loop_
 _symmetry_equiv_pos_site_id
 _symmetry_equiv_pos_as_xyz
  1  'x, y, z'
loop_
 _atom_site_type_symbol
 _atom_site_label
 _atom_site_symmetry_multiplicity
 _atom_site_fract_x
 _atom_site_fract_y
 _atom_site_fract_z
 _atom_site_occupancy
  Tb  Tb0  1  0.500000  0.326905  0.334184  1
  Tb  Tb1  1  0.500000  0.673060  0.660971  1
  Pa  Pa2  1  0.000000  0.999945  0.004190  1
  Mn  Mn3  1  0.500000  0.298887  0.702369  1
  Mn  Mn4  1  0.500000  0.701377  0.001140  1
  Ga  Ga5  1  0.000000  0.495876  0.504603  1
  Ga  Ga6  1  0.000000  0.504050  0.000552  1
  Ga  Ga7  1  0.000000  0.000056  0.491227  1
  Ga  Ga8  1  0.500000  0.716477  0.288597  1
  Ga  Ga9  1  0.500000  0.283622  0.005085  1
  Ga  Ga10  1  0.500000  0.000082  0.717274  1
  Co  Co11  1  0.000000  0.172103  0.172152  1
  Co  Co12  1  0.000000  0.173111  0.649084  1
  Co  Co13  1  0.000000  0.655415  0.172727  1
  Co  Co14  1  0.000000  0.827043  0.822313  1
  Co  Co15  1  0.000000  0.344569  0.828089  1
  Co  Co16  1  0.000000  0.827346  0.344943  1
  Co  Co17  1  0.500000  0.999977  0.300599  1
