# generated using pymatgen
data_YPaZn5Sn
_symmetry_space_group_name_H-M   'P 1'
_cell_length_a   8.36584148
_cell_length_b   8.36584060
_cell_length_c   8.91303200
_cell_angle_alpha   90.00000000
_cell_angle_beta   90.00000000
_cell_angle_gamma   149.34321639
_symmetry_Int_Tables_number   1
_chemical_formula_structural   YPaZn5Sn
_chemical_formula_sum   'Y2 Pa2 Zn10 Sn2'
_cell_volume   318.07150627
_cell_formula_units_Z   2
loop_
 _symmetry_equiv_pos_site_id
 _symmetry_equiv_pos_as_xyz
  1  'x, y, z'
loop_
 _atom_site_type_symbol
 _atom_site_label
 _atom_site_symmetry_multiplicity
 _atom_site_fract_x
 _atom_site_fract_y
 _atom_site_fract_z
 _atom_site_occupancy
  Y  Y0  1  0.000000  0.000000  0.500000  1
  Y  Y1  1  0.000000  0.000000  0.000000  1
  Pa  Pa2  1  0.204658  0.795342  0.250000  1
  Pa  Pa3  1  0.795342  0.204658  0.750000  1
  Zn  Zn4  1  0.814275  0.185725  0.392553  1
  Zn  Zn5  1  0.185725  0.814275  0.607447  1
  Zn  Zn6  1  0.814275  0.185725  0.107447  1
  Zn  Zn7  1  0.185725  0.814275  0.892553  1
  Zn  Zn8  1  0.658743  0.341257  0.479829  1
  Zn  Zn9  1  0.341257  0.658743  0.520171  1
  Zn  Zn10  1  0.658743  0.341257  0.020171  1
  Zn  Zn11  1  0.341257  0.658743  0.979829  1
  Zn  Zn12  1  0.392374  0.607626  0.250000  1
  Zn  Zn13  1  0.607626  0.392374  0.750000  1
  Sn  Sn14  1  0.554452  0.445548  0.250000  1
  Sn  Sn15  1  0.445548  0.554452  0.750000  1
