# generated using pymatgen
data_La4Pr4MgCdIr2
_symmetry_space_group_name_H-M   'P 1'
_cell_length_a   10.10289473
_cell_length_b   10.10289531
_cell_length_c   10.13942800
_cell_angle_alpha   59.88031593
_cell_angle_beta   59.88031405
_cell_angle_gamma   60.29580618
_symmetry_Int_Tables_number   1
_chemical_formula_structural   La4Pr4MgCdIr2
_chemical_formula_sum   'La8 Pr8 Mg2 Cd2 Ir4'
_cell_volume   732.08254277
_cell_formula_units_Z   2
loop_
 _symmetry_equiv_pos_site_id
 _symmetry_equiv_pos_as_xyz
  1  'x, y, z'
loop_
 _atom_site_type_symbol
 _atom_site_label
 _atom_site_symmetry_multiplicity
 _atom_site_fract_x
 _atom_site_fract_y
 _atom_site_fract_z
 _atom_site_occupancy
  La  La0  1  0.346377  0.346377  0.347805  1
  La  La1  1  0.346377  0.346377  0.959440  1
  La  La2  1  0.347347  0.960118  0.346266  1
  La  La3  1  0.960118  0.347347  0.346266  1
  La  La4  1  0.810616  0.188953  0.189658  1
  La  La5  1  0.188953  0.810616  0.810773  1
  La  La6  1  0.188953  0.810616  0.189658  1
  La  La7  1  0.810616  0.188953  0.810773  1
  Pr  Pr8  1  0.192366  0.192366  0.807634  1
  Pr  Pr9  1  0.810005  0.810005  0.189995  1
  Pr  Pr10  1  0.939271  0.562001  0.562344  1
  Pr  Pr11  1  0.562001  0.939271  0.936383  1
  Pr  Pr12  1  0.562001  0.939271  0.562344  1
  Pr  Pr13  1  0.939271  0.562001  0.936383  1
  Pr  Pr14  1  0.563076  0.563076  0.936924  1
  Pr  Pr15  1  0.938960  0.938960  0.561040  1
  Mg  Mg16  1  0.576069  0.576069  0.578735  1
  Mg  Mg17  1  0.576069  0.576069  0.269127  1
  Cd  Cd18  1  0.580764  0.258507  0.580364  1
  Cd  Cd19  1  0.258507  0.580764  0.580364  1
  Ir  Ir20  1  0.140842  0.140842  0.142778  1
  Ir  Ir21  1  0.140842  0.140842  0.575538  1
  Ir  Ir22  1  0.144479  0.576116  0.139702  1
  Ir  Ir23  1  0.576116  0.144479  0.139702  1
