# generated using pymatgen
data_LiPaAs2Pd
_symmetry_space_group_name_H-M   'P 1'
_cell_length_a   4.18183400
_cell_length_b   4.18183259
_cell_length_c   12.87415700
_cell_angle_alpha   90.00000000
_cell_angle_beta   90.00000000
_cell_angle_gamma   119.99997955
_symmetry_Int_Tables_number   1
_chemical_formula_structural   LiPaAs2Pd
_chemical_formula_sum   'Li2 Pa2 As4 Pd2'
_cell_volume   194.97680698
_cell_formula_units_Z   2
loop_
 _symmetry_equiv_pos_site_id
 _symmetry_equiv_pos_as_xyz
  1  'x, y, z'
loop_
 _atom_site_type_symbol
 _atom_site_label
 _atom_site_symmetry_multiplicity
 _atom_site_fract_x
 _atom_site_fract_y
 _atom_site_fract_z
 _atom_site_occupancy
  Li  Li0  1  0.666667  0.333333  0.389445  1
  Li  Li1  1  0.333333  0.666667  0.889445  1
  Pa  Pa2  1  0.333333  0.666667  0.610417  1
  Pa  Pa3  1  0.666667  0.333333  0.110417  1
  As  As4  1  0.333333  0.666667  0.231274  1
  As  As5  1  0.000000  0.000000  0.986237  1
  As  As6  1  0.000000  0.000000  0.486237  1
  As  As7  1  0.666667  0.333333  0.731274  1
  Pd  Pd8  1  0.000000  0.000000  0.782627  1
  Pd  Pd9  1  0.000000  0.000000  0.282627  1
