# generated using pymatgen
data_Sc2Al9Os2Pd
_symmetry_space_group_name_H-M   'P 1'
_cell_length_a   7.40464500
_cell_length_b   7.40464643
_cell_length_c   9.37292900
_cell_angle_alpha   90.00000000
_cell_angle_beta   90.00000000
_cell_angle_gamma   119.70415781
_symmetry_Int_Tables_number   1
_chemical_formula_structural   Sc2Al9Os2Pd
_chemical_formula_sum   'Sc4 Al18 Os4 Pd2'
_cell_volume   446.37668171
_cell_formula_units_Z   2
loop_
 _symmetry_equiv_pos_site_id
 _symmetry_equiv_pos_as_xyz
  1  'x, y, z'
loop_
 _atom_site_type_symbol
 _atom_site_label
 _atom_site_symmetry_multiplicity
 _atom_site_fract_x
 _atom_site_fract_y
 _atom_site_fract_z
 _atom_site_occupancy
  Sc  Sc0  1  0.999099  0.668591  0.250000  1
  Sc  Sc1  1  0.000901  0.331409  0.750000  1
  Sc  Sc2  1  0.668591  0.999099  0.250000  1
  Sc  Sc3  1  0.331409  0.000901  0.750000  1
  Al  Al4  1  0.125196  0.125196  0.250000  1
  Al  Al5  1  0.874804  0.874804  0.750000  1
  Al  Al6  1  0.000321  0.338620  0.075986  1
  Al  Al7  1  0.999679  0.661380  0.924014  1
  Al  Al8  1  0.999679  0.661380  0.575986  1
  Al  Al9  1  0.338620  0.000321  0.424014  1
  Al  Al10  1  0.000321  0.338620  0.424014  1
  Al  Al11  1  0.661380  0.999679  0.575986  1
  Al  Al12  1  0.661380  0.999679  0.924014  1
  Al  Al13  1  0.338620  0.000321  0.075986  1
  Al  Al14  1  0.337215  0.337215  0.559010  1
  Al  Al15  1  0.662785  0.662785  0.440990  1
  Al  Al16  1  0.662785  0.662785  0.059010  1
  Al  Al17  1  0.337215  0.337215  0.940990  1
  Al  Al18  1  0.336692  0.553582  0.250000  1
  Al  Al19  1  0.663308  0.446418  0.750000  1
  Al  Al20  1  0.553582  0.336692  0.250000  1
  Al  Al21  1  0.446418  0.663308  0.750000  1
  Os  Os22  1  0.672679  0.327321  0.000000  1
  Os  Os23  1  0.327321  0.672679  0.000000  1
  Os  Os24  1  0.327321  0.672679  0.500000  1
  Os  Os25  1  0.672679  0.327321  0.500000  1
  Pd  Pd26  1  0.000000  0.000000  0.000000  1
  Pd  Pd27  1  0.000000  0.000000  0.500000  1
