# generated using pymatgen
data_PaTa3F20
_symmetry_space_group_name_H-M   'P 1'
_cell_length_a   9.12844854
_cell_length_b   9.12844843
_cell_length_c   5.33530963
_cell_angle_alpha   86.51960562
_cell_angle_beta   86.51960316
_cell_angle_gamma   112.81849308
_symmetry_Int_Tables_number   1
_chemical_formula_structural   PaTa3F20
_chemical_formula_sum   'Pa1 Ta3 F20'
_cell_volume   407.31534237
_cell_formula_units_Z   1
loop_
 _symmetry_equiv_pos_site_id
 _symmetry_equiv_pos_as_xyz
  1  'x, y, z'
loop_
 _atom_site_type_symbol
 _atom_site_label
 _atom_site_symmetry_multiplicity
 _atom_site_fract_x
 _atom_site_fract_y
 _atom_site_fract_z
 _atom_site_occupancy
  Pa  Pa0  1  0.798465  0.201535  0.500000  1
  Ta  Ta1  1  0.748623  0.737430  0.249689  1
  Ta  Ta2  1  0.262570  0.251377  0.750311  1
  Ta  Ta3  1  0.196202  0.803798  0.500000  1
  F  F4  1  0.277691  0.448102  0.848103  1
  F  F5  1  0.335511  0.327950  0.409436  1
  F  F6  1  0.458743  0.262602  0.846036  1
  F  F7  1  0.040585  0.215223  0.624548  1
  F  F8  1  0.672050  0.664489  0.590564  1
  F  F9  1  0.551898  0.722309  0.151897  1
  F  F10  1  0.866910  0.863005  0.955185  1
  F  F11  1  0.974474  0.783922  0.379052  1
  F  F12  1  0.164673  0.607137  0.382504  1
  F  F13  1  0.918935  0.306886  0.157451  1
  F  F14  1  0.581395  0.166338  0.370191  1
  F  F15  1  0.833662  0.418605  0.629809  1
  F  F16  1  0.784777  0.959415  0.375452  1
  F  F17  1  0.693114  0.081065  0.842549  1
  F  F18  1  0.216078  0.025526  0.620948  1
  F  F19  1  0.392863  0.835327  0.617496  1
  F  F20  1  0.136995  0.133090  0.044815  1
  F  F21  1  0.737398  0.541257  0.153964  1
  F  F22  1  0.279298  0.922911  0.185746  1
  F  F23  1  0.077089  0.720702  0.814254  1
