# generated using pymatgen
data_Pr2ErSi2GeRh6
_symmetry_space_group_name_H-M   'P 1'
_cell_length_a   5.65985674
_cell_length_b   5.65812400
_cell_length_c   15.25847034
_cell_angle_alpha   90.01143134
_cell_angle_beta   90.10360459
_cell_angle_gamma   119.96532463
_symmetry_Int_Tables_number   1
_chemical_formula_structural   Pr2ErSi2GeRh6
_chemical_formula_sum   'Pr4 Er2 Si4 Ge2 Rh12'
_cell_volume   423.32128815
_cell_formula_units_Z   2
loop_
 _symmetry_equiv_pos_site_id
 _symmetry_equiv_pos_as_xyz
  1  'x, y, z'
loop_
 _atom_site_type_symbol
 _atom_site_label
 _atom_site_symmetry_multiplicity
 _atom_site_fract_x
 _atom_site_fract_y
 _atom_site_fract_z
 _atom_site_occupancy
  Pr  Pr0  1  0.333358  0.666721  0.537551  1
  Pr  Pr1  1  0.666642  0.333279  0.462449  1
  Pr  Pr2  1  0.333335  0.666682  0.751257  1
  Pr  Pr3  1  0.666665  0.333318  0.248743  1
  Er  Er4  1  0.666797  0.333411  0.033174  1
  Er  Er5  1  0.333203  0.666589  0.966826  1
  Si  Si6  1  0.000054  0.999975  0.245742  1
  Si  Si7  1  0.999946  0.000025  0.754258  1
  Si  Si8  1  0.333292  0.666603  0.247598  1
  Si  Si9  1  0.666708  0.333397  0.752402  1
  Ge  Ge10  1  0.000000  0.000000  0.000000  1
  Ge  Ge11  1  0.000000  0.000000  0.500000  1
  Rh  Rh12  1  0.166979  0.334343  0.130540  1
  Rh  Rh13  1  0.833021  0.665657  0.869460  1
  Rh  Rh14  1  0.665431  0.832601  0.130569  1
  Rh  Rh15  1  0.834154  0.668596  0.637862  1
  Rh  Rh16  1  0.334569  0.167399  0.869431  1
  Rh  Rh17  1  0.165846  0.331404  0.362138  1
  Rh  Rh18  1  0.166903  0.832481  0.130474  1
  Rh  Rh19  1  0.331218  0.165457  0.637891  1
  Rh  Rh20  1  0.833097  0.167519  0.869526  1
  Rh  Rh21  1  0.668782  0.834543  0.362109  1
  Rh  Rh22  1  0.834349  0.165806  0.637800  1
  Rh  Rh23  1  0.165651  0.834194  0.362200  1
