# generated using pymatgen
data_Dy10Si16Ir
_symmetry_space_group_name_H-M   'P 1'
_cell_length_a   6.76303844
_cell_length_b   8.23198748
_cell_length_c   11.11704021
_cell_angle_alpha   111.73053443
_cell_angle_beta   107.70849927
_cell_angle_gamma   90.00000043
_symmetry_Int_Tables_number   1
_chemical_formula_structural   Dy10Si16Ir
_chemical_formula_sum   'Dy10 Si16 Ir1'
_cell_volume   543.24228063
_cell_formula_units_Z   1
loop_
 _symmetry_equiv_pos_site_id
 _symmetry_equiv_pos_as_xyz
  1  'x, y, z'
loop_
 _atom_site_type_symbol
 _atom_site_label
 _atom_site_symmetry_multiplicity
 _atom_site_fract_x
 _atom_site_fract_y
 _atom_site_fract_z
 _atom_site_occupancy
  Dy  Dy0  1  0.242368  0.243572  0.000000  1
  Dy  Dy1  1  0.242368  0.756428  0.000000  1
  Dy  Dy2  1  0.831720  0.353627  0.204374  1
  Dy  Dy3  1  0.831720  0.850748  0.204374  1
  Dy  Dy4  1  0.438740  0.450171  0.399319  1
  Dy  Dy5  1  0.438740  0.949148  0.399319  1
  Dy  Dy6  1  0.039421  0.050852  0.600682  1
  Dy  Dy7  1  0.039421  0.549829  0.600682  1
  Dy  Dy8  1  0.627345  0.149252  0.795625  1
  Dy  Dy9  1  0.627345  0.646374  0.795625  1
  Si  Si10  1  0.915312  0.000000  0.000000  1
  Si  Si11  1  0.610804  0.500000  0.000000  1
  Si  Si12  1  0.128304  0.583116  0.166231  1
  Si  Si13  1  0.499001  0.600053  0.200108  1
  Si  Si14  1  0.500672  0.102838  0.205676  1
  Si  Si15  1  0.162149  0.114746  0.229491  1
  Si  Si16  1  0.805151  0.202313  0.404626  1
  Si  Si17  1  0.098598  0.697488  0.394977  1
  Si  Si18  1  0.760172  0.713278  0.426557  1
  Si  Si19  1  0.333616  0.286722  0.573443  1
  Si  Si20  1  0.703621  0.302512  0.605022  1
  Si  Si21  1  0.400525  0.797687  0.595374  1
  Si  Si22  1  0.932658  0.885254  0.770509  1
  Si  Si23  1  0.294995  0.897161  0.794323  1
  Si  Si24  1  0.298893  0.399947  0.799893  1
  Si  Si25  1  0.962074  0.416884  0.833769  1
  Ir  Ir26  1  0.572771  0.000000  0.000000  1
