# generated using pymatgen
data_Tm8Lu2InSb5
_symmetry_space_group_name_H-M   'P 1'
_cell_length_a   8.82196900
_cell_length_b   8.82956515
_cell_length_c   6.29447147
_cell_angle_alpha   90.03847929
_cell_angle_beta   90.00000000
_cell_angle_gamma   119.97154154
_symmetry_Int_Tables_number   1
_chemical_formula_structural   Tm8Lu2InSb5
_chemical_formula_sum   'Tm8 Lu2 In1 Sb5'
_cell_volume   424.73601015
_cell_formula_units_Z   1
loop_
 _symmetry_equiv_pos_site_id
 _symmetry_equiv_pos_as_xyz
  1  'x, y, z'
loop_
 _atom_site_type_symbol
 _atom_site_label
 _atom_site_symmetry_multiplicity
 _atom_site_fract_x
 _atom_site_fract_y
 _atom_site_fract_z
 _atom_site_occupancy
  Tm  Tm0  1  0.666026  0.330891  0.999495  1
  Tm  Tm1  1  0.335135  0.669109  0.500505  1
  Tm  Tm2  1  0.242401  0.000000  0.250000  1
  Tm  Tm3  1  0.758170  0.000000  0.750000  1
  Tm  Tm4  1  0.996171  0.240355  0.249864  1
  Tm  Tm5  1  0.755816  0.759645  0.250136  1
  Tm  Tm6  1  0.244541  0.242764  0.750051  1
  Tm  Tm7  1  0.001776  0.757236  0.749949  1
  Lu  Lu8  1  0.335336  0.669334  0.999753  1
  Lu  Lu9  1  0.666003  0.330666  0.500247  1
  In  In10  1  0.605389  0.000000  0.250000  1
  Sb  Sb11  1  0.392025  0.000000  0.750000  1
  Sb  Sb12  1  0.999122  0.609109  0.250067  1
  Sb  Sb13  1  0.390013  0.390891  0.249933  1
  Sb  Sb14  1  0.610345  0.608614  0.749925  1
  Sb  Sb15  1  0.001731  0.391386  0.750075  1
