# generated using pymatgen
data_Sm2OsC2
_symmetry_space_group_name_H-M   'P 1'
_cell_length_a   5.30174200
_cell_length_b   6.51425600
_cell_length_c   9.99704100
_cell_angle_alpha   90.00000000
_cell_angle_beta   90.00000000
_cell_angle_gamma   90.00000000
_symmetry_Int_Tables_number   1
_chemical_formula_structural   Sm2OsC2
_chemical_formula_sum   'Sm8 Os4 C8'
_cell_volume   345.26685164
_cell_formula_units_Z   4
loop_
 _symmetry_equiv_pos_site_id
 _symmetry_equiv_pos_as_xyz
  1  'x, y, z'
loop_
 _atom_site_type_symbol
 _atom_site_label
 _atom_site_symmetry_multiplicity
 _atom_site_fract_x
 _atom_site_fract_y
 _atom_site_fract_z
 _atom_site_occupancy
  Sm  Sm0  1  0.750000  0.478005  0.781011  1
  Sm  Sm1  1  0.250000  0.021995  0.281011  1
  Sm  Sm2  1  0.750000  0.978005  0.718989  1
  Sm  Sm3  1  0.250000  0.521995  0.218989  1
  Sm  Sm4  1  0.750000  0.810785  0.049583  1
  Sm  Sm5  1  0.250000  0.189215  0.950417  1
  Sm  Sm6  1  0.750000  0.310785  0.450417  1
  Sm  Sm7  1  0.250000  0.689215  0.549583  1
  Os  Os8  1  0.750000  0.771459  0.361397  1
  Os  Os9  1  0.250000  0.728541  0.861397  1
  Os  Os10  1  0.250000  0.228541  0.638603  1
  Os  Os11  1  0.750000  0.271459  0.138603  1
  C  C12  1  0.250000  0.966013  0.743070  1
  C  C13  1  0.750000  0.533987  0.243070  1
  C  C14  1  0.250000  0.466013  0.756930  1
  C  C15  1  0.750000  0.033987  0.256930  1
  C  C16  1  0.250000  0.318732  0.454259  1
  C  C17  1  0.750000  0.181268  0.954259  1
  C  C18  1  0.250000  0.818732  0.045741  1
  C  C19  1  0.750000  0.681268  0.545741  1
