# generated using pymatgen
data_HoEr7(ScGa5)4
_symmetry_space_group_name_H-M   'P 1'
_cell_length_a   5.98450604
_cell_length_b   9.45359701
_cell_length_c   11.29817306
_cell_angle_alpha   90.00282166
_cell_angle_beta   90.01179088
_cell_angle_gamma   90.00574740
_symmetry_Int_Tables_number   1
_chemical_formula_structural   HoEr7(ScGa5)4
_chemical_formula_sum   'Ho1 Er7 Sc4 Ga20'
_cell_volume   639.19534855
_cell_formula_units_Z   1
loop_
 _symmetry_equiv_pos_site_id
 _symmetry_equiv_pos_as_xyz
  1  'x, y, z'
loop_
 _atom_site_type_symbol
 _atom_site_label
 _atom_site_symmetry_multiplicity
 _atom_site_fract_x
 _atom_site_fract_y
 _atom_site_fract_z
 _atom_site_occupancy
  Ho  Ho0  1  0.609011  0.510089  0.852227  1
  Er  Er1  1  0.891059  0.510075  0.352202  1
  Er  Er2  1  0.608933  0.989912  0.852190  1
  Er  Er3  1  0.108969  0.010151  0.647807  1
  Er  Er4  1  0.390986  0.489850  0.147932  1
  Er  Er5  1  0.108963  0.489891  0.647722  1
  Er  Er6  1  0.391009  0.010114  0.147816  1
  Er  Er7  1  0.891078  0.989902  0.352185  1
  Sc  Sc8  1  0.849109  0.750050  0.074473  1
  Sc  Sc9  1  0.650925  0.750017  0.574381  1
  Sc  Sc10  1  0.150780  0.249999  0.925600  1
  Sc  Sc11  1  0.349097  0.249990  0.425550  1
  Ga  Ga12  1  0.877199  0.050232  0.089426  1
  Ga  Ga13  1  0.622821  0.449693  0.589242  1
  Ga  Ga14  1  0.122604  0.550306  0.910631  1
  Ga  Ga15  1  0.377195  0.949758  0.410577  1
  Ga  Ga16  1  0.122805  0.949789  0.910571  1
  Ga  Ga17  1  0.377210  0.550251  0.410591  1
  Ga  Ga18  1  0.877261  0.449721  0.089510  1
  Ga  Ga19  1  0.622815  0.050231  0.589427  1
  Ga  Ga20  1  0.165053  0.749985  0.248496  1
  Ga  Ga21  1  0.334827  0.750154  0.748429  1
  Ga  Ga22  1  0.835118  0.249831  0.751382  1
  Ga  Ga23  1  0.665033  0.250000  0.251508  1
  Ga  Ga24  1  0.379959  0.750098  0.004327  1
  Ga  Ga25  1  0.119887  0.749999  0.504299  1
  Ga  Ga26  1  0.619933  0.249769  0.995908  1
  Ga  Ga27  1  0.880077  0.249986  0.495684  1
  Ga  Ga28  1  0.605161  0.749990  0.296166  1
  Ga  Ga29  1  0.895117  0.750226  0.796136  1
  Ga  Ga30  1  0.394810  0.249940  0.703781  1
  Ga  Ga31  1  0.105197  0.250002  0.203822  1
