# generated using pymatgen
data_Dy8Zn(Ga4Ir)3
_symmetry_space_group_name_H-M   'P 1'
_cell_length_a   7.08978401
_cell_length_b   8.87669180
_cell_length_c   8.87852001
_cell_angle_alpha   120.00167324
_cell_angle_beta   90.00200246
_cell_angle_gamma   90.00283111
_symmetry_Int_Tables_number   1
_chemical_formula_structural   Dy8Zn(Ga4Ir)3
_chemical_formula_sum   'Dy8 Zn1 Ga12 Ir3'
_cell_volume   483.89154196
_cell_formula_units_Z   1
loop_
 _symmetry_equiv_pos_site_id
 _symmetry_equiv_pos_as_xyz
  1  'x, y, z'
loop_
 _atom_site_type_symbol
 _atom_site_label
 _atom_site_symmetry_multiplicity
 _atom_site_fract_x
 _atom_site_fract_y
 _atom_site_fract_z
 _atom_site_occupancy
  Dy  Dy0  1  0.753996  0.000048  0.000017  1
  Dy  Dy1  1  0.247471  0.000022  0.000019  1
  Dy  Dy2  1  0.751653  0.472343  0.527728  1
  Dy  Dy3  1  0.241912  0.516973  0.483091  1
  Dy  Dy4  1  0.751626  0.055438  0.527716  1
  Dy  Dy5  1  0.241895  0.966070  0.483014  1
  Dy  Dy6  1  0.751639  0.472358  0.944638  1
  Dy  Dy7  1  0.241904  0.517055  0.034002  1
  Zn  Zn8  1  0.572963  0.666754  0.333378  1
  Ga  Ga9  1  0.950768  0.829264  0.170756  1
  Ga  Ga10  1  0.043434  0.168143  0.831984  1
  Ga  Ga11  1  0.950948  0.341562  0.170810  1
  Ga  Ga12  1  0.451332  0.168890  0.830953  1
  Ga  Ga13  1  0.043147  0.663835  0.831894  1
  Ga  Ga14  1  0.543574  0.835019  0.164713  1
  Ga  Ga15  1  0.950799  0.829216  0.658474  1
  Ga  Ga16  1  0.451529  0.662119  0.831051  1
  Ga  Ga17  1  0.043341  0.168167  0.336166  1
  Ga  Ga18  1  0.543403  0.329407  0.164691  1
  Ga  Ga19  1  0.451354  0.168882  0.337910  1
  Ga  Ga20  1  0.543597  0.835019  0.670275  1
  Ir  Ir21  1  0.980554  0.666710  0.333356  1
  Ir  Ir22  1  0.030730  0.333327  0.666684  1
  Ir  Ir23  1  0.466430  0.333377  0.666680  1
