# generated using pymatgen
data_CsSc(TiSe3)2
_symmetry_space_group_name_H-M   'P 1'
_cell_length_a   9.74811314
_cell_length_b   9.74811190
_cell_length_c   9.74811219
_cell_angle_alpha   38.41216181
_cell_angle_beta   38.41217055
_cell_angle_gamma   38.41217001
_symmetry_Int_Tables_number   1
_chemical_formula_structural   CsSc(TiSe3)2
_chemical_formula_sum   'Cs1 Sc1 Ti2 Se6'
_cell_volume   321.23242978
_cell_formula_units_Z   1
loop_
 _symmetry_equiv_pos_site_id
 _symmetry_equiv_pos_as_xyz
  1  'x, y, z'
loop_
 _atom_site_type_symbol
 _atom_site_label
 _atom_site_symmetry_multiplicity
 _atom_site_fract_x
 _atom_site_fract_y
 _atom_site_fract_z
 _atom_site_occupancy
  Cs  Cs0  1  0.000286  0.000286  0.000286  1
  Sc  Sc1  1  0.166297  0.166297  0.166297  1
  Ti  Ti2  1  0.501599  0.501599  0.501599  1
  Ti  Ti3  1  0.832161  0.832161  0.832161  1
  Se  Se4  1  0.568846  0.222856  0.876235  1
  Se  Se5  1  0.876235  0.568846  0.222856  1
  Se  Se6  1  0.222856  0.876235  0.568846  1
  Se  Se7  1  0.759273  0.111982  0.460465  1
  Se  Se8  1  0.111982  0.460465  0.759273  1
  Se  Se9  1  0.460465  0.759273  0.111982  1
