# generated using pymatgen
data_SrCa11(YSi2)8
_symmetry_space_group_name_H-M   'P 1'
_cell_length_a   7.43085203
_cell_length_b   7.83780376
_cell_length_c   15.14204300
_cell_angle_alpha   90.06901545
_cell_angle_beta   90.09413786
_cell_angle_gamma   90.04158384
_symmetry_Int_Tables_number   1
_chemical_formula_structural   SrCa11(YSi2)8
_chemical_formula_sum   'Sr1 Ca11 Y8 Si16'
_cell_volume   881.89414211
_cell_formula_units_Z   1
loop_
 _symmetry_equiv_pos_site_id
 _symmetry_equiv_pos_as_xyz
  1  'x, y, z'
loop_
 _atom_site_type_symbol
 _atom_site_label
 _atom_site_symmetry_multiplicity
 _atom_site_fract_x
 _atom_site_fract_y
 _atom_site_fract_z
 _atom_site_occupancy
  Sr  Sr0  1  0.975075  0.821677  0.404937  1
  Ca  Ca1  1  0.472305  0.684268  0.094996  1
  Ca  Ca2  1  0.527622  0.315013  0.596076  1
  Ca  Ca3  1  0.028447  0.184111  0.904501  1
  Ca  Ca4  1  0.027975  0.184311  0.596793  1
  Ca  Ca5  1  0.528668  0.315555  0.904405  1
  Ca  Ca6  1  0.472400  0.682758  0.404485  1
  Ca  Ca7  1  0.971751  0.816186  0.095737  1
  Ca  Ca8  1  0.354020  0.019495  0.750196  1
  Ca  Ca9  1  0.853888  0.479748  0.750259  1
  Ca  Ca10  1  0.146838  0.518910  0.248774  1
  Ca  Ca11  1  0.644742  0.981751  0.248818  1
  Y  Y12  1  0.314143  0.177822  0.120109  1
  Y  Y13  1  0.813206  0.322413  0.378885  1
  Y  Y14  1  0.186259  0.677056  0.878869  1
  Y  Y15  1  0.684400  0.822379  0.621961  1
  Y  Y16  1  0.314744  0.178853  0.378089  1
  Y  Y17  1  0.813817  0.323292  0.120783  1
  Y  Y18  1  0.186287  0.675918  0.622131  1
  Y  Y19  1  0.686559  0.822904  0.878847  1
  Si  Si20  1  0.858198  0.529804  0.540109  1
  Si  Si21  1  0.359375  0.966283  0.961313  1
  Si  Si22  1  0.636306  0.036412  0.462700  1
  Si  Si23  1  0.140843  0.466712  0.038145  1
  Si  Si24  1  0.141085  0.461894  0.463286  1
  Si  Si25  1  0.641416  0.033997  0.038096  1
  Si  Si26  1  0.357137  0.965186  0.538723  1
  Si  Si27  1  0.858950  0.534130  0.961590  1
  Si  Si28  1  0.977896  0.884068  0.750220  1
  Si  Si29  1  0.478149  0.615112  0.750467  1
  Si  Si30  1  0.522028  0.383700  0.249428  1
  Si  Si31  1  0.023161  0.117502  0.248463  1
  Si  Si32  1  0.249552  0.394306  0.750487  1
  Si  Si33  1  0.749549  0.104795  0.750345  1
  Si  Si34  1  0.253585  0.897122  0.247466  1
  Si  Si35  1  0.749626  0.604556  0.249515  1
