# generated using pymatgen
data_DyTm4Co19SiP11
_symmetry_space_group_name_H-M   'P 1'
_cell_length_a   11.96966700
_cell_length_b   11.97124762
_cell_length_c   3.66364300
_cell_angle_alpha   90.00000000
_cell_angle_beta   90.00000000
_cell_angle_gamma   119.94392439
_symmetry_Int_Tables_number   1
_chemical_formula_structural   DyTm4Co19SiP11
_chemical_formula_sum   'Dy1 Tm4 Co19 Si1 P11'
_cell_volume   454.89418481
_cell_formula_units_Z   1
loop_
 _symmetry_equiv_pos_site_id
 _symmetry_equiv_pos_as_xyz
  1  'x, y, z'
loop_
 _atom_site_type_symbol
 _atom_site_label
 _atom_site_symmetry_multiplicity
 _atom_site_fract_x
 _atom_site_fract_y
 _atom_site_fract_z
 _atom_site_occupancy
  Dy  Dy0  1  0.665905  0.334152  0.000000  1
  Tm  Tm1  1  0.334126  0.665918  0.000000  1
  Tm  Tm2  1  0.184362  0.184223  0.500000  1
  Tm  Tm3  1  0.813140  0.000617  0.500000  1
  Tm  Tm4  1  0.000593  0.813072  0.500000  1
  Co  Co5  1  0.821295  0.198523  0.000000  1
  Co  Co6  1  0.802725  0.625047  0.000000  1
  Co  Co7  1  0.376731  0.173529  0.000000  1
  Co  Co8  1  0.198873  0.820612  0.000000  1
  Co  Co9  1  0.623956  0.802442  0.000000  1
  Co  Co10  1  0.174412  0.377831  0.000000  1
  Co  Co11  1  0.557667  0.557707  0.000000  1
  Co  Co12  1  0.446377  0.996786  0.000000  1
  Co  Co13  1  0.996816  0.446440  0.000000  1
  Co  Co14  1  0.641390  0.124222  0.500000  1
  Co  Co15  1  0.874496  0.517387  0.500000  1
  Co  Co16  1  0.484846  0.357951  0.500000  1
  Co  Co17  1  0.125306  0.641321  0.500000  1
  Co  Co18  1  0.516076  0.873440  0.500000  1
  Co  Co19  1  0.358249  0.486086  0.500000  1
  Co  Co20  1  0.717509  0.718149  0.500000  1
  Co  Co21  1  0.283998  0.997626  0.500000  1
  Co  Co22  1  0.998998  0.284553  0.500000  1
  Co  Co23  1  0.000820  0.000830  0.000000  1
  Si  Si24  1  0.368023  0.368123  0.000000  1
  P  P25  1  0.632706  0.999912  0.000000  1
  P  P26  1  0.999981  0.632798  0.000000  1
  P  P27  1  0.833599  0.314297  0.500000  1
  P  P28  1  0.685622  0.521883  0.500000  1
  P  P29  1  0.479273  0.165221  0.500000  1
  P  P30  1  0.314121  0.832094  0.500000  1
  P  P31  1  0.520599  0.685863  0.500000  1
  P  P32  1  0.166626  0.480607  0.500000  1
  P  P33  1  0.821114  0.821451  0.000000  1
  P  P34  1  0.180037  0.998859  0.000000  1
  P  P35  1  0.999633  0.180427  0.000000  1
