# generated using pymatgen
data_DyPa3Pt4
_symmetry_space_group_name_H-M   'P 1'
_cell_length_a   4.38704000
_cell_length_b   5.69381016
_cell_length_c   7.23109704
_cell_angle_alpha   89.26424119
_cell_angle_beta   90.00000000
_cell_angle_gamma   90.00000000
_symmetry_Int_Tables_number   1
_chemical_formula_structural   DyPa3Pt4
_chemical_formula_sum   'Dy1 Pa3 Pt4'
_cell_volume   180.61048478
_cell_formula_units_Z   1
loop_
 _symmetry_equiv_pos_site_id
 _symmetry_equiv_pos_as_xyz
  1  'x, y, z'
loop_
 _atom_site_type_symbol
 _atom_site_label
 _atom_site_symmetry_multiplicity
 _atom_site_fract_x
 _atom_site_fract_y
 _atom_site_fract_z
 _atom_site_occupancy
  Dy  Dy0  1  0.750000  0.849449  0.818738  1
  Pa  Pa1  1  0.250000  0.351967  0.684754  1
  Pa  Pa2  1  0.250000  0.144537  0.177251  1
  Pa  Pa3  1  0.750000  0.653476  0.320328  1
  Pt  Pt4  1  0.250000  0.836149  0.544252  1
  Pt  Pt5  1  0.250000  0.655394  0.054592  1
  Pt  Pt6  1  0.750000  0.176638  0.447331  1
  Pt  Pt7  1  0.750000  0.332389  0.952754  1
