# generated using pymatgen
data_Er16In6IrPt
_symmetry_space_group_name_H-M   'P 1'
_cell_length_a   10.37957000
_cell_length_b   10.37956924
_cell_length_c   6.95952000
_cell_angle_alpha   90.00000000
_cell_angle_beta   90.00000000
_cell_angle_gamma   119.99999605
_symmetry_Int_Tables_number   1
_chemical_formula_structural   Er16In6IrPt
_chemical_formula_sum   'Er16 In6 Ir1 Pt1'
_cell_volume   649.33472511
_cell_formula_units_Z   1
loop_
 _symmetry_equiv_pos_site_id
 _symmetry_equiv_pos_as_xyz
  1  'x, y, z'
loop_
 _atom_site_type_symbol
 _atom_site_label
 _atom_site_symmetry_multiplicity
 _atom_site_fract_x
 _atom_site_fract_y
 _atom_site_fract_z
 _atom_site_occupancy
  Er  Er0  1  0.531167  0.062335  0.795136  1
  Er  Er1  1  0.937665  0.468833  0.795136  1
  Er  Er2  1  0.531167  0.468833  0.795136  1
  Er  Er3  1  0.466073  0.932148  0.294115  1
  Er  Er4  1  0.067852  0.533927  0.294115  1
  Er  Er5  1  0.466073  0.533927  0.294115  1
  Er  Er6  1  0.824619  0.649238  0.499880  1
  Er  Er7  1  0.350762  0.175381  0.499880  1
  Er  Er8  1  0.824619  0.175381  0.499880  1
  Er  Er9  1  0.176775  0.353550  0.000498  1
  Er  Er10  1  0.646450  0.823225  0.000498  1
  Er  Er11  1  0.176775  0.823225  0.000498  1
  Er  Er12  1  0.666667  0.333333  0.170730  1
  Er  Er13  1  0.333333  0.666667  0.674869  1
  Er  Er14  1  0.000000  0.000000  0.777200  1
  Er  Er15  1  0.000000  0.000000  0.277614  1
  In  In16  1  0.837515  0.675029  0.037492  1
  In  In17  1  0.324971  0.162485  0.037492  1
  In  In18  1  0.837515  0.162485  0.037492  1
  In  In19  1  0.162683  0.325366  0.538584  1
  In  In20  1  0.674634  0.837317  0.538584  1
  In  In21  1  0.162683  0.837317  0.538584  1
  Ir  Ir22  1  0.333333  0.666667  0.070095  1
  Pt  Pt23  1  0.666667  0.333333  0.568282  1
