# generated using pymatgen
data_Cs5RhO5
_symmetry_space_group_name_H-M   'P 1'
_cell_length_a   8.70105989
_cell_length_b   8.70105938
_cell_length_c   10.07653100
_cell_angle_alpha   76.86548663
_cell_angle_beta   76.86549418
_cell_angle_gamma   95.83096809
_symmetry_Int_Tables_number   1
_chemical_formula_structural   Cs5RhO5
_chemical_formula_sum   'Cs10 Rh2 O10'
_cell_volume   713.97942613
_cell_formula_units_Z   2
loop_
 _symmetry_equiv_pos_site_id
 _symmetry_equiv_pos_as_xyz
  1  'x, y, z'
loop_
 _atom_site_type_symbol
 _atom_site_label
 _atom_site_symmetry_multiplicity
 _atom_site_fract_x
 _atom_site_fract_y
 _atom_site_fract_z
 _atom_site_occupancy
  Cs  Cs0  1  0.404465  0.404465  0.375811  1
  Cs  Cs1  1  0.595535  0.595535  0.624189  1
  Cs  Cs2  1  0.680758  0.680758  0.005567  1
  Cs  Cs3  1  0.319242  0.319242  0.994433  1
  Cs  Cs4  1  0.921082  0.921082  0.208694  1
  Cs  Cs5  1  0.078918  0.078918  0.791306  1
  Cs  Cs6  1  0.548940  0.100530  0.748241  1
  Cs  Cs7  1  0.899470  0.451060  0.251759  1
  Cs  Cs8  1  0.451060  0.899470  0.251759  1
  Cs  Cs9  1  0.100530  0.548940  0.748241  1
  Rh  Rh10  1  0.752932  0.247068  0.000000  1
  Rh  Rh11  1  0.247068  0.752932  0.000000  1
  O  O12  1  0.659869  0.659869  0.309224  1
  O  O13  1  0.340131  0.340131  0.690776  1
  O  O14  1  0.727941  0.033202  0.987227  1
  O  O15  1  0.966798  0.272059  0.012773  1
  O  O16  1  0.272059  0.966798  0.012773  1
  O  O17  1  0.033202  0.727941  0.987227  1
  O  O18  1  0.383333  0.732877  0.835838  1
  O  O19  1  0.267123  0.616667  0.164161  1
  O  O20  1  0.616667  0.267123  0.164161  1
  O  O21  1  0.732877  0.383333  0.835838  1
