# generated using pymatgen
data_Pr3Cd(Rh2O7)2
_symmetry_space_group_name_H-M   'P 1'
_cell_length_a   7.45332320
_cell_length_b   7.29328141
_cell_length_c   7.45332400
_cell_angle_alpha   59.27140952
_cell_angle_beta   59.99999644
_cell_angle_gamma   59.27141074
_symmetry_Int_Tables_number   1
_chemical_formula_structural   Pr3Cd(Rh2O7)2
_chemical_formula_sum   'Pr3 Cd1 Rh4 O14'
_cell_volume   283.29333453
_cell_formula_units_Z   1
loop_
 _symmetry_equiv_pos_site_id
 _symmetry_equiv_pos_as_xyz
  1  'x, y, z'
loop_
 _atom_site_type_symbol
 _atom_site_label
 _atom_site_symmetry_multiplicity
 _atom_site_fract_x
 _atom_site_fract_y
 _atom_site_fract_z
 _atom_site_occupancy
  Pr  Pr0  1  0.125000  0.125000  0.125000  1
  Pr  Pr1  1  0.625000  0.125000  0.125000  1
  Pr  Pr2  1  0.125000  0.125000  0.625000  1
  Cd  Cd3  1  0.125000  0.625000  0.125000  1
  Rh  Rh4  1  0.625000  0.625000  0.625000  1
  Rh  Rh5  1  0.625000  0.625000  0.125000  1
  Rh  Rh6  1  0.125000  0.625000  0.625000  1
  Rh  Rh7  1  0.625000  0.125000  0.625000  1
  O  O8  1  0.245235  0.264295  0.245235  1
  O  O9  1  0.301269  0.699024  0.301269  1
  O  O10  1  0.956283  0.959794  0.541961  1
  O  O11  1  0.541961  0.959794  0.541961  1
  O  O12  1  0.698439  0.699024  0.301269  1
  O  O13  1  0.948731  0.550976  0.551561  1
  O  O14  1  0.708039  0.290206  0.708039  1
  O  O15  1  0.293717  0.290206  0.708039  1
  O  O16  1  0.708039  0.290206  0.293717  1
  O  O17  1  0.301269  0.699024  0.698439  1
  O  O18  1  0.948731  0.550976  0.948731  1
  O  O19  1  0.551561  0.550976  0.948731  1
  O  O20  1  0.004765  0.985705  0.004765  1
  O  O21  1  0.541961  0.959794  0.956283  1
