# generated using pymatgen
data_Nb10Ir4Ru
_symmetry_space_group_name_H-M   'P 1'
_cell_length_a   9.98442400
_cell_length_b   9.98442400
_cell_length_c   5.12126000
_cell_angle_alpha   90.00000000
_cell_angle_beta   90.00000000
_cell_angle_gamma   90.00000000
_symmetry_Int_Tables_number   1
_chemical_formula_structural   Nb10Ir4Ru
_chemical_formula_sum   'Nb20 Ir8 Ru2'
_cell_volume   510.53186756
_cell_formula_units_Z   2
loop_
 _symmetry_equiv_pos_site_id
 _symmetry_equiv_pos_as_xyz
  1  'x, y, z'
loop_
 _atom_site_type_symbol
 _atom_site_label
 _atom_site_symmetry_multiplicity
 _atom_site_fract_x
 _atom_site_fract_y
 _atom_site_fract_z
 _atom_site_occupancy
  Nb  Nb0  1  0.393798  0.393798  0.000000  1
  Nb  Nb1  1  0.893798  0.106202  0.500000  1
  Nb  Nb2  1  0.106202  0.893798  0.500000  1
  Nb  Nb3  1  0.606202  0.606202  0.000000  1
  Nb  Nb4  1  0.127974  0.463036  0.000000  1
  Nb  Nb5  1  0.963036  0.372026  0.500000  1
  Nb  Nb6  1  0.036964  0.627974  0.500000  1
  Nb  Nb7  1  0.872026  0.536964  0.000000  1
  Nb  Nb8  1  0.372026  0.963036  0.500000  1
  Nb  Nb9  1  0.627974  0.036964  0.500000  1
  Nb  Nb10  1  0.463036  0.127974  0.000000  1
  Nb  Nb11  1  0.536964  0.872026  0.000000  1
  Nb  Nb12  1  0.178236  0.178236  0.250916  1
  Nb  Nb13  1  0.678236  0.321764  0.750916  1
  Nb  Nb14  1  0.321764  0.678236  0.750916  1
  Nb  Nb15  1  0.821764  0.821764  0.250916  1
  Nb  Nb16  1  0.321764  0.678236  0.249084  1
  Nb  Nb17  1  0.678236  0.321764  0.249084  1
  Nb  Nb18  1  0.178236  0.178236  0.749084  1
  Nb  Nb19  1  0.821764  0.821764  0.749084  1
  Ir  Ir20  1  0.261079  0.931329  0.000000  1
  Ir  Ir21  1  0.431329  0.238921  0.500000  1
  Ir  Ir22  1  0.568671  0.761079  0.500000  1
  Ir  Ir23  1  0.738921  0.068671  0.000000  1
  Ir  Ir24  1  0.238921  0.431329  0.500000  1
  Ir  Ir25  1  0.761079  0.568671  0.500000  1
  Ir  Ir26  1  0.931329  0.261079  0.000000  1
  Ir  Ir27  1  0.068671  0.738921  0.000000  1
  Ru  Ru28  1  0.000000  0.000000  0.000000  1
  Ru  Ru29  1  0.500000  0.500000  0.500000  1
