# generated using pymatgen
data_Pr6Sm2Sc12Si15Tc
_symmetry_space_group_name_H-M   'P 1'
_cell_length_a   7.23625664
_cell_length_b   7.58009032
_cell_length_c   14.17547739
_cell_angle_alpha   89.88226412
_cell_angle_beta   90.04106319
_cell_angle_gamma   90.13474251
_symmetry_Int_Tables_number   1
_chemical_formula_structural   Pr6Sm2Sc12Si15Tc
_chemical_formula_sum   'Pr6 Sm2 Sc12 Si15 Tc1'
_cell_volume   777.54191037
_cell_formula_units_Z   1
loop_
 _symmetry_equiv_pos_site_id
 _symmetry_equiv_pos_as_xyz
  1  'x, y, z'
loop_
 _atom_site_type_symbol
 _atom_site_label
 _atom_site_symmetry_multiplicity
 _atom_site_fract_x
 _atom_site_fract_y
 _atom_site_fract_z
 _atom_site_occupancy
  Pr  Pr0  1  0.011211  0.176221  0.097110  1
  Pr  Pr1  1  0.990043  0.829641  0.901501  1
  Pr  Pr2  1  0.488405  0.671334  0.903658  1
  Pr  Pr3  1  0.989907  0.829136  0.597425  1
  Pr  Pr4  1  0.510927  0.327326  0.096051  1
  Pr  Pr5  1  0.011701  0.176427  0.403632  1
  Sm  Sm6  1  0.510897  0.325423  0.403395  1
  Sm  Sm7  1  0.488210  0.673528  0.597037  1
  Sc  Sc8  1  0.154065  0.490867  0.749702  1
  Sc  Sc9  1  0.840403  0.498976  0.250371  1
  Sc  Sc10  1  0.339322  0.002383  0.250436  1
  Sc  Sc11  1  0.665351  0.003088  0.749624  1
  Sc  Sc12  1  0.317476  0.172290  0.627632  1
  Sc  Sc13  1  0.671316  0.826303  0.373835  1
  Sc  Sc14  1  0.172751  0.676872  0.374239  1
  Sc  Sc15  1  0.671752  0.827249  0.126824  1
  Sc  Sc16  1  0.836986  0.318610  0.627419  1
  Sc  Sc17  1  0.317296  0.171613  0.871748  1
  Sc  Sc18  1  0.836918  0.318809  0.872090  1
  Sc  Sc19  1  0.172409  0.677299  0.126436  1
  Si  Si20  1  0.968113  0.875101  0.250352  1
  Si  Si21  1  0.470051  0.620752  0.250904  1
  Si  Si22  1  0.529805  0.382108  0.748883  1
  Si  Si23  1  0.291050  0.877675  0.748874  1
  Si  Si24  1  0.709297  0.121929  0.250969  1
  Si  Si25  1  0.213798  0.378455  0.251182  1
  Si  Si26  1  0.779659  0.619071  0.748609  1
  Si  Si27  1  0.156976  0.468447  0.537565  1
  Si  Si28  1  0.847671  0.537607  0.461019  1
  Si  Si29  1  0.350815  0.963718  0.459444  1
  Si  Si30  1  0.851277  0.539061  0.039027  1
  Si  Si31  1  0.648857  0.034968  0.539010  1
  Si  Si32  1  0.153367  0.467288  0.962690  1
  Si  Si33  1  0.649787  0.035154  0.960857  1
  Si  Si34  1  0.349841  0.963413  0.040624  1
  Tc  Tc35  1  0.032292  0.121853  0.749826  1
