# generated using pymatgen
data_Pr5Sn2Te
_symmetry_space_group_name_H-M   'P 1'
_cell_length_a   9.45047136
_cell_length_b   9.47469959
_cell_length_c   6.61561300
_cell_angle_alpha   90.00000000
_cell_angle_beta   90.00000000
_cell_angle_gamma   120.08483650
_symmetry_Int_Tables_number   1
_chemical_formula_structural   Pr5Sn2Te
_chemical_formula_sum   'Pr10 Sn4 Te2'
_cell_volume   512.56357849
_cell_formula_units_Z   2
loop_
 _symmetry_equiv_pos_site_id
 _symmetry_equiv_pos_as_xyz
  1  'x, y, z'
loop_
 _atom_site_type_symbol
 _atom_site_label
 _atom_site_symmetry_multiplicity
 _atom_site_fract_x
 _atom_site_fract_y
 _atom_site_fract_z
 _atom_site_occupancy
  Pr  Pr0  1  0.666647  0.334287  0.501656  1
  Pr  Pr1  1  0.333353  0.667640  0.501656  1
  Pr  Pr2  1  0.333353  0.667640  0.998344  1
  Pr  Pr3  1  0.666647  0.334287  0.998344  1
  Pr  Pr4  1  0.756529  0.751549  0.250000  1
  Pr  Pr5  1  0.243471  0.995020  0.250000  1
  Pr  Pr6  1  0.000000  0.248249  0.250000  1
  Pr  Pr7  1  0.245566  0.247637  0.750000  1
  Pr  Pr8  1  0.754434  0.002071  0.750000  1
  Pr  Pr9  1  0.000000  0.755292  0.750000  1
  Sn  Sn10  1  0.000000  0.607969  0.250000  1
  Sn  Sn11  1  0.609003  0.609544  0.750000  1
  Sn  Sn12  1  0.390997  0.000542  0.750000  1
  Sn  Sn13  1  0.000000  0.391102  0.750000  1
  Te  Te14  1  0.385510  0.386340  0.250000  1
  Te  Te15  1  0.614490  0.000830  0.250000  1
