# generated using pymatgen
data_YbFe3P12Rh
_symmetry_space_group_name_H-M   'P 1'
_cell_length_a   6.81641468
_cell_length_b   6.81641324
_cell_length_c   6.80224900
_cell_angle_alpha   109.42912962
_cell_angle_beta   109.42912536
_cell_angle_gamma   109.51328317
_symmetry_Int_Tables_number   1
_chemical_formula_structural   YbFe3P12Rh
_chemical_formula_sum   'Yb1 Fe3 P12 Rh1'
_cell_volume   243.42651621
_cell_formula_units_Z   1
loop_
 _symmetry_equiv_pos_site_id
 _symmetry_equiv_pos_as_xyz
  1  'x, y, z'
loop_
 _atom_site_type_symbol
 _atom_site_label
 _atom_site_symmetry_multiplicity
 _atom_site_fract_x
 _atom_site_fract_y
 _atom_site_fract_z
 _atom_site_occupancy
  Yb  Yb0  1  0.000000  0.000000  0.000000  1
  Fe  Fe1  1  0.500000  0.000000  0.000000  1
  Fe  Fe2  1  0.500000  0.500000  0.500000  1
  Fe  Fe3  1  0.000000  0.500000  0.000000  1
  P  P4  1  0.155449  0.787976  0.654166  1
  P  P5  1  0.149050  0.500167  0.350117  1
  P  P6  1  0.850950  0.499833  0.649883  1
  P  P7  1  0.367472  0.155449  0.501284  1
  P  P8  1  0.787976  0.632528  0.133810  1
  P  P9  1  0.844551  0.212024  0.345834  1
  P  P10  1  0.648882  0.149050  0.798931  1
  P  P11  1  0.499833  0.648882  0.849950  1
  P  P12  1  0.632528  0.844551  0.498716  1
  P  P13  1  0.500167  0.351118  0.150050  1
  P  P14  1  0.351118  0.850950  0.201069  1
  P  P15  1  0.212024  0.367472  0.866190  1
  Rh  Rh16  1  0.000000  0.000000  0.500000  1
