# generated using pymatgen
data_Tb8Ho4Co4BiOs
_symmetry_space_group_name_H-M   'P 1'
_cell_length_a   8.33343876
_cell_length_b   8.33345239
_cell_length_c   8.33343907
_cell_angle_alpha   111.25739376
_cell_angle_beta   110.39589413
_cell_angle_gamma   106.79424696
_symmetry_Int_Tables_number   1
_chemical_formula_structural   Tb8Ho4Co4BiOs
_chemical_formula_sum   'Tb8 Ho4 Co4 Bi1 Os1'
_cell_volume   444.75284220
_cell_formula_units_Z   1
loop_
 _symmetry_equiv_pos_site_id
 _symmetry_equiv_pos_as_xyz
  1  'x, y, z'
loop_
 _atom_site_type_symbol
 _atom_site_label
 _atom_site_symmetry_multiplicity
 _atom_site_fract_x
 _atom_site_fract_y
 _atom_site_fract_z
 _atom_site_occupancy
  Tb  Tb0  1  0.819073  0.717758  0.536841  1
  Tb  Tb1  1  0.180927  0.282242  0.463159  1
  Tb  Tb2  1  0.180918  0.717758  0.898684  1
  Tb  Tb3  1  0.819082  0.282242  0.101316  1
  Tb  Tb4  1  0.687872  0.379137  0.691266  1
  Tb  Tb5  1  0.312128  0.620863  0.308734  1
  Tb  Tb6  1  0.687871  0.996607  0.308736  1
  Tb  Tb7  1  0.312129  0.003393  0.691264  1
  Ho  Ho8  1  0.591137  0.787052  0.804085  1
  Ho  Ho9  1  0.408863  0.212948  0.195915  1
  Ho  Ho10  1  0.982967  0.787052  0.195915  1
  Ho  Ho11  1  0.017033  0.212948  0.804085  1
  Co  Co12  1  0.624797  0.000000  0.624797  1
  Co  Co13  1  0.375203  0.000000  0.375203  1
  Co  Co14  1  0.110719  0.610717  0.499999  1
  Co  Co15  1  0.889281  0.389283  0.500001  1
  Bi  Bi16  1  0.500000  0.500000  0.000000  1
  Os  Os17  1  0.000000  0.000000  0.000000  1
