# generated using pymatgen
data_Lu12InFeTc2Ag
_symmetry_space_group_name_H-M   'P 1'
_cell_length_a   8.19885684
_cell_length_b   8.19825818
_cell_length_c   8.19885668
_cell_angle_alpha   110.85906110
_cell_angle_beta   106.73633893
_cell_angle_gamma   110.85557264
_symmetry_Int_Tables_number   1
_chemical_formula_structural   Lu12InFeTc2Ag
_chemical_formula_sum   'Lu12 In1 Fe1 Tc2 Ag1'
_cell_volume   423.49718900
_cell_formula_units_Z   1
loop_
 _symmetry_equiv_pos_site_id
 _symmetry_equiv_pos_as_xyz
  1  'x, y, z'
loop_
 _atom_site_type_symbol
 _atom_site_label
 _atom_site_symmetry_multiplicity
 _atom_site_fract_x
 _atom_site_fract_y
 _atom_site_fract_z
 _atom_site_occupancy
  Lu  Lu0  1  0.306103  0.305558  0.613234  1
  Lu  Lu1  1  0.692173  0.692851  0.386689  1
  Lu  Lu2  1  0.692324  0.305558  0.999454  1
  Lu  Lu3  1  0.306162  0.692851  0.000678  1
  Lu  Lu4  1  0.192438  0.445692  0.253254  1
  Lu  Lu5  1  0.804377  0.554932  0.750554  1
  Lu  Lu6  1  0.192320  0.938880  0.746561  1
  Lu  Lu7  1  0.955589  0.189088  0.766414  1
  Lu  Lu8  1  0.804375  0.053670  0.249293  1
  Lu  Lu9  1  0.038762  0.808456  0.230235  1
  Lu  Lu10  1  0.422675  0.189088  0.233499  1
  Lu  Lu11  1  0.578221  0.808456  0.769695  1
  In  In12  1  0.497961  0.998683  0.500723  1
  Fe  Fe13  1  0.633436  0.633794  0.000360  1
  Tc  Tc14  1  0.384586  0.384226  0.999640  1
  Tc  Tc15  1  0.001064  0.001063  0.999999  1
  Ag  Ag16  1  0.997437  0.497156  0.499719  1
