# generated using pymatgen
data_Cs5Sc(PSe3)4
_symmetry_space_group_name_H-M   'P 1'
_cell_length_a   14.24338700
_cell_length_b   14.24338700
_cell_length_c   7.76650400
_cell_angle_alpha   90.00000000
_cell_angle_beta   90.00000000
_cell_angle_gamma   90.00000000
_symmetry_Int_Tables_number   1
_chemical_formula_structural   Cs5Sc(PSe3)4
_chemical_formula_sum   'Cs10 Sc2 P8 Se24'
_cell_volume   1575.62230125
_cell_formula_units_Z   2
loop_
 _symmetry_equiv_pos_site_id
 _symmetry_equiv_pos_as_xyz
  1  'x, y, z'
loop_
 _atom_site_type_symbol
 _atom_site_label
 _atom_site_symmetry_multiplicity
 _atom_site_fract_x
 _atom_site_fract_y
 _atom_site_fract_z
 _atom_site_occupancy
  Cs  Cs0  1  0.000000  0.000000  0.500000  1
  Cs  Cs1  1  0.000000  0.000000  0.000000  1
  Cs  Cs2  1  0.317646  0.342337  0.500000  1
  Cs  Cs3  1  0.682354  0.657663  0.500000  1
  Cs  Cs4  1  0.657663  0.317646  0.000000  1
  Cs  Cs5  1  0.342337  0.682354  0.000000  1
  Cs  Cs6  1  0.321687  0.968047  0.500000  1
  Cs  Cs7  1  0.678313  0.031953  0.500000  1
  Cs  Cs8  1  0.031953  0.321687  0.000000  1
  Cs  Cs9  1  0.968047  0.678313  0.000000  1
  Sc  Sc10  1  0.000000  0.500000  0.500000  1
  Sc  Sc11  1  0.500000  0.000000  0.000000  1
  P  P12  1  0.200626  0.607993  0.500000  1
  P  P13  1  0.799374  0.392007  0.500000  1
  P  P14  1  0.392007  0.200626  0.000000  1
  P  P15  1  0.607993  0.799374  0.000000  1
  P  P16  1  0.114613  0.744371  0.500000  1
  P  P17  1  0.885387  0.255629  0.500000  1
  P  P18  1  0.255629  0.114613  0.000000  1
  P  P19  1  0.744371  0.885387  0.000000  1
  Se  Se20  1  0.150027  0.819554  0.263141  1
  Se  Se21  1  0.849973  0.180446  0.263141  1
  Se  Se22  1  0.180446  0.150027  0.763141  1
  Se  Se23  1  0.819554  0.849973  0.763141  1
  Se  Se24  1  0.849973  0.180446  0.736859  1
  Se  Se25  1  0.150027  0.819554  0.736859  1
  Se  Se26  1  0.819554  0.849973  0.236859  1
  Se  Se27  1  0.180446  0.150027  0.236859  1
  Se  Se28  1  0.032660  0.311825  0.500000  1
  Se  Se29  1  0.967340  0.688175  0.500000  1
  Se  Se30  1  0.688175  0.032660  0.000000  1
  Se  Se31  1  0.311825  0.967340  0.000000  1
  Se  Se32  1  0.349378  0.633616  0.500000  1
  Se  Se33  1  0.650622  0.366384  0.500000  1
  Se  Se34  1  0.366384  0.349378  0.000000  1
  Se  Se35  1  0.633616  0.650622  0.000000  1
  Se  Se36  1  0.146579  0.528713  0.271585  1
  Se  Se37  1  0.853421  0.471287  0.271585  1
  Se  Se38  1  0.471287  0.146579  0.771585  1
  Se  Se39  1  0.528713  0.853421  0.771585  1
  Se  Se40  1  0.853421  0.471287  0.728415  1
  Se  Se41  1  0.146579  0.528713  0.728415  1
  Se  Se42  1  0.528713  0.853421  0.228415  1
  Se  Se43  1  0.471287  0.146579  0.228415  1
