# generated using pymatgen
data_YbPdPt5O8
_symmetry_space_group_name_H-M   'P 1'
_cell_length_a   5.79576500
_cell_length_b   5.72565600
_cell_length_c   5.75283100
_cell_angle_alpha   90.00000000
_cell_angle_beta   90.00000000
_cell_angle_gamma   90.00000000
_symmetry_Int_Tables_number   1
_chemical_formula_structural   YbPdPt5O8
_chemical_formula_sum   'Yb1 Pd1 Pt5 O8'
_cell_volume   190.90514620
_cell_formula_units_Z   1
loop_
 _symmetry_equiv_pos_site_id
 _symmetry_equiv_pos_as_xyz
  1  'x, y, z'
loop_
 _atom_site_type_symbol
 _atom_site_label
 _atom_site_symmetry_multiplicity
 _atom_site_fract_x
 _atom_site_fract_y
 _atom_site_fract_z
 _atom_site_occupancy
  Yb  Yb0  1  0.498414  0.500000  0.500000  1
  Pd  Pd1  1  0.243258  0.000000  0.500000  1
  Pt  Pt2  1  0.000819  0.500000  0.756120  1
  Pt  Pt3  1  0.499302  0.247044  0.000000  1
  Pt  Pt4  1  0.752618  0.000000  0.500000  1
  Pt  Pt5  1  0.000819  0.500000  0.243880  1
  Pt  Pt6  1  0.499302  0.752956  0.000000  1
  O  O7  1  0.740106  0.260068  0.740666  1
  O  O8  1  0.261261  0.736632  0.258127  1
  O  O9  1  0.740106  0.739932  0.259334  1
  O  O10  1  0.261261  0.263368  0.741873  1
  O  O11  1  0.261261  0.736632  0.741873  1
  O  O12  1  0.740106  0.260068  0.259334  1
  O  O13  1  0.261261  0.263368  0.258127  1
  O  O14  1  0.740106  0.739932  0.740666  1
