# generated using pymatgen
data_La3Pr(AlAu2)6
_symmetry_space_group_name_H-M   'P 1'
_cell_length_a   8.78067927
_cell_length_b   8.78068004
_cell_length_c   8.78067880
_cell_angle_alpha   57.80031714
_cell_angle_beta   57.80032307
_cell_angle_gamma   57.80031248
_symmetry_Int_Tables_number   1
_chemical_formula_structural   La3Pr(AlAu2)6
_chemical_formula_sum   'La3 Pr1 Al6 Au12'
_cell_volume   454.52607693
_cell_formula_units_Z   1
loop_
 _symmetry_equiv_pos_site_id
 _symmetry_equiv_pos_as_xyz
  1  'x, y, z'
loop_
 _atom_site_type_symbol
 _atom_site_label
 _atom_site_symmetry_multiplicity
 _atom_site_fract_x
 _atom_site_fract_y
 _atom_site_fract_z
 _atom_site_occupancy
  La  La0  1  0.908270  0.908270  0.908270  1
  La  La1  1  0.408685  0.408685  0.408685  1
  La  La2  1  0.091656  0.091656  0.091656  1
  Pr  Pr3  1  0.591708  0.591708  0.591708  1
  Al  Al4  1  0.556628  0.750463  0.942743  1
  Al  Al5  1  0.942743  0.556628  0.750463  1
  Al  Al6  1  0.750463  0.942743  0.556628  1
  Al  Al7  1  0.443043  0.250774  0.056428  1
  Al  Al8  1  0.056428  0.443043  0.250774  1
  Al  Al9  1  0.250774  0.056428  0.443043  1
  Au  Au10  1  0.480140  0.864046  0.203957  1
  Au  Au11  1  0.203957  0.480140  0.864046  1
  Au  Au12  1  0.864046  0.203957  0.480140  1
  Au  Au13  1  0.702441  0.365620  0.978602  1
  Au  Au14  1  0.978602  0.702441  0.365620  1
  Au  Au15  1  0.365620  0.978602  0.702441  1
  Au  Au16  1  0.520744  0.134402  0.797562  1
  Au  Au17  1  0.797562  0.520744  0.134402  1
  Au  Au18  1  0.134402  0.797562  0.520744  1
  Au  Au19  1  0.297220  0.634618  0.020250  1
  Au  Au20  1  0.020250  0.297220  0.634618  1
  Au  Au21  1  0.634618  0.020250  0.297220  1
