# generated using pymatgen
data_Pr6V2Fe(Co5P4)3
_symmetry_space_group_name_H-M   'P 1'
_cell_length_a   3.77462000
_cell_length_b   10.74409900
_cell_length_c   12.45093900
_cell_angle_alpha   90.00000000
_cell_angle_beta   90.00000000
_cell_angle_gamma   90.00000000
_symmetry_Int_Tables_number   1
_chemical_formula_structural   Pr6V2Fe(Co5P4)3
_chemical_formula_sum   'Pr6 V2 Fe1 Co15 P12'
_cell_volume   504.94647359
_cell_formula_units_Z   1
loop_
 _symmetry_equiv_pos_site_id
 _symmetry_equiv_pos_as_xyz
  1  'x, y, z'
loop_
 _atom_site_type_symbol
 _atom_site_label
 _atom_site_symmetry_multiplicity
 _atom_site_fract_x
 _atom_site_fract_y
 _atom_site_fract_z
 _atom_site_occupancy
  Pr  Pr0  1  0.000000  0.500000  0.521823  1
  Pr  Pr1  1  0.500000  0.000000  0.477898  1
  Pr  Pr2  1  0.500000  0.818450  0.204809  1
  Pr  Pr3  1  0.500000  0.181550  0.204809  1
  Pr  Pr4  1  0.000000  0.680189  0.795716  1
  Pr  Pr5  1  0.000000  0.319811  0.795716  1
  V  V6  1  0.500000  0.500000  0.149808  1
  V  V7  1  0.000000  0.000000  0.848920  1
  Fe  Fe8  1  0.000000  0.500000  0.989235  1
  Co  Co9  1  0.500000  0.500000  0.702000  1
  Co  Co10  1  0.000000  0.000000  0.297200  1
  Co  Co11  1  0.500000  0.000000  0.011707  1
  Co  Co12  1  0.500000  0.330631  0.995134  1
  Co  Co13  1  0.500000  0.669369  0.995134  1
  Co  Co14  1  0.000000  0.166200  0.005137  1
  Co  Co15  1  0.000000  0.833800  0.005137  1
  Co  Co16  1  0.500000  0.296065  0.430808  1
  Co  Co17  1  0.500000  0.703935  0.430808  1
  Co  Co18  1  0.000000  0.204013  0.569603  1
  Co  Co19  1  0.000000  0.795987  0.569603  1
  Co  Co20  1  0.500000  0.881522  0.709540  1
  Co  Co21  1  0.500000  0.118478  0.709540  1
  Co  Co22  1  0.000000  0.618913  0.290296  1
  Co  Co23  1  0.000000  0.381087  0.290296  1
  P  P24  1  0.500000  0.500000  0.889367  1
  P  P25  1  0.000000  0.000000  0.113070  1
  P  P26  1  0.500000  0.500000  0.339917  1
  P  P27  1  0.000000  0.000000  0.659468  1
  P  P28  1  0.500000  0.305402  0.614100  1
  P  P29  1  0.500000  0.694598  0.614100  1
  P  P30  1  0.000000  0.194784  0.386206  1
  P  P31  1  0.000000  0.805216  0.386206  1
  P  P32  1  0.500000  0.847883  0.894814  1
  P  P33  1  0.500000  0.152117  0.894814  1
  P  P34  1  0.000000  0.651900  0.103630  1
  P  P35  1  0.000000  0.348100  0.103630  1
