# generated using pymatgen
data_Ba3TiMn2O9
_symmetry_space_group_name_H-M   'P 1'
_cell_length_a   7.90272856
_cell_length_b   7.90272829
_cell_length_c   7.90272867
_cell_angle_alpha   42.94790335
_cell_angle_beta   42.94790294
_cell_angle_gamma   42.94790345
_symmetry_Int_Tables_number   1
_chemical_formula_structural   Ba3TiMn2O9
_chemical_formula_sum   'Ba3 Ti1 Mn2 O9'
_cell_volume   207.64648500
_cell_formula_units_Z   1
loop_
 _symmetry_equiv_pos_site_id
 _symmetry_equiv_pos_as_xyz
  1  'x, y, z'
loop_
 _atom_site_type_symbol
 _atom_site_label
 _atom_site_symmetry_multiplicity
 _atom_site_fract_x
 _atom_site_fract_y
 _atom_site_fract_z
 _atom_site_occupancy
  Ba  Ba0  1  0.997905  0.997905  0.997905  1
  Ba  Ba1  1  0.212781  0.212781  0.212781  1
  Ba  Ba2  1  0.782200  0.782200  0.782200  1
  Ti  Ti3  1  0.377305  0.377305  0.377305  1
  Mn  Mn4  1  0.617794  0.617794  0.617794  1
  Mn  Mn5  1  0.499076  0.499076  0.499076  1
  O  O6  1  0.706486  0.265845  0.706486  1
  O  O7  1  0.265845  0.706486  0.706486  1
  O  O8  1  0.706486  0.706486  0.265845  1
  O  O9  1  0.295314  0.741458  0.295314  1
  O  O10  1  0.741458  0.295314  0.295314  1
  O  O11  1  0.295314  0.295314  0.741458  1
  O  O12  1  0.998222  0.501908  0.501908  1
  O  O13  1  0.501908  0.501908  0.998222  1
  O  O14  1  0.501908  0.998222  0.501908  1
