# generated using pymatgen
data_Y12Si8Ir11Rh
_symmetry_space_group_name_H-M   'P 1'
_cell_length_a   5.54476515
_cell_length_b   7.58047390
_cell_length_c   14.86184977
_cell_angle_alpha   90.03597906
_cell_angle_beta   90.05985169
_cell_angle_gamma   90.04290148
_symmetry_Int_Tables_number   1
_chemical_formula_structural   Y12Si8Ir11Rh
_chemical_formula_sum   'Y12 Si8 Ir11 Rh1'
_cell_volume   624.67184941
_cell_formula_units_Z   1
loop_
 _symmetry_equiv_pos_site_id
 _symmetry_equiv_pos_as_xyz
  1  'x, y, z'
loop_
 _atom_site_type_symbol
 _atom_site_label
 _atom_site_symmetry_multiplicity
 _atom_site_fract_x
 _atom_site_fract_y
 _atom_site_fract_z
 _atom_site_occupancy
  Y  Y0  1  0.900180  0.828615  0.750015  1
  Y  Y1  1  0.870848  0.525547  0.392220  1
  Y  Y2  1  0.370665  0.973795  0.608240  1
  Y  Y3  1  0.130121  0.473834  0.891593  1
  Y  Y4  1  0.629848  0.027502  0.108283  1
  Y  Y5  1  0.100143  0.171323  0.249892  1
  Y  Y6  1  0.129214  0.474370  0.608435  1
  Y  Y7  1  0.629307  0.026499  0.392022  1
  Y  Y8  1  0.399596  0.671888  0.250502  1
  Y  Y9  1  0.370904  0.974184  0.891528  1
  Y  Y10  1  0.600145  0.328103  0.749715  1
  Y  Y11  1  0.870566  0.524595  0.107836  1
  Si  Si12  1  0.622076  0.624387  0.896940  1
  Si  Si13  1  0.880306  0.125081  0.602931  1
  Si  Si14  1  0.118947  0.874082  0.103283  1
  Si  Si15  1  0.118954  0.875148  0.396731  1
  Si  Si16  1  0.619588  0.625222  0.603124  1
  Si  Si17  1  0.879730  0.125405  0.897113  1
  Si  Si18  1  0.379785  0.375860  0.103012  1
  Si  Si19  1  0.380199  0.375193  0.396948  1
  Ir  Ir20  1  0.600235  0.332623  0.960547  1
  Ir  Ir21  1  0.102322  0.167685  0.460502  1
  Ir  Ir22  1  0.103019  0.167144  0.039458  1
  Ir  Ir23  1  0.414780  0.680847  0.750341  1
  Ir  Ir24  1  0.899352  0.832197  0.960423  1
  Ir  Ir25  1  0.586409  0.319691  0.249947  1
  Ir  Ir26  1  0.898875  0.832075  0.539717  1
  Ir  Ir27  1  0.911709  0.818452  0.249639  1
  Ir  Ir28  1  0.601021  0.332249  0.539918  1
  Ir  Ir29  1  0.397978  0.668122  0.460243  1
  Ir  Ir30  1  0.086087  0.180891  0.750166  1
  Rh  Rh31  1  0.397091  0.667393  0.038735  1
