# generated using pymatgen
data_Ho5P12Ru9Rh10
_symmetry_space_group_name_H-M   'P 1'
_cell_length_a   12.62214700
_cell_length_b   12.62214679
_cell_length_c   3.93265100
_cell_angle_alpha   90.00000000
_cell_angle_beta   90.00000000
_cell_angle_gamma   119.99999793
_symmetry_Int_Tables_number   1
_chemical_formula_structural   Ho5P12Ru9Rh10
_chemical_formula_sum   'Ho5 P12 Ru9 Rh10'
_cell_volume   542.60339666
_cell_formula_units_Z   1
loop_
 _symmetry_equiv_pos_site_id
 _symmetry_equiv_pos_as_xyz
  1  'x, y, z'
loop_
 _atom_site_type_symbol
 _atom_site_label
 _atom_site_symmetry_multiplicity
 _atom_site_fract_x
 _atom_site_fract_y
 _atom_site_fract_z
 _atom_site_occupancy
  Ho  Ho0  1  0.000000  0.186016  0.500000  1
  Ho  Ho1  1  0.813984  0.813984  0.500000  1
  Ho  Ho2  1  0.186016  0.000000  0.500000  1
  Ho  Ho3  1  0.666667  0.333333  0.000000  1
  Ho  Ho4  1  0.333333  0.666667  0.000000  1
  P  P5  1  0.000000  0.818423  0.000000  1
  P  P6  1  0.181577  0.181577  0.000000  1
  P  P7  1  0.818423  0.000000  0.000000  1
  P  P8  1  0.689829  0.172296  0.500000  1
  P  P9  1  0.827704  0.517533  0.500000  1
  P  P10  1  0.482467  0.310171  0.500000  1
  P  P11  1  0.172296  0.689829  0.500000  1
  P  P12  1  0.517533  0.827704  0.500000  1
  P  P13  1  0.310171  0.482467  0.500000  1
  P  P14  1  0.000000  0.370745  0.000000  1
  P  P15  1  0.629255  0.629255  0.000000  1
  P  P16  1  0.370745  0.000000  0.000000  1
  Ru  Ru17  1  0.000000  0.716607  0.500000  1
  Ru  Ru18  1  0.283393  0.283393  0.500000  1
  Ru  Ru19  1  0.716607  0.000000  0.500000  1
  Ru  Ru20  1  0.873119  0.362517  0.500000  1
  Ru  Ru21  1  0.637483  0.510602  0.500000  1
  Ru  Ru22  1  0.489398  0.126881  0.500000  1
  Ru  Ru23  1  0.362517  0.873119  0.500000  1
  Ru  Ru24  1  0.510602  0.637483  0.500000  1
  Ru  Ru25  1  0.126881  0.489398  0.500000  1
  Rh  Rh26  1  0.000000  0.551850  0.000000  1
  Rh  Rh27  1  0.448150  0.448150  0.000000  1
  Rh  Rh28  1  0.551850  0.000000  0.000000  1
  Rh  Rh29  1  0.808281  0.183145  0.000000  1
  Rh  Rh30  1  0.816855  0.625135  0.000000  1
  Rh  Rh31  1  0.374865  0.191719  0.000000  1
  Rh  Rh32  1  0.183145  0.808281  0.000000  1
  Rh  Rh33  1  0.625135  0.816855  0.000000  1
  Rh  Rh34  1  0.191719  0.374865  0.000000  1
  Rh  Rh35  1  0.000000  0.000000  0.000000  1
