# generated using pymatgen
data_V7Cr5Ge4
_symmetry_space_group_name_H-M   'P 1'
_cell_length_a   4.68248784
_cell_length_b   4.67962045
_cell_length_c   9.40067824
_cell_angle_alpha   89.98017513
_cell_angle_beta   89.96009111
_cell_angle_gamma   89.99514406
_symmetry_Int_Tables_number   1
_chemical_formula_structural   V7Cr5Ge4
_chemical_formula_sum   'V7 Cr5 Ge4'
_cell_volume   205.99009770
_cell_formula_units_Z   1
loop_
 _symmetry_equiv_pos_site_id
 _symmetry_equiv_pos_as_xyz
  1  'x, y, z'
loop_
 _atom_site_type_symbol
 _atom_site_label
 _atom_site_symmetry_multiplicity
 _atom_site_fract_x
 _atom_site_fract_y
 _atom_site_fract_z
 _atom_site_occupancy
  V  V0  1  0.998115  0.752097  0.000264  1
  V  V1  1  0.500393  0.998774  0.375566  1
  V  V2  1  0.499667  0.001442  0.873659  1
  V  V3  1  0.251561  0.499495  0.251055  1
  V  V4  1  0.250529  0.500658  0.748374  1
  V  V5  1  0.000781  0.248310  0.500244  1
  V  V6  1  0.998360  0.249808  0.000552  1
  Cr  Cr7  1  0.500496  0.999052  0.624175  1
  Cr  Cr8  1  0.499902  0.000802  0.125765  1
  Cr  Cr9  1  0.749644  0.499594  0.250982  1
  Cr  Cr10  1  0.750717  0.500727  0.748815  1
  Cr  Cr11  1  0.000613  0.748875  0.500089  1
  Ge  Ge12  1  0.501618  0.500220  0.500310  1
  Ge  Ge13  1  0.498359  0.500530  0.000057  1
  Ge  Ge14  1  0.999529  0.999469  0.250954  1
  Ge  Ge15  1  0.999713  0.000147  0.749137  1
