# generated using pymatgen
data_Ho20Bi8Ru3Pt
_symmetry_space_group_name_H-M   'P 1'
_cell_length_a   7.95696798
_cell_length_b   8.99081900
_cell_length_c   12.40724754
_cell_angle_alpha   90.00000000
_cell_angle_beta   89.94300863
_cell_angle_gamma   90.00000000
_symmetry_Int_Tables_number   1
_chemical_formula_structural   Ho20Bi8Ru3Pt
_chemical_formula_sum   'Ho20 Bi8 Ru3 Pt1'
_cell_volume   887.60981782
_cell_formula_units_Z   1
loop_
 _symmetry_equiv_pos_site_id
 _symmetry_equiv_pos_as_xyz
  1  'x, y, z'
loop_
 _atom_site_type_symbol
 _atom_site_label
 _atom_site_symmetry_multiplicity
 _atom_site_fract_x
 _atom_site_fract_y
 _atom_site_fract_z
 _atom_site_occupancy
  Ho  Ho0  1  0.842085  0.750000  0.794090  1
  Ho  Ho1  1  0.159528  0.250000  0.207365  1
  Ho  Ho2  1  0.340183  0.250000  0.706885  1
  Ho  Ho3  1  0.663880  0.750000  0.289274  1
  Ho  Ho4  1  0.371207  0.750000  0.694722  1
  Ho  Ho5  1  0.624010  0.250000  0.309262  1
  Ho  Ho6  1  0.877344  0.250000  0.808208  1
  Ho  Ho7  1  0.123839  0.750000  0.192278  1
  Ho  Ho8  1  0.949037  0.750000  0.502127  1
  Ho  Ho9  1  0.051728  0.250000  0.496958  1
  Ho  Ho10  1  0.444028  0.250000  0.996353  1
  Ho  Ho11  1  0.554497  0.750000  0.003029  1
  Ho  Ho12  1  0.676638  0.048383  0.566454  1
  Ho  Ho13  1  0.323550  0.961140  0.433600  1
  Ho  Ho14  1  0.174254  0.957206  0.935475  1
  Ho  Ho15  1  0.323550  0.538860  0.433600  1
  Ho  Ho16  1  0.825969  0.041471  0.064795  1
  Ho  Ho17  1  0.676638  0.451617  0.566454  1
  Ho  Ho18  1  0.825969  0.458529  0.064795  1
  Ho  Ho19  1  0.174254  0.542794  0.935475  1
  Bi  Bi20  1  0.567537  0.492233  0.826977  1
  Bi  Bi21  1  0.432978  0.507678  0.172487  1
  Bi  Bi22  1  0.067003  0.507743  0.672422  1
  Bi  Bi23  1  0.432978  0.992322  0.172487  1
  Bi  Bi24  1  0.931979  0.491916  0.327145  1
  Bi  Bi25  1  0.567537  0.007767  0.826977  1
  Bi  Bi26  1  0.931979  0.008084  0.327145  1
  Bi  Bi27  1  0.067003  0.992257  0.672422  1
  Ru  Ru28  1  0.425576  0.250000  0.489787  1
  Ru  Ru29  1  0.073814  0.250000  0.989934  1
  Ru  Ru30  1  0.925356  0.750000  0.010967  1
  Pt  Pt31  1  0.574075  0.750000  0.510053  1
