# generated using pymatgen
data_Y2HoFe8Co
_symmetry_space_group_name_H-M   'P 1'
_cell_length_a   8.64617270
_cell_length_b   8.64617287
_cell_length_c   8.64617347
_cell_angle_alpha   34.43499393
_cell_angle_beta   34.43498826
_cell_angle_gamma   34.43499039
_symmetry_Int_Tables_number   1
_chemical_formula_structural   Y2HoFe8Co
_chemical_formula_sum   'Y2 Ho1 Fe8 Co1'
_cell_volume   184.36113133
_cell_formula_units_Z   1
loop_
 _symmetry_equiv_pos_site_id
 _symmetry_equiv_pos_as_xyz
  1  'x, y, z'
loop_
 _atom_site_type_symbol
 _atom_site_label
 _atom_site_symmetry_multiplicity
 _atom_site_fract_x
 _atom_site_fract_y
 _atom_site_fract_z
 _atom_site_occupancy
  Y  Y0  1  0.999894  0.999894  0.999894  1
  Y  Y1  1  0.142088  0.142088  0.142088  1
  Ho  Ho2  1  0.858110  0.858110  0.858110  1
  Fe  Fe3  1  0.332699  0.332699  0.332699  1
  Fe  Fe4  1  0.667473  0.667473  0.667473  1
  Fe  Fe5  1  0.081731  0.581443  0.581443  1
  Fe  Fe6  1  0.581443  0.581443  0.081731  1
  Fe  Fe7  1  0.581443  0.081731  0.581443  1
  Fe  Fe8  1  0.418788  0.917431  0.418788  1
  Fe  Fe9  1  0.917431  0.418788  0.418788  1
  Fe  Fe10  1  0.418788  0.418788  0.917431  1
  Co  Co11  1  0.500112  0.500112  0.500112  1
