# generated using pymatgen
data_Ca4Os6O18F
_symmetry_space_group_name_H-M   'P 1'
_cell_length_a   7.87882014
_cell_length_b   7.87881842
_cell_length_c   7.87881800
_cell_angle_alpha   109.47122213
_cell_angle_beta   109.47121770
_cell_angle_gamma   109.47122436
_symmetry_Int_Tables_number   1
_chemical_formula_structural   Ca4Os6O18F
_chemical_formula_sum   'Ca4 Os6 O18 F1'
_cell_volume   376.49693340
_cell_formula_units_Z   1
loop_
 _symmetry_equiv_pos_site_id
 _symmetry_equiv_pos_as_xyz
  1  'x, y, z'
loop_
 _atom_site_type_symbol
 _atom_site_label
 _atom_site_symmetry_multiplicity
 _atom_site_fract_x
 _atom_site_fract_y
 _atom_site_fract_z
 _atom_site_occupancy
  Ca  Ca0  1  0.000000  0.308444  0.000000  1
  Ca  Ca1  1  0.000000  0.000000  0.308444  1
  Ca  Ca2  1  0.691556  0.691556  0.691556  1
  Ca  Ca3  1  0.308444  0.000000  0.000000  1
  Os  Os4  1  0.500000  0.363584  0.863584  1
  Os  Os5  1  0.500000  0.636416  0.136416  1
  Os  Os6  1  0.363584  0.863584  0.500000  1
  Os  Os7  1  0.636416  0.136416  0.500000  1
  Os  Os8  1  0.863584  0.500000  0.363584  1
  Os  Os9  1  0.136416  0.500000  0.636416  1
  O  O10  1  0.719345  0.351587  0.061362  1
  O  O11  1  0.648413  0.367760  0.709775  1
  O  O12  1  0.290225  0.657983  0.938638  1
  O  O13  1  0.632240  0.280655  0.342017  1
  O  O14  1  0.367760  0.709775  0.648413  1
  O  O15  1  0.938638  0.290225  0.657983  1
  O  O16  1  0.061362  0.719345  0.351587  1
  O  O17  1  0.000000  0.675080  0.675080  1
  O  O18  1  0.675080  0.675080  0.000000  1
  O  O19  1  0.709775  0.648413  0.367760  1
  O  O20  1  0.351587  0.061362  0.719345  1
  O  O21  1  0.675080  0.000000  0.675080  1
  O  O22  1  0.000000  0.324920  0.324920  1
  O  O23  1  0.657983  0.938638  0.290225  1
  O  O24  1  0.342017  0.632240  0.280655  1
  O  O25  1  0.280655  0.342017  0.632240  1
  O  O26  1  0.324920  0.000000  0.324920  1
  O  O27  1  0.324920  0.324920  0.000000  1
  F  F28  1  0.000000  0.000000  0.000000  1
