# generated using pymatgen
data_TmLu(Zn2Ni)2
_symmetry_space_group_name_H-M   'P 1'
_cell_length_a   5.07723682
_cell_length_b   5.07723590
_cell_length_c   7.12300000
_cell_angle_alpha   90.00000000
_cell_angle_beta   90.00000000
_cell_angle_gamma   133.53252360
_symmetry_Int_Tables_number   1
_chemical_formula_structural   TmLu(Zn2Ni)2
_chemical_formula_sum   'Tm1 Lu1 Zn4 Ni2'
_cell_volume   133.12077536
_cell_formula_units_Z   1
loop_
 _symmetry_equiv_pos_site_id
 _symmetry_equiv_pos_as_xyz
  1  'x, y, z'
loop_
 _atom_site_type_symbol
 _atom_site_label
 _atom_site_symmetry_multiplicity
 _atom_site_fract_x
 _atom_site_fract_y
 _atom_site_fract_z
 _atom_site_occupancy
  Tm  Tm0  1  0.566894  0.433104  0.750000  1
  Lu  Lu1  1  0.432860  0.567138  0.250000  1
  Zn  Zn2  1  0.143934  0.856064  0.056641  1
  Zn  Zn3  1  0.143934  0.856064  0.443359  1
  Zn  Zn4  1  0.856122  0.143876  0.555180  1
  Zn  Zn5  1  0.856122  0.143876  0.944819  1
  Ni  Ni6  1  0.721962  0.278035  0.250000  1
  Ni  Ni7  1  0.278163  0.721834  0.750000  1
