# generated using pymatgen
data_Nd2MnSi5PPd20
_symmetry_space_group_name_H-M   'P 1'
_cell_length_a   8.70096635
_cell_length_b   8.70640462
_cell_length_c   8.70640470
_cell_angle_alpha   59.95867735
_cell_angle_beta   60.02066301
_cell_angle_gamma   60.02065873
_symmetry_Int_Tables_number   1
_chemical_formula_structural   Nd2MnSi5PPd20
_chemical_formula_sum   'Nd2 Mn1 Si5 P1 Pd20'
_cell_volume   466.36918463
_cell_formula_units_Z   1
loop_
 _symmetry_equiv_pos_site_id
 _symmetry_equiv_pos_as_xyz
  1  'x, y, z'
loop_
 _atom_site_type_symbol
 _atom_site_label
 _atom_site_symmetry_multiplicity
 _atom_site_fract_x
 _atom_site_fract_y
 _atom_site_fract_z
 _atom_site_occupancy
  Nd  Nd0  1  0.249531  0.250469  0.250469  1
  Nd  Nd1  1  0.749531  0.750469  0.750469  1
  Mn  Mn2  1  0.001213  0.998787  0.998787  1
  Si  Si3  1  0.265302  0.734698  0.734698  1
  Si  Si4  1  0.264161  0.735839  0.265450  1
  Si  Si5  1  0.734550  0.265450  0.735839  1
  Si  Si6  1  0.264161  0.265450  0.735839  1
  Si  Si7  1  0.734550  0.735839  0.265450  1
  P  P8  1  0.735380  0.264620  0.264620  1
  Pd  Pd9  1  0.344385  0.999341  0.999341  1
  Pd  Pd10  1  0.656934  0.999341  0.999341  1
  Pd  Pd11  1  0.000659  0.343066  0.655615  1
  Pd  Pd12  1  0.000659  0.655615  0.343066  1
  Pd  Pd13  1  0.998238  0.342680  0.001762  1
  Pd  Pd14  1  0.657320  0.001762  0.342680  1
  Pd  Pd15  1  0.000005  0.656532  0.999995  1
  Pd  Pd16  1  0.343468  0.999995  0.656532  1
  Pd  Pd17  1  0.998238  0.001762  0.342680  1
  Pd  Pd18  1  0.000005  0.999995  0.656532  1
  Pd  Pd19  1  0.657320  0.342680  0.001762  1
  Pd  Pd20  1  0.343468  0.656532  0.999995  1
  Pd  Pd21  1  0.386669  0.385059  0.385059  1
  Pd  Pd22  1  0.615012  0.614710  0.614710  1
  Pd  Pd23  1  0.385290  0.384988  0.844432  1
  Pd  Pd24  1  0.385290  0.844432  0.384988  1
  Pd  Pd25  1  0.614941  0.613331  0.156787  1
  Pd  Pd26  1  0.614941  0.156787  0.613331  1
  Pd  Pd27  1  0.843213  0.385059  0.385059  1
  Pd  Pd28  1  0.155568  0.614710  0.614710  1
