# generated using pymatgen
data_Hf2MgCo5B2
_symmetry_space_group_name_H-M   'P 1'
_cell_length_a   8.81204100
_cell_length_b   8.81204100
_cell_length_c   3.05171300
_cell_angle_alpha   90.00000000
_cell_angle_beta   90.00000000
_cell_angle_gamma   90.00000000
_symmetry_Int_Tables_number   1
_chemical_formula_structural   Hf2MgCo5B2
_chemical_formula_sum   'Hf4 Mg2 Co10 B4'
_cell_volume   236.97182108
_cell_formula_units_Z   2
loop_
 _symmetry_equiv_pos_site_id
 _symmetry_equiv_pos_as_xyz
  1  'x, y, z'
loop_
 _atom_site_type_symbol
 _atom_site_label
 _atom_site_symmetry_multiplicity
 _atom_site_fract_x
 _atom_site_fract_y
 _atom_site_fract_z
 _atom_site_occupancy
  Hf  Hf0  1  0.823029  0.323029  0.000000  1
  Hf  Hf1  1  0.323029  0.176971  0.000000  1
  Hf  Hf2  1  0.676971  0.823029  0.000000  1
  Hf  Hf3  1  0.176971  0.676971  0.000000  1
  Mg  Mg4  1  0.000000  0.000000  0.000000  1
  Mg  Mg5  1  0.500000  0.500000  0.000000  1
  Co  Co6  1  0.500000  0.000000  0.500000  1
  Co  Co7  1  0.000000  0.500000  0.500000  1
  Co  Co8  1  0.069393  0.229316  0.500000  1
  Co  Co9  1  0.229316  0.930607  0.500000  1
  Co  Co10  1  0.770684  0.069393  0.500000  1
  Co  Co11  1  0.930607  0.770684  0.500000  1
  Co  Co12  1  0.430607  0.729316  0.500000  1
  Co  Co13  1  0.569393  0.270684  0.500000  1
  Co  Co14  1  0.729316  0.569393  0.500000  1
  Co  Co15  1  0.270684  0.430607  0.500000  1
  B  B16  1  0.619221  0.119221  0.000000  1
  B  B17  1  0.119221  0.380779  0.000000  1
  B  B18  1  0.880779  0.619221  0.000000  1
  B  B19  1  0.380779  0.880779  0.000000  1
