# generated using pymatgen
data_Nd3MgZn2IrPd2
_symmetry_space_group_name_H-M   'P 1'
_cell_length_a   7.49534997
_cell_length_b   7.52374999
_cell_length_c   3.99952400
_cell_angle_alpha   90.00000000
_cell_angle_beta   90.00000000
_cell_angle_gamma   120.05114743
_symmetry_Int_Tables_number   1
_chemical_formula_structural   Nd3MgZn2IrPd2
_chemical_formula_sum   'Nd3 Mg1 Zn2 Ir1 Pd2'
_cell_volume   195.22756863
_cell_formula_units_Z   1
loop_
 _symmetry_equiv_pos_site_id
 _symmetry_equiv_pos_as_xyz
  1  'x, y, z'
loop_
 _atom_site_type_symbol
 _atom_site_label
 _atom_site_symmetry_multiplicity
 _atom_site_fract_x
 _atom_site_fract_y
 _atom_site_fract_z
 _atom_site_occupancy
  Nd  Nd0  1  0.403446  0.393518  0.000000  1
  Nd  Nd1  1  0.589524  0.017958  0.000000  1
  Nd  Nd2  1  0.998738  0.580015  0.000000  1
  Mg  Mg3  1  0.761188  0.758964  0.500000  1
  Zn  Zn4  1  0.246471  0.997605  0.500000  1
  Zn  Zn5  1  0.991924  0.243939  0.500000  1
  Ir  Ir6  1  0.666937  0.336793  0.500000  1
  Pd  Pd7  1  0.005190  0.005432  0.000000  1
  Pd  Pd8  1  0.336584  0.665776  0.500000  1
