# generated using pymatgen
data_Gd4Dy4Tc3B24Os
_symmetry_space_group_name_H-M   'P 1'
_cell_length_a   3.69108300
_cell_length_b   9.17854272
_cell_length_c   11.57495504
_cell_angle_alpha   89.96094325
_cell_angle_beta   90.00000000
_cell_angle_gamma   90.00000000
_symmetry_Int_Tables_number   1
_chemical_formula_structural   Gd4Dy4Tc3B24Os
_chemical_formula_sum   'Gd4 Dy4 Tc3 B24 Os1'
_cell_volume   392.14506735
_cell_formula_units_Z   1
loop_
 _symmetry_equiv_pos_site_id
 _symmetry_equiv_pos_as_xyz
  1  'x, y, z'
loop_
 _atom_site_type_symbol
 _atom_site_label
 _atom_site_symmetry_multiplicity
 _atom_site_fract_x
 _atom_site_fract_y
 _atom_site_fract_z
 _atom_site_occupancy
  Gd  Gd0  1  0.000000  0.323680  0.413744  1
  Gd  Gd1  1  0.000000  0.675558  0.584382  1
  Gd  Gd2  1  0.000000  0.823047  0.087355  1
  Gd  Gd3  1  0.000000  0.177734  0.914708  1
  Dy  Dy4  1  0.000000  0.942401  0.369769  1
  Dy  Dy5  1  0.000000  0.058464  0.630109  1
  Dy  Dy6  1  0.000000  0.442727  0.130577  1
  Dy  Dy7  1  0.000000  0.557024  0.869261  1
  Tc  Tc8  1  0.000000  0.638475  0.320486  1
  Tc  Tc9  1  0.000000  0.361330  0.680181  1
  Tc  Tc10  1  0.000000  0.137812  0.178642  1
  B  B11  1  0.500000  0.553414  0.432397  1
  B  B12  1  0.500000  0.446532  0.567406  1
  B  B13  1  0.500000  0.053440  0.067381  1
  B  B14  1  0.500000  0.945987  0.932415  1
  B  B15  1  0.500000  0.748211  0.418176  1
  B  B16  1  0.500000  0.251658  0.581788  1
  B  B17  1  0.500000  0.248780  0.081879  1
  B  B18  1  0.500000  0.751712  0.917822  1
  B  B19  1  0.500000  0.791125  0.265694  1
  B  B20  1  0.500000  0.209036  0.734727  1
  B  B21  1  0.500000  0.290916  0.234386  1
  B  B22  1  0.500000  0.709652  0.765601  1
  B  B23  1  0.500000  0.630826  0.185975  1
  B  B24  1  0.500000  0.369284  0.814484  1
  B  B25  1  0.500000  0.130410  0.313735  1
  B  B26  1  0.500000  0.869259  0.686104  1
  B  B27  1  0.500000  0.982546  0.211905  1
  B  B28  1  0.500000  0.016428  0.788161  1
  B  B29  1  0.500000  0.482968  0.287949  1
  B  B30  1  0.500000  0.516885  0.711814  1
  B  B31  1  0.500000  0.601234  0.027975  1
  B  B32  1  0.500000  0.399617  0.971870  1
  B  B33  1  0.500000  0.101043  0.471911  1
  B  B34  1  0.500000  0.899000  0.528513  1
  Os  Os35  1  0.000000  0.861787  0.820719  1
