# generated using pymatgen
data_NaHo2Co5(P3Ir2)2
_symmetry_space_group_name_H-M   'P 1'
_cell_length_a   3.79962800
_cell_length_b   10.74460600
_cell_length_c   12.53713700
_cell_angle_alpha   90.00000000
_cell_angle_beta   90.00000000
_cell_angle_gamma   90.00000000
_symmetry_Int_Tables_number   1
_chemical_formula_structural   NaHo2Co5(P3Ir2)2
_chemical_formula_sum   'Na2 Ho4 Co10 P12 Ir8'
_cell_volume   511.83495939
_cell_formula_units_Z   2
loop_
 _symmetry_equiv_pos_site_id
 _symmetry_equiv_pos_as_xyz
  1  'x, y, z'
loop_
 _atom_site_type_symbol
 _atom_site_label
 _atom_site_symmetry_multiplicity
 _atom_site_fract_x
 _atom_site_fract_y
 _atom_site_fract_z
 _atom_site_occupancy
  Na  Na0  1  0.000000  0.500000  0.522341  1
  Na  Na1  1  0.500000  0.000000  0.477659  1
  Ho  Ho2  1  0.500000  0.816590  0.197074  1
  Ho  Ho3  1  0.500000  0.183410  0.197074  1
  Ho  Ho4  1  0.000000  0.683410  0.802926  1
  Ho  Ho5  1  0.000000  0.316590  0.802926  1
  Co  Co6  1  0.000000  0.500000  0.988071  1
  Co  Co7  1  0.500000  0.000000  0.011929  1
  Co  Co8  1  0.500000  0.879804  0.717564  1
  Co  Co9  1  0.500000  0.120196  0.717564  1
  Co  Co10  1  0.000000  0.620196  0.282436  1
  Co  Co11  1  0.000000  0.379804  0.282436  1
  Co  Co12  1  0.500000  0.332673  0.992710  1
  Co  Co13  1  0.500000  0.667327  0.992710  1
  Co  Co14  1  0.000000  0.167327  0.007290  1
  Co  Co15  1  0.000000  0.832673  0.007290  1
  P  P16  1  0.500000  0.305350  0.626131  1
  P  P17  1  0.500000  0.694650  0.626131  1
  P  P18  1  0.000000  0.194650  0.373869  1
  P  P19  1  0.000000  0.805350  0.373869  1
  P  P20  1  0.500000  0.500000  0.890826  1
  P  P21  1  0.000000  0.000000  0.109174  1
  P  P22  1  0.500000  0.844801  0.897824  1
  P  P23  1  0.500000  0.155199  0.897824  1
  P  P24  1  0.000000  0.655199  0.102176  1
  P  P25  1  0.000000  0.344801  0.102176  1
  P  P26  1  0.500000  0.500000  0.340680  1
  P  P27  1  0.000000  0.000000  0.659320  1
  Ir  Ir28  1  0.500000  0.299270  0.426548  1
  Ir  Ir29  1  0.500000  0.700730  0.426548  1
  Ir  Ir30  1  0.000000  0.200730  0.573452  1
  Ir  Ir31  1  0.000000  0.799270  0.573452  1
  Ir  Ir32  1  0.500000  0.500000  0.155924  1
  Ir  Ir33  1  0.000000  0.000000  0.844076  1
  Ir  Ir34  1  0.500000  0.500000  0.705731  1
  Ir  Ir35  1  0.000000  0.000000  0.294269  1
