# generated using pymatgen
data_Nd6B2(CI)3
_symmetry_space_group_name_H-M   'P 1'
_cell_length_a   8.88529831
_cell_length_b   3.90619800
_cell_length_c   10.53919234
_cell_angle_alpha   90.00000000
_cell_angle_beta   113.94090281
_cell_angle_gamma   90.00000000
_symmetry_Int_Tables_number   1
_chemical_formula_structural   Nd6B2(CI)3
_chemical_formula_sum   'Nd6 B2 C3 I3'
_cell_volume   334.32043428
_cell_formula_units_Z   1
loop_
 _symmetry_equiv_pos_site_id
 _symmetry_equiv_pos_as_xyz
  1  'x, y, z'
loop_
 _atom_site_type_symbol
 _atom_site_label
 _atom_site_symmetry_multiplicity
 _atom_site_fract_x
 _atom_site_fract_y
 _atom_site_fract_z
 _atom_site_occupancy
  Nd  Nd0  1  0.368851  0.500001  0.231184  1
  Nd  Nd1  1  0.631148  0.500001  0.768815  1
  Nd  Nd2  1  0.956641  0.500001  0.159464  1
  Nd  Nd3  1  0.043359  0.500001  0.840536  1
  Nd  Nd4  1  0.294406  0.000000  0.477994  1
  Nd  Nd5  1  0.705594  0.000000  0.522006  1
  B  B6  1  0.090545  0.000000  0.067053  1
  B  B7  1  0.909457  0.000000  0.932948  1
  C  C8  1  0.170140  0.000000  0.224356  1
  C  C9  1  0.829860  0.000000  0.775643  1
  C  C10  1  0.500000  0.500001  0.500000  1
  I  I11  1  0.649771  0.000000  0.186243  1
  I  I12  1  0.350230  0.000000  0.813758  1
  I  I13  1  0.000000  0.500001  0.500000  1
