# generated using pymatgen
data_Ho12TcOs2Ru
_symmetry_space_group_name_H-M   'P 1'
_cell_length_a   6.27070134
_cell_length_b   7.37851982
_cell_length_c   9.05576100
_cell_angle_alpha   90.00000000
_cell_angle_beta   90.00000000
_cell_angle_gamma   90.01047007
_symmetry_Int_Tables_number   1
_chemical_formula_structural   Ho12TcOs2Ru
_chemical_formula_sum   'Ho12 Tc1 Os2 Ru1'
_cell_volume   418.99641756
_cell_formula_units_Z   1
loop_
 _symmetry_equiv_pos_site_id
 _symmetry_equiv_pos_as_xyz
  1  'x, y, z'
loop_
 _atom_site_type_symbol
 _atom_site_label
 _atom_site_symmetry_multiplicity
 _atom_site_fract_x
 _atom_site_fract_y
 _atom_site_fract_z
 _atom_site_occupancy
  Ho  Ho0  1  0.332281  0.675481  0.064147  1
  Ho  Ho1  1  0.167766  0.175413  0.437093  1
  Ho  Ho2  1  0.667536  0.324188  0.562903  1
  Ho  Ho3  1  0.833958  0.825534  0.937346  1
  Ho  Ho4  1  0.667536  0.324188  0.937097  1
  Ho  Ho5  1  0.833958  0.825534  0.562654  1
  Ho  Ho6  1  0.332281  0.675481  0.435853  1
  Ho  Ho7  1  0.167766  0.175413  0.062907  1
  Ho  Ho8  1  0.869937  0.539411  0.250000  1
  Ho  Ho9  1  0.628180  0.040087  0.250000  1
  Ho  Ho10  1  0.132704  0.459410  0.750000  1
  Ho  Ho11  1  0.368708  0.958619  0.750000  1
  Tc  Tc12  1  0.037987  0.884094  0.250000  1
  Os  Os13  1  0.460906  0.383400  0.250000  1
  Os  Os14  1  0.960838  0.117564  0.750000  1
  Ru  Ru15  1  0.537657  0.616182  0.750000  1
