# generated using pymatgen
data_Ho2Er2Ga4RuPt3
_symmetry_space_group_name_H-M   'P 1'
_cell_length_a   4.41367800
_cell_length_b   6.82408167
_cell_length_c   7.69800397
_cell_angle_alpha   89.61768163
_cell_angle_beta   90.00000000
_cell_angle_gamma   90.00000000
_symmetry_Int_Tables_number   1
_chemical_formula_structural   Ho2Er2Ga4RuPt3
_chemical_formula_sum   'Ho2 Er2 Ga4 Ru1 Pt3'
_cell_volume   231.85332242
_cell_formula_units_Z   1
loop_
 _symmetry_equiv_pos_site_id
 _symmetry_equiv_pos_as_xyz
  1  'x, y, z'
loop_
 _atom_site_type_symbol
 _atom_site_label
 _atom_site_symmetry_multiplicity
 _atom_site_fract_x
 _atom_site_fract_y
 _atom_site_fract_z
 _atom_site_occupancy
  Ho  Ho0  1  0.250000  0.978604  0.308822  1
  Ho  Ho1  1  0.250000  0.477003  0.188003  1
  Er  Er2  1  0.750000  0.019579  0.696942  1
  Er  Er3  1  0.750000  0.515713  0.806307  1
  Ga  Ga4  1  0.250000  0.331241  0.574333  1
  Ga  Ga5  1  0.250000  0.842820  0.927397  1
  Ga  Ga6  1  0.750000  0.664471  0.429305  1
  Ga  Ga7  1  0.750000  0.169180  0.068629  1
  Ru  Ru8  1  0.250000  0.231406  0.896150  1
  Pt  Pt9  1  0.250000  0.723727  0.605768  1
  Pt  Pt10  1  0.750000  0.773481  0.102838  1
  Pt  Pt11  1  0.750000  0.272772  0.395509  1
