# generated using pymatgen
data_Li5Ta(SnRh2)6
_symmetry_space_group_name_H-M   'P 1'
_cell_length_a   4.44173200
_cell_length_b   6.22873700
_cell_length_c   13.29049300
_cell_angle_alpha   90.00040499
_cell_angle_beta   90.00010333
_cell_angle_gamma   90.00003130
_symmetry_Int_Tables_number   1
_chemical_formula_structural   Li5Ta(SnRh2)6
_chemical_formula_sum   'Li5 Ta1 Sn6 Rh12'
_cell_volume   367.69983573
_cell_formula_units_Z   1
loop_
 _symmetry_equiv_pos_site_id
 _symmetry_equiv_pos_as_xyz
  1  'x, y, z'
loop_
 _atom_site_type_symbol
 _atom_site_label
 _atom_site_symmetry_multiplicity
 _atom_site_fract_x
 _atom_site_fract_y
 _atom_site_fract_z
 _atom_site_occupancy
  Li  Li0  1  0.499810  0.499998  0.167928  1
  Li  Li1  1  0.999820  0.000001  0.334493  1
  Li  Li2  1  0.500000  0.499999  0.500000  1
  Li  Li3  1  0.000180  0.999999  0.665507  1
  Li  Li4  1  0.500189  0.500000  0.832073  1
  Ta  Ta5  1  0.000000  0.000000  0.000000  1
  Sn  Sn6  1  0.000000  0.499999  0.000000  1
  Sn  Sn7  1  0.499804  0.000000  0.175456  1
  Sn  Sn8  1  0.999730  0.499999  0.337644  1
  Sn  Sn9  1  0.500000  0.000000  0.500000  1
  Sn  Sn10  1  0.000269  0.499999  0.662356  1
  Sn  Sn11  1  0.500195  0.000000  0.824544  1
  Rh  Rh12  1  0.499998  0.243375  0.999999  1
  Rh  Rh13  1  0.500002  0.756625  0.000001  1
  Rh  Rh14  1  0.999792  0.249113  0.164854  1
  Rh  Rh15  1  0.999789  0.750885  0.164854  1
  Rh  Rh16  1  0.499739  0.253482  0.334423  1
  Rh  Rh17  1  0.499741  0.746519  0.334422  1
  Rh  Rh18  1  0.000001  0.246936  0.500000  1
  Rh  Rh19  1  0.999999  0.753064  0.500000  1
  Rh  Rh20  1  0.500258  0.253481  0.665578  1
  Rh  Rh21  1  0.500260  0.746518  0.665577  1
  Rh  Rh22  1  0.000210  0.249113  0.835147  1
  Rh  Rh23  1  0.000207  0.750885  0.835147  1
