# generated using pymatgen
data_Tm5In4AgIr
_symmetry_space_group_name_H-M   'P 1'
_cell_length_a   3.59028800
_cell_length_b   8.08911340
_cell_length_c   18.12138900
_cell_angle_alpha   89.55097817
_cell_angle_beta   90.00000000
_cell_angle_gamma   90.00000000
_symmetry_Int_Tables_number   1
_chemical_formula_structural   Tm5In4AgIr
_chemical_formula_sum   'Tm10 In8 Ag2 Ir2'
_cell_volume   526.26969001
_cell_formula_units_Z   2
loop_
 _symmetry_equiv_pos_site_id
 _symmetry_equiv_pos_as_xyz
  1  'x, y, z'
loop_
 _atom_site_type_symbol
 _atom_site_label
 _atom_site_symmetry_multiplicity
 _atom_site_fract_x
 _atom_site_fract_y
 _atom_site_fract_z
 _atom_site_occupancy
  Tm  Tm0  1  0.000000  0.119886  0.420955  1
  Tm  Tm1  1  0.000000  0.880114  0.579045  1
  Tm  Tm2  1  0.000000  0.383080  0.914716  1
  Tm  Tm3  1  0.000000  0.616920  0.085284  1
  Tm  Tm4  1  0.000000  0.260461  0.216732  1
  Tm  Tm5  1  0.000000  0.739539  0.783268  1
  Tm  Tm6  1  0.000000  0.282378  0.721762  1
  Tm  Tm7  1  0.000000  0.717622  0.278238  1
  Tm  Tm8  1  0.000000  0.000000  0.000000  1
  Tm  Tm9  1  0.000000  0.500000  0.500000  1
  In  In10  1  0.500000  0.419062  0.352278  1
  In  In11  1  0.500000  0.580938  0.647722  1
  In  In12  1  0.500000  0.078305  0.850888  1
  In  In13  1  0.500000  0.921695  0.149112  1
  In  In14  1  0.500000  0.293420  0.066160  1
  In  In15  1  0.500000  0.706580  0.933840  1
  In  In16  1  0.500000  0.209043  0.568298  1
  In  In17  1  0.500000  0.790957  0.431702  1
  Ag  Ag18  1  0.500000  0.021846  0.301644  1
  Ag  Ag19  1  0.500000  0.978154  0.698356  1
  Ir  Ir20  1  0.500000  0.476369  0.804614  1
  Ir  Ir21  1  0.500000  0.523631  0.195386  1
