# generated using pymatgen
data_YPu3(Al3Ir)6
_symmetry_space_group_name_H-M   'P 1'
_cell_length_a   7.57109023
_cell_length_b   7.56317789
_cell_length_c   9.49556700
_cell_angle_alpha   90.00000000
_cell_angle_beta   90.00000000
_cell_angle_gamma   119.38193803
_symmetry_Int_Tables_number   1
_chemical_formula_structural   YPu3(Al3Ir)6
_chemical_formula_sum   'Y1 Pu3 Al18 Ir6'
_cell_volume   473.78958159
_cell_formula_units_Z   1
loop_
 _symmetry_equiv_pos_site_id
 _symmetry_equiv_pos_as_xyz
  1  'x, y, z'
loop_
 _atom_site_type_symbol
 _atom_site_label
 _atom_site_symmetry_multiplicity
 _atom_site_fract_x
 _atom_site_fract_y
 _atom_site_fract_z
 _atom_site_occupancy
  Y  Y0  1  0.328236  0.004183  0.750000  1
  Pu  Pu1  1  0.994336  0.672070  0.250000  1
  Pu  Pu2  1  0.004438  0.327506  0.750000  1
  Pu  Pu3  1  0.674053  0.997127  0.250000  1
  Al  Al4  1  0.130785  0.131003  0.250000  1
  Al  Al5  1  0.871581  0.872334  0.750000  1
  Al  Al6  1  0.001562  0.337068  0.073319  1
  Al  Al7  1  0.998628  0.663201  0.925187  1
  Al  Al8  1  0.998628  0.663201  0.574813  1
  Al  Al9  1  0.336368  0.000705  0.424239  1
  Al  Al10  1  0.001562  0.337068  0.426681  1
  Al  Al11  1  0.664307  0.998870  0.574954  1
  Al  Al12  1  0.664307  0.998870  0.925046  1
  Al  Al13  1  0.336368  0.000705  0.075761  1
  Al  Al14  1  0.332980  0.332851  0.553392  1
  Al  Al15  1  0.665652  0.665984  0.449427  1
  Al  Al16  1  0.665652  0.665984  0.050573  1
  Al  Al17  1  0.332980  0.332851  0.946608  1
  Al  Al18  1  0.339440  0.550245  0.250000  1
  Al  Al19  1  0.661406  0.450634  0.750000  1
  Al  Al20  1  0.548862  0.341062  0.250000  1
  Al  Al21  1  0.449441  0.658622  0.750000  1
  Ir  Ir22  1  0.669712  0.327381  0.999649  1
  Ir  Ir23  1  0.328931  0.671684  0.999339  1
  Ir  Ir24  1  0.328931  0.671684  0.500661  1
  Ir  Ir25  1  0.669712  0.327381  0.500351  1
  Ir  Ir26  1  0.000571  0.999863  0.000025  1
  Ir  Ir27  1  0.000571  0.999863  0.499975  1
