# generated using pymatgen
data_YbHo3TcRu7
_symmetry_space_group_name_H-M   'P 1'
_cell_length_a   5.19242699
_cell_length_b   5.36061032
_cell_length_c   8.98411800
_cell_angle_alpha   89.99999832
_cell_angle_beta   89.87678723
_cell_angle_gamma   121.07735383
_symmetry_Int_Tables_number   1
_chemical_formula_structural   YbHo3TcRu7
_chemical_formula_sum   'Yb1 Ho3 Tc1 Ru7'
_cell_volume   214.17632801
_cell_formula_units_Z   1
loop_
 _symmetry_equiv_pos_site_id
 _symmetry_equiv_pos_as_xyz
  1  'x, y, z'
loop_
 _atom_site_type_symbol
 _atom_site_label
 _atom_site_symmetry_multiplicity
 _atom_site_fract_x
 _atom_site_fract_y
 _atom_site_fract_z
 _atom_site_occupancy
  Yb  Yb0  1  0.326017  0.663008  0.434152  1
  Ho  Ho1  1  0.655293  0.327646  0.561459  1
  Ho  Ho2  1  0.656300  0.328149  0.934054  1
  Ho  Ho3  1  0.327387  0.663694  0.071669  1
  Tc  Tc4  1  0.684260  0.842130  0.748709  1
  Ru  Ru5  1  0.977135  0.988567  0.499033  1
  Ru  Ru6  1  0.977399  0.988699  0.000334  1
  Ru  Ru7  1  0.836678  0.165413  0.249961  1
  Ru  Ru8  1  0.836678  0.671266  0.249961  1
  Ru  Ru9  1  0.361891  0.180945  0.248307  1
  Ru  Ru10  1  0.180481  0.827581  0.751181  1
  Ru  Ru11  1  0.180481  0.352900  0.751181  1
