# generated using pymatgen
data_Ce4Ga24IrPd
_symmetry_space_group_name_H-M   'P 1'
_cell_length_a   6.14889600
_cell_length_b   6.14889600
_cell_length_c   15.54363200
_cell_angle_alpha   90.00000000
_cell_angle_beta   90.00000000
_cell_angle_gamma   90.00000000
_symmetry_Int_Tables_number   1
_chemical_formula_structural   Ce4Ga24IrPd
_chemical_formula_sum   'Ce4 Ga24 Ir1 Pd1'
_cell_volume   587.68797018
_cell_formula_units_Z   1
loop_
 _symmetry_equiv_pos_site_id
 _symmetry_equiv_pos_as_xyz
  1  'x, y, z'
loop_
 _atom_site_type_symbol
 _atom_site_label
 _atom_site_symmetry_multiplicity
 _atom_site_fract_x
 _atom_site_fract_y
 _atom_site_fract_z
 _atom_site_occupancy
  Ce  Ce0  1  0.750000  0.250000  0.243749  1
  Ce  Ce1  1  0.250000  0.750000  0.241570  1
  Ce  Ce2  1  0.250000  0.750000  0.758430  1
  Ce  Ce3  1  0.750000  0.250000  0.756251  1
  Ga  Ga4  1  0.250000  0.250000  0.188250  1
  Ga  Ga5  1  0.750000  0.750000  0.188250  1
  Ga  Ga6  1  0.750000  0.750000  0.811750  1
  Ga  Ga7  1  0.250000  0.250000  0.811750  1
  Ga  Ga8  1  0.250000  0.250000  0.345493  1
  Ga  Ga9  1  0.750000  0.750000  0.345493  1
  Ga  Ga10  1  0.750000  0.750000  0.654507  1
  Ga  Ga11  1  0.250000  0.250000  0.654507  1
  Ga  Ga12  1  0.501904  0.001904  0.910757  1
  Ga  Ga13  1  0.998308  0.001692  0.910990  1
  Ga  Ga14  1  0.501692  0.498308  0.910990  1
  Ga  Ga15  1  0.998096  0.498096  0.910757  1
  Ga  Ga16  1  0.501692  0.001692  0.089010  1
  Ga  Ga17  1  0.998096  0.001904  0.089243  1
  Ga  Ga18  1  0.501904  0.498096  0.089243  1
  Ga  Ga19  1  0.998308  0.498308  0.089010  1
  Ga  Ga20  1  0.581570  0.081570  0.430731  1
  Ga  Ga21  1  0.082694  0.917306  0.429902  1
  Ga  Ga22  1  0.417306  0.582694  0.429902  1
  Ga  Ga23  1  0.918430  0.418430  0.430731  1
  Ga  Ga24  1  0.417306  0.917306  0.570098  1
  Ga  Ga25  1  0.918430  0.081570  0.569269  1
  Ga  Ga26  1  0.581570  0.418430  0.569269  1
  Ga  Ga27  1  0.082694  0.582694  0.570098  1
  Ir  Ir28  1  0.750000  0.250000  0.000000  1
  Pd  Pd29  1  0.250000  0.750000  0.000000  1
