# generated using pymatgen
data_TaVTe12
_symmetry_space_group_name_H-M   'P 1'
_cell_length_a   8.03302969
_cell_length_b   8.03303015
_cell_length_c   18.10259400
_cell_angle_alpha   90.00000000
_cell_angle_beta   90.00000000
_cell_angle_gamma   152.90839049
_symmetry_Int_Tables_number   1
_chemical_formula_structural   TaVTe12
_chemical_formula_sum   'Ta1 V1 Te12'
_cell_volume   531.99367715
_cell_formula_units_Z   1
loop_
 _symmetry_equiv_pos_site_id
 _symmetry_equiv_pos_as_xyz
  1  'x, y, z'
loop_
 _atom_site_type_symbol
 _atom_site_label
 _atom_site_symmetry_multiplicity
 _atom_site_fract_x
 _atom_site_fract_y
 _atom_site_fract_z
 _atom_site_occupancy
  Ta  Ta0  1  0.496536  0.503464  0.250000  1
  V  V1  1  0.502664  0.497336  0.750000  1
  Te  Te2  1  0.133617  0.866383  0.750000  1
  Te  Te3  1  0.859294  0.140706  0.250000  1
  Te  Te4  1  0.409454  0.590546  0.107557  1
  Te  Te5  1  0.589388  0.410612  0.887352  1
  Te  Te6  1  0.900055  0.099945  0.824726  1
  Te  Te7  1  0.105796  0.894204  0.174029  1
  Te  Te8  1  0.105796  0.894204  0.325971  1
  Te  Te9  1  0.900055  0.099945  0.675274  1
  Te  Te10  1  0.409454  0.590546  0.392443  1
  Te  Te11  1  0.589388  0.410612  0.612648  1
  Te  Te12  1  0.999251  0.000749  0.001205  1
  Te  Te13  1  0.999251  0.000749  0.498795  1
