# generated using pymatgen
data_Pr8MgTlIr2
_symmetry_space_group_name_H-M   'P 1'
_cell_length_a   10.08876923
_cell_length_b   10.08875321
_cell_length_c   10.13342600
_cell_angle_alpha   59.85341520
_cell_angle_beta   59.85346804
_cell_angle_gamma   59.95344198
_symmetry_Int_Tables_number   1
_chemical_formula_structural   Pr8MgTlIr2
_chemical_formula_sum   'Pr16 Mg2 Tl2 Ir4'
_cell_volume   727.44305596
_cell_formula_units_Z   2
loop_
 _symmetry_equiv_pos_site_id
 _symmetry_equiv_pos_as_xyz
  1  'x, y, z'
loop_
 _atom_site_type_symbol
 _atom_site_label
 _atom_site_symmetry_multiplicity
 _atom_site_fract_x
 _atom_site_fract_y
 _atom_site_fract_z
 _atom_site_occupancy
  Pr  Pr0  1  0.347150  0.347298  0.345289  1
  Pr  Pr1  1  0.347150  0.347298  0.960264  1
  Pr  Pr2  1  0.349393  0.957048  0.346780  1
  Pr  Pr3  1  0.956563  0.349879  0.346780  1
  Pr  Pr4  1  0.808872  0.188126  0.192206  1
  Pr  Pr5  1  0.187535  0.809718  0.810892  1
  Pr  Pr6  1  0.187535  0.809718  0.191856  1
  Pr  Pr7  1  0.808872  0.188126  0.810797  1
  Pr  Pr8  1  0.187026  0.186621  0.813177  1
  Pr  Pr9  1  0.804564  0.805191  0.195123  1
  Pr  Pr10  1  0.942415  0.559367  0.561958  1
  Pr  Pr11  1  0.559472  0.941626  0.936685  1
  Pr  Pr12  1  0.559472  0.941626  0.562217  1
  Pr  Pr13  1  0.942415  0.559367  0.936261  1
  Pr  Pr14  1  0.559449  0.560549  0.940001  1
  Pr  Pr15  1  0.939179  0.938921  0.560951  1
  Mg  Mg16  1  0.271262  0.577297  0.575722  1
  Mg  Mg17  1  0.578437  0.268400  0.576582  1
  Tl  Tl18  1  0.581596  0.580922  0.587141  1
  Tl  Tl19  1  0.581596  0.580922  0.250343  1
  Ir  Ir20  1  0.141286  0.142037  0.141287  1
  Ir  Ir21  1  0.141286  0.142037  0.575389  1
  Ir  Ir22  1  0.141918  0.575985  0.141047  1
  Ir  Ir23  1  0.575559  0.141928  0.141256  1
