# generated using pymatgen
data_Sc3Ti3(Co5B2)2
_symmetry_space_group_name_H-M   'P 1'
_cell_length_a   8.70012095
_cell_length_b   8.70012095
_cell_length_c   2.99704500
_cell_angle_alpha   90.00000000
_cell_angle_beta   90.00000000
_cell_angle_gamma   90.42182374
_symmetry_Int_Tables_number   1
_chemical_formula_structural   Sc3Ti3(Co5B2)2
_chemical_formula_sum   'Sc3 Ti3 Co10 B4'
_cell_volume   226.84649531
_cell_formula_units_Z   1
loop_
 _symmetry_equiv_pos_site_id
 _symmetry_equiv_pos_as_xyz
  1  'x, y, z'
loop_
 _atom_site_type_symbol
 _atom_site_label
 _atom_site_symmetry_multiplicity
 _atom_site_fract_x
 _atom_site_fract_y
 _atom_site_fract_z
 _atom_site_occupancy
  Sc  Sc0  1  0.825512  0.325512  0.000000  1
  Sc  Sc1  1  0.324283  0.174603  0.000000  1
  Sc  Sc2  1  0.674603  0.824283  0.000000  1
  Ti  Ti3  1  0.999675  0.000750  0.000000  1
  Ti  Ti4  1  0.500750  0.499675  0.000000  1
  Ti  Ti5  1  0.174568  0.674568  0.000000  1
  Co  Co6  1  0.496613  0.996613  0.500000  1
  Co  Co7  1  0.005962  0.505962  0.500000  1
  Co  Co8  1  0.070381  0.225889  0.500000  1
  Co  Co9  1  0.217990  0.921629  0.500000  1
  Co  Co10  1  0.776396  0.068620  0.500000  1
  Co  Co11  1  0.938120  0.777530  0.500000  1
  Co  Co12  1  0.421629  0.717990  0.500000  1
  Co  Co13  1  0.568620  0.276396  0.500000  1
  Co  Co14  1  0.725889  0.570381  0.500000  1
  Co  Co15  1  0.277530  0.438120  0.500000  1
  B  B16  1  0.618550  0.118550  0.000000  1
  B  B17  1  0.123183  0.383747  0.000000  1
  B  B18  1  0.883747  0.623183  0.000000  1
  B  B19  1  0.376000  0.876000  0.000000  1
