# generated using pymatgen
data_HoScP7IrRu11
_symmetry_space_group_name_H-M   'P 1'
_cell_length_a   9.35721217
_cell_length_b   9.40865048
_cell_length_c   3.93579500
_cell_angle_alpha   90.00000000
_cell_angle_beta   90.00000000
_cell_angle_gamma   119.66737317
_symmetry_Int_Tables_number   1
_chemical_formula_structural   HoScP7IrRu11
_chemical_formula_sum   'Ho1 Sc1 P7 Ir1 Ru11'
_cell_volume   301.08064081
_cell_formula_units_Z   1
loop_
 _symmetry_equiv_pos_site_id
 _symmetry_equiv_pos_as_xyz
  1  'x, y, z'
loop_
 _atom_site_type_symbol
 _atom_site_label
 _atom_site_symmetry_multiplicity
 _atom_site_fract_x
 _atom_site_fract_y
 _atom_site_fract_z
 _atom_site_occupancy
  Ho  Ho0  1  0.331515  0.663616  0.000000  1
  Sc  Sc1  1  0.667571  0.334704  0.500000  1
  P  P2  1  0.599059  0.713530  0.500000  1
  P  P3  1  0.999466  0.000318  0.000000  1
  P  P4  1  0.277131  0.878496  0.500000  1
  P  P5  1  0.118305  0.400020  0.500000  1
  P  P6  1  0.883930  0.574125  0.000000  1
  P  P7  1  0.429557  0.311229  0.000000  1
  P  P8  1  0.694755  0.122681  0.000000  1
  Ir  Ir9  1  0.550721  0.943709  0.500000  1
  Ru  Ru10  1  0.393362  0.441716  0.500000  1
  Ru  Ru11  1  0.912918  0.123847  0.500000  1
  Ru  Ru12  1  0.209806  0.085772  0.500000  1
  Ru  Ru13  1  0.876928  0.793413  0.500000  1
  Ru  Ru14  1  0.726091  0.893773  0.000000  1
  Ru  Ru15  1  0.109409  0.836388  0.000000  1
  Ru  Ru16  1  0.164757  0.271536  0.000000  1
  Ru  Ru17  1  0.431220  0.071516  0.000000  1
  Ru  Ru18  1  0.932306  0.359849  0.000000  1
  Ru  Ru19  1  0.642460  0.574115  0.000000  1
  Ru  Ru20  1  0.048731  0.605644  0.500000  1
