# generated using pymatgen
data_Dy10NiIrPb6
_symmetry_space_group_name_H-M   'P 1'
_cell_length_a   9.19978318
_cell_length_b   9.19978297
_cell_length_c   6.78980001
_cell_angle_alpha   89.99782004
_cell_angle_beta   89.99781802
_cell_angle_gamma   119.98128738
_symmetry_Int_Tables_number   1
_chemical_formula_structural   Dy10NiIrPb6
_chemical_formula_sum   'Dy10 Ni1 Ir1 Pb6'
_cell_volume   497.76533320
_cell_formula_units_Z   1
loop_
 _symmetry_equiv_pos_site_id
 _symmetry_equiv_pos_as_xyz
  1  'x, y, z'
loop_
 _atom_site_type_symbol
 _atom_site_label
 _atom_site_symmetry_multiplicity
 _atom_site_fract_x
 _atom_site_fract_y
 _atom_site_fract_z
 _atom_site_occupancy
  Dy  Dy0  1  0.666197  0.332978  0.999882  1
  Dy  Dy1  1  0.332979  0.666197  0.999882  1
  Dy  Dy2  1  0.237021  0.999891  0.249836  1
  Dy  Dy3  1  0.999889  0.237020  0.249836  1
  Dy  Dy4  1  0.763109  0.763109  0.250181  1
  Dy  Dy5  1  0.666605  0.333153  0.499870  1
  Dy  Dy6  1  0.333152  0.666604  0.499870  1
  Dy  Dy7  1  0.763137  0.000241  0.750185  1
  Dy  Dy8  1  0.000240  0.763136  0.750185  1
  Dy  Dy9  1  0.237225  0.237226  0.750432  1
  Ni  Ni10  1  0.000696  0.000697  0.500375  1
  Ir  Ir11  1  0.000025  0.000025  0.000072  1
  Pb  Pb12  1  0.596599  0.999711  0.252343  1
  Pb  Pb13  1  0.999712  0.596600  0.252343  1
  Pb  Pb14  1  0.403332  0.403333  0.252267  1
  Pb  Pb15  1  0.403340  0.999759  0.747561  1
  Pb  Pb16  1  0.999760  0.403340  0.747561  1
  Pb  Pb17  1  0.596985  0.596984  0.747313  1
