# generated using pymatgen
data_Er5Tm5AlSb5
_symmetry_space_group_name_H-M   'P 1'
_cell_length_a   8.84210600
_cell_length_b   8.84412405
_cell_length_c   6.31847100
_cell_angle_alpha   90.00000000
_cell_angle_beta   90.00000000
_cell_angle_gamma   119.99245963
_symmetry_Int_Tables_number   1
_chemical_formula_structural   Er5Tm5AlSb5
_chemical_formula_sum   'Er5 Tm5 Al1 Sb5'
_cell_volume   427.94323392
_cell_formula_units_Z   1
loop_
 _symmetry_equiv_pos_site_id
 _symmetry_equiv_pos_as_xyz
  1  'x, y, z'
loop_
 _atom_site_type_symbol
 _atom_site_label
 _atom_site_symmetry_multiplicity
 _atom_site_fract_x
 _atom_site_fract_y
 _atom_site_fract_z
 _atom_site_occupancy
  Er  Er0  1  0.755453  0.756085  0.250000  1
  Er  Er1  1  0.999368  0.243915  0.250000  1
  Er  Er2  1  0.009431  0.764045  0.750000  1
  Er  Er3  1  0.245386  0.235955  0.750000  1
  Er  Er4  1  0.240970  0.000000  0.250000  1
  Tm  Tm5  1  0.335140  0.673961  0.998059  1
  Tm  Tm6  1  0.661180  0.326039  0.501941  1
  Tm  Tm7  1  0.661180  0.326039  0.998059  1
  Tm  Tm8  1  0.335140  0.673961  0.501941  1
  Tm  Tm9  1  0.752630  0.000000  0.750000  1
  Al  Al10  1  0.398721  0.000000  0.750000  1
  Sb  Sb11  1  0.390463  0.393890  0.250000  1
  Sb  Sb12  1  0.996573  0.606110  0.250000  1
  Sb  Sb13  1  0.001987  0.391299  0.750000  1
  Sb  Sb14  1  0.610688  0.608701  0.750000  1
  Sb  Sb15  1  0.605691  0.000000  0.250000  1
