# generated using pymatgen
data_Sc2Tc2B4Ir3
_symmetry_space_group_name_H-M   'P 1'
_cell_length_a   3.17794900
_cell_length_b   8.49908900
_cell_length_c   9.84453700
_cell_angle_alpha   89.99926734
_cell_angle_beta   90.00000000
_cell_angle_gamma   90.00000000
_symmetry_Int_Tables_number   1
_chemical_formula_structural   Sc2Tc2B4Ir3
_chemical_formula_sum   'Sc4 Tc4 B8 Ir6'
_cell_volume   265.89770945
_cell_formula_units_Z   2
loop_
 _symmetry_equiv_pos_site_id
 _symmetry_equiv_pos_as_xyz
  1  'x, y, z'
loop_
 _atom_site_type_symbol
 _atom_site_label
 _atom_site_symmetry_multiplicity
 _atom_site_fract_x
 _atom_site_fract_y
 _atom_site_fract_z
 _atom_site_occupancy
  Sc  Sc0  1  0.500000  0.839124  0.181798  1
  Sc  Sc1  1  0.500000  0.160876  0.818202  1
  Sc  Sc2  1  0.500000  0.660899  0.681817  1
  Sc  Sc3  1  0.500000  0.339101  0.318183  1
  Tc  Tc4  1  0.000000  0.661441  0.952607  1
  Tc  Tc5  1  0.000000  0.338559  0.047393  1
  Tc  Tc6  1  0.000000  0.838569  0.452586  1
  Tc  Tc7  1  0.000000  0.161431  0.547414  1
  B  B8  1  0.500000  0.964751  0.588614  1
  B  B9  1  0.500000  0.035249  0.411386  1
  B  B10  1  0.500000  0.850696  0.899634  1
  B  B11  1  0.500000  0.149304  0.100366  1
  B  B12  1  0.500000  0.649299  0.399595  1
  B  B13  1  0.500000  0.350701  0.600405  1
  B  B14  1  0.500000  0.464816  0.911375  1
  B  B15  1  0.500000  0.535184  0.088625  1
  Ir  Ir16  1  0.000000  0.000000  0.000000  1
  Ir  Ir17  1  0.000000  0.406755  0.761495  1
  Ir  Ir18  1  0.000000  0.593245  0.238505  1
  Ir  Ir19  1  0.000000  0.500000  0.500000  1
  Ir  Ir20  1  0.000000  0.906748  0.738530  1
  Ir  Ir21  1  0.000000  0.093252  0.261470  1
