# generated using pymatgen
data_TmTa5(Be2Co5)2
_symmetry_space_group_name_H-M   'P 1'
_cell_length_a   8.70952924
_cell_length_b   8.70952924
_cell_length_c   3.24666300
_cell_angle_alpha   90.00000000
_cell_angle_beta   90.00000000
_cell_angle_gamma   90.02705086
_symmetry_Int_Tables_number   1
_chemical_formula_structural   TmTa5(Be2Co5)2
_chemical_formula_sum   'Tm1 Ta5 Be4 Co10'
_cell_volume   246.27851521
_cell_formula_units_Z   1
loop_
 _symmetry_equiv_pos_site_id
 _symmetry_equiv_pos_as_xyz
  1  'x, y, z'
loop_
 _atom_site_type_symbol
 _atom_site_label
 _atom_site_symmetry_multiplicity
 _atom_site_fract_x
 _atom_site_fract_y
 _atom_site_fract_z
 _atom_site_occupancy
  Tm  Tm0  1  0.824204  0.324204  0.000000  1
  Ta  Ta1  1  0.497593  0.501349  0.000000  1
  Ta  Ta2  1  0.001349  0.997593  0.000000  1
  Ta  Ta3  1  0.175545  0.675545  0.000000  1
  Ta  Ta4  1  0.324649  0.174587  0.000000  1
  Ta  Ta5  1  0.674587  0.824649  0.000000  1
  Be  Be6  1  0.612186  0.112186  0.000000  1
  Be  Be7  1  0.381110  0.881110  0.000000  1
  Be  Be8  1  0.125660  0.384904  0.000000  1
  Be  Be9  1  0.884904  0.625660  0.000000  1
  Co  Co10  1  0.495353  0.995353  0.500000  1
  Co  Co11  1  0.011157  0.511157  0.500000  1
  Co  Co12  1  0.713941  0.585379  0.500000  1
  Co  Co13  1  0.286830  0.433323  0.500000  1
  Co  Co14  1  0.215381  0.926683  0.500000  1
  Co  Co15  1  0.777583  0.052583  0.500000  1
  Co  Co16  1  0.426683  0.715381  0.500000  1
  Co  Co17  1  0.552583  0.277583  0.500000  1
  Co  Co18  1  0.085379  0.213941  0.500000  1
  Co  Co19  1  0.933323  0.786830  0.500000  1
