# generated using pymatgen
data_RbNb(WS3)2
_symmetry_space_group_name_H-M   'P 1'
_cell_length_a   5.60583100
_cell_length_b   5.60583293
_cell_length_c   17.22032200
_cell_angle_alpha   90.00000000
_cell_angle_beta   90.00000000
_cell_angle_gamma   119.99999449
_symmetry_Int_Tables_number   1
_chemical_formula_structural   RbNb(WS3)2
_chemical_formula_sum   'Rb2 Nb2 W4 S12'
_cell_volume   468.65372728
_cell_formula_units_Z   2
loop_
 _symmetry_equiv_pos_site_id
 _symmetry_equiv_pos_as_xyz
  1  'x, y, z'
loop_
 _atom_site_type_symbol
 _atom_site_label
 _atom_site_symmetry_multiplicity
 _atom_site_fract_x
 _atom_site_fract_y
 _atom_site_fract_z
 _atom_site_occupancy
  Rb  Rb0  1  0.000000  0.000000  0.000000  1
  Rb  Rb1  1  0.000000  0.000000  0.500000  1
  Nb  Nb2  1  0.666667  0.333333  0.250000  1
  Nb  Nb3  1  0.333333  0.666667  0.750000  1
  W  W4  1  0.000000  0.000000  0.750000  1
  W  W5  1  0.000000  0.000000  0.250000  1
  W  W6  1  0.333333  0.666667  0.250000  1
  W  W7  1  0.666667  0.333333  0.750000  1
  S  S8  1  0.328116  0.992983  0.158769  1
  S  S9  1  0.007017  0.335133  0.158769  1
  S  S10  1  0.664867  0.671884  0.158769  1
  S  S11  1  0.335133  0.328116  0.658769  1
  S  S12  1  0.664867  0.671884  0.341231  1
  S  S13  1  0.671884  0.007017  0.658769  1
  S  S14  1  0.992983  0.664867  0.658769  1
  S  S15  1  0.992983  0.664867  0.841231  1
  S  S16  1  0.335133  0.328116  0.841231  1
  S  S17  1  0.007017  0.335133  0.341231  1
  S  S18  1  0.328116  0.992983  0.341231  1
  S  S19  1  0.671884  0.007017  0.841231  1
