# generated using pymatgen
data_Ho4ErCo2Ag
_symmetry_space_group_name_H-M   'P 1'
_cell_length_a   8.48030172
_cell_length_b   8.48030208
_cell_length_c   8.48030161
_cell_angle_alpha   127.53111045
_cell_angle_beta   127.53111789
_cell_angle_gamma   77.38584586
_symmetry_Int_Tables_number   1
_chemical_formula_structural   Ho4ErCo2Ag
_chemical_formula_sum   'Ho8 Er2 Co4 Ag2'
_cell_volume   372.05259272
_cell_formula_units_Z   2
loop_
 _symmetry_equiv_pos_site_id
 _symmetry_equiv_pos_as_xyz
  1  'x, y, z'
loop_
 _atom_site_type_symbol
 _atom_site_label
 _atom_site_symmetry_multiplicity
 _atom_site_fract_x
 _atom_site_fract_y
 _atom_site_fract_z
 _atom_site_occupancy
  Ho  Ho0  1  0.706180  0.528534  0.500000  1
  Ho  Ho1  1  0.471466  0.971466  0.177646  1
  Ho  Ho2  1  0.793820  0.293820  0.822354  1
  Ho  Ho3  1  0.528534  0.028534  0.822354  1
  Ho  Ho4  1  0.028534  0.206180  0.500000  1
  Ho  Ho5  1  0.293820  0.471466  0.500000  1
  Ho  Ho6  1  0.206180  0.706180  0.177646  1
  Ho  Ho7  1  0.971466  0.793820  0.500000  1
  Er  Er8  1  0.000000  0.000000  0.000000  1
  Er  Er9  1  0.500000  0.500000  0.000000  1
  Co  Co10  1  0.135736  0.635736  0.771471  1
  Co  Co11  1  0.864264  0.364264  0.228529  1
  Co  Co12  1  0.635736  0.864264  0.500000  1
  Co  Co13  1  0.364264  0.135736  0.500000  1
  Ag  Ag14  1  0.250000  0.250000  0.000000  1
  Ag  Ag15  1  0.750000  0.750000  0.000000  1
