# generated using pymatgen
data_Pr6NpO12
_symmetry_space_group_name_H-M   'P 1'
_cell_length_a   6.85734330
_cell_length_b   6.85734325
_cell_length_c   6.85734271
_cell_angle_alpha   98.68951314
_cell_angle_beta   98.68952468
_cell_angle_gamma   98.68951446
_symmetry_Int_Tables_number   1
_chemical_formula_structural   Pr6NpO12
_chemical_formula_sum   'Pr6 Np1 O12'
_cell_volume   310.06381158
_cell_formula_units_Z   1
loop_
 _symmetry_equiv_pos_site_id
 _symmetry_equiv_pos_as_xyz
  1  'x, y, z'
loop_
 _atom_site_type_symbol
 _atom_site_label
 _atom_site_symmetry_multiplicity
 _atom_site_fract_x
 _atom_site_fract_y
 _atom_site_fract_z
 _atom_site_occupancy
  Pr  Pr0  1  0.854507  0.388856  0.686398  1
  Pr  Pr1  1  0.686398  0.854507  0.388856  1
  Pr  Pr2  1  0.388856  0.686398  0.854507  1
  Pr  Pr3  1  0.145493  0.611144  0.313602  1
  Pr  Pr4  1  0.313602  0.145493  0.611144  1
  Pr  Pr5  1  0.611144  0.313602  0.145493  1
  Np  Np6  1  0.000000  0.000000  0.000000  1
  O  O7  1  0.959140  0.297906  0.068347  1
  O  O8  1  0.068347  0.959140  0.297906  1
  O  O9  1  0.297906  0.068347  0.959140  1
  O  O10  1  0.040860  0.702094  0.931653  1
  O  O11  1  0.931653  0.040860  0.702094  1
  O  O12  1  0.702094  0.931653  0.040860  1
  O  O13  1  0.591701  0.177418  0.437599  1
  O  O14  1  0.437599  0.591701  0.177418  1
  O  O15  1  0.177418  0.437599  0.591701  1
  O  O16  1  0.408299  0.822582  0.562401  1
  O  O17  1  0.562401  0.408299  0.822582  1
  O  O18  1  0.822582  0.562401  0.408299  1
