# generated using pymatgen
data_CeHo2In3PdPt2
_symmetry_space_group_name_H-M   'P 1'
_cell_length_a   7.75765100
_cell_length_b   7.79852222
_cell_length_c   3.78528900
_cell_angle_alpha   90.00000000
_cell_angle_beta   90.00000000
_cell_angle_gamma   119.82677931
_symmetry_Int_Tables_number   1
_chemical_formula_structural   CeHo2In3PdPt2
_chemical_formula_sum   'Ce1 Ho2 In3 Pd1 Pt2'
_cell_volume   198.66787121
_cell_formula_units_Z   1
loop_
 _symmetry_equiv_pos_site_id
 _symmetry_equiv_pos_as_xyz
  1  'x, y, z'
loop_
 _atom_site_type_symbol
 _atom_site_label
 _atom_site_symmetry_multiplicity
 _atom_site_fract_x
 _atom_site_fract_y
 _atom_site_fract_z
 _atom_site_occupancy
  Ce  Ce0  1  0.588778  0.000000  0.500000  1
  Ho  Ho1  1  0.410451  0.409428  0.500000  1
  Ho  Ho2  1  0.001023  0.590572  0.500000  1
  In  In3  1  0.739939  0.734435  0.000000  1
  In  In4  1  0.005504  0.265565  0.000000  1
  In  In5  1  0.254557  0.000000  0.000000  1
  Pd  Pd6  1  0.997739  0.000000  0.500000  1
  Pt  Pt7  1  0.335505  0.669001  0.000000  1
  Pt  Pt8  1  0.666505  0.330999  0.000000  1
