# generated using pymatgen
data_Mg3CdTe(PN2)6
_symmetry_space_group_name_H-M   'P 1'
_cell_length_a   7.36923064
_cell_length_b   7.36923102
_cell_length_c   7.36923237
_cell_angle_alpha   109.44708751
_cell_angle_beta   109.44707639
_cell_angle_gamma   109.44707342
_symmetry_Int_Tables_number   1
_chemical_formula_structural   Mg3CdTe(PN2)6
_chemical_formula_sum   'Mg3 Cd1 Te1 P6 N12'
_cell_volume   308.34169396
_cell_formula_units_Z   1
loop_
 _symmetry_equiv_pos_site_id
 _symmetry_equiv_pos_as_xyz
  1  'x, y, z'
loop_
 _atom_site_type_symbol
 _atom_site_label
 _atom_site_symmetry_multiplicity
 _atom_site_fract_x
 _atom_site_fract_y
 _atom_site_fract_z
 _atom_site_occupancy
  Mg  Mg0  1  0.004777  0.619673  0.004777  1
  Mg  Mg1  1  0.619673  0.004777  0.004777  1
  Mg  Mg2  1  0.004777  0.004777  0.619673  1
  Cd  Cd3  1  0.329499  0.329499  0.329499  1
  Te  Te4  1  0.965164  0.965164  0.965164  1
  P  P5  1  0.504704  0.253794  0.754828  1
  P  P6  1  0.504704  0.754828  0.253794  1
  P  P7  1  0.754828  0.253794  0.504704  1
  P  P8  1  0.253794  0.504704  0.754828  1
  P  P9  1  0.754828  0.504704  0.253794  1
  P  P10  1  0.253794  0.754828  0.504704  1
  N  N11  1  0.003629  0.723957  0.427882  1
  N  N12  1  0.287965  0.717593  0.287965  1
  N  N13  1  0.290587  0.577207  0.577207  1
  N  N14  1  0.577207  0.577207  0.290587  1
  N  N15  1  0.577207  0.290587  0.577207  1
  N  N16  1  0.723957  0.003629  0.427882  1
  N  N17  1  0.427882  0.003629  0.723957  1
  N  N18  1  0.723957  0.427882  0.003629  1
  N  N19  1  0.287965  0.287965  0.717593  1
  N  N20  1  0.717593  0.287965  0.287965  1
  N  N21  1  0.003629  0.427882  0.723957  1
  N  N22  1  0.427882  0.723957  0.003629  1
