# generated using pymatgen
data_NaLaPr5IrBr12
_symmetry_space_group_name_H-M   'P 1'
_cell_length_a   9.76112023
_cell_length_b   9.61019113
_cell_length_c   9.62645174
_cell_angle_alpha   106.93985173
_cell_angle_beta   107.17718457
_cell_angle_gamma   107.49297039
_symmetry_Int_Tables_number   1
_chemical_formula_structural   NaLaPr5IrBr12
_chemical_formula_sum   'Na1 La1 Pr5 Ir1 Br12'
_cell_volume   747.82049394
_cell_formula_units_Z   1
loop_
 _symmetry_equiv_pos_site_id
 _symmetry_equiv_pos_as_xyz
  1  'x, y, z'
loop_
 _atom_site_type_symbol
 _atom_site_label
 _atom_site_symmetry_multiplicity
 _atom_site_fract_x
 _atom_site_fract_y
 _atom_site_fract_z
 _atom_site_occupancy
  Na  Na0  1  0.500262  0.499898  0.500544  1
  La  La1  1  0.112859  0.318930  0.029089  1
  Pr  Pr2  1  0.327862  0.031322  0.118167  1
  Pr  Pr3  1  0.028891  0.111839  0.315849  1
  Pr  Pr4  1  0.970770  0.886971  0.683543  1
  Pr  Pr5  1  0.672227  0.969183  0.881907  1
  Pr  Pr6  1  0.887471  0.684094  0.970429  1
  Ir  Ir7  1  0.001044  0.003168  0.999945  1
  Br  Br8  1  0.213579  0.683703  0.071609  1
  Br  Br9  1  0.455369  0.370271  0.158141  1
  Br  Br10  1  0.685842  0.072159  0.215481  1
  Br  Br11  1  0.928133  0.782920  0.315676  1
  Br  Br12  1  0.159347  0.455578  0.374238  1
  Br  Br13  1  0.368267  0.156224  0.454399  1
  Br  Br14  1  0.631534  0.842931  0.545412  1
  Br  Br15  1  0.841054  0.544247  0.629423  1
  Br  Br16  1  0.070995  0.213925  0.680394  1
  Br  Br17  1  0.313839  0.926971  0.784474  1
  Br  Br18  1  0.547656  0.629196  0.843499  1
  Br  Br19  1  0.783005  0.316472  0.927786  1
