# generated using pymatgen
data_Tb2ErCo9(SiB2)2
_symmetry_space_group_name_H-M   'P 1'
_cell_length_a   5.12521200
_cell_length_b   5.12521218
_cell_length_c   9.36431100
_cell_angle_alpha   90.00000000
_cell_angle_beta   90.00000000
_cell_angle_gamma   119.99999884
_symmetry_Int_Tables_number   1
_chemical_formula_structural   Tb2ErCo9(SiB2)2
_chemical_formula_sum   'Tb2 Er1 Co9 Si2 B4'
_cell_volume   213.02479175
_cell_formula_units_Z   1
loop_
 _symmetry_equiv_pos_site_id
 _symmetry_equiv_pos_as_xyz
  1  'x, y, z'
loop_
 _atom_site_type_symbol
 _atom_site_label
 _atom_site_symmetry_multiplicity
 _atom_site_fract_x
 _atom_site_fract_y
 _atom_site_fract_z
 _atom_site_occupancy
  Tb  Tb0  1  0.000000  0.000000  0.000102  1
  Tb  Tb1  1  0.000000  0.000000  0.661303  1
  Er  Er2  1  0.000000  0.000000  0.338523  1
  Co  Co3  1  0.500000  0.500000  0.499775  1
  Co  Co4  1  0.500000  0.000000  0.499775  1
  Co  Co5  1  0.000000  0.500000  0.499775  1
  Co  Co6  1  0.500000  0.500000  0.803643  1
  Co  Co7  1  0.500000  0.000000  0.803643  1
  Co  Co8  1  0.000000  0.500000  0.803643  1
  Co  Co9  1  0.500000  0.500000  0.196629  1
  Co  Co10  1  0.500000  0.000000  0.196629  1
  Co  Co11  1  0.000000  0.500000  0.196629  1
  Si  Si12  1  0.666667  0.333333  0.999988  1
  Si  Si13  1  0.333333  0.666667  0.999988  1
  B  B14  1  0.666667  0.333333  0.654256  1
  B  B15  1  0.333333  0.666667  0.654256  1
  B  B16  1  0.333333  0.666667  0.345723  1
  B  B17  1  0.666667  0.333333  0.345723  1
