# generated using pymatgen
data_Pr20Sn9Sb7
_symmetry_space_group_name_H-M   'P 1'
_cell_length_a   8.47374422
_cell_length_b   8.51040637
_cell_length_c   16.10611800
_cell_angle_alpha   90.15117033
_cell_angle_beta   89.69101523
_cell_angle_gamma   89.79529666
_symmetry_Int_Tables_number   1
_chemical_formula_structural   Pr20Sn9Sb7
_chemical_formula_sum   'Pr20 Sn9 Sb7'
_cell_volume   1161.46440460
_cell_formula_units_Z   1
loop_
 _symmetry_equiv_pos_site_id
 _symmetry_equiv_pos_as_xyz
  1  'x, y, z'
loop_
 _atom_site_type_symbol
 _atom_site_label
 _atom_site_symmetry_multiplicity
 _atom_site_fract_x
 _atom_site_fract_y
 _atom_site_fract_z
 _atom_site_occupancy
  Pr  Pr0  1  0.391287  0.837412  0.882857  1
  Pr  Pr1  1  0.893493  0.664174  0.616490  1
  Pr  Pr2  1  0.606855  0.162781  0.383422  1
  Pr  Pr3  1  0.109947  0.336566  0.117986  1
  Pr  Pr4  1  0.609207  0.162930  0.117340  1
  Pr  Pr5  1  0.107086  0.336275  0.383548  1
  Pr  Pr6  1  0.392282  0.837572  0.616913  1
  Pr  Pr7  1  0.890111  0.663930  0.882295  1
  Pr  Pr8  1  0.549209  0.329153  0.893594  1
  Pr  Pr9  1  0.051312  0.172568  0.606474  1
  Pr  Pr10  1  0.448829  0.671303  0.393767  1
  Pr  Pr11  1  0.952016  0.824219  0.105934  1
  Pr  Pr12  1  0.454016  0.670495  0.105337  1
  Pr  Pr13  1  0.948658  0.827612  0.393228  1
  Pr  Pr14  1  0.551524  0.328350  0.606835  1
  Pr  Pr15  1  0.043755  0.178098  0.896162  1
  Pr  Pr16  1  0.219520  0.498366  0.750390  1
  Pr  Pr17  1  0.719615  0.004415  0.750474  1
  Pr  Pr18  1  0.780737  0.501668  0.247997  1
  Pr  Pr19  1  0.280399  0.995880  0.249195  1
  Sn  Sn20  1  0.771715  0.474723  0.044620  1
  Sn  Sn21  1  0.591065  0.624767  0.749205  1
  Sn  Sn22  1  0.090517  0.878934  0.750252  1
  Sn  Sn23  1  0.409466  0.376002  0.251048  1
  Sn  Sn24  1  0.908845  0.122480  0.250686  1
  Sn  Sn25  1  0.350634  0.138311  0.750493  1
  Sn  Sn26  1  0.852075  0.363816  0.749506  1
  Sn  Sn27  1  0.648737  0.861692  0.250395  1
  Sn  Sn28  1  0.149098  0.636238  0.250503  1
  Sb  Sb29  1  0.267129  0.019126  0.046700  1
  Sb  Sb30  1  0.766699  0.481772  0.452395  1
  Sb  Sb31  1  0.733051  0.982278  0.547826  1
  Sb  Sb32  1  0.230674  0.521827  0.953286  1
  Sb  Sb33  1  0.730060  0.979558  0.952902  1
  Sb  Sb34  1  0.234175  0.517747  0.547821  1
  Sb  Sb35  1  0.266198  0.016963  0.452126  1
