# generated using pymatgen
data_Ho3Er4Co4Tc2Sn23
_symmetry_space_group_name_H-M   'P 1'
_cell_length_a   9.72900029
_cell_length_b   9.72900143
_cell_length_c   9.97835023
_cell_angle_alpha   89.82678346
_cell_angle_beta   90.17321492
_cell_angle_gamma   119.42509795
_symmetry_Int_Tables_number   1
_chemical_formula_structural   Ho3Er4Co4Tc2Sn23
_chemical_formula_sum   'Ho3 Er4 Co4 Tc2 Sn23'
_cell_volume   822.64046346
_cell_formula_units_Z   1
loop_
 _symmetry_equiv_pos_site_id
 _symmetry_equiv_pos_as_xyz
  1  'x, y, z'
loop_
 _atom_site_type_symbol
 _atom_site_label
 _atom_site_symmetry_multiplicity
 _atom_site_fract_x
 _atom_site_fract_y
 _atom_site_fract_z
 _atom_site_occupancy
  Ho  Ho0  1  0.481726  0.518274  0.307248  1
  Ho  Ho1  1  0.518274  0.481726  0.692752  1
  Ho  Ho2  1  0.000000  0.000000  0.000000  1
  Er  Er3  1  0.484069  0.962270  0.305455  1
  Er  Er4  1  0.515931  0.037730  0.694545  1
  Er  Er5  1  0.037730  0.515931  0.305455  1
  Er  Er6  1  0.962270  0.484069  0.694545  1
  Co  Co7  1  0.829817  0.658289  0.198561  1
  Co  Co8  1  0.170183  0.341711  0.801439  1
  Co  Co9  1  0.341711  0.170183  0.198561  1
  Co  Co10  1  0.658289  0.829817  0.801439  1
  Tc  Tc11  1  0.835783  0.164217  0.203479  1
  Tc  Tc12  1  0.164217  0.835783  0.796521  1
  Sn  Sn13  1  0.118166  0.881834  0.272154  1
  Sn  Sn14  1  0.881834  0.118166  0.727846  1
  Sn  Sn15  1  0.130315  0.240268  0.270275  1
  Sn  Sn16  1  0.869685  0.759732  0.729725  1
  Sn  Sn17  1  0.759732  0.869685  0.270275  1
  Sn  Sn18  1  0.240268  0.130315  0.729725  1
  Sn  Sn19  1  0.779772  0.220228  0.461217  1
  Sn  Sn20  1  0.220228  0.779772  0.538783  1
  Sn  Sn21  1  0.782063  0.563361  0.454002  1
  Sn  Sn22  1  0.217937  0.436639  0.545998  1
  Sn  Sn23  1  0.436639  0.217937  0.454002  1
  Sn  Sn24  1  0.563361  0.782063  0.545998  1
  Sn  Sn25  1  0.347643  0.001253  0.003876  1
  Sn  Sn26  1  0.652357  0.998747  0.996124  1
  Sn  Sn27  1  0.001253  0.347643  0.996124  1
  Sn  Sn28  1  0.998747  0.652357  0.003876  1
  Sn  Sn29  1  0.651485  0.651485  0.000000  1
  Sn  Sn30  1  0.348515  0.348515  0.000000  1
  Sn  Sn31  1  0.333347  0.666653  0.123020  1
  Sn  Sn32  1  0.666653  0.333347  0.876980  1
  Sn  Sn33  1  0.333012  0.666988  0.817951  1
  Sn  Sn34  1  0.666988  0.333012  0.182049  1
  Sn  Sn35  1  0.000000  0.000000  0.500000  1
