# generated using pymatgen
data_Y6MgMn(Co4P3)4
_symmetry_space_group_name_H-M   'P 1'
_cell_length_a   3.72119700
_cell_length_b   10.60971100
_cell_length_c   12.27220800
_cell_angle_alpha   90.00000000
_cell_angle_beta   90.00000000
_cell_angle_gamma   90.00000000
_symmetry_Int_Tables_number   1
_chemical_formula_structural   Y6MgMn(Co4P3)4
_chemical_formula_sum   'Y6 Mg1 Mn1 Co16 P12'
_cell_volume   484.51689327
_cell_formula_units_Z   1
loop_
 _symmetry_equiv_pos_site_id
 _symmetry_equiv_pos_as_xyz
  1  'x, y, z'
loop_
 _atom_site_type_symbol
 _atom_site_label
 _atom_site_symmetry_multiplicity
 _atom_site_fract_x
 _atom_site_fract_y
 _atom_site_fract_z
 _atom_site_occupancy
  Y  Y0  1  0.000000  0.500000  0.525015  1
  Y  Y1  1  0.500000  0.000000  0.478098  1
  Y  Y2  1  0.500000  0.821101  0.206391  1
  Y  Y3  1  0.500000  0.178899  0.206391  1
  Y  Y4  1  0.000000  0.681827  0.794469  1
  Y  Y5  1  0.000000  0.318173  0.794469  1
  Mg  Mg6  1  0.500000  0.500000  0.152884  1
  Mn  Mn7  1  0.000000  0.000000  0.838120  1
  Co  Co8  1  0.500000  0.500000  0.704233  1
  Co  Co9  1  0.000000  0.000000  0.296870  1
  Co  Co10  1  0.000000  0.500000  0.986104  1
  Co  Co11  1  0.500000  0.000000  0.012634  1
  Co  Co12  1  0.500000  0.329102  0.992460  1
  Co  Co13  1  0.500000  0.670898  0.992460  1
  Co  Co14  1  0.000000  0.163146  0.002395  1
  Co  Co15  1  0.000000  0.836854  0.002395  1
  Co  Co16  1  0.500000  0.295084  0.433354  1
  Co  Co17  1  0.500000  0.704916  0.433354  1
  Co  Co18  1  0.000000  0.202537  0.571185  1
  Co  Co19  1  0.000000  0.797463  0.571185  1
  Co  Co20  1  0.500000  0.880376  0.709036  1
  Co  Co21  1  0.500000  0.119624  0.709036  1
  Co  Co22  1  0.000000  0.622934  0.293894  1
  Co  Co23  1  0.000000  0.377066  0.293894  1
  P  P24  1  0.500000  0.500000  0.883680  1
  P  P25  1  0.000000  0.000000  0.116600  1
  P  P26  1  0.500000  0.500000  0.352956  1
  P  P27  1  0.000000  0.000000  0.653671  1
  P  P28  1  0.500000  0.309869  0.616842  1
  P  P29  1  0.500000  0.690131  0.616842  1
  P  P30  1  0.000000  0.189445  0.385658  1
  P  P31  1  0.000000  0.810555  0.385658  1
  P  P32  1  0.500000  0.849015  0.891010  1
  P  P33  1  0.500000  0.150985  0.891010  1
  P  P34  1  0.000000  0.662352  0.102874  1
  P  P35  1  0.000000  0.337648  0.102874  1
