# generated using pymatgen
data_NiAs12Os2Pd
_symmetry_space_group_name_H-M   'P 1'
_cell_length_a   7.38185248
_cell_length_b   7.39337466
_cell_length_c   8.54496500
_cell_angle_alpha   54.66631174
_cell_angle_beta   55.15504573
_cell_angle_gamma   70.80912389
_symmetry_Int_Tables_number   1
_chemical_formula_structural   NiAs12Os2Pd
_chemical_formula_sum   'Ni1 As12 Os2 Pd1'
_cell_volume   312.23706295
_cell_formula_units_Z   1
loop_
 _symmetry_equiv_pos_site_id
 _symmetry_equiv_pos_as_xyz
  1  'x, y, z'
loop_
 _atom_site_type_symbol
 _atom_site_label
 _atom_site_symmetry_multiplicity
 _atom_site_fract_x
 _atom_site_fract_y
 _atom_site_fract_z
 _atom_site_occupancy
  Ni  Ni0  1  0.500000  0.000000  0.500000  1
  As  As1  1  0.147535  0.146211  0.196840  1
  As  As2  1  0.852465  0.853789  0.803160  1
  As  As3  1  0.845019  0.860021  0.498377  1
  As  As4  1  0.154981  0.139979  0.501623  1
  As  As5  1  0.795236  0.504250  0.345205  1
  As  As6  1  0.204764  0.495750  0.654795  1
  As  As7  1  0.505515  0.803882  0.347530  1
  As  As8  1  0.494485  0.196118  0.652470  1
  As  As9  1  0.646270  0.347312  0.858074  1
  As  As10  1  0.353730  0.652688  0.141926  1
  As  As11  1  0.651665  0.342746  0.151640  1
  As  As12  1  0.348335  0.657254  0.848360  1
  Os  Os13  1  0.000000  0.500000  0.000000  1
  Os  Os14  1  0.500000  0.000000  0.000000  1
  Pd  Pd15  1  0.000000  0.500000  0.500000  1
