# generated using pymatgen
data_Ta4Mn5VGe2
_symmetry_space_group_name_H-M   'P 1'
_cell_length_a   4.89863388
_cell_length_b   4.94452776
_cell_length_c   8.05388700
_cell_angle_alpha   90.00000000
_cell_angle_beta   90.00000000
_cell_angle_gamma   120.31041233
_symmetry_Int_Tables_number   1
_chemical_formula_structural   Ta4Mn5VGe2
_chemical_formula_sum   'Ta4 Mn5 V1 Ge2'
_cell_volume   168.41044001
_cell_formula_units_Z   1
loop_
 _symmetry_equiv_pos_site_id
 _symmetry_equiv_pos_as_xyz
  1  'x, y, z'
loop_
 _atom_site_type_symbol
 _atom_site_label
 _atom_site_symmetry_multiplicity
 _atom_site_fract_x
 _atom_site_fract_y
 _atom_site_fract_z
 _atom_site_occupancy
  Ta  Ta0  1  0.333137  0.666569  0.431980  1
  Ta  Ta1  1  0.666922  0.333460  0.562874  1
  Ta  Ta2  1  0.666922  0.333460  0.937126  1
  Ta  Ta3  1  0.333137  0.666569  0.068020  1
  Mn  Mn4  1  0.824987  0.172443  0.250000  1
  Mn  Mn5  1  0.824987  0.652545  0.250000  1
  Mn  Mn6  1  0.345984  0.172993  0.250000  1
  Mn  Mn7  1  0.172748  0.828482  0.750000  1
  Mn  Mn8  1  0.172748  0.344265  0.750000  1
  V  V9  1  0.644114  0.822057  0.750000  1
  Ge  Ge10  1  0.007156  0.003578  0.497135  1
  Ge  Ge11  1  0.007156  0.003578  0.002865  1
