# generated using pymatgen
data_Yb4HoTm5Ir4
_symmetry_space_group_name_H-M   'P 1'
_cell_length_a   6.47626433
_cell_length_b   7.24646574
_cell_length_c   8.42643027
_cell_angle_alpha   97.22817483
_cell_angle_beta   112.65017188
_cell_angle_gamma   90.07597805
_symmetry_Int_Tables_number   1
_chemical_formula_structural   Yb4HoTm5Ir4
_chemical_formula_sum   'Yb4 Ho1 Tm5 Ir4'
_cell_volume   361.51679510
_cell_formula_units_Z   1
loop_
 _symmetry_equiv_pos_site_id
 _symmetry_equiv_pos_as_xyz
  1  'x, y, z'
loop_
 _atom_site_type_symbol
 _atom_site_label
 _atom_site_symmetry_multiplicity
 _atom_site_fract_x
 _atom_site_fract_y
 _atom_site_fract_z
 _atom_site_occupancy
  Yb  Yb0  1  0.974378  0.920888  0.183122  1
  Yb  Yb1  1  0.791178  0.579036  0.817003  1
  Yb  Yb2  1  0.025955  0.079376  0.816976  1
  Yb  Yb3  1  0.208652  0.420697  0.183044  1
  Ho  Ho4  1  0.647330  0.818678  0.439939  1
  Tm  Tm5  1  0.207366  0.681124  0.560526  1
  Tm  Tm6  1  0.352796  0.181300  0.560510  1
  Tm  Tm7  1  0.792928  0.318699  0.439604  1
  Tm  Tm8  1  0.431507  0.749952  0.999612  1
  Tm  Tm9  1  0.568391  0.250027  0.999996  1
  Ir  Ir10  1  0.812997  0.572907  0.227742  1
  Ir  Ir11  1  0.584283  0.926711  0.772375  1
  Ir  Ir12  1  0.187238  0.426573  0.771736  1
  Ir  Ir13  1  0.415002  0.074032  0.227817  1
