# generated using pymatgen
data_Tb2Tm2Al15(GaIr2)3
_symmetry_space_group_name_H-M   'P 1'
_cell_length_a   7.52213617
_cell_length_b   7.52407875
_cell_length_c   9.52346900
_cell_angle_alpha   90.00000000
_cell_angle_beta   90.00000000
_cell_angle_gamma   119.43917600
_symmetry_Int_Tables_number   1
_chemical_formula_structural   Tb2Tm2Al15(GaIr2)3
_chemical_formula_sum   'Tb2 Tm2 Al15 Ga3 Ir6'
_cell_volume   469.40422189
_cell_formula_units_Z   1
loop_
 _symmetry_equiv_pos_site_id
 _symmetry_equiv_pos_as_xyz
  1  'x, y, z'
loop_
 _atom_site_type_symbol
 _atom_site_label
 _atom_site_symmetry_multiplicity
 _atom_site_fract_x
 _atom_site_fract_y
 _atom_site_fract_z
 _atom_site_occupancy
  Tb  Tb0  1  0.998270  0.675110  0.250000  1
  Tb  Tb1  1  0.670435  0.991574  0.250000  1
  Tm  Tm2  1  0.005290  0.325196  0.750000  1
  Tm  Tm3  1  0.324576  0.003504  0.750000  1
  Al  Al4  1  0.002067  0.335449  0.071759  1
  Al  Al5  1  0.998863  0.664015  0.924688  1
  Al  Al6  1  0.998863  0.664015  0.575312  1
  Al  Al7  1  0.336079  0.003691  0.427942  1
  Al  Al8  1  0.002067  0.335449  0.428241  1
  Al  Al9  1  0.664175  0.999649  0.575300  1
  Al  Al10  1  0.664175  0.999649  0.924700  1
  Al  Al11  1  0.336079  0.003691  0.072058  1
  Al  Al12  1  0.333570  0.333755  0.559540  1
  Al  Al13  1  0.665883  0.665495  0.449350  1
  Al  Al14  1  0.665883  0.665495  0.050650  1
  Al  Al15  1  0.333570  0.333755  0.940460  1
  Al  Al16  1  0.662495  0.449322  0.750000  1
  Al  Al17  1  0.549627  0.339029  0.250000  1
  Al  Al18  1  0.450042  0.662526  0.750000  1
  Ga  Ga19  1  0.132616  0.133171  0.250000  1
  Ga  Ga20  1  0.865962  0.865868  0.750000  1
  Ga  Ga21  1  0.339001  0.545466  0.250000  1
  Ir  Ir22  1  0.671242  0.328983  0.999739  1
  Ir  Ir23  1  0.328356  0.672628  0.997369  1
  Ir  Ir24  1  0.328356  0.672628  0.502631  1
  Ir  Ir25  1  0.671242  0.328983  0.500261  1
  Ir  Ir26  1  0.000608  0.000952  0.999088  1
  Ir  Ir27  1  0.000608  0.000952  0.500912  1
