# generated using pymatgen
data_Tb8Ho4CoSi8Ni3
_symmetry_space_group_name_H-M   'P 1'
_cell_length_a   4.11974300
_cell_length_b   11.17359650
_cell_length_c   11.33262951
_cell_angle_alpha   89.96582583
_cell_angle_beta   90.00000000
_cell_angle_gamma   90.00000000
_symmetry_Int_Tables_number   1
_chemical_formula_structural   Tb8Ho4CoSi8Ni3
_chemical_formula_sum   'Tb8 Ho4 Co1 Si8 Ni3'
_cell_volume   521.66742909
_cell_formula_units_Z   1
loop_
 _symmetry_equiv_pos_site_id
 _symmetry_equiv_pos_as_xyz
  1  'x, y, z'
loop_
 _atom_site_type_symbol
 _atom_site_label
 _atom_site_symmetry_multiplicity
 _atom_site_fract_x
 _atom_site_fract_y
 _atom_site_fract_z
 _atom_site_occupancy
  Tb  Tb0  1  0.250000  0.128208  0.557736  1
  Tb  Tb1  1  0.250000  0.374795  0.055682  1
  Tb  Tb2  1  0.750000  0.874926  0.443144  1
  Tb  Tb3  1  0.750000  0.626453  0.942941  1
  Tb  Tb4  1  0.250000  0.803621  0.716238  1
  Tb  Tb5  1  0.250000  0.695098  0.215701  1
  Tb  Tb6  1  0.750000  0.197136  0.284544  1
  Tb  Tb7  1  0.750000  0.301455  0.780953  1
  Ho  Ho8  1  0.250000  0.058982  0.883297  1
  Ho  Ho9  1  0.250000  0.439815  0.382374  1
  Ho  Ho10  1  0.750000  0.941152  0.118362  1
  Ho  Ho11  1  0.750000  0.557351  0.617865  1
  Co  Co12  1  0.250000  0.367712  0.629266  1
  Si  Si13  1  0.250000  0.815506  0.976531  1
  Si  Si14  1  0.250000  0.684363  0.475292  1
  Si  Si15  1  0.750000  0.183989  0.024310  1
  Si  Si16  1  0.750000  0.316587  0.523440  1
  Si  Si17  1  0.250000  0.497019  0.800841  1
  Si  Si18  1  0.250000  0.001943  0.301409  1
  Si  Si19  1  0.750000  0.501041  0.197640  1
  Si  Si20  1  0.750000  0.998408  0.698192  1
  Ni  Ni21  1  0.250000  0.133635  0.129554  1
  Ni  Ni22  1  0.750000  0.630433  0.371929  1
  Ni  Ni23  1  0.750000  0.870373  0.872757  1
