# generated using pymatgen
data_Nd6Al23VOs8
_symmetry_space_group_name_H-M   'P 1'
_cell_length_a   8.91542000
_cell_length_b   8.91541896
_cell_length_c   9.65849400
_cell_angle_alpha   90.00000000
_cell_angle_beta   90.00000000
_cell_angle_gamma   120.00000387
_symmetry_Int_Tables_number   1
_chemical_formula_structural   Nd6Al23VOs8
_chemical_formula_sum   'Nd6 Al23 V1 Os8'
_cell_volume   664.84987729
_cell_formula_units_Z   1
loop_
 _symmetry_equiv_pos_site_id
 _symmetry_equiv_pos_as_xyz
  1  'x, y, z'
loop_
 _atom_site_type_symbol
 _atom_site_label
 _atom_site_symmetry_multiplicity
 _atom_site_fract_x
 _atom_site_fract_y
 _atom_site_fract_z
 _atom_site_occupancy
  Nd  Nd0  1  0.193798  0.387597  0.247932  1
  Nd  Nd1  1  0.807839  0.615678  0.750174  1
  Nd  Nd2  1  0.612403  0.806202  0.247932  1
  Nd  Nd3  1  0.384322  0.192161  0.750174  1
  Nd  Nd4  1  0.193798  0.806202  0.247932  1
  Nd  Nd5  1  0.807839  0.192161  0.750174  1
  Al  Al6  1  0.666667  0.333333  0.984113  1
  Al  Al7  1  0.666667  0.333333  0.514583  1
  Al  Al8  1  0.333333  0.666667  0.486985  1
  Al  Al9  1  0.162576  0.325152  0.574041  1
  Al  Al10  1  0.837135  0.674271  0.426607  1
  Al  Al11  1  0.674848  0.837424  0.574041  1
  Al  Al12  1  0.835849  0.671699  0.075375  1
  Al  Al13  1  0.325729  0.162865  0.426607  1
  Al  Al14  1  0.160565  0.321131  0.926535  1
  Al  Al15  1  0.162576  0.837424  0.574041  1
  Al  Al16  1  0.328301  0.164151  0.075375  1
  Al  Al17  1  0.837135  0.162865  0.426607  1
  Al  Al18  1  0.678869  0.839435  0.926535  1
  Al  Al19  1  0.835849  0.164151  0.075375  1
  Al  Al20  1  0.160565  0.839435  0.926535  1
  Al  Al21  1  0.562889  0.125779  0.253005  1
  Al  Al22  1  0.439865  0.879731  0.749539  1
  Al  Al23  1  0.874221  0.437111  0.253005  1
  Al  Al24  1  0.120269  0.560135  0.749539  1
  Al  Al25  1  0.562889  0.437111  0.253005  1
  Al  Al26  1  0.439865  0.560135  0.749539  1
  Al  Al27  1  0.000000  0.000000  0.251517  1
  Al  Al28  1  0.000000  0.000000  0.750356  1
  V  V29  1  0.333333  0.666667  0.977584  1
  Os  Os30  1  0.494880  0.989760  0.005100  1
  Os  Os31  1  0.010240  0.505120  0.005100  1
  Os  Os32  1  0.499332  0.998664  0.502603  1
  Os  Os33  1  0.494880  0.505120  0.005100  1
  Os  Os34  1  0.001336  0.500668  0.502603  1
  Os  Os35  1  0.499332  0.500668  0.502603  1
  Os  Os36  1  0.000000  0.000000  0.001946  1
  Os  Os37  1  0.000000  0.000000  0.500182  1
