# generated using pymatgen
data_Hf16Nb3Ni4Au
_symmetry_space_group_name_H-M   'P 1'
_cell_length_a   8.74429277
_cell_length_b   8.74429194
_cell_length_c   8.74429300
_cell_angle_alpha   60.14760155
_cell_angle_beta   60.14760465
_cell_angle_gamma   60.14760204
_symmetry_Int_Tables_number   1
_chemical_formula_structural   Hf16Nb3Ni4Au
_chemical_formula_sum   'Hf16 Nb3 Ni4 Au1'
_cell_volume   474.36063151
_cell_formula_units_Z   1
loop_
 _symmetry_equiv_pos_site_id
 _symmetry_equiv_pos_as_xyz
  1  'x, y, z'
loop_
 _atom_site_type_symbol
 _atom_site_label
 _atom_site_symmetry_multiplicity
 _atom_site_fract_x
 _atom_site_fract_y
 _atom_site_fract_z
 _atom_site_occupancy
  Hf  Hf0  1  0.699788  0.099573  0.099573  1
  Hf  Hf1  1  0.099573  0.699788  0.099573  1
  Hf  Hf2  1  0.099573  0.099573  0.699788  1
  Hf  Hf3  1  0.102438  0.102438  0.102438  1
  Hf  Hf4  1  0.315985  0.315985  0.688754  1
  Hf  Hf5  1  0.685732  0.685732  0.315060  1
  Hf  Hf6  1  0.315985  0.688754  0.315985  1
  Hf  Hf7  1  0.685732  0.315060  0.685732  1
  Hf  Hf8  1  0.688754  0.315985  0.315985  1
  Hf  Hf9  1  0.315060  0.685732  0.685732  1
  Hf  Hf10  1  0.950939  0.950939  0.547185  1
  Hf  Hf11  1  0.553983  0.553983  0.944687  1
  Hf  Hf12  1  0.950939  0.547185  0.950939  1
  Hf  Hf13  1  0.553983  0.944687  0.553983  1
  Hf  Hf14  1  0.547185  0.950939  0.950939  1
  Hf  Hf15  1  0.944687  0.553983  0.553983  1
  Nb  Nb16  1  0.994511  0.333578  0.333578  1
  Nb  Nb17  1  0.333578  0.994511  0.333578  1
  Nb  Nb18  1  0.333578  0.333578  0.994511  1
  Ni  Ni19  1  0.325340  0.889563  0.889563  1
  Ni  Ni20  1  0.889563  0.325340  0.889563  1
  Ni  Ni21  1  0.889563  0.889563  0.325340  1
  Ni  Ni22  1  0.890766  0.890766  0.890766  1
  Au  Au23  1  0.332761  0.332761  0.332761  1
