# generated using pymatgen
data_Os2PdSe8
_symmetry_space_group_name_H-M   'P 1'
_cell_length_a   6.09418539
_cell_length_b   6.07418596
_cell_length_c   6.11005058
_cell_angle_alpha   90.14717369
_cell_angle_beta   90.05575746
_cell_angle_gamma   91.24678088
_symmetry_Int_Tables_number   1
_chemical_formula_structural   Os2PdSe8
_chemical_formula_sum   'Os2 Pd1 Se8'
_cell_volume   226.12264486
_cell_formula_units_Z   1
loop_
 _symmetry_equiv_pos_site_id
 _symmetry_equiv_pos_as_xyz
  1  'x, y, z'
loop_
 _atom_site_type_symbol
 _atom_site_label
 _atom_site_symmetry_multiplicity
 _atom_site_fract_x
 _atom_site_fract_y
 _atom_site_fract_z
 _atom_site_occupancy
  Os  Os0  1  0.000000  0.500000  0.500000  1
  Os  Os1  1  0.500000  0.500000  0.000000  1
  Pd  Pd2  1  0.500000  0.000000  0.500000  1
  Se  Se3  1  0.609532  0.878571  0.113161  1
  Se  Se4  1  0.899813  0.122781  0.619836  1
  Se  Se5  1  0.124024  0.611695  0.880618  1
  Se  Se6  1  0.629601  0.607872  0.627120  1
  Se  Se7  1  0.370399  0.392128  0.372880  1
  Se  Se8  1  0.875976  0.388305  0.119382  1
  Se  Se9  1  0.100187  0.877219  0.380164  1
  Se  Se10  1  0.390468  0.121429  0.886839  1
