# generated using pymatgen
data_SrLiY3Al17Pd6
_symmetry_space_group_name_H-M   'P 1'
_cell_length_a   7.65585328
_cell_length_b   7.66189518
_cell_length_c   9.54021900
_cell_angle_alpha   90.00000000
_cell_angle_beta   90.00000000
_cell_angle_gamma   119.19862723
_symmetry_Int_Tables_number   1
_chemical_formula_structural   SrLiY3Al17Pd6
_chemical_formula_sum   'Sr1 Li1 Y3 Al17 Pd6'
_cell_volume   488.50548539
_cell_formula_units_Z   1
loop_
 _symmetry_equiv_pos_site_id
 _symmetry_equiv_pos_as_xyz
  1  'x, y, z'
loop_
 _atom_site_type_symbol
 _atom_site_label
 _atom_site_symmetry_multiplicity
 _atom_site_fract_x
 _atom_site_fract_y
 _atom_site_fract_z
 _atom_site_occupancy
  Sr  Sr0  1  0.008581  0.328934  0.750000  1
  Li  Li1  1  0.128420  0.127463  0.250000  1
  Y  Y2  1  0.995111  0.662855  0.250000  1
  Y  Y3  1  0.666175  0.996535  0.250000  1
  Y  Y4  1  0.327238  0.005927  0.750000  1
  Al  Al5  1  0.865838  0.860212  0.750000  1
  Al  Al6  1  0.002004  0.328732  0.084276  1
  Al  Al7  1  0.999265  0.666978  0.928471  1
  Al  Al8  1  0.999265  0.666978  0.571529  1
  Al  Al9  1  0.328546  0.000468  0.416717  1
  Al  Al10  1  0.002004  0.328732  0.415724  1
  Al  Al11  1  0.662713  0.998127  0.571753  1
  Al  Al12  1  0.662713  0.998127  0.928247  1
  Al  Al13  1  0.328546  0.000468  0.083283  1
  Al  Al14  1  0.337629  0.335511  0.537418  1
  Al  Al15  1  0.672573  0.672467  0.436852  1
  Al  Al16  1  0.672573  0.672467  0.063148  1
  Al  Al17  1  0.337629  0.335511  0.962582  1
  Al  Al18  1  0.341421  0.544496  0.250000  1
  Al  Al19  1  0.649866  0.450483  0.750000  1
  Al  Al20  1  0.541222  0.340792  0.250000  1
  Al  Al21  1  0.458718  0.666506  0.750000  1
  Pd  Pd22  1  0.674937  0.330188  0.002368  1
  Pd  Pd23  1  0.331245  0.676638  0.001842  1
  Pd  Pd24  1  0.331245  0.676638  0.498158  1
  Pd  Pd25  1  0.674937  0.330188  0.497632  1
  Pd  Pd26  1  0.999794  0.998789  0.995616  1
  Pd  Pd27  1  0.999794  0.998789  0.504384  1
