# generated using pymatgen
data_Ti5NbCo16Si7
_symmetry_space_group_name_H-M   'P 1'
_cell_length_a   7.86484655
_cell_length_b   7.87333168
_cell_length_c   7.87398317
_cell_angle_alpha   60.02310796
_cell_angle_beta   60.01616681
_cell_angle_gamma   60.01349625
_symmetry_Int_Tables_number   1
_chemical_formula_structural   Ti5NbCo16Si7
_chemical_formula_sum   'Ti5 Nb1 Co16 Si7'
_cell_volume   344.90653971
_cell_formula_units_Z   1
loop_
 _symmetry_equiv_pos_site_id
 _symmetry_equiv_pos_as_xyz
  1  'x, y, z'
loop_
 _atom_site_type_symbol
 _atom_site_label
 _atom_site_symmetry_multiplicity
 _atom_site_fract_x
 _atom_site_fract_y
 _atom_site_fract_z
 _atom_site_occupancy
  Ti  Ti0  1  0.797750  0.799203  0.202143  1
  Ti  Ti1  1  0.798684  0.201346  0.201308  1
  Ti  Ti2  1  0.200913  0.202074  0.799270  1
  Ti  Ti3  1  0.797734  0.202161  0.799214  1
  Ti  Ti4  1  0.200927  0.799253  0.202056  1
  Nb  Nb5  1  0.198869  0.801163  0.801174  1
  Co  Co6  1  0.619573  0.618814  0.142052  1
  Co  Co7  1  0.166667  0.499362  0.167298  1
  Co  Co8  1  0.858085  0.380431  0.380452  1
  Co  Co9  1  0.500786  0.833332  0.833354  1
  Co  Co10  1  0.499927  0.166338  0.166320  1
  Co  Co11  1  0.833597  0.832701  0.500057  1
  Co  Co12  1  0.166653  0.167295  0.499388  1
  Co  Co13  1  0.142819  0.618817  0.618802  1
  Co  Co14  1  0.167414  0.166333  0.166318  1
  Co  Co15  1  0.381179  0.380572  0.857010  1
  Co  Co16  1  0.619550  0.618808  0.618790  1
  Co  Co17  1  0.381167  0.857031  0.380573  1
  Co  Co18  1  0.381019  0.380463  0.380487  1
  Co  Co19  1  0.832523  0.833349  0.833372  1
  Co  Co20  1  0.619586  0.142025  0.618816  1
  Co  Co21  1  0.833588  0.500067  0.832712  1
  Si  Si22  1  0.501707  0.001275  0.498784  1
  Si  Si23  1  0.501696  0.498793  0.001274  1
  Si  Si24  1  0.500691  0.499358  0.499356  1
  Si  Si25  1  0.998193  0.001298  0.498824  1
  Si  Si26  1  0.998192  0.498833  0.001300  1
  Si  Si27  1  0.999960  0.500018  0.500006  1
  Si  Si28  1  0.500554  0.999482  0.999485  1
