# generated using pymatgen
data_Tb8DyZr3Ga20
_symmetry_space_group_name_H-M   'P 1'
_cell_length_a   6.06579587
_cell_length_b   9.49697700
_cell_length_c   11.39873630
_cell_angle_alpha   90.00000000
_cell_angle_beta   90.19590733
_cell_angle_gamma   90.00000000
_symmetry_Int_Tables_number   1
_chemical_formula_structural   Tb8DyZr3Ga20
_chemical_formula_sum   'Tb8 Dy1 Zr3 Ga20'
_cell_volume   656.64001621
_cell_formula_units_Z   1
loop_
 _symmetry_equiv_pos_site_id
 _symmetry_equiv_pos_as_xyz
  1  'x, y, z'
loop_
 _atom_site_type_symbol
 _atom_site_label
 _atom_site_symmetry_multiplicity
 _atom_site_fract_x
 _atom_site_fract_y
 _atom_site_fract_z
 _atom_site_occupancy
  Tb  Tb0  1  0.885858  0.509967  0.352107  1
  Tb  Tb1  1  0.615664  0.987868  0.852976  1
  Tb  Tb2  1  0.112517  0.010131  0.649438  1
  Tb  Tb3  1  0.387733  0.489684  0.147853  1
  Tb  Tb4  1  0.112517  0.489869  0.649438  1
  Tb  Tb5  1  0.387733  0.010316  0.147853  1
  Tb  Tb6  1  0.885858  0.990033  0.352107  1
  Tb  Tb7  1  0.615664  0.512132  0.852976  1
  Dy  Dy8  1  0.349487  0.250000  0.422387  1
  Zr  Zr9  1  0.860091  0.750000  0.075706  1
  Zr  Zr10  1  0.640974  0.750000  0.579204  1
  Zr  Zr11  1  0.144278  0.250000  0.923253  1
  Ga  Ga12  1  0.873645  0.050516  0.086511  1
  Ga  Ga13  1  0.624744  0.450404  0.590732  1
  Ga  Ga14  1  0.127074  0.552982  0.912981  1
  Ga  Ga15  1  0.374659  0.938604  0.411926  1
  Ga  Ga16  1  0.127074  0.947018  0.912981  1
  Ga  Ga17  1  0.374659  0.561396  0.411926  1
  Ga  Ga18  1  0.873645  0.449484  0.086511  1
  Ga  Ga19  1  0.624744  0.049596  0.590732  1
  Ga  Ga20  1  0.163990  0.750000  0.252455  1
  Ga  Ga21  1  0.333791  0.750000  0.753077  1
  Ga  Ga22  1  0.835097  0.250000  0.749514  1
  Ga  Ga23  1  0.675696  0.250000  0.244797  1
  Ga  Ga24  1  0.388075  0.750000  0.004557  1
  Ga  Ga25  1  0.105560  0.750000  0.505667  1
  Ga  Ga26  1  0.616521  0.250000  0.992860  1
  Ga  Ga27  1  0.873815  0.250000  0.499396  1
  Ga  Ga28  1  0.601907  0.750000  0.288734  1
  Ga  Ga29  1  0.902681  0.750000  0.793714  1
  Ga  Ga30  1  0.404273  0.250000  0.711143  1
  Ga  Ga31  1  0.099968  0.250000  0.194487  1
