# generated using pymatgen
data_Pr11NdRu2I17
_symmetry_space_group_name_H-M   'P 1'
_cell_length_a   10.11787755
_cell_length_b   12.13545127
_cell_length_c   12.17423495
_cell_angle_alpha   93.59871485
_cell_angle_beta   104.64149527
_cell_angle_gamma   114.42694373
_symmetry_Int_Tables_number   1
_chemical_formula_structural   Pr11NdRu2I17
_chemical_formula_sum   'Pr11 Nd1 Ru2 I17'
_cell_volume   1292.85044134
_cell_formula_units_Z   1
loop_
 _symmetry_equiv_pos_site_id
 _symmetry_equiv_pos_as_xyz
  1  'x, y, z'
loop_
 _atom_site_type_symbol
 _atom_site_label
 _atom_site_symmetry_multiplicity
 _atom_site_fract_x
 _atom_site_fract_y
 _atom_site_fract_z
 _atom_site_occupancy
  Pr  Pr0  1  0.988912  0.811637  0.580952  1
  Pr  Pr1  1  0.645448  0.240467  0.284052  1
  Pr  Pr2  1  0.011266  0.188778  0.419155  1
  Pr  Pr3  1  0.224240  0.669311  0.990814  1
  Pr  Pr4  1  0.261542  0.988653  0.893121  1
  Pr  Pr5  1  0.355133  0.759964  0.716008  1
  Pr  Pr6  1  0.940649  0.487234  0.676579  1
  Pr  Pr7  1  0.738381  0.011231  0.106789  1
  Pr  Pr8  1  0.151238  0.288198  0.151483  1
  Pr  Pr9  1  0.775979  0.330980  0.009409  1
  Pr  Pr10  1  0.848527  0.712083  0.848801  1
  Nd  Nd11  1  0.058681  0.511568  0.322870  1
  Ru  Ru12  1  0.104045  0.738377  0.785605  1
  Ru  Ru13  1  0.896201  0.262018  0.214596  1
  I  I14  1  0.786583  0.528881  0.417892  1
  I  I15  1  0.640601  0.418595  0.758468  1
  I  I16  1  0.842886  0.894719  0.324252  1
  I  I17  1  0.325322  0.212311  0.369338  1
  I  I18  1  0.157136  0.105427  0.675706  1
  I  I19  1  0.588064  0.052668  0.843578  1
  I  I20  1  0.754282  0.182588  0.537333  1
  I  I21  1  0.548878  0.707396  0.952802  1
  I  I22  1  0.358174  0.581383  0.242163  1
  I  I23  1  0.214287  0.471670  0.580871  1
  I  I24  1  0.055121  0.367672  0.897163  1
  I  I25  1  0.451158  0.292629  0.047308  1
  I  I26  1  0.000071  0.000116  0.000066  1
  I  I27  1  0.244934  0.816124  0.462063  1
  I  I28  1  0.412238  0.947488  0.156548  1
  I  I29  1  0.674642  0.787694  0.630625  1
  I  I30  1  0.945381  0.632141  0.103587  1
