# generated using pymatgen
data_Pr2GaCu18Si7
_symmetry_space_group_name_H-M   'P 1'
_cell_length_a   8.17030927
_cell_length_b   8.17030947
_cell_length_c   8.19088426
_cell_angle_alpha   120.55728225
_cell_angle_beta   120.55729203
_cell_angle_gamma   89.17657818
_symmetry_Int_Tables_number   1
_chemical_formula_structural   Pr2GaCu18Si7
_chemical_formula_sum   'Pr2 Ga1 Cu18 Si7'
_cell_volume   382.85189028
_cell_formula_units_Z   1
loop_
 _symmetry_equiv_pos_site_id
 _symmetry_equiv_pos_as_xyz
  1  'x, y, z'
loop_
 _atom_site_type_symbol
 _atom_site_label
 _atom_site_symmetry_multiplicity
 _atom_site_fract_x
 _atom_site_fract_y
 _atom_site_fract_z
 _atom_site_occupancy
  Pr  Pr0  1  0.751140  0.749911  0.000044  1
  Pr  Pr1  1  0.249911  0.251140  0.000044  1
  Ga  Ga2  1  0.300481  0.800481  0.855968  1
  Cu  Cu3  1  0.435305  0.700197  0.139307  1
  Cu  Cu4  1  0.701605  0.563046  0.266204  1
  Cu  Cu5  1  0.297191  0.431554  0.732091  1
  Cu  Cu6  1  0.931554  0.797191  0.732091  1
  Cu  Cu7  1  0.567044  0.299183  0.863764  1
  Cu  Cu8  1  0.305773  0.554230  0.495157  1
  Cu  Cu9  1  0.054230  0.805773  0.495157  1
  Cu  Cu10  1  0.691793  0.444216  0.501562  1
  Cu  Cu11  1  0.944216  0.191793  0.501562  1
  Cu  Cu12  1  0.441395  0.941395  0.739039  1
  Cu  Cu13  1  0.191698  0.691698  0.249872  1
  Cu  Cu14  1  0.565129  0.065129  0.265956  1
  Cu  Cu15  1  0.200197  0.935305  0.139307  1
  Cu  Cu16  1  0.063046  0.201605  0.266204  1
  Cu  Cu17  1  0.996580  0.496580  0.496362  1
  Cu  Cu18  1  0.500746  0.000746  0.499262  1
  Cu  Cu19  1  0.809913  0.309913  0.751587  1
  Cu  Cu20  1  0.799183  0.067044  0.863764  1
  Si  Si21  1  0.059925  0.559925  0.850681  1
  Si  Si22  1  0.557009  0.707390  0.499912  1
  Si  Si23  1  0.792575  0.941406  0.499757  1
  Si  Si24  1  0.441406  0.292575  0.499757  1
  Si  Si25  1  0.942074  0.442074  0.150032  1
  Si  Si26  1  0.701493  0.201493  0.145646  1
  Si  Si27  1  0.207390  0.057009  0.499912  1
