# generated using pymatgen
data_Th10Si17
_symmetry_space_group_name_H-M   'P 1'
_cell_length_a   11.36755207
_cell_length_b   11.36755364
_cell_length_c   11.36755320
_cell_angle_alpha   144.25569221
_cell_angle_beta   136.12831576
_cell_angle_gamma   57.82372883
_symmetry_Int_Tables_number   1
_chemical_formula_structural   Th10Si17
_chemical_formula_sum   'Th10 Si17'
_cell_volume   589.66887679
_cell_formula_units_Z   1
loop_
 _symmetry_equiv_pos_site_id
 _symmetry_equiv_pos_as_xyz
  1  'x, y, z'
loop_
 _atom_site_type_symbol
 _atom_site_label
 _atom_site_symmetry_multiplicity
 _atom_site_fract_x
 _atom_site_fract_y
 _atom_site_fract_z
 _atom_site_occupancy
  Th  Th0  1  0.052711  0.564169  0.014680  1
  Th  Th1  1  0.349590  0.369816  0.520029  1
  Th  Th2  1  0.150213  0.170437  0.520029  1
  Th  Th3  1  0.450511  0.961970  0.014680  1
  Th  Th4  1  0.650410  0.170437  0.020225  1
  Th  Th5  1  0.947289  0.961970  0.511458  1
  Th  Th6  1  0.849787  0.369816  0.020225  1
  Th  Th7  1  0.549489  0.564169  0.511458  1
  Th  Th8  1  0.243504  0.760762  0.004266  1
  Th  Th9  1  0.756496  0.760762  0.517258  1
  Si  Si10  1  0.897226  0.503759  0.606534  1
  Si  Si11  1  0.112698  0.066595  0.953896  1
  Si  Si12  1  0.799727  0.202023  0.402296  1
  Si  Si13  1  0.300870  0.898980  0.598110  1
  Si  Si14  1  0.401682  0.504328  0.102646  1
  Si  Si15  1  0.887302  0.841198  0.953896  1
  Si  Si16  1  0.102774  0.709308  0.606534  1
  Si  Si17  1  0.200273  0.602570  0.402296  1
  Si  Si18  1  0.699130  0.297239  0.598110  1
  Si  Si19  1  0.000000  0.430373  0.430373  1
  Si  Si20  1  0.707908  0.654768  0.946860  1
  Si  Si21  1  0.598318  0.700965  0.102646  1
  Si  Si22  1  0.000000  0.084561  0.084561  1
  Si  Si23  1  0.500000  0.394963  0.894963  1
  Si  Si24  1  0.292092  0.238952  0.946860  1
  Si  Si25  1  0.587519  0.039535  0.452014  1
  Si  Si26  1  0.412481  0.864495  0.452014  1
