# generated using pymatgen
data_Dy2Y18Ir11Au
_symmetry_space_group_name_H-M   'P 1'
_cell_length_a   10.99630284
_cell_length_b   10.99630411
_cell_length_c   6.37669833
_cell_angle_alpha   89.99154823
_cell_angle_beta   89.99154798
_cell_angle_gamma   89.44582051
_symmetry_Int_Tables_number   1
_chemical_formula_structural   Dy2Y18Ir11Au
_chemical_formula_sum   'Dy2 Y18 Ir11 Au1'
_cell_volume   771.02592594
_cell_formula_units_Z   1
loop_
 _symmetry_equiv_pos_site_id
 _symmetry_equiv_pos_as_xyz
  1  'x, y, z'
loop_
 _atom_site_type_symbol
 _atom_site_label
 _atom_site_symmetry_multiplicity
 _atom_site_fract_x
 _atom_site_fract_y
 _atom_site_fract_z
 _atom_site_occupancy
  Dy  Dy0  1  0.498824  0.499162  0.998752  1
  Dy  Dy1  1  0.500838  0.501176  0.501248  1
  Y  Y2  1  0.289917  0.088084  0.377334  1
  Y  Y3  1  0.293141  0.910559  0.876749  1
  Y  Y4  1  0.703981  0.084431  0.865909  1
  Y  Y5  1  0.705072  0.904114  0.381008  1
  Y  Y6  1  0.588047  0.790852  0.879927  1
  Y  Y7  1  0.579128  0.210022  0.378517  1
  Y  Y8  1  0.410502  0.791041  0.378477  1
  Y  Y9  1  0.409483  0.207845  0.878620  1
  Y  Y10  1  0.209148  0.411953  0.620073  1
  Y  Y11  1  0.208959  0.589498  0.121523  1
  Y  Y12  1  0.789978  0.420872  0.121483  1
  Y  Y13  1  0.792155  0.590517  0.621380  1
  Y  Y14  1  0.911916  0.710083  0.122666  1
  Y  Y15  1  0.915569  0.296019  0.634091  1
  Y  Y16  1  0.089441  0.706859  0.623251  1
  Y  Y17  1  0.095886  0.294928  0.118992  1
  Y  Y18  1  0.003130  0.995640  0.501293  1
  Y  Y19  1  0.004360  0.996870  0.998707  1
  Ir  Ir20  1  0.846732  0.848226  0.749576  1
  Ir  Ir21  1  0.151774  0.153268  0.750424  1
  Ir  Ir22  1  0.155604  0.844396  0.250000  1
  Ir  Ir23  1  0.654928  0.345072  0.750000  1
  Ir  Ir24  1  0.653235  0.651549  0.248321  1
  Ir  Ir25  1  0.348451  0.346765  0.251679  1
  Ir  Ir26  1  0.346788  0.653212  0.750000  1
  Ir  Ir27  1  0.500371  0.999955  0.126540  1
  Ir  Ir28  1  0.499337  0.000258  0.622262  1
  Ir  Ir29  1  0.999742  0.500663  0.877738  1
  Ir  Ir30  1  0.000045  0.499629  0.373460  1
  Au  Au31  1  0.843518  0.156482  0.250000  1
