# generated using pymatgen
data_Sc4TcB8Ru9
_symmetry_space_group_name_H-M   'P 1'
_cell_length_a   3.02438400
_cell_length_b   8.51780183
_cell_length_c   10.06145976
_cell_angle_alpha   90.32282152
_cell_angle_beta   90.00000000
_cell_angle_gamma   90.00000000
_symmetry_Int_Tables_number   1
_chemical_formula_structural   Sc4TcB8Ru9
_chemical_formula_sum   'Sc4 Tc1 B8 Ru9'
_cell_volume   259.19019276
_cell_formula_units_Z   1
loop_
 _symmetry_equiv_pos_site_id
 _symmetry_equiv_pos_as_xyz
  1  'x, y, z'
loop_
 _atom_site_type_symbol
 _atom_site_label
 _atom_site_symmetry_multiplicity
 _atom_site_fract_x
 _atom_site_fract_y
 _atom_site_fract_z
 _atom_site_occupancy
  Sc  Sc0  1  0.500000  0.841347  0.178271  1
  Sc  Sc1  1  0.500000  0.156835  0.819741  1
  Sc  Sc2  1  0.500000  0.656516  0.684928  1
  Sc  Sc3  1  0.500000  0.343428  0.317281  1
  Tc  Tc4  1  0.000000  0.658150  0.953899  1
  B  B5  1  0.500000  0.964855  0.589312  1
  B  B6  1  0.500000  0.034895  0.410178  1
  B  B7  1  0.500000  0.849303  0.900144  1
  B  B8  1  0.500000  0.149795  0.099912  1
  B  B9  1  0.500000  0.646733  0.398630  1
  B  B10  1  0.500000  0.351696  0.601949  1
  B  B11  1  0.500000  0.468864  0.910589  1
  B  B12  1  0.500000  0.539407  0.087124  1
  Ru  Ru13  1  0.000000  0.339193  0.047891  1
  Ru  Ru14  1  0.000000  0.841379  0.453100  1
  Ru  Ru15  1  0.000000  0.158591  0.546254  1
  Ru  Ru16  1  0.000000  0.000760  0.999975  1
  Ru  Ru17  1  0.000000  0.401861  0.761170  1
  Ru  Ru18  1  0.000000  0.596297  0.239824  1
  Ru  Ru19  1  0.000000  0.499761  0.500829  1
  Ru  Ru20  1  0.000000  0.904708  0.737969  1
  Ru  Ru21  1  0.000000  0.095629  0.261032  1
