# generated using pymatgen
data_Zr10Sn5BiP
_symmetry_space_group_name_H-M   'P 1'
_cell_length_a   5.88018161
_cell_length_b   8.62481280
_cell_length_c   8.62005266
_cell_angle_alpha   120.01827752
_cell_angle_beta   89.97394416
_cell_angle_gamma   90.05208430
_symmetry_Int_Tables_number   1
_chemical_formula_structural   Zr10Sn5BiP
_chemical_formula_sum   'Zr10 Sn5 Bi1 P1'
_cell_volume   378.53040724
_cell_formula_units_Z   1
loop_
 _symmetry_equiv_pos_site_id
 _symmetry_equiv_pos_as_xyz
  1  'x, y, z'
loop_
 _atom_site_type_symbol
 _atom_site_label
 _atom_site_symmetry_multiplicity
 _atom_site_fract_x
 _atom_site_fract_y
 _atom_site_fract_z
 _atom_site_occupancy
  Zr  Zr0  1  0.498698  0.331654  0.664422  1
  Zr  Zr1  1  0.498698  0.667232  0.335578  1
  Zr  Zr2  1  0.001565  0.667118  0.335796  1
  Zr  Zr3  1  0.001565  0.331323  0.664204  1
  Zr  Zr4  1  0.755390  0.247185  0.000000  1
  Zr  Zr5  1  0.755202  0.751391  0.747240  1
  Zr  Zr6  1  0.755202  0.004150  0.252760  1
  Zr  Zr7  1  0.245144  0.751126  0.000000  1
  Zr  Zr8  1  0.244718  0.250261  0.250503  1
  Zr  Zr9  1  0.244718  0.999758  0.749497  1
  Sn  Sn10  1  0.750467  0.394145  0.393810  1
  Sn  Sn11  1  0.750467  0.000335  0.606190  1
  Sn  Sn12  1  0.249674  0.391784  0.000000  1
  Sn  Sn13  1  0.249243  0.606444  0.606667  1
  Sn  Sn14  1  0.249243  0.999777  0.393333  1
  Bi  Bi15  1  0.750311  0.606643  0.000000  1
  P  P16  1  0.499691  0.999678  0.000000  1
