# generated using pymatgen
data_La6OsRuI6
_symmetry_space_group_name_H-M   'P 1'
_cell_length_a   4.40446400
_cell_length_b   9.57609157
_cell_length_c   12.65423876
_cell_angle_alpha   86.75058355
_cell_angle_beta   90.00000000
_cell_angle_gamma   90.00000000
_symmetry_Int_Tables_number   1
_chemical_formula_structural   La6OsRuI6
_chemical_formula_sum   'La6 Os1 Ru1 I6'
_cell_volume   532.86669846
_cell_formula_units_Z   1
loop_
 _symmetry_equiv_pos_site_id
 _symmetry_equiv_pos_as_xyz
  1  'x, y, z'
loop_
 _atom_site_type_symbol
 _atom_site_label
 _atom_site_symmetry_multiplicity
 _atom_site_fract_x
 _atom_site_fract_y
 _atom_site_fract_z
 _atom_site_occupancy
  La  La0  1  0.250000  0.314437  0.879241  1
  La  La1  1  0.750000  0.683913  0.120918  1
  La  La2  1  0.750000  0.118013  0.667410  1
  La  La3  1  0.250000  0.881958  0.329474  1
  La  La4  1  0.750000  0.097442  0.103044  1
  La  La5  1  0.250000  0.905453  0.894867  1
  Os  Os6  1  0.750000  0.113970  0.874788  1
  Ru  Ru7  1  0.250000  0.884089  0.130366  1
  I  I8  1  0.750000  0.130732  0.379533  1
  I  I9  1  0.250000  0.869428  0.620140  1
  I  I10  1  0.250000  0.367695  0.619388  1
  I  I11  1  0.750000  0.632377  0.380118  1
  I  I12  1  0.750000  0.607392  0.864821  1
  I  I13  1  0.250000  0.393100  0.135893  1
