# generated using pymatgen
data_La4ErTc3(P3Ir4)4
_symmetry_space_group_name_H-M   'P 1'
_cell_length_a   12.74534100
_cell_length_b   12.74534291
_cell_length_c   4.07152100
_cell_angle_alpha   90.00000000
_cell_angle_beta   90.00000000
_cell_angle_gamma   119.99999764
_symmetry_Int_Tables_number   1
_chemical_formula_structural   La4ErTc3(P3Ir4)4
_chemical_formula_sum   'La4 Er1 Tc3 P12 Ir16'
_cell_volume   572.78324434
_cell_formula_units_Z   1
loop_
 _symmetry_equiv_pos_site_id
 _symmetry_equiv_pos_as_xyz
  1  'x, y, z'
loop_
 _atom_site_type_symbol
 _atom_site_label
 _atom_site_symmetry_multiplicity
 _atom_site_fract_x
 _atom_site_fract_y
 _atom_site_fract_z
 _atom_site_occupancy
  La  La0  1  0.999092  0.815514  0.500000  1
  La  La1  1  0.184486  0.183577  0.500000  1
  La  La2  1  0.816423  0.000908  0.500000  1
  La  La3  1  0.666667  0.333333  0.000000  1
  Er  Er4  1  0.333333  0.666667  0.000000  1
  Tc  Tc5  1  0.003000  0.295037  0.500000  1
  Tc  Tc6  1  0.704963  0.707962  0.500000  1
  Tc  Tc7  1  0.292038  0.997000  0.500000  1
  P  P8  1  0.002337  0.186261  0.000000  1
  P  P9  1  0.813739  0.816076  0.000000  1
  P  P10  1  0.183924  0.997663  0.000000  1
  P  P11  1  0.518019  0.695746  0.500000  1
  P  P12  1  0.304254  0.822273  0.500000  1
  P  P13  1  0.177727  0.481981  0.500000  1
  P  P14  1  0.478152  0.170858  0.500000  1
  P  P15  1  0.692706  0.521848  0.500000  1
  P  P16  1  0.829142  0.307294  0.500000  1
  P  P17  1  0.997488  0.634483  0.000000  1
  P  P18  1  0.365517  0.363005  0.000000  1
  P  P19  1  0.636995  0.002512  0.000000  1
  Ir  Ir20  1  0.616117  0.802421  0.000000  1
  Ir  Ir21  1  0.197579  0.813696  0.000000  1
  Ir  Ir22  1  0.186304  0.383883  0.000000  1
  Ir  Ir23  1  0.380810  0.180727  0.000000  1
  Ir  Ir24  1  0.799917  0.619190  0.000000  1
  Ir  Ir25  1  0.819273  0.200083  0.000000  1
  Ir  Ir26  1  0.501014  0.868775  0.500000  1
  Ir  Ir27  1  0.131225  0.632239  0.500000  1
  Ir  Ir28  1  0.367761  0.498986  0.500000  1
  Ir  Ir29  1  0.490249  0.365549  0.500000  1
  Ir  Ir30  1  0.875301  0.509751  0.500000  1
  Ir  Ir31  1  0.634451  0.124699  0.500000  1
  Ir  Ir32  1  0.000000  0.000000  0.000000  1
  Ir  Ir33  1  0.001819  0.456021  0.000000  1
  Ir  Ir34  1  0.543979  0.545798  0.000000  1
  Ir  Ir35  1  0.454202  0.998181  0.000000  1
