# generated using pymatgen
data_Mn2BeFe3(SiW2)2
_symmetry_space_group_name_H-M   'P 1'
_cell_length_a   4.72819119
_cell_length_b   4.72819104
_cell_length_c   7.66975000
_cell_angle_alpha   90.00000000
_cell_angle_beta   90.00000000
_cell_angle_gamma   119.89196180
_symmetry_Int_Tables_number   1
_chemical_formula_structural   Mn2BeFe3(SiW2)2
_chemical_formula_sum   'Mn2 Be1 Fe3 Si2 W4'
_cell_volume   148.65299272
_cell_formula_units_Z   1
loop_
 _symmetry_equiv_pos_site_id
 _symmetry_equiv_pos_as_xyz
  1  'x, y, z'
loop_
 _atom_site_type_symbol
 _atom_site_label
 _atom_site_symmetry_multiplicity
 _atom_site_fract_x
 _atom_site_fract_y
 _atom_site_fract_z
 _atom_site_occupancy
  Mn  Mn0  1  0.168611  0.342458  0.250000  1
  Mn  Mn1  1  0.657542  0.831389  0.250000  1
  Be  Be2  1  0.828320  0.171680  0.750000  1
  Fe  Fe3  1  0.829320  0.657048  0.750000  1
  Fe  Fe4  1  0.342952  0.170680  0.750000  1
  Fe  Fe5  1  0.167459  0.832541  0.250000  1
  Si  Si6  1  0.999187  0.000813  0.994815  1
  Si  Si7  1  0.999187  0.000813  0.505185  1
  W  W8  1  0.334083  0.665917  0.933019  1
  W  W9  1  0.669629  0.330371  0.062189  1
  W  W10  1  0.669629  0.330371  0.437811  1
  W  W11  1  0.334083  0.665917  0.566981  1
