# generated using pymatgen
data_Hf6Al10Si6Ir6Rh
_symmetry_space_group_name_H-M   'P 1'
_cell_length_a   8.60926112
_cell_length_b   8.60926097
_cell_length_c   8.63229200
_cell_angle_alpha   59.91146734
_cell_angle_beta   59.91146792
_cell_angle_gamma   59.86399822
_symmetry_Int_Tables_number   1
_chemical_formula_structural   Hf6Al10Si6Ir6Rh
_chemical_formula_sum   'Hf6 Al10 Si6 Ir6 Rh1'
_cell_volume   451.34979069
_cell_formula_units_Z   1
loop_
 _symmetry_equiv_pos_site_id
 _symmetry_equiv_pos_as_xyz
  1  'x, y, z'
loop_
 _atom_site_type_symbol
 _atom_site_label
 _atom_site_symmetry_multiplicity
 _atom_site_fract_x
 _atom_site_fract_y
 _atom_site_fract_z
 _atom_site_occupancy
  Hf  Hf0  1  0.687189  0.313370  0.311339  1
  Hf  Hf1  1  0.313370  0.687189  0.688100  1
  Hf  Hf2  1  0.313370  0.687189  0.311339  1
  Hf  Hf3  1  0.313174  0.313174  0.686825  1
  Hf  Hf4  1  0.687189  0.313370  0.688100  1
  Hf  Hf5  1  0.688286  0.688286  0.311713  1
  Al  Al6  1  0.666502  0.003200  0.665149  1
  Al  Al7  1  0.003200  0.666502  0.665149  1
  Al  Al8  1  0.120183  0.120183  0.121257  1
  Al  Al9  1  0.120183  0.120183  0.638378  1
  Al  Al10  1  0.637905  0.120324  0.120886  1
  Al  Al11  1  0.120324  0.637905  0.120886  1
  Al  Al12  1  0.882650  0.882650  0.878744  1
  Al  Al13  1  0.882650  0.882650  0.355956  1
  Al  Al14  1  0.882846  0.357453  0.879850  1
  Al  Al15  1  0.357453  0.882846  0.879850  1
  Si  Si16  1  0.343777  0.343777  0.344302  1
  Si  Si17  1  0.343777  0.343777  0.968144  1
  Si  Si18  1  0.966006  0.344171  0.344912  1
  Si  Si19  1  0.344171  0.966006  0.344912  1
  Si  Si20  1  0.662906  0.662906  0.659765  1
  Si  Si21  1  0.662906  0.662906  0.014424  1
  Ir  Ir22  1  0.494863  0.002178  0.008208  1
  Ir  Ir23  1  0.002178  0.494863  0.494752  1
  Ir  Ir24  1  0.002178  0.494863  0.008208  1
  Ir  Ir25  1  0.007724  0.007724  0.492276  1
  Ir  Ir26  1  0.494863  0.002178  0.494752  1
  Ir  Ir27  1  0.498183  0.498183  0.001817  1
  Rh  Rh28  1  0.999992  0.999992  0.000008  1
