# generated using pymatgen
data_Ta2Se9
_symmetry_space_group_name_H-M   'P 1'
_cell_length_a   9.14946269
_cell_length_b   9.14946119
_cell_length_c   8.26125238
_cell_angle_alpha   81.96132698
_cell_angle_beta   81.96132694
_cell_angle_gamma   98.81667366
_symmetry_Int_Tables_number   1
_chemical_formula_structural   Ta2Se9
_chemical_formula_sum   'Ta4 Se18'
_cell_volume   667.42952094
_cell_formula_units_Z   2
loop_
 _symmetry_equiv_pos_site_id
 _symmetry_equiv_pos_as_xyz
  1  'x, y, z'
loop_
 _atom_site_type_symbol
 _atom_site_label
 _atom_site_symmetry_multiplicity
 _atom_site_fract_x
 _atom_site_fract_y
 _atom_site_fract_z
 _atom_site_occupancy
  Ta  Ta0  1  0.406370  0.859556  0.085817  1
  Ta  Ta1  1  0.140444  0.593630  0.414183  1
  Ta  Ta2  1  0.593630  0.140444  0.914183  1
  Ta  Ta3  1  0.859556  0.406370  0.585817  1
  Se  Se4  1  0.380548  0.667955  0.551042  1
  Se  Se5  1  0.332045  0.619452  0.948958  1
  Se  Se6  1  0.704672  0.121777  0.598274  1
  Se  Se7  1  0.878223  0.295328  0.901726  1
  Se  Se8  1  0.295328  0.878223  0.401726  1
  Se  Se9  1  0.121777  0.704672  0.098274  1
  Se  Se10  1  0.126270  0.317519  0.569255  1
  Se  Se11  1  0.682481  0.873730  0.930745  1
  Se  Se12  1  0.873730  0.682481  0.430745  1
  Se  Se13  1  0.317519  0.126270  0.069255  1
  Se  Se14  1  0.023311  0.338204  0.324245  1
  Se  Se15  1  0.661796  0.976689  0.175755  1
  Se  Se16  1  0.976689  0.661796  0.675755  1
  Se  Se17  1  0.338204  0.023311  0.824245  1
  Se  Se18  1  0.667955  0.380548  0.051042  1
  Se  Se19  1  0.619452  0.332045  0.448958  1
  Se  Se20  1  0.415051  0.584949  0.250000  1
  Se  Se21  1  0.584949  0.415051  0.750000  1
