# generated using pymatgen
data_YbH8
_symmetry_space_group_name_H-M   'P 1'
_cell_length_a   3.64450002
_cell_length_b   3.68109929
_cell_length_c   11.15177737
_cell_angle_alpha   101.19770093
_cell_angle_beta   84.36486256
_cell_angle_gamma   119.87666839
_symmetry_Int_Tables_number   1
_chemical_formula_structural   YbH8
_chemical_formula_sum   'Yb1 H8'
_cell_volume   127.25667310
_cell_formula_units_Z   1
loop_
 _symmetry_equiv_pos_site_id
 _symmetry_equiv_pos_as_xyz
  1  'x, y, z'
loop_
 _atom_site_type_symbol
 _atom_site_label
 _atom_site_symmetry_multiplicity
 _atom_site_fract_x
 _atom_site_fract_y
 _atom_site_fract_z
 _atom_site_occupancy
  Yb  Yb0  1  0.021377  0.955525  0.719933  1
  H  H1  1  0.689283  0.243365  0.636611  1
  H  H2  1  0.841372  0.745140  0.202390  1
  H  H3  1  0.690201  0.607374  0.150793  1
  H  H4  1  0.011491  0.345687  0.409100  1
  H  H5  1  0.352515  0.668228  0.798019  1
  H  H6  1  0.144778  0.322094  0.959509  1
  H  H7  1  0.057923  0.112158  0.981195  1
  H  H8  1  0.170140  0.459911  0.362428  1
