# generated using pymatgen
data_TbCoH6
_symmetry_space_group_name_H-M   'P 1'
_cell_length_a   4.68996769
_cell_length_b   4.69090424
_cell_length_c   4.70210193
_cell_angle_alpha   120.04174205
_cell_angle_beta   90.04284815
_cell_angle_gamma   119.85959287
_symmetry_Int_Tables_number   1
_chemical_formula_structural   TbCoH6
_chemical_formula_sum   'Tb1 Co1 H6'
_cell_volume   73.22966071
_cell_formula_units_Z   1
loop_
 _symmetry_equiv_pos_site_id
 _symmetry_equiv_pos_as_xyz
  1  'x, y, z'
loop_
 _atom_site_type_symbol
 _atom_site_label
 _atom_site_symmetry_multiplicity
 _atom_site_fract_x
 _atom_site_fract_y
 _atom_site_fract_z
 _atom_site_occupancy
  Tb  Tb0  1  0.377745  0.033128  0.893369  1
  Co  Co1  1  0.127384  0.533983  0.143823  1
  H  H2  1  0.353086  0.525765  0.372925  1
  H  H3  1  0.897471  0.543442  0.376511  1
  H  H4  1  0.351012  0.524293  0.904838  1
  H  H5  1  0.894160  0.071418  0.912566  1
  H  H6  1  0.896955  0.545167  0.922448  1
  H  H7  1  0.371911  0.996845  0.375248  1
