# generated using pymatgen
data_TmSc5Al16(SiOs)8
_symmetry_space_group_name_H-M   'P 1'
_cell_length_a   8.58951307
_cell_length_b   8.58951267
_cell_length_c   9.34085900
_cell_angle_alpha   90.00000000
_cell_angle_beta   90.00000000
_cell_angle_gamma   120.07380360
_symmetry_Int_Tables_number   1
_chemical_formula_structural   TmSc5Al16(SiOs)8
_chemical_formula_sum   'Tm1 Sc5 Al16 Si8 Os8'
_cell_volume   596.39096362
_cell_formula_units_Z   1
loop_
 _symmetry_equiv_pos_site_id
 _symmetry_equiv_pos_as_xyz
  1  'x, y, z'
loop_
 _atom_site_type_symbol
 _atom_site_label
 _atom_site_symmetry_multiplicity
 _atom_site_fract_x
 _atom_site_fract_y
 _atom_site_fract_z
 _atom_site_occupancy
  Tm  Tm0  1  0.806085  0.193915  0.750000  1
  Sc  Sc1  1  0.193697  0.391413  0.250000  1
  Sc  Sc2  1  0.806590  0.609045  0.750000  1
  Sc  Sc3  1  0.608587  0.806303  0.250000  1
  Sc  Sc4  1  0.390955  0.193410  0.750000  1
  Sc  Sc5  1  0.196895  0.803105  0.250000  1
  Al  Al6  1  0.166746  0.329879  0.577035  1
  Al  Al7  1  0.835158  0.671766  0.419768  1
  Al  Al8  1  0.670121  0.833254  0.577035  1
  Al  Al9  1  0.835158  0.671766  0.080232  1
  Al  Al10  1  0.328234  0.164842  0.419768  1
  Al  Al11  1  0.166746  0.329879  0.922965  1
  Al  Al12  1  0.164241  0.835759  0.577098  1
  Al  Al13  1  0.328234  0.164842  0.080232  1
  Al  Al14  1  0.835358  0.164642  0.417593  1
  Al  Al15  1  0.670121  0.833254  0.922965  1
  Al  Al16  1  0.835358  0.164642  0.082407  1
  Al  Al17  1  0.164241  0.835759  0.922902  1
  Al  Al18  1  0.563374  0.436626  0.250000  1
  Al  Al19  1  0.437549  0.562451  0.750000  1
  Al  Al20  1  0.000437  0.999563  0.250000  1
  Al  Al21  1  0.003928  0.996072  0.750000  1
  Si  Si22  1  0.334700  0.665300  0.049307  1
  Si  Si23  1  0.663712  0.336288  0.953879  1
  Si  Si24  1  0.663712  0.336288  0.546121  1
  Si  Si25  1  0.334700  0.665300  0.450693  1
  Si  Si26  1  0.560833  0.120972  0.250000  1
  Si  Si27  1  0.434201  0.875706  0.750000  1
  Si  Si28  1  0.879028  0.439167  0.250000  1
  Si  Si29  1  0.124294  0.565799  0.750000  1
  Os  Os30  1  0.499166  0.999730  0.000590  1
  Os  Os31  1  0.000270  0.500834  0.000590  1
  Os  Os32  1  0.499166  0.999730  0.499410  1
  Os  Os33  1  0.499725  0.500275  0.000764  1
  Os  Os34  1  0.000270  0.500834  0.499410  1
  Os  Os35  1  0.499725  0.500275  0.499236  1
  Os  Os36  1  0.999341  0.000659  0.999765  1
  Os  Os37  1  0.999341  0.000659  0.500235  1
