# generated using pymatgen
data_NdBe(Cu2Si)4
_symmetry_space_group_name_H-M   'P 1'
_cell_length_a   8.09039819
_cell_length_b   8.09039800
_cell_length_c   8.09039739
_cell_angle_alpha   120.59385518
_cell_angle_beta   120.59385710
_cell_angle_gamma   88.97445525
_symmetry_Int_Tables_number   1
_chemical_formula_structural   NdBe(Cu2Si)4
_chemical_formula_sum   'Nd2 Be2 Cu16 Si8'
_cell_volume   371.02510975
_cell_formula_units_Z   2
loop_
 _symmetry_equiv_pos_site_id
 _symmetry_equiv_pos_as_xyz
  1  'x, y, z'
loop_
 _atom_site_type_symbol
 _atom_site_label
 _atom_site_symmetry_multiplicity
 _atom_site_fract_x
 _atom_site_fract_y
 _atom_site_fract_z
 _atom_site_occupancy
  Nd  Nd0  1  0.250000  0.250000  0.000000  1
  Nd  Nd1  1  0.750000  0.750000  0.000000  1
  Be  Be2  1  0.500000  0.000000  0.500000  1
  Be  Be3  1  0.000000  0.500000  0.500000  1
  Cu  Cu4  1  0.942538  0.209415  0.151952  1
  Cu  Cu5  1  0.209415  0.057462  0.266877  1
  Cu  Cu6  1  0.790585  0.942538  0.733123  1
  Cu  Cu7  1  0.442538  0.290585  0.733123  1
  Cu  Cu8  1  0.057462  0.790585  0.848048  1
  Cu  Cu9  1  0.800519  0.058141  0.500000  1
  Cu  Cu10  1  0.558141  0.300519  0.500000  1
  Cu  Cu11  1  0.199481  0.941859  0.500000  1
  Cu  Cu12  1  0.441859  0.699481  0.500000  1
  Cu  Cu13  1  0.941859  0.441859  0.742377  1
  Cu  Cu14  1  0.699481  0.199481  0.257623  1
  Cu  Cu15  1  0.058141  0.558141  0.257623  1
  Cu  Cu16  1  0.709415  0.442538  0.151952  1
  Cu  Cu17  1  0.557462  0.709415  0.266877  1
  Cu  Cu18  1  0.300519  0.800519  0.742377  1
  Cu  Cu19  1  0.290585  0.557462  0.848048  1
  Si  Si20  1  0.792586  0.292586  0.850908  1
  Si  Si21  1  0.558322  0.058322  0.850908  1
  Si  Si22  1  0.058322  0.207414  0.500000  1
  Si  Si23  1  0.292586  0.441678  0.500000  1
  Si  Si24  1  0.941678  0.792586  0.500000  1
  Si  Si25  1  0.441678  0.941678  0.149092  1
  Si  Si26  1  0.207414  0.707414  0.149092  1
  Si  Si27  1  0.707414  0.558322  0.500000  1
