# generated using pymatgen
data_HoEr3(OsC2)2
_symmetry_space_group_name_H-M   'P 1'
_cell_length_a   5.08599200
_cell_length_b   6.41967511
_cell_length_c   9.72421625
_cell_angle_alpha   89.90666469
_cell_angle_beta   90.00000000
_cell_angle_gamma   90.00000000
_symmetry_Int_Tables_number   1
_chemical_formula_structural   HoEr3(OsC2)2
_chemical_formula_sum   'Ho2 Er6 Os4 C8'
_cell_volume   317.49928719
_cell_formula_units_Z   2
loop_
 _symmetry_equiv_pos_site_id
 _symmetry_equiv_pos_as_xyz
  1  'x, y, z'
loop_
 _atom_site_type_symbol
 _atom_site_label
 _atom_site_symmetry_multiplicity
 _atom_site_fract_x
 _atom_site_fract_y
 _atom_site_fract_z
 _atom_site_occupancy
  Ho  Ho0  1  0.750000  0.973118  0.718589  1
  Ho  Ho1  1  0.250000  0.026882  0.281411  1
  Er  Er2  1  0.250000  0.681596  0.553178  1
  Er  Er3  1  0.750000  0.318404  0.446822  1
  Er  Er4  1  0.750000  0.818352  0.053221  1
  Er  Er5  1  0.250000  0.181648  0.946779  1
  Er  Er6  1  0.250000  0.526658  0.219295  1
  Er  Er7  1  0.750000  0.473342  0.780705  1
  Os  Os8  1  0.250000  0.723525  0.866623  1
  Os  Os9  1  0.750000  0.276475  0.133377  1
  Os  Os10  1  0.750000  0.775701  0.366550  1
  Os  Os11  1  0.250000  0.224299  0.633450  1
  C  C12  1  0.250000  0.459430  0.758332  1
  C  C13  1  0.750000  0.540570  0.241668  1
  C  C14  1  0.750000  0.040502  0.258111  1
  C  C15  1  0.250000  0.959498  0.741889  1
  C  C16  1  0.250000  0.825981  0.055122  1
  C  C17  1  0.750000  0.174019  0.944878  1
  C  C18  1  0.750000  0.672116  0.555178  1
  C  C19  1  0.250000  0.327884  0.444822  1
