# generated using pymatgen
data_Eu4CdNi
_symmetry_space_group_name_H-M   'P 1'
_cell_length_a   10.13116452
_cell_length_b   10.13116415
_cell_length_c   10.13116400
_cell_angle_alpha   60.00000050
_cell_angle_beta   60.00000171
_cell_angle_gamma   60.00000181
_symmetry_Int_Tables_number   1
_chemical_formula_structural   Eu4CdNi
_chemical_formula_sum   'Eu16 Cd4 Ni4'
_cell_volume   735.29748632
_cell_formula_units_Z   4
loop_
 _symmetry_equiv_pos_site_id
 _symmetry_equiv_pos_as_xyz
  1  'x, y, z'
loop_
 _atom_site_type_symbol
 _atom_site_label
 _atom_site_symmetry_multiplicity
 _atom_site_fract_x
 _atom_site_fract_y
 _atom_site_fract_z
 _atom_site_occupancy
  Eu  Eu0  1  0.595774  0.595774  0.595774  1
  Eu  Eu1  1  0.595774  0.595774  0.212679  1
  Eu  Eu2  1  0.595774  0.212679  0.595774  1
  Eu  Eu3  1  0.212679  0.595774  0.595774  1
  Eu  Eu4  1  0.058794  0.441206  0.441206  1
  Eu  Eu5  1  0.441206  0.058794  0.058794  1
  Eu  Eu6  1  0.441206  0.058794  0.441206  1
  Eu  Eu7  1  0.058794  0.441206  0.058794  1
  Eu  Eu8  1  0.441206  0.441206  0.058794  1
  Eu  Eu9  1  0.058794  0.058794  0.441206  1
  Eu  Eu10  1  0.190229  0.809771  0.809771  1
  Eu  Eu11  1  0.809771  0.190229  0.190229  1
  Eu  Eu12  1  0.809771  0.190229  0.809771  1
  Eu  Eu13  1  0.190229  0.809771  0.190229  1
  Eu  Eu14  1  0.809771  0.809771  0.190229  1
  Eu  Eu15  1  0.190229  0.190229  0.809771  1
  Cd  Cd16  1  0.828848  0.828848  0.828848  1
  Cd  Cd17  1  0.828848  0.828848  0.513457  1
  Cd  Cd18  1  0.828848  0.513457  0.828848  1
  Cd  Cd19  1  0.513457  0.828848  0.828848  1
  Ni  Ni20  1  0.390586  0.390586  0.390586  1
  Ni  Ni21  1  0.390586  0.390586  0.828244  1
  Ni  Ni22  1  0.390586  0.828244  0.390586  1
  Ni  Ni23  1  0.828244  0.390586  0.390586  1
