# generated using pymatgen
data_Dy8Y3Th(CoNi)2
_symmetry_space_group_name_H-M   'P 1'
_cell_length_a   6.33516412
_cell_length_b   6.88802315
_cell_length_c   9.58325001
_cell_angle_alpha   90.00438154
_cell_angle_beta   90.00378452
_cell_angle_gamma   90.95672238
_symmetry_Int_Tables_number   1
_chemical_formula_structural   Dy8Y3Th(CoNi)2
_chemical_formula_sum   'Dy8 Y3 Th1 Co2 Ni2'
_cell_volume   418.12365316
_cell_formula_units_Z   1
loop_
 _symmetry_equiv_pos_site_id
 _symmetry_equiv_pos_as_xyz
  1  'x, y, z'
loop_
 _atom_site_type_symbol
 _atom_site_label
 _atom_site_symmetry_multiplicity
 _atom_site_fract_x
 _atom_site_fract_y
 _atom_site_fract_z
 _atom_site_occupancy
  Dy  Dy0  1  0.323526  0.673923  0.069209  1
  Dy  Dy1  1  0.176812  0.174885  0.429476  1
  Dy  Dy2  1  0.676686  0.323447  0.566119  1
  Dy  Dy3  1  0.824667  0.825741  0.932773  1
  Dy  Dy4  1  0.676891  0.323662  0.933718  1
  Dy  Dy5  1  0.824944  0.825923  0.567158  1
  Dy  Dy6  1  0.323410  0.673806  0.430812  1
  Dy  Dy7  1  0.639642  0.044511  0.250048  1
  Y  Y8  1  0.176708  0.174975  0.070281  1
  Y  Y9  1  0.143092  0.463260  0.749889  1
  Y  Y10  1  0.357286  0.962222  0.749822  1
  Th  Th11  1  0.847907  0.552675  0.249995  1
  Co  Co12  1  0.036081  0.869627  0.250383  1
  Co  Co13  1  0.469610  0.392538  0.250366  1
  Ni  Ni14  1  0.944343  0.110829  0.750006  1
  Ni  Ni15  1  0.558394  0.607975  0.749946  1
