# generated using pymatgen
data_TaNb5V4(Ga3B)2
_symmetry_space_group_name_H-M   'P 1'
_cell_length_a   7.69981100
_cell_length_b   7.70115925
_cell_length_c   5.14440000
_cell_angle_alpha   90.00000000
_cell_angle_beta   90.00000000
_cell_angle_gamma   119.99420456
_symmetry_Int_Tables_number   1
_chemical_formula_structural   TaNb5V4(Ga3B)2
_chemical_formula_sum   'Ta1 Nb5 V4 Ga6 B2'
_cell_volume   264.19639651
_cell_formula_units_Z   1
loop_
 _symmetry_equiv_pos_site_id
 _symmetry_equiv_pos_as_xyz
  1  'x, y, z'
loop_
 _atom_site_type_symbol
 _atom_site_label
 _atom_site_symmetry_multiplicity
 _atom_site_fract_x
 _atom_site_fract_y
 _atom_site_fract_z
 _atom_site_occupancy
  Ta  Ta0  1  0.244479  0.000000  0.250000  1
  Nb  Nb1  1  0.755244  0.000000  0.750000  1
  Nb  Nb2  1  0.000018  0.244892  0.250000  1
  Nb  Nb3  1  0.000384  0.755546  0.750000  1
  Nb  Nb4  1  0.755125  0.755108  0.250000  1
  Nb  Nb5  1  0.244838  0.244454  0.750000  1
  V  V6  1  0.333238  0.666809  0.000371  1
  V  V7  1  0.666431  0.333191  0.000371  1
  V  V8  1  0.666431  0.333191  0.499629  1
  V  V9  1  0.333238  0.666809  0.499629  1
  Ga  Ga10  1  0.593738  0.000000  0.250000  1
  Ga  Ga11  1  0.406403  0.000000  0.750000  1
  Ga  Ga12  1  0.000064  0.593614  0.250000  1
  Ga  Ga13  1  0.000088  0.406416  0.750000  1
  Ga  Ga14  1  0.406450  0.406386  0.250000  1
  Ga  Ga15  1  0.593672  0.593584  0.750000  1
  B  B16  1  0.000082  0.000000  0.000028  1
  B  B17  1  0.000082  0.000000  0.499972  1
