# generated using pymatgen
data_LaGdTc2F14
_symmetry_space_group_name_H-M   'P 1'
_cell_length_a   5.79329800
_cell_length_b   9.27741700
_cell_length_c   12.43795200
_cell_angle_alpha   62.07992845
_cell_angle_beta   90.00000000
_cell_angle_gamma   90.00000000
_symmetry_Int_Tables_number   1
_chemical_formula_structural   LaGdTc2F14
_chemical_formula_sum   'La2 Gd2 Tc4 F28'
_cell_volume   590.68826448
_cell_formula_units_Z   2
loop_
 _symmetry_equiv_pos_site_id
 _symmetry_equiv_pos_as_xyz
  1  'x, y, z'
loop_
 _atom_site_type_symbol
 _atom_site_label
 _atom_site_symmetry_multiplicity
 _atom_site_fract_x
 _atom_site_fract_y
 _atom_site_fract_z
 _atom_site_occupancy
  La  La0  1  0.241902  0.190408  0.734731  1
  La  La1  1  0.741902  0.809592  0.765269  1
  Gd  Gd2  1  0.759064  0.814286  0.263853  1
  Gd  Gd3  1  0.259064  0.185714  0.236147  1
  Tc  Tc4  1  0.244256  0.729514  0.537286  1
  Tc  Tc5  1  0.744256  0.270486  0.962714  1
  Tc  Tc6  1  0.757491  0.277762  0.450792  1
  Tc  Tc7  1  0.257491  0.722238  0.049208  1
  F  F8  1  0.964140  0.719993  0.449024  1
  F  F9  1  0.464140  0.280007  0.050976  1
  F  F10  1  0.032901  0.287099  0.540468  1
  F  F11  1  0.532901  0.712901  0.959532  1
  F  F12  1  0.056799  0.707327  0.927607  1
  F  F13  1  0.556799  0.292673  0.572393  1
  F  F14  1  0.949906  0.288101  0.081640  1
  F  F15  1  0.449906  0.711899  0.418360  1
  F  F16  1  0.735322  0.509265  0.864880  1
  F  F17  1  0.235322  0.490735  0.635120  1
  F  F18  1  0.263084  0.481401  0.143123  1
  F  F19  1  0.763084  0.518599  0.356877  1
  F  F20  1  0.741489  0.031336  0.056363  1
  F  F21  1  0.241489  0.968664  0.443637  1
  F  F22  1  0.260070  0.960416  0.952544  1
  F  F23  1  0.760070  0.039584  0.547456  1
  F  F24  1  0.047817  0.744761  0.661532  1
  F  F25  1  0.547817  0.255239  0.838468  1
  F  F26  1  0.960794  0.256128  0.330351  1
  F  F27  1  0.460794  0.743872  0.169649  1
  F  F28  1  0.013703  0.266572  0.868195  1
  F  F29  1  0.513703  0.733428  0.631805  1
  F  F30  1  0.986925  0.733833  0.141988  1
  F  F31  1  0.486925  0.266167  0.358012  1
  F  F32  1  0.073318  0.975666  0.233419  1
  F  F33  1  0.573318  0.024334  0.266581  1
  F  F34  1  0.911021  0.031843  0.769031  1
  F  F35  1  0.411021  0.968157  0.730969  1
