# generated using pymatgen
data_DyTa3Pb4O13
_symmetry_space_group_name_H-M   'P 1'
_cell_length_a   7.71587292
_cell_length_b   7.71587279
_cell_length_c   7.71587212
_cell_angle_alpha   59.31118750
_cell_angle_beta   59.31118602
_cell_angle_gamma   59.31118473
_symmetry_Int_Tables_number   1
_chemical_formula_structural   DyTa3Pb4O13
_chemical_formula_sum   'Dy1 Ta3 Pb4 O13'
_cell_volume   319.72382541
_cell_formula_units_Z   1
loop_
 _symmetry_equiv_pos_site_id
 _symmetry_equiv_pos_as_xyz
  1  'x, y, z'
loop_
 _atom_site_type_symbol
 _atom_site_label
 _atom_site_symmetry_multiplicity
 _atom_site_fract_x
 _atom_site_fract_y
 _atom_site_fract_z
 _atom_site_occupancy
  Dy  Dy0  1  0.503577  0.503577  0.503577  1
  Ta  Ta1  1  0.004470  0.501429  0.501429  1
  Ta  Ta2  1  0.501429  0.501429  0.004470  1
  Ta  Ta3  1  0.501429  0.004470  0.501429  1
  Pb  Pb4  1  0.002046  0.002046  0.002046  1
  Pb  Pb5  1  0.498506  0.013900  0.013900  1
  Pb  Pb6  1  0.013900  0.013900  0.498506  1
  Pb  Pb7  1  0.013900  0.498506  0.013900  1
  O  O8  1  0.867973  0.404869  0.404869  1
  O  O9  1  0.426522  0.799121  0.799121  1
  O  O10  1  0.404869  0.404869  0.867973  1
  O  O11  1  0.799121  0.799121  0.426522  1
  O  O12  1  0.799121  0.426522  0.799121  1
  O  O13  1  0.404869  0.867973  0.404869  1
  O  O14  1  0.153809  0.575721  0.575721  1
  O  O15  1  0.577014  0.189866  0.189866  1
  O  O16  1  0.575721  0.575721  0.153809  1
  O  O17  1  0.189866  0.189866  0.577014  1
  O  O18  1  0.189866  0.577014  0.189866  1
  O  O19  1  0.575721  0.153809  0.575721  1
  O  O20  1  0.121271  0.121271  0.121271  1
