# generated using pymatgen
data_Yb3CrN3
_symmetry_space_group_name_H-M   'P 1'
_cell_length_a   6.52733657
_cell_length_b   6.52733693
_cell_length_c   4.99605700
_cell_angle_alpha   90.00000000
_cell_angle_beta   90.00000000
_cell_angle_gamma   101.13636252
_symmetry_Int_Tables_number   1
_chemical_formula_structural   Yb3CrN3
_chemical_formula_sum   'Yb6 Cr2 N6'
_cell_volume   208.85448614
_cell_formula_units_Z   2
loop_
 _symmetry_equiv_pos_site_id
 _symmetry_equiv_pos_as_xyz
  1  'x, y, z'
loop_
 _atom_site_type_symbol
 _atom_site_label
 _atom_site_symmetry_multiplicity
 _atom_site_fract_x
 _atom_site_fract_y
 _atom_site_fract_z
 _atom_site_occupancy
  Yb  Yb0  1  0.594824  0.830350  0.250000  1
  Yb  Yb1  1  0.892091  0.107909  0.750000  1
  Yb  Yb2  1  0.830350  0.594824  0.750000  1
  Yb  Yb3  1  0.107909  0.892091  0.250000  1
  Yb  Yb4  1  0.405176  0.169650  0.750000  1
  Yb  Yb5  1  0.169650  0.405176  0.250000  1
  Cr  Cr6  1  0.304804  0.695196  0.750000  1
  Cr  Cr7  1  0.695196  0.304804  0.250000  1
  N  N8  1  0.569736  0.821805  0.750000  1
  N  N9  1  0.874983  0.125017  0.250000  1
  N  N10  1  0.125017  0.874983  0.750000  1
  N  N11  1  0.821805  0.569736  0.250000  1
  N  N12  1  0.430264  0.178195  0.250000  1
  N  N13  1  0.178195  0.430264  0.750000  1
