# generated using pymatgen
data_Tm2Sc18GaBi11
_symmetry_space_group_name_H-M   'P 1'
_cell_length_a   7.77365997
_cell_length_b   8.99876700
_cell_length_c   11.41145442
_cell_angle_alpha   90.00000000
_cell_angle_beta   89.77631018
_cell_angle_gamma   90.00000000
_symmetry_Int_Tables_number   1
_chemical_formula_structural   Tm2Sc18GaBi11
_chemical_formula_sum   'Tm2 Sc18 Ga1 Bi11'
_cell_volume   798.26343636
_cell_formula_units_Z   1
loop_
 _symmetry_equiv_pos_site_id
 _symmetry_equiv_pos_as_xyz
  1  'x, y, z'
loop_
 _atom_site_type_symbol
 _atom_site_label
 _atom_site_symmetry_multiplicity
 _atom_site_fract_x
 _atom_site_fract_y
 _atom_site_fract_z
 _atom_site_occupancy
  Tm  Tm0  1  0.314033  0.750000  0.280057  1
  Tm  Tm1  1  0.673410  0.250000  0.710989  1
  Sc  Sc2  1  0.033834  0.250000  0.511448  1
  Sc  Sc3  1  0.983446  0.750000  0.490034  1
  Sc  Sc4  1  0.478818  0.750000  0.010508  1
  Sc  Sc5  1  0.522275  0.250000  0.989047  1
  Sc  Sc6  1  0.354092  0.250000  0.292450  1
  Sc  Sc7  1  0.651716  0.750000  0.719648  1
  Sc  Sc8  1  0.150336  0.750000  0.780909  1
  Sc  Sc9  1  0.849432  0.250000  0.216875  1
  Sc  Sc10  1  0.193121  0.250000  0.775242  1
  Sc  Sc11  1  0.810647  0.750000  0.218793  1
  Sc  Sc12  1  0.195851  0.066992  0.061829  1
  Sc  Sc13  1  0.803975  0.933652  0.939930  1
  Sc  Sc14  1  0.308721  0.949011  0.559611  1
  Sc  Sc15  1  0.803975  0.566348  0.939930  1
  Sc  Sc16  1  0.684693  0.074194  0.443345  1
  Sc  Sc17  1  0.195851  0.433008  0.061829  1
  Sc  Sc18  1  0.684693  0.425806  0.443345  1
  Sc  Sc19  1  0.308721  0.550989  0.559611  1
  Ga  Ga20  1  0.402992  0.250000  0.535533  1
  Bi  Bi21  1  0.597212  0.750000  0.463587  1
  Bi  Bi22  1  0.091293  0.750000  0.038629  1
  Bi  Bi23  1  0.910647  0.250000  0.957678  1
  Bi  Bi24  1  0.059482  0.006984  0.326114  1
  Bi  Bi25  1  0.938893  0.994439  0.674031  1
  Bi  Bi26  1  0.432150  0.993936  0.826156  1
  Bi  Bi27  1  0.938893  0.505561  0.674031  1
  Bi  Bi28  1  0.567583  0.006856  0.173267  1
  Bi  Bi29  1  0.059482  0.493016  0.326114  1
  Bi  Bi30  1  0.567583  0.493144  0.173267  1
  Bi  Bi31  1  0.432150  0.506064  0.826156  1
