# generated using pymatgen
data_Er8Ta11Si16Rh
_symmetry_space_group_name_H-M   'P 1'
_cell_length_a   7.00493316
_cell_length_b   7.00493287
_cell_length_c   12.88991162
_cell_angle_alpha   90.22948987
_cell_angle_beta   89.77051200
_cell_angle_gamma   89.63526910
_symmetry_Int_Tables_number   1
_chemical_formula_structural   Er8Ta11Si16Rh
_chemical_formula_sum   'Er8 Ta11 Si16 Rh1'
_cell_volume   632.47316206
_cell_formula_units_Z   1
loop_
 _symmetry_equiv_pos_site_id
 _symmetry_equiv_pos_as_xyz
  1  'x, y, z'
loop_
 _atom_site_type_symbol
 _atom_site_label
 _atom_site_symmetry_multiplicity
 _atom_site_fract_x
 _atom_site_fract_y
 _atom_site_fract_z
 _atom_site_occupancy
  Er  Er0  1  0.341188  0.003321  0.468258  1
  Er  Er1  1  0.495714  0.841970  0.719257  1
  Er  Er2  1  0.501783  0.158239  0.216930  1
  Er  Er3  1  0.841970  0.495714  0.280743  1
  Er  Er4  1  0.158239  0.501783  0.783070  1
  Er  Er5  1  0.657134  0.997977  0.968552  1
  Er  Er6  1  0.003321  0.341188  0.531742  1
  Er  Er7  1  0.997977  0.657134  0.031448  1
  Ta  Ta8  1  0.174122  0.828134  0.247660  1
  Ta  Ta9  1  0.828134  0.174122  0.752340  1
  Ta  Ta10  1  0.670832  0.670832  0.500000  1
  Ta  Ta11  1  0.148560  0.003281  0.875041  1
  Ta  Ta12  1  0.496029  0.657494  0.123909  1
  Ta  Ta13  1  0.504336  0.348149  0.625308  1
  Ta  Ta14  1  0.657494  0.496029  0.876091  1
  Ta  Ta15  1  0.348149  0.504336  0.374692  1
  Ta  Ta16  1  0.848903  0.993826  0.374001  1
  Ta  Ta17  1  0.003281  0.148560  0.124959  1
  Ta  Ta18  1  0.993826  0.848903  0.625999  1
  Si  Si19  1  0.202940  0.136540  0.682755  1
  Si  Si20  1  0.367899  0.704385  0.931894  1
  Si  Si21  1  0.635829  0.295431  0.431424  1
  Si  Si22  1  0.704385  0.367899  0.068106  1
  Si  Si23  1  0.295431  0.635829  0.568576  1
  Si  Si24  1  0.795970  0.864516  0.182054  1
  Si  Si25  1  0.136540  0.202940  0.317245  1
  Si  Si26  1  0.864516  0.795970  0.817946  1
  Si  Si27  1  0.291473  0.953577  0.061695  1
  Si  Si28  1  0.545447  0.795161  0.313848  1
  Si  Si29  1  0.449352  0.208120  0.817174  1
  Si  Si30  1  0.795161  0.545447  0.686152  1
  Si  Si31  1  0.208120  0.449352  0.182826  1
  Si  Si32  1  0.704492  0.045690  0.564730  1
  Si  Si33  1  0.953577  0.291473  0.938305  1
  Si  Si34  1  0.045690  0.704492  0.435270  1
  Rh  Rh35  1  0.332183  0.332183  0.000000  1
