# generated using pymatgen
data_AcIN
_symmetry_space_group_name_H-M   'P 1'
_cell_length_a   4.47144335
_cell_length_b   4.47144461
_cell_length_c   11.19665085
_cell_angle_alpha   88.55106811
_cell_angle_beta   88.55106799
_cell_angle_gamma   54.52653413
_symmetry_Int_Tables_number   1
_chemical_formula_structural   AcIN
_chemical_formula_sum   'Ac2 I2 N2'
_cell_volume   182.23733982
_cell_formula_units_Z   2
loop_
 _symmetry_equiv_pos_site_id
 _symmetry_equiv_pos_as_xyz
  1  'x, y, z'
loop_
 _atom_site_type_symbol
 _atom_site_label
 _atom_site_symmetry_multiplicity
 _atom_site_fract_x
 _atom_site_fract_y
 _atom_site_fract_z
 _atom_site_occupancy
  Ac  Ac0  1  0.854089  0.854089  0.123976  1
  Ac  Ac1  1  0.145911  0.145911  0.876024  1
  I  I2  1  0.826519  0.826519  0.671591  1
  I  I3  1  0.173481  0.173481  0.328409  1
  N  N4  1  0.581591  0.581591  0.025254  1
  N  N5  1  0.418409  0.418409  0.974746  1
