# generated using pymatgen
data_Hf5Zr3Ti2(SiSn3)2
_symmetry_space_group_name_H-M   'P 1'
_cell_length_a   8.58653000
_cell_length_b   8.58652990
_cell_length_c   5.78348500
_cell_angle_alpha   90.00000000
_cell_angle_beta   90.00000000
_cell_angle_gamma   120.00000037
_symmetry_Int_Tables_number   1
_chemical_formula_structural   Hf5Zr3Ti2(SiSn3)2
_chemical_formula_sum   'Hf5 Zr3 Ti2 Si2 Sn6'
_cell_volume   369.27985960
_cell_formula_units_Z   1
loop_
 _symmetry_equiv_pos_site_id
 _symmetry_equiv_pos_as_xyz
  1  'x, y, z'
loop_
 _atom_site_type_symbol
 _atom_site_label
 _atom_site_symmetry_multiplicity
 _atom_site_fract_x
 _atom_site_fract_y
 _atom_site_fract_z
 _atom_site_occupancy
  Hf  Hf0  1  0.333333  0.666667  0.503396  1
  Hf  Hf1  1  0.666667  0.333333  0.503396  1
  Hf  Hf2  1  0.734427  0.734427  0.746641  1
  Hf  Hf3  1  0.265573  0.000000  0.746641  1
  Hf  Hf4  1  0.000000  0.265573  0.746641  1
  Zr  Zr5  1  0.251979  0.251979  0.253137  1
  Zr  Zr6  1  0.748021  0.000000  0.253137  1
  Zr  Zr7  1  0.000000  0.748021  0.253137  1
  Ti  Ti8  1  0.666667  0.333333  0.996582  1
  Ti  Ti9  1  0.333333  0.666667  0.996582  1
  Si  Si10  1  0.000000  0.000000  0.983104  1
  Si  Si11  1  0.000000  0.000000  0.517034  1
  Sn  Sn12  1  0.393089  0.393089  0.757996  1
  Sn  Sn13  1  0.606911  0.000000  0.757996  1
  Sn  Sn14  1  0.000000  0.606911  0.757996  1
  Sn  Sn15  1  0.600589  0.600589  0.242194  1
  Sn  Sn16  1  0.399411  0.000000  0.242194  1
  Sn  Sn17  1  0.000000  0.399411  0.242194  1
