# generated using pymatgen
data_Ho3CdIn3CuRu
_symmetry_space_group_name_H-M   'P 1'
_cell_length_a   7.74952100
_cell_length_b   7.74951984
_cell_length_c   3.91771200
_cell_angle_alpha   90.00000000
_cell_angle_beta   90.00000000
_cell_angle_gamma   120.00000069
_symmetry_Int_Tables_number   1
_chemical_formula_structural   Ho3CdIn3CuRu
_chemical_formula_sum   'Ho3 Cd1 In3 Cu1 Ru1'
_cell_volume   203.75711806
_cell_formula_units_Z   1
loop_
 _symmetry_equiv_pos_site_id
 _symmetry_equiv_pos_as_xyz
  1  'x, y, z'
loop_
 _atom_site_type_symbol
 _atom_site_label
 _atom_site_symmetry_multiplicity
 _atom_site_fract_x
 _atom_site_fract_y
 _atom_site_fract_z
 _atom_site_occupancy
  Ho  Ho0  1  0.034404  0.609409  0.500000  1
  Ho  Ho1  1  0.390591  0.424994  0.500000  1
  Ho  Ho2  1  0.575006  0.965596  0.500000  1
  Cd  Cd3  1  0.666667  0.333333  0.000000  1
  In  In4  1  0.748401  0.751722  0.000000  1
  In  In5  1  0.003320  0.251599  0.000000  1
  In  In6  1  0.248278  0.996680  0.000000  1
  Cu  Cu7  1  0.000000  0.000000  0.500000  1
  Ru  Ru8  1  0.333333  0.666667  0.000000  1
