# generated using pymatgen
data_CaSm6FeCl12
_symmetry_space_group_name_H-M   'P 1'
_cell_length_a   8.82726304
_cell_length_b   9.17005506
_cell_length_c   9.13624712
_cell_angle_alpha   107.66626284
_cell_angle_beta   106.59500683
_cell_angle_gamma   106.30942182
_symmetry_Int_Tables_number   1
_chemical_formula_structural   CaSm6FeCl12
_chemical_formula_sum   'Ca1 Sm6 Fe1 Cl12'
_cell_volume   618.21552015
_cell_formula_units_Z   1
loop_
 _symmetry_equiv_pos_site_id
 _symmetry_equiv_pos_as_xyz
  1  'x, y, z'
loop_
 _atom_site_type_symbol
 _atom_site_label
 _atom_site_symmetry_multiplicity
 _atom_site_fract_x
 _atom_site_fract_y
 _atom_site_fract_z
 _atom_site_occupancy
  Ca  Ca0  1  0.500000  0.500000  0.500000  1
  Sm  Sm1  1  0.297041  0.100324  0.022577  1
  Sm  Sm2  1  0.019883  0.322722  0.112893  1
  Sm  Sm3  1  0.114473  0.025865  0.323079  1
  Sm  Sm4  1  0.885526  0.974135  0.676921  1
  Sm  Sm5  1  0.980117  0.677278  0.887106  1
  Sm  Sm6  1  0.702959  0.899676  0.977422  1
  Fe  Fe7  1  0.000000  0.000000  0.000000  1
  Cl  Cl8  1  0.678479  0.211554  0.068525  1
  Cl  Cl9  1  0.370970  0.448901  0.166906  1
  Cl  Cl10  1  0.073000  0.685818  0.212593  1
  Cl  Cl11  1  0.785963  0.929011  0.314292  1
  Cl  Cl12  1  0.458291  0.169365  0.373705  1
  Cl  Cl13  1  0.161122  0.372713  0.455153  1
  Cl  Cl14  1  0.838879  0.627287  0.544848  1
  Cl  Cl15  1  0.541709  0.830636  0.626295  1
  Cl  Cl16  1  0.214036  0.070989  0.685708  1
  Cl  Cl17  1  0.927000  0.314182  0.787406  1
  Cl  Cl18  1  0.629031  0.551100  0.833094  1
  Cl  Cl19  1  0.321521  0.788445  0.931475  1
