# generated using pymatgen
data_La3NdC4SeBr
_symmetry_space_group_name_H-M   'P 1'
_cell_length_a   7.62882662
_cell_length_b   7.62892486
_cell_length_c   6.96832602
_cell_angle_alpha   79.54111463
_cell_angle_beta   79.49602971
_cell_angle_gamma   33.21601378
_symmetry_Int_Tables_number   1
_chemical_formula_structural   La3NdC4SeBr
_chemical_formula_sum   'La3 Nd1 C4 Se1 Br1'
_cell_volume   218.12168247
_cell_formula_units_Z   1
loop_
 _symmetry_equiv_pos_site_id
 _symmetry_equiv_pos_as_xyz
  1  'x, y, z'
loop_
 _atom_site_type_symbol
 _atom_site_label
 _atom_site_symmetry_multiplicity
 _atom_site_fract_x
 _atom_site_fract_y
 _atom_site_fract_z
 _atom_site_occupancy
  La  La0  1  0.553068  0.148644  0.138453  1
  La  La1  1  0.150013  0.556741  0.654609  1
  La  La2  1  0.438966  0.849262  0.847503  1
  Nd  Nd3  1  0.855235  0.451894  0.359333  1
  C  C4  1  0.359536  0.098797  0.470127  1
  C  C5  1  0.897339  0.641964  0.029014  1
  C  C6  1  0.646851  0.899881  0.524478  1
  C  C7  1  0.093847  0.352895  0.978293  1
  Se  Se8  1  0.784065  0.217001  0.744429  1
  Br  Br9  1  0.221080  0.782922  0.253762  1
