# generated using pymatgen
data_Cr3(BiO6)2
_symmetry_space_group_name_H-M   'P 1'
_cell_length_a   10.24761636
_cell_length_b   10.24871231
_cell_length_c   10.24705933
_cell_angle_alpha   55.59777290
_cell_angle_beta   55.59390427
_cell_angle_gamma   55.60066836
_symmetry_Int_Tables_number   1
_chemical_formula_structural   Cr3(BiO6)2
_chemical_formula_sum   'Cr6 Bi4 O24'
_cell_volume   683.23088443
_cell_formula_units_Z   2
loop_
 _symmetry_equiv_pos_site_id
 _symmetry_equiv_pos_as_xyz
  1  'x, y, z'
loop_
 _atom_site_type_symbol
 _atom_site_label
 _atom_site_symmetry_multiplicity
 _atom_site_fract_x
 _atom_site_fract_y
 _atom_site_fract_z
 _atom_site_occupancy
  Cr  Cr0  1  0.539492  0.246758  0.964342  1
  Cr  Cr1  1  0.753204  0.035658  0.460528  1
  Cr  Cr2  1  0.246796  0.964342  0.539472  1
  Cr  Cr3  1  0.460508  0.753242  0.035658  1
  Cr  Cr4  1  0.035666  0.460549  0.753204  1
  Cr  Cr5  1  0.964334  0.539451  0.246796  1
  Bi  Bi6  1  0.650040  0.650065  0.650063  1
  Bi  Bi7  1  0.142608  0.142640  0.142625  1
  Bi  Bi8  1  0.857392  0.857360  0.857375  1
  Bi  Bi9  1  0.349960  0.349935  0.349937  1
  O  O10  1  0.480448  0.552849  0.164459  1
  O  O11  1  0.882489  0.732203  0.117137  1
  O  O12  1  0.153791  0.514636  0.217569  1
  O  O13  1  0.835550  0.519497  0.447230  1
  O  O14  1  0.117511  0.267797  0.882863  1
  O  O15  1  0.846209  0.485364  0.782431  1
  O  O16  1  0.164450  0.480503  0.552770  1
  O  O17  1  0.485346  0.782478  0.846205  1
  O  O18  1  0.393046  0.202612  0.986923  1
  O  O19  1  0.782446  0.846151  0.485371  1
  O  O20  1  0.732242  0.117084  0.882488  1
  O  O21  1  0.013091  0.606959  0.797332  1
  O  O22  1  0.552800  0.164403  0.480505  1
  O  O23  1  0.882874  0.117480  0.267797  1
  O  O24  1  0.606954  0.797388  0.013077  1
  O  O25  1  0.797347  0.013055  0.606999  1
  O  O26  1  0.202653  0.986945  0.393001  1
  O  O27  1  0.519552  0.447151  0.835541  1
  O  O28  1  0.117126  0.882520  0.732203  1
  O  O29  1  0.447200  0.835597  0.519495  1
  O  O30  1  0.986909  0.393041  0.202668  1
  O  O31  1  0.267758  0.882916  0.117512  1
  O  O32  1  0.217554  0.153849  0.514629  1
  O  O33  1  0.514654  0.217522  0.153795  1
