# generated using pymatgen
data_Tb15Er5(Bi2Te)4
_symmetry_space_group_name_H-M   'P 1'
_cell_length_a   8.20729001
_cell_length_b   9.48827700
_cell_length_c   11.98279400
_cell_angle_alpha   89.99929952
_cell_angle_beta   89.99748681
_cell_angle_gamma   90.00166058
_symmetry_Int_Tables_number   1
_chemical_formula_structural   Tb15Er5(Bi2Te)4
_chemical_formula_sum   'Tb15 Er5 Bi8 Te4'
_cell_volume   933.13660773
_cell_formula_units_Z   1
loop_
 _symmetry_equiv_pos_site_id
 _symmetry_equiv_pos_as_xyz
  1  'x, y, z'
loop_
 _atom_site_type_symbol
 _atom_site_label
 _atom_site_symmetry_multiplicity
 _atom_site_fract_x
 _atom_site_fract_y
 _atom_site_fract_z
 _atom_site_occupancy
  Tb  Tb0  1  0.353843  0.749904  0.213390  1
  Tb  Tb1  1  0.853874  0.750307  0.286682  1
  Tb  Tb2  1  0.646413  0.250100  0.786405  1
  Tb  Tb3  1  0.145927  0.250396  0.713269  1
  Tb  Tb4  1  0.689534  0.561814  0.057352  1
  Tb  Tb5  1  0.189147  0.938049  0.442654  1
  Tb  Tb6  1  0.310536  0.061895  0.942540  1
  Tb  Tb7  1  0.477077  0.250105  0.488526  1
  Tb  Tb8  1  0.976636  0.250206  0.011554  1
  Tb  Tb9  1  0.523408  0.749780  0.511615  1
  Tb  Tb10  1  0.023375  0.750163  0.988369  1
  Tb  Tb11  1  0.319848  0.250258  0.218023  1
  Tb  Tb12  1  0.819863  0.249934  0.282321  1
  Tb  Tb13  1  0.680200  0.750302  0.782010  1
  Tb  Tb14  1  0.180235  0.749853  0.717908  1
  Er  Er15  1  0.810559  0.437202  0.557355  1
  Er  Er16  1  0.310691  0.437216  0.942693  1
  Er  Er17  1  0.810859  0.063028  0.557209  1
  Er  Er18  1  0.689270  0.937279  0.057271  1
  Er  Er19  1  0.189228  0.562820  0.442806  1
  Bi  Bi20  1  0.569307  0.995625  0.325378  1
  Bi  Bi21  1  0.069135  0.504482  0.174743  1
  Bi  Bi22  1  0.431012  0.495569  0.674463  1
  Bi  Bi23  1  0.930752  0.004497  0.825188  1
  Bi  Bi24  1  0.431126  0.004448  0.674567  1
  Bi  Bi25  1  0.930875  0.495748  0.825097  1
  Bi  Bi26  1  0.569099  0.504392  0.325617  1
  Bi  Bi27  1  0.068959  0.995772  0.174659  1
  Te  Te28  1  0.407081  0.748909  0.957578  1
  Te  Te29  1  0.906481  0.749689  0.542606  1
  Te  Te30  1  0.592896  0.248803  0.042364  1
  Te  Te31  1  0.092753  0.251456  0.457784  1
