# generated using pymatgen
data_Y2Lu2TcB12Ru
_symmetry_space_group_name_H-M   'P 1'
_cell_length_a   3.63723800
_cell_length_b   9.09453665
_cell_length_c   11.49065610
_cell_angle_alpha   89.87431334
_cell_angle_beta   90.00000000
_cell_angle_gamma   90.00000000
_symmetry_Int_Tables_number   1
_chemical_formula_structural   Y2Lu2TcB12Ru
_chemical_formula_sum   'Y4 Lu4 Tc2 B24 Ru2'
_cell_volume   380.09843303
_cell_formula_units_Z   2
loop_
 _symmetry_equiv_pos_site_id
 _symmetry_equiv_pos_as_xyz
  1  'x, y, z'
loop_
 _atom_site_type_symbol
 _atom_site_label
 _atom_site_symmetry_multiplicity
 _atom_site_fract_x
 _atom_site_fract_y
 _atom_site_fract_z
 _atom_site_occupancy
  Y  Y0  1  0.000000  0.323841  0.415548  1
  Y  Y1  1  0.000000  0.676159  0.584452  1
  Y  Y2  1  0.000000  0.820254  0.087269  1
  Y  Y3  1  0.000000  0.179746  0.912731  1
  Lu  Lu4  1  0.000000  0.942007  0.370771  1
  Lu  Lu5  1  0.000000  0.057993  0.629229  1
  Lu  Lu6  1  0.000000  0.443254  0.129947  1
  Lu  Lu7  1  0.000000  0.556746  0.870053  1
  Tc  Tc8  1  0.000000  0.639141  0.319256  1
  Tc  Tc9  1  0.000000  0.360859  0.680744  1
  B  B10  1  0.500000  0.553350  0.432685  1
  B  B11  1  0.500000  0.446650  0.567315  1
  B  B12  1  0.500000  0.054204  0.067307  1
  B  B13  1  0.500000  0.945796  0.932693  1
  B  B14  1  0.500000  0.750146  0.418422  1
  B  B15  1  0.500000  0.249854  0.581578  1
  B  B16  1  0.500000  0.250124  0.081694  1
  B  B17  1  0.500000  0.749876  0.918306  1
  B  B18  1  0.500000  0.792161  0.265154  1
  B  B19  1  0.500000  0.207839  0.734846  1
  B  B20  1  0.500000  0.291180  0.234359  1
  B  B21  1  0.500000  0.708820  0.765641  1
  B  B22  1  0.500000  0.629948  0.184480  1
  B  B23  1  0.500000  0.370052  0.815520  1
  B  B24  1  0.500000  0.129674  0.314704  1
  B  B25  1  0.500000  0.870326  0.685296  1
  B  B26  1  0.500000  0.982431  0.212580  1
  B  B27  1  0.500000  0.017569  0.787420  1
  B  B28  1  0.500000  0.481576  0.286825  1
  B  B29  1  0.500000  0.518424  0.713175  1
  B  B30  1  0.500000  0.600618  0.027551  1
  B  B31  1  0.500000  0.399382  0.972449  1
  B  B32  1  0.500000  0.100732  0.472080  1
  B  B33  1  0.500000  0.899268  0.527920  1
  Ru  Ru34  1  0.000000  0.138319  0.179522  1
  Ru  Ru35  1  0.000000  0.861681  0.820478  1
