# generated using pymatgen
data_Tb5Hf2CdPt4
_symmetry_space_group_name_H-M   'P 1'
_cell_length_a   4.65829500
_cell_length_b   7.14802057
_cell_length_c   8.44445390
_cell_angle_alpha   94.90904669
_cell_angle_beta   90.00000000
_cell_angle_gamma   90.00000000
_symmetry_Int_Tables_number   1
_chemical_formula_structural   Tb5Hf2CdPt4
_chemical_formula_sum   'Tb5 Hf2 Cd1 Pt4'
_cell_volume   280.14852570
_cell_formula_units_Z   1
loop_
 _symmetry_equiv_pos_site_id
 _symmetry_equiv_pos_as_xyz
  1  'x, y, z'
loop_
 _atom_site_type_symbol
 _atom_site_label
 _atom_site_symmetry_multiplicity
 _atom_site_fract_x
 _atom_site_fract_y
 _atom_site_fract_z
 _atom_site_occupancy
  Tb  Tb0  1  0.250000  0.853809  0.930145  1
  Tb  Tb1  1  0.750000  0.506289  0.835519  1
  Tb  Tb2  1  0.250000  0.462106  0.172869  1
  Tb  Tb3  1  0.750000  0.037500  0.683084  1
  Tb  Tb4  1  0.250000  0.977124  0.319004  1
  Hf  Hf5  1  0.750000  0.641947  0.427729  1
  Hf  Hf6  1  0.250000  0.369090  0.569084  1
  Cd  Cd7  1  0.750000  0.145996  0.074401  1
  Pt  Pt8  1  0.750000  0.271954  0.413194  1
  Pt  Pt9  1  0.250000  0.740066  0.583608  1
  Pt  Pt10  1  0.750000  0.744254  0.127894  1
  Pt  Pt11  1  0.250000  0.249865  0.863470  1
