# generated using pymatgen
data_Nd16MgAg3(IrRh)2
_symmetry_space_group_name_H-M   'P 1'
_cell_length_a   9.90304078
_cell_length_b   9.91575091
_cell_length_c   9.94395700
_cell_angle_alpha   59.90586090
_cell_angle_beta   59.86323402
_cell_angle_gamma   59.77841972
_symmetry_Int_Tables_number   1
_chemical_formula_structural   Nd16MgAg3(IrRh)2
_chemical_formula_sum   'Nd16 Mg1 Ag3 Ir2 Rh2'
_cell_volume   688.09468954
_cell_formula_units_Z   1
loop_
 _symmetry_equiv_pos_site_id
 _symmetry_equiv_pos_as_xyz
  1  'x, y, z'
loop_
 _atom_site_type_symbol
 _atom_site_label
 _atom_site_symmetry_multiplicity
 _atom_site_fract_x
 _atom_site_fract_y
 _atom_site_fract_z
 _atom_site_occupancy
  Nd  Nd0  1  0.599028  0.598620  0.598955  1
  Nd  Nd1  1  0.599028  0.598620  0.203396  1
  Nd  Nd2  1  0.598531  0.203280  0.599094  1
  Nd  Nd3  1  0.192227  0.602037  0.602868  1
  Nd  Nd4  1  0.058860  0.440148  0.440920  1
  Nd  Nd5  1  0.436498  0.062195  0.062513  1
  Nd  Nd6  1  0.436498  0.062195  0.438795  1
  Nd  Nd7  1  0.058860  0.440148  0.060071  1
  Nd  Nd8  1  0.436896  0.438077  0.062514  1
  Nd  Nd9  1  0.058352  0.059703  0.440972  1
  Nd  Nd10  1  0.186758  0.812376  0.813731  1
  Nd  Nd11  1  0.811239  0.188047  0.187021  1
  Nd  Nd12  1  0.811239  0.188047  0.813694  1
  Nd  Nd13  1  0.186758  0.812376  0.187134  1
  Nd  Nd14  1  0.812609  0.814148  0.186621  1
  Nd  Nd15  1  0.187283  0.188244  0.812236  1
  Mg  Mg16  1  0.540318  0.819412  0.820136  1
  Ag  Ag17  1  0.831167  0.833957  0.833901  1
  Ag  Ag18  1  0.831167  0.833957  0.500976  1
  Ag  Ag19  1  0.830792  0.501410  0.833900  1
  Ir  Ir20  1  0.390737  0.393495  0.392379  1
  Ir  Ir21  1  0.390737  0.393495  0.823388  1
  Rh  Rh22  1  0.390926  0.823536  0.392769  1
  Rh  Rh23  1  0.823488  0.392476  0.392018  1
