# generated using pymatgen
data_ThNi2Pt2Au
_symmetry_space_group_name_H-M   'P 1'
_cell_length_a   5.20831156
_cell_length_b   5.20831210
_cell_length_c   5.20831155
_cell_angle_alpha   120.74918685
_cell_angle_beta   117.37653835
_cell_angle_gamma   91.65510100
_symmetry_Int_Tables_number   1
_chemical_formula_structural   ThNi2Pt2Au
_chemical_formula_sum   'Th1 Ni2 Pt2 Au1'
_cell_volume   101.16588819
_cell_formula_units_Z   1
loop_
 _symmetry_equiv_pos_site_id
 _symmetry_equiv_pos_as_xyz
  1  'x, y, z'
loop_
 _atom_site_type_symbol
 _atom_site_label
 _atom_site_symmetry_multiplicity
 _atom_site_fract_x
 _atom_site_fract_y
 _atom_site_fract_z
 _atom_site_occupancy
  Th  Th0  1  0.997199  0.997199  0.000000  1
  Ni  Ni1  1  0.622029  0.871336  0.249308  1
  Ni  Ni2  1  0.622029  0.372722  0.750692  1
  Pt  Pt3  1  0.126053  0.375003  0.751049  1
  Pt  Pt4  1  0.623954  0.375003  0.248951  1
  Au  Au5  1  0.258737  0.758737  0.500000  1
