# generated using pymatgen
data_Er3Tm2Co19Si11P
_symmetry_space_group_name_H-M   'P 1'
_cell_length_a   12.11206902
_cell_length_b   12.14718218
_cell_length_c   3.71285500
_cell_angle_alpha   90.00000000
_cell_angle_beta   90.00000000
_cell_angle_gamma   120.10828964
_symmetry_Int_Tables_number   1
_chemical_formula_structural   Er3Tm2Co19Si11P
_chemical_formula_sum   'Er3 Tm2 Co19 Si11 P1'
_cell_volume   472.56066180
_cell_formula_units_Z   1
loop_
 _symmetry_equiv_pos_site_id
 _symmetry_equiv_pos_as_xyz
  1  'x, y, z'
loop_
 _atom_site_type_symbol
 _atom_site_label
 _atom_site_symmetry_multiplicity
 _atom_site_fract_x
 _atom_site_fract_y
 _atom_site_fract_z
 _atom_site_occupancy
  Er  Er0  1  0.667244  0.333787  0.000000  1
  Er  Er1  1  0.332760  0.666021  0.000000  1
  Er  Er2  1  0.184794  0.185661  0.500000  1
  Tm  Tm3  1  0.814830  0.000862  0.500000  1
  Tm  Tm4  1  0.999950  0.813475  0.500000  1
  Co  Co5  1  0.823386  0.197312  0.000000  1
  Co  Co6  1  0.802945  0.622895  0.000000  1
  Co  Co7  1  0.377269  0.179934  0.000000  1
  Co  Co8  1  0.197380  0.819593  0.000000  1
  Co  Co9  1  0.622968  0.803100  0.000000  1
  Co  Co10  1  0.176082  0.373498  0.000000  1
  Co  Co11  1  0.558505  0.559008  0.000000  1
  Co  Co12  1  0.441677  0.000419  0.000000  1
  Co  Co13  1  0.999906  0.441582  0.000000  1
  Co  Co14  1  0.645177  0.124074  0.500000  1
  Co  Co15  1  0.876886  0.520480  0.500000  1
  Co  Co16  1  0.479134  0.356362  0.500000  1
  Co  Co17  1  0.123280  0.643291  0.500000  1
  Co  Co18  1  0.521235  0.877348  0.500000  1
  Co  Co19  1  0.354849  0.478812  0.500000  1
  Co  Co20  1  0.718939  0.718973  0.500000  1
  Co  Co21  1  0.281320  0.999557  0.500000  1
  Co  Co22  1  0.999536  0.277793  0.500000  1
  Co  Co23  1  0.999938  0.004770  0.000000  1
  Si  Si24  1  0.370540  0.370917  0.000000  1
  Si  Si25  1  0.629735  0.000546  0.000000  1
  Si  Si26  1  0.000129  0.629230  0.000000  1
  Si  Si27  1  0.840099  0.318508  0.500000  1
  Si  Si28  1  0.682353  0.521917  0.500000  1
  Si  Si29  1  0.478852  0.161168  0.500000  1
  Si  Si30  1  0.317915  0.839165  0.500000  1
  Si  Si31  1  0.521263  0.682367  0.500000  1
  Si  Si32  1  0.159668  0.477879  0.500000  1
  Si  Si33  1  0.817815  0.817552  0.000000  1
  Si  Si34  1  0.182253  0.999120  0.000000  1
  P  P35  1  0.999387  0.183023  0.000000  1
