# generated using pymatgen
data_ZrTi4Re11Tc13
_symmetry_space_group_name_H-M   'P 1'
_cell_length_a   8.35465747
_cell_length_b   8.36124324
_cell_length_c   8.36299133
_cell_angle_alpha   109.48571686
_cell_angle_beta   109.45381682
_cell_angle_gamma   109.44969038
_symmetry_Int_Tables_number   1
_chemical_formula_structural   ZrTi4Re11Tc13
_chemical_formula_sum   'Zr1 Ti4 Re11 Tc13'
_cell_volume   449.85249807
_cell_formula_units_Z   1
loop_
 _symmetry_equiv_pos_site_id
 _symmetry_equiv_pos_as_xyz
  1  'x, y, z'
loop_
 _atom_site_type_symbol
 _atom_site_label
 _atom_site_symmetry_multiplicity
 _atom_site_fract_x
 _atom_site_fract_y
 _atom_site_fract_z
 _atom_site_occupancy
  Zr  Zr0  1  0.999942  0.999931  0.000000  1
  Ti  Ti1  1  0.627422  0.000431  0.000000  1
  Ti  Ti2  1  0.000037  0.627364  0.000000  1
  Ti  Ti3  1  0.999863  0.000161  0.627347  1
  Ti  Ti4  1  0.372515  0.372814  0.372653  1
  Re  Re5  1  0.184019  0.806496  0.806360  1
  Re  Re6  1  0.377658  0.000136  0.193640  1
  Re  Re7  1  0.195892  0.376648  0.000000  1
  Re  Re8  1  0.999884  0.377391  0.193716  1
  Re  Re9  1  0.806169  0.183675  0.806284  1
  Re  Re10  1  0.805553  0.805599  0.182963  1
  Re  Re11  1  0.000021  0.194308  0.377498  1
  Re  Re12  1  0.194632  0.999723  0.377098  1
  Re  Re13  1  0.622590  0.622636  0.817037  1
  Re  Re14  1  0.817532  0.622624  0.622902  1
  Re  Re15  1  0.622523  0.816810  0.622502  1
  Tc  Tc16  1  0.400827  0.681115  0.000000  1
  Tc  Tc17  1  0.719337  0.318211  0.318073  1
  Tc  Tc18  1  0.401265  0.000138  0.681927  1
  Tc  Tc19  1  0.680173  0.400162  0.000000  1
  Tc  Tc20  1  0.999670  0.400943  0.682037  1
  Tc  Tc21  1  0.317634  0.718906  0.317963  1
  Tc  Tc22  1  0.318191  0.318153  0.718563  1
  Tc  Tc23  1  0.999864  0.681865  0.401431  1
  Tc  Tc24  1  0.681760  0.000075  0.401262  1
  Tc  Tc25  1  0.599628  0.599590  0.281437  1
  Tc  Tc26  1  0.280498  0.598813  0.598738  1
  Tc  Tc27  1  0.598432  0.280434  0.598569  1
  Tc  Tc28  1  0.376467  0.194847  0.000000  1
