# generated using pymatgen
data_Hf6Tc6BAs5
_symmetry_space_group_name_H-M   'P 1'
_cell_length_a   7.71006384
_cell_length_b   7.70782597
_cell_length_c   7.71006563
_cell_angle_alpha   127.33675271
_cell_angle_beta   125.05561859
_cell_angle_gamma   79.58676184
_symmetry_Int_Tables_number   1
_chemical_formula_structural   Hf6Tc6BAs5
_chemical_formula_sum   'Hf6 Tc6 B1 As5'
_cell_volume   288.15745576
_cell_formula_units_Z   1
loop_
 _symmetry_equiv_pos_site_id
 _symmetry_equiv_pos_as_xyz
  1  'x, y, z'
loop_
 _atom_site_type_symbol
 _atom_site_label
 _atom_site_symmetry_multiplicity
 _atom_site_fract_x
 _atom_site_fract_y
 _atom_site_fract_z
 _atom_site_occupancy
  Hf  Hf0  1  0.448342  0.650539  0.702197  1
  Hf  Hf1  1  0.549992  0.253652  0.203660  1
  Hf  Hf2  1  0.750013  0.844336  0.594323  1
  Hf  Hf3  1  0.249982  0.860730  0.110746  1
  Hf  Hf4  1  0.051711  0.253847  0.702136  1
  Hf  Hf5  1  0.950064  0.653788  0.203723  1
  Tc  Tc6  1  0.474206  0.494938  0.969144  1
  Tc  Tc7  1  0.025794  0.494938  0.520732  1
  Tc  Tc8  1  0.147565  0.254284  0.160668  1
  Tc  Tc9  1  0.906462  0.013069  0.160737  1
  Tc  Tc10  1  0.352332  0.013069  0.606607  1
  Tc  Tc11  1  0.593617  0.254284  0.606719  1
  B  B12  1  0.249967  0.254485  0.504519  1
  As  As13  1  0.749901  0.247617  0.997717  1
  As  As14  1  0.332976  0.587326  0.253647  1
  As  As15  1  0.666316  0.920685  0.253604  1
  As  As16  1  0.167080  0.920685  0.754369  1
  As  As17  1  0.833680  0.587326  0.754350  1
