# generated using pymatgen
data_Tb5Sc3Au4
_symmetry_space_group_name_H-M   'P 1'
_cell_length_a   4.83044700
_cell_length_b   7.09538640
_cell_length_c   8.69037200
_cell_angle_alpha   90.20806552
_cell_angle_beta   90.00000000
_cell_angle_gamma   90.00000000
_symmetry_Int_Tables_number   1
_chemical_formula_structural   Tb5Sc3Au4
_chemical_formula_sum   'Tb5 Sc3 Au4'
_cell_volume   297.85087242
_cell_formula_units_Z   1
loop_
 _symmetry_equiv_pos_site_id
 _symmetry_equiv_pos_as_xyz
  1  'x, y, z'
loop_
 _atom_site_type_symbol
 _atom_site_label
 _atom_site_symmetry_multiplicity
 _atom_site_fract_x
 _atom_site_fract_y
 _atom_site_fract_z
 _atom_site_occupancy
  Tb  Tb0  1  0.750000  0.647928  0.420249  1
  Tb  Tb1  1  0.250000  0.480383  0.174601  1
  Tb  Tb2  1  0.250000  0.991655  0.319767  1
  Tb  Tb3  1  0.750000  0.515298  0.822681  1
  Tb  Tb4  1  0.750000  0.020443  0.684614  1
  Sc  Sc5  1  0.250000  0.855155  0.924774  1
  Sc  Sc6  1  0.250000  0.353319  0.580817  1
  Sc  Sc7  1  0.750000  0.145850  0.075852  1
  Au  Au8  1  0.250000  0.241154  0.896616  1
  Au  Au9  1  0.250000  0.745942  0.610525  1
  Au  Au10  1  0.750000  0.758623  0.091949  1
  Au  Au11  1  0.750000  0.244248  0.397556  1
