# generated using pymatgen
data_Na5ErBr8
_symmetry_space_group_name_H-M   'P 1'
_cell_length_a   7.39227400
_cell_length_b   7.39227461
_cell_length_c   8.54901500
_cell_angle_alpha   90.00000000
_cell_angle_beta   90.00000000
_cell_angle_gamma   109.37538849
_symmetry_Int_Tables_number   1
_chemical_formula_structural   Na5ErBr8
_chemical_formula_sum   'Na5 Er1 Br8'
_cell_volume   440.70918526
_cell_formula_units_Z   1
loop_
 _symmetry_equiv_pos_site_id
 _symmetry_equiv_pos_as_xyz
  1  'x, y, z'
loop_
 _atom_site_type_symbol
 _atom_site_label
 _atom_site_symmetry_multiplicity
 _atom_site_fract_x
 _atom_site_fract_y
 _atom_site_fract_z
 _atom_site_occupancy
  Na  Na0  1  0.500000  0.000000  0.237670  1
  Na  Na1  1  0.000000  0.500000  0.762330  1
  Na  Na2  1  0.500000  0.000000  0.762330  1
  Na  Na3  1  0.000000  0.500000  0.237670  1
  Na  Na4  1  0.500000  0.500000  0.000000  1
  Er  Er5  1  0.500000  0.500000  0.500000  1
  Br  Br6  1  0.269929  0.269929  0.269568  1
  Br  Br7  1  0.730071  0.730071  0.269568  1
  Br  Br8  1  0.267200  0.732800  0.500000  1
  Br  Br9  1  0.269929  0.269929  0.730432  1
  Br  Br10  1  0.730071  0.730071  0.730432  1
  Br  Br11  1  0.254604  0.745396  0.000000  1
  Br  Br12  1  0.732800  0.267200  0.500000  1
  Br  Br13  1  0.745396  0.254604  0.000000  1
