# generated using pymatgen
data_Ce3Dy5Ho2(SiB4)4
_symmetry_space_group_name_H-M   'P 1'
_cell_length_a   7.26202950
_cell_length_b   7.26202939
_cell_length_c   8.17209700
_cell_angle_alpha   89.99664595
_cell_angle_beta   89.99664597
_cell_angle_gamma   90.08897287
_symmetry_Int_Tables_number   1
_chemical_formula_structural   Ce3Dy5Ho2(SiB4)4
_chemical_formula_sum   'Ce3 Dy5 Ho2 Si4 B16'
_cell_volume   430.97194375
_cell_formula_units_Z   1
loop_
 _symmetry_equiv_pos_site_id
 _symmetry_equiv_pos_as_xyz
  1  'x, y, z'
loop_
 _atom_site_type_symbol
 _atom_site_label
 _atom_site_symmetry_multiplicity
 _atom_site_fract_x
 _atom_site_fract_y
 _atom_site_fract_z
 _atom_site_occupancy
  Ce  Ce0  1  0.681785  0.181785  0.228851  1
  Ce  Ce1  1  0.317629  0.817629  0.770898  1
  Ce  Ce2  1  0.318432  0.818432  0.229637  1
  Dy  Dy3  1  0.819907  0.679939  0.221112  1
  Dy  Dy4  1  0.819719  0.680305  0.778738  1
  Dy  Dy5  1  0.681552  0.181552  0.778336  1
  Dy  Dy6  1  0.180305  0.319719  0.778738  1
  Dy  Dy7  1  0.179939  0.319907  0.221112  1
  Ho  Ho8  1  0.999164  0.000984  0.500524  1
  Ho  Ho9  1  0.500984  0.499164  0.500524  1
  Si  Si10  1  0.113964  0.613964  0.500631  1
  Si  Si11  1  0.884246  0.384246  0.501069  1
  Si  Si12  1  0.385065  0.115669  0.501345  1
  Si  Si13  1  0.615669  0.885065  0.501345  1
  B  B14  1  0.172341  0.038882  0.998807  1
  B  B15  1  0.827242  0.961546  0.999347  1
  B  B16  1  0.959761  0.172416  0.999110  1
  B  B17  1  0.328435  0.539441  0.998957  1
  B  B18  1  0.039441  0.828435  0.998957  1
  B  B19  1  0.672416  0.459761  0.999110  1
  B  B20  1  0.538882  0.672341  0.998807  1
  B  B21  1  0.461546  0.327242  0.999347  1
  B  B22  1  0.091267  0.591267  0.999119  1
  B  B23  1  0.908990  0.408990  0.000662  1
  B  B24  1  0.409884  0.090484  0.999405  1
  B  B25  1  0.590484  0.909884  0.999405  1
  B  B26  1  0.999770  0.000173  0.160186  1
  B  B27  1  0.000486  0.000524  0.837868  1
  B  B28  1  0.500524  0.500486  0.837868  1
  B  B29  1  0.500173  0.499770  0.160186  1
