# generated using pymatgen
data_NdHo2Al7Pd2
_symmetry_space_group_name_H-M   'P 1'
_cell_length_a   9.19115432
_cell_length_b   9.19115486
_cell_length_c   9.19115400
_cell_angle_alpha   35.11780560
_cell_angle_beta   35.11780079
_cell_angle_gamma   35.11780517
_symmetry_Int_Tables_number   1
_chemical_formula_structural   NdHo2Al7Pd2
_chemical_formula_sum   'Nd1 Ho2 Al7 Pd2'
_cell_volume   229.46617974
_cell_formula_units_Z   1
loop_
 _symmetry_equiv_pos_site_id
 _symmetry_equiv_pos_as_xyz
  1  'x, y, z'
loop_
 _atom_site_type_symbol
 _atom_site_label
 _atom_site_symmetry_multiplicity
 _atom_site_fract_x
 _atom_site_fract_y
 _atom_site_fract_z
 _atom_site_occupancy
  Nd  Nd0  1  0.000000  0.000000  0.000000  1
  Ho  Ho1  1  0.143376  0.143376  0.143376  1
  Ho  Ho2  1  0.856624  0.856624  0.856624  1
  Al  Al3  1  0.583683  0.583683  0.073365  1
  Al  Al4  1  0.926636  0.416316  0.416318  1
  Al  Al5  1  0.416316  0.926636  0.416318  1
  Al  Al6  1  0.500000  0.500000  0.500000  1
  Al  Al7  1  0.583684  0.073364  0.583682  1
  Al  Al8  1  0.073364  0.583684  0.583682  1
  Al  Al9  1  0.416317  0.416317  0.926635  1
  Pd  Pd10  1  0.335702  0.335702  0.335702  1
  Pd  Pd11  1  0.664299  0.664299  0.664299  1
