# generated using pymatgen
data_Al5Zn(Pd3Pt2)2
_symmetry_space_group_name_H-M   'P 1'
_cell_length_a   4.11741100
_cell_length_b   5.42494852
_cell_length_c   10.58730094
_cell_angle_alpha   89.88940694
_cell_angle_beta   90.00000000
_cell_angle_gamma   90.00000000
_symmetry_Int_Tables_number   1
_chemical_formula_structural   Al5Zn(Pd3Pt2)2
_chemical_formula_sum   'Al5 Zn1 Pd6 Pt4'
_cell_volume   236.48537663
_cell_formula_units_Z   1
loop_
 _symmetry_equiv_pos_site_id
 _symmetry_equiv_pos_as_xyz
  1  'x, y, z'
loop_
 _atom_site_type_symbol
 _atom_site_label
 _atom_site_symmetry_multiplicity
 _atom_site_fract_x
 _atom_site_fract_y
 _atom_site_fract_z
 _atom_site_occupancy
  Al  Al0  1  0.000000  0.998700  0.000440  1
  Al  Al1  1  0.000000  0.492769  0.497697  1
  Al  Al2  1  0.500000  0.838236  0.640794  1
  Al  Al3  1  0.500000  0.662862  0.145251  1
  Al  Al4  1  0.500000  0.337361  0.858119  1
  Zn  Zn5  1  0.500000  0.166497  0.359388  1
  Pd  Pd6  1  0.000000  0.993516  0.503863  1
  Pd  Pd7  1  0.000000  0.501080  0.998572  1
  Pd  Pd8  1  0.000000  0.907474  0.233048  1
  Pd  Pd9  1  0.000000  0.095605  0.767870  1
  Pd  Pd10  1  0.000000  0.409920  0.262539  1
  Pd  Pd11  1  0.000000  0.596428  0.732485  1
  Pt  Pt12  1  0.500000  0.189157  0.102513  1
  Pt  Pt13  1  0.500000  0.811813  0.892907  1
  Pt  Pt14  1  0.500000  0.684193  0.394290  1
  Pt  Pt15  1  0.500000  0.314389  0.610226  1
