# generated using pymatgen
data_Dy8Ho2IrOs3
_symmetry_space_group_name_H-M   'P 1'
_cell_length_a   6.40202236
_cell_length_b   7.36094179
_cell_length_c   8.41381862
_cell_angle_alpha   96.75928821
_cell_angle_beta   112.22584295
_cell_angle_gamma   90.02393742
_symmetry_Int_Tables_number   1
_chemical_formula_structural   Dy8Ho2IrOs3
_chemical_formula_sum   'Dy8 Ho2 Ir1 Os3'
_cell_volume   364.05358818
_cell_formula_units_Z   1
loop_
 _symmetry_equiv_pos_site_id
 _symmetry_equiv_pos_as_xyz
  1  'x, y, z'
loop_
 _atom_site_type_symbol
 _atom_site_label
 _atom_site_symmetry_multiplicity
 _atom_site_fract_x
 _atom_site_fract_y
 _atom_site_fract_z
 _atom_site_occupancy
  Dy  Dy0  1  0.972044  0.915099  0.180324  1
  Dy  Dy1  1  0.790642  0.582614  0.817135  1
  Dy  Dy2  1  0.023698  0.083727  0.814036  1
  Dy  Dy3  1  0.207522  0.418357  0.180860  1
  Dy  Dy4  1  0.648857  0.816587  0.438587  1
  Dy  Dy5  1  0.210331  0.682372  0.563006  1
  Dy  Dy6  1  0.351963  0.181996  0.564336  1
  Dy  Dy7  1  0.793088  0.319282  0.438175  1
  Ho  Ho8  1  0.422528  0.748851  0.999247  1
  Ho  Ho9  1  0.577531  0.250430  0.999612  1
  Ir  Ir10  1  0.395763  0.076453  0.221201  1
  Os  Os11  1  0.822940  0.575856  0.217871  1
  Os  Os12  1  0.606580  0.924832  0.782287  1
  Os  Os13  1  0.176511  0.423543  0.783322  1
