# generated using pymatgen
data_Nd5Er9Th2(CdIr)4
_symmetry_space_group_name_H-M   'P 1'
_cell_length_a   9.71382283
_cell_length_b   9.71245884
_cell_length_c   9.71190332
_cell_angle_alpha   60.01268145
_cell_angle_beta   59.98462429
_cell_angle_gamma   60.24449290
_symmetry_Int_Tables_number   1
_chemical_formula_structural   Nd5Er9Th2(CdIr)4
_chemical_formula_sum   'Nd5 Er9 Th2 Cd4 Ir4'
_cell_volume   649.07643619
_cell_formula_units_Z   1
loop_
 _symmetry_equiv_pos_site_id
 _symmetry_equiv_pos_as_xyz
  1  'x, y, z'
loop_
 _atom_site_type_symbol
 _atom_site_label
 _atom_site_symmetry_multiplicity
 _atom_site_fract_x
 _atom_site_fract_y
 _atom_site_fract_z
 _atom_site_occupancy
  Nd  Nd0  1  0.559109  0.941532  0.939491  1
  Nd  Nd1  1  0.564544  0.938872  0.560908  1
  Nd  Nd2  1  0.941505  0.559570  0.935734  1
  Nd  Nd3  1  0.564740  0.561724  0.936237  1
  Nd  Nd4  1  0.942890  0.940349  0.556910  1
  Er  Er5  1  0.350158  0.951437  0.350450  1
  Er  Er6  1  0.950625  0.351416  0.349908  1
  Er  Er7  1  0.813791  0.187685  0.186166  1
  Er  Er8  1  0.186234  0.814745  0.813379  1
  Er  Er9  1  0.186203  0.813487  0.188404  1
  Er  Er10  1  0.814878  0.187155  0.812112  1
  Er  Er11  1  0.182741  0.186539  0.814803  1
  Er  Er12  1  0.813078  0.812422  0.186482  1
  Er  Er13  1  0.942340  0.558931  0.558628  1
  Th  Th14  1  0.346278  0.345278  0.350211  1
  Th  Th15  1  0.345486  0.346963  0.957582  1
  Cd  Cd16  1  0.582653  0.579697  0.577199  1
  Cd  Cd17  1  0.579400  0.580449  0.261404  1
  Cd  Cd18  1  0.580320  0.259927  0.579707  1
  Cd  Cd19  1  0.257592  0.580456  0.578995  1
  Ir  Ir20  1  0.140929  0.141153  0.144447  1
  Ir  Ir21  1  0.139596  0.143644  0.573379  1
  Ir  Ir22  1  0.141229  0.573544  0.145334  1
  Ir  Ir23  1  0.573680  0.143025  0.142130  1
