# generated using pymatgen
data_Zr10BeSi(Sn2Sb)2
_symmetry_space_group_name_H-M   'P 1'
_cell_length_a   8.65716116
_cell_length_b   8.65716033
_cell_length_c   5.85280706
_cell_angle_alpha   90.03979331
_cell_angle_beta   90.03978275
_cell_angle_gamma   120.07040403
_symmetry_Int_Tables_number   1
_chemical_formula_structural   Zr10BeSi(Sn2Sb)2
_chemical_formula_sum   'Zr10 Be1 Si1 Sn4 Sb2'
_cell_volume   379.60929724
_cell_formula_units_Z   1
loop_
 _symmetry_equiv_pos_site_id
 _symmetry_equiv_pos_as_xyz
  1  'x, y, z'
loop_
 _atom_site_type_symbol
 _atom_site_label
 _atom_site_symmetry_multiplicity
 _atom_site_fract_x
 _atom_site_fract_y
 _atom_site_fract_z
 _atom_site_occupancy
  Zr  Zr0  1  0.666787  0.332433  0.998736  1
  Zr  Zr1  1  0.332433  0.666787  0.998736  1
  Zr  Zr2  1  0.332273  0.666773  0.501063  1
  Zr  Zr3  1  0.666773  0.332273  0.501063  1
  Zr  Zr4  1  0.742486  0.742486  0.756446  1
  Zr  Zr5  1  0.258172  0.000054  0.756668  1
  Zr  Zr6  1  0.000054  0.258172  0.756668  1
  Zr  Zr7  1  0.252918  0.252918  0.243814  1
  Zr  Zr8  1  0.746139  0.001019  0.244595  1
  Zr  Zr9  1  0.001019  0.746139  0.244595  1
  Be  Be10  1  0.999313  0.999313  0.992892  1
  Si  Si11  1  0.999628  0.999628  0.506413  1
  Sn  Sn12  1  0.391656  0.391656  0.749858  1
  Sn  Sn13  1  0.609859  0.999156  0.749747  1
  Sn  Sn14  1  0.999156  0.609859  0.749747  1
  Sn  Sn15  1  0.607325  0.607325  0.250328  1
  Sb  Sb16  1  0.393876  0.000133  0.249317  1
  Sb  Sb17  1  0.000133  0.393876  0.249317  1
