# generated using pymatgen
data_TmLu15(In3Cu)2
_symmetry_space_group_name_H-M   'P 1'
_cell_length_a   10.32510400
_cell_length_b   10.32510455
_cell_length_c   6.72252400
_cell_angle_alpha   90.00000000
_cell_angle_beta   90.00000000
_cell_angle_gamma   119.99999823
_symmetry_Int_Tables_number   1
_chemical_formula_structural   TmLu15(In3Cu)2
_chemical_formula_sum   'Tm1 Lu15 In6 Cu2'
_cell_volume   620.65733702
_cell_formula_units_Z   1
loop_
 _symmetry_equiv_pos_site_id
 _symmetry_equiv_pos_as_xyz
  1  'x, y, z'
loop_
 _atom_site_type_symbol
 _atom_site_label
 _atom_site_symmetry_multiplicity
 _atom_site_fract_x
 _atom_site_fract_y
 _atom_site_fract_z
 _atom_site_occupancy
  Tm  Tm0  1  0.000000  0.000000  0.996443  1
  Lu  Lu1  1  0.525601  0.051204  0.518346  1
  Lu  Lu2  1  0.948796  0.474399  0.518346  1
  Lu  Lu3  1  0.525601  0.474399  0.518346  1
  Lu  Lu4  1  0.474399  0.948797  0.018394  1
  Lu  Lu5  1  0.051203  0.525601  0.018394  1
  Lu  Lu6  1  0.474399  0.525601  0.018394  1
  Lu  Lu7  1  0.175934  0.351868  0.728709  1
  Lu  Lu8  1  0.648132  0.824066  0.728709  1
  Lu  Lu9  1  0.175934  0.824066  0.728709  1
  Lu  Lu10  1  0.824038  0.648077  0.229121  1
  Lu  Lu11  1  0.351923  0.175962  0.229121  1
  Lu  Lu12  1  0.824038  0.175962  0.229121  1
  Lu  Lu13  1  0.666667  0.333333  0.890139  1
  Lu  Lu14  1  0.333333  0.666667  0.390276  1
  Lu  Lu15  1  0.000000  0.000000  0.496385  1
  In  In16  1  0.836162  0.672324  0.752618  1
  In  In17  1  0.327676  0.163838  0.752618  1
  In  In18  1  0.836162  0.163838  0.752618  1
  In  In19  1  0.163853  0.327707  0.252981  1
  In  In20  1  0.672293  0.836147  0.252981  1
  In  In21  1  0.163853  0.836147  0.252981  1
  Cu  Cu22  1  0.666667  0.333333  0.291953  1
  Cu  Cu23  1  0.333333  0.666667  0.792305  1
