# generated using pymatgen
data_Np4Al18Ir5Pd
_symmetry_space_group_name_H-M   'P 1'
_cell_length_a   7.60907156
_cell_length_b   7.60985525
_cell_length_c   9.47295101
_cell_angle_alpha   89.95137030
_cell_angle_beta   89.95321338
_cell_angle_gamma   119.60423844
_symmetry_Int_Tables_number   1
_chemical_formula_structural   Np4Al18Ir5Pd
_chemical_formula_sum   'Np4 Al18 Ir5 Pd1'
_cell_volume   476.91563662
_cell_formula_units_Z   1
loop_
 _symmetry_equiv_pos_site_id
 _symmetry_equiv_pos_as_xyz
  1  'x, y, z'
loop_
 _atom_site_type_symbol
 _atom_site_label
 _atom_site_symmetry_multiplicity
 _atom_site_fract_x
 _atom_site_fract_y
 _atom_site_fract_z
 _atom_site_occupancy
  Np  Np0  1  0.996099  0.671827  0.246710  1
  Np  Np1  1  0.003901  0.328173  0.753290  1
  Np  Np2  1  0.671811  0.996107  0.246759  1
  Np  Np3  1  0.328189  0.003893  0.753241  1
  Al  Al4  1  0.129121  0.129154  0.249322  1
  Al  Al5  1  0.870879  0.870846  0.750678  1
  Al  Al6  1  0.002259  0.335634  0.075493  1
  Al  Al7  1  0.997741  0.664366  0.924507  1
  Al  Al8  1  0.000132  0.661453  0.575275  1
  Al  Al9  1  0.338615  0.999911  0.424744  1
  Al  Al10  1  0.999868  0.338547  0.424725  1
  Al  Al11  1  0.661385  0.000089  0.575256  1
  Al  Al12  1  0.664234  0.997671  0.924567  1
  Al  Al13  1  0.335766  0.002329  0.075433  1
  Al  Al14  1  0.336250  0.336213  0.556640  1
  Al  Al15  1  0.663750  0.663787  0.443360  1
  Al  Al16  1  0.665652  0.665706  0.053475  1
  Al  Al17  1  0.334348  0.334294  0.946525  1
  Al  Al18  1  0.339576  0.547666  0.250400  1
  Al  Al19  1  0.660424  0.452334  0.749600  1
  Al  Al20  1  0.547632  0.339507  0.250393  1
  Al  Al21  1  0.452368  0.660493  0.749607  1
  Ir  Ir22  1  0.671874  0.328122  0.999993  1
  Ir  Ir23  1  0.328126  0.671878  0.000007  1
  Ir  Ir24  1  0.329225  0.670854  0.499999  1
  Ir  Ir25  1  0.670775  0.329146  0.500001  1
  Ir  Ir26  1  0.000000  0.000000  0.000000  1
  Pd  Pd27  1  0.000000  0.000000  0.500000  1
