# generated using pymatgen
data_K4MnZnSe4
_symmetry_space_group_name_H-M   'P 1'
_cell_length_a   8.21868184
_cell_length_b   8.21868144
_cell_length_c   8.21868232
_cell_angle_alpha   133.59936251
_cell_angle_beta   128.69248046
_cell_angle_gamma   71.65417687
_symmetry_Int_Tables_number   1
_chemical_formula_structural   K4MnZnSe4
_chemical_formula_sum   'K4 Mn1 Zn1 Se4'
_cell_volume   307.06520910
_cell_formula_units_Z   1
loop_
 _symmetry_equiv_pos_site_id
 _symmetry_equiv_pos_as_xyz
  1  'x, y, z'
loop_
 _atom_site_type_symbol
 _atom_site_label
 _atom_site_symmetry_multiplicity
 _atom_site_fract_x
 _atom_site_fract_y
 _atom_site_fract_z
 _atom_site_occupancy
  K  K0  1  0.477248  0.145893  0.333651  1
  K  K1  1  0.522752  0.856404  0.668646  1
  K  K2  1  0.187758  0.354107  0.831354  1
  K  K3  1  0.812242  0.643596  0.166349  1
  Mn  Mn4  1  0.000000  0.750000  0.750000  1
  Zn  Zn5  1  0.000000  0.250000  0.250000  1
  Se  Se6  1  0.089475  0.899386  0.197045  1
  Se  Se7  1  0.910525  0.107569  0.809911  1
  Se  Se8  1  0.297657  0.600614  0.690089  1
  Se  Se9  1  0.702343  0.392431  0.302955  1
