# generated using pymatgen
data_La2Pr2As3O4
_symmetry_space_group_name_H-M   'P 1'
_cell_length_a   7.20989055
_cell_length_b   7.20989083
_cell_length_c   8.21626300
_cell_angle_alpha   90.00000000
_cell_angle_beta   90.00000000
_cell_angle_gamma   146.65799449
_symmetry_Int_Tables_number   1
_chemical_formula_structural   La2Pr2As3O4
_chemical_formula_sum   'La2 Pr2 As3 O4'
_cell_volume   234.75043885
_cell_formula_units_Z   1
loop_
 _symmetry_equiv_pos_site_id
 _symmetry_equiv_pos_as_xyz
  1  'x, y, z'
loop_
 _atom_site_type_symbol
 _atom_site_label
 _atom_site_symmetry_multiplicity
 _atom_site_fract_x
 _atom_site_fract_y
 _atom_site_fract_z
 _atom_site_occupancy
  La  La0  1  0.986377  0.013623  0.500000  1
  La  La1  1  0.998354  0.001646  0.000000  1
  Pr  Pr2  1  0.320139  0.679861  0.759155  1
  Pr  Pr3  1  0.320139  0.679861  0.240845  1
  As  As4  1  0.629097  0.370903  0.267954  1
  As  As5  1  0.629097  0.370903  0.732046  1
  As  As6  1  0.701687  0.298313  0.000000  1
  O  O7  1  0.393988  0.606012  0.500000  1
  O  O8  1  0.412894  0.587106  0.000000  1
  O  O9  1  0.904720  0.095280  0.750465  1
  O  O10  1  0.904720  0.095280  0.249535  1
