# generated using pymatgen
data_Nb3Cr3Si2P
_symmetry_space_group_name_H-M   'P 1'
_cell_length_a   6.61914100
_cell_length_b   6.61914189
_cell_length_c   3.30986600
_cell_angle_alpha   90.00000000
_cell_angle_beta   90.00000000
_cell_angle_gamma   120.00000053
_symmetry_Int_Tables_number   1
_chemical_formula_structural   Nb3Cr3Si2P
_chemical_formula_sum   'Nb3 Cr3 Si2 P1'
_cell_volume   125.58690700
_cell_formula_units_Z   1
loop_
 _symmetry_equiv_pos_site_id
 _symmetry_equiv_pos_as_xyz
  1  'x, y, z'
loop_
 _atom_site_type_symbol
 _atom_site_label
 _atom_site_symmetry_multiplicity
 _atom_site_fract_x
 _atom_site_fract_y
 _atom_site_fract_z
 _atom_site_occupancy
  Nb  Nb0  1  0.000000  0.598786  0.500000  1
  Nb  Nb1  1  0.598786  0.000000  0.500000  1
  Nb  Nb2  1  0.401214  0.401214  0.500000  1
  Cr  Cr3  1  0.752924  0.752924  0.000000  1
  Cr  Cr4  1  0.247076  0.000000  0.000000  1
  Cr  Cr5  1  0.000000  0.247076  0.000000  1
  Si  Si6  1  0.666667  0.333333  0.000000  1
  Si  Si7  1  0.333333  0.666667  0.000000  1
  P  P8  1  0.000000  0.000000  0.500000  1
