# generated using pymatgen
data_K2LaReN4
_symmetry_space_group_name_H-M   'P 1'
_cell_length_a   11.13806445
_cell_length_b   10.86609107
_cell_length_c   8.23228420
_cell_angle_alpha   69.79650191
_cell_angle_beta   66.28481454
_cell_angle_gamma   43.91867588
_symmetry_Int_Tables_number   1
_chemical_formula_structural   K2LaReN4
_chemical_formula_sum   'K8 La4 Re4 N16'
_cell_volume   630.29905056
_cell_formula_units_Z   4
loop_
 _symmetry_equiv_pos_site_id
 _symmetry_equiv_pos_as_xyz
  1  'x, y, z'
loop_
 _atom_site_type_symbol
 _atom_site_label
 _atom_site_symmetry_multiplicity
 _atom_site_fract_x
 _atom_site_fract_y
 _atom_site_fract_z
 _atom_site_occupancy
  K  K0  1  0.555500  0.944500  0.944500  1
  K  K1  1  0.944500  0.555500  0.555500  1
  K  K2  1  0.306407  0.693593  0.693593  1
  K  K3  1  0.111445  0.111445  0.888555  1
  K  K4  1  0.138052  0.138052  0.361948  1
  K  K5  1  0.361948  0.361948  0.138052  1
  K  K6  1  0.693593  0.306407  0.306407  1
  K  K7  1  0.888555  0.888555  0.111445  1
  La  La8  1  0.341639  0.341639  0.658361  1
  La  La9  1  0.907930  0.907930  0.592070  1
  La  La10  1  0.658361  0.658361  0.341639  1
  La  La11  1  0.592070  0.592070  0.907930  1
  Re  Re12  1  0.496990  0.003010  0.496990  1
  Re  Re13  1  0.003010  0.496990  0.003010  1
  Re  Re14  1  0.753134  0.246866  0.753134  1
  Re  Re15  1  0.246866  0.753134  0.246866  1
  N  N16  1  0.020291  0.641161  0.814753  1
  N  N17  1  0.698504  0.293576  0.977557  1
  N  N18  1  0.641161  0.020291  0.523796  1
  N  N19  1  0.523796  0.814753  0.641161  1
  N  N20  1  0.230554  0.607842  0.434264  1
  N  N21  1  0.727340  0.434264  0.607842  1
  N  N22  1  0.977557  0.030363  0.698504  1
  N  N23  1  0.552156  0.956863  0.272168  1
  N  N24  1  0.434264  0.727340  0.230554  1
  N  N25  1  0.956863  0.552156  0.218814  1
  N  N26  1  0.293576  0.698504  0.030363  1
  N  N27  1  0.814753  0.523796  0.020291  1
  N  N28  1  0.218814  0.272168  0.956863  1
  N  N29  1  0.607842  0.230554  0.727340  1
  N  N30  1  0.272168  0.218814  0.552156  1
  N  N31  1  0.030363  0.977557  0.293576  1
