# generated using pymatgen
data_FeWCl8
_symmetry_space_group_name_H-M   'P 1'
_cell_length_a   9.51870854
_cell_length_b   9.51870807
_cell_length_c   8.81183200
_cell_angle_alpha   90.00000000
_cell_angle_beta   90.00000000
_cell_angle_gamma   125.67971586
_symmetry_Int_Tables_number   1
_chemical_formula_structural   FeWCl8
_chemical_formula_sum   'Fe2 W2 Cl16'
_cell_volume   648.53495071
_cell_formula_units_Z   2
loop_
 _symmetry_equiv_pos_site_id
 _symmetry_equiv_pos_as_xyz
  1  'x, y, z'
loop_
 _atom_site_type_symbol
 _atom_site_label
 _atom_site_symmetry_multiplicity
 _atom_site_fract_x
 _atom_site_fract_y
 _atom_site_fract_z
 _atom_site_occupancy
  Fe  Fe0  1  0.307248  0.692752  0.750000  1
  Fe  Fe1  1  0.692752  0.307248  0.250000  1
  W  W2  1  0.873998  0.126002  0.250000  1
  W  W3  1  0.126002  0.873998  0.750000  1
  Cl  Cl4  1  0.376017  0.623983  0.543815  1
  Cl  Cl5  1  0.623983  0.376017  0.456185  1
  Cl  Cl6  1  0.435314  0.985628  0.750000  1
  Cl  Cl7  1  0.985628  0.435314  0.250000  1
  Cl  Cl8  1  0.564686  0.014372  0.250000  1
  Cl  Cl9  1  0.014372  0.564686  0.750000  1
  Cl  Cl10  1  0.214902  0.154114  0.750000  1
  Cl  Cl11  1  0.154114  0.214902  0.250000  1
  Cl  Cl12  1  0.785098  0.845886  0.250000  1
  Cl  Cl13  1  0.845886  0.785098  0.750000  1
  Cl  Cl14  1  0.142030  0.857970  0.493104  1
  Cl  Cl15  1  0.857970  0.142030  0.506896  1
  Cl  Cl16  1  0.857970  0.142030  0.993104  1
  Cl  Cl17  1  0.142030  0.857970  0.006896  1
  Cl  Cl18  1  0.376017  0.623983  0.956185  1
  Cl  Cl19  1  0.623983  0.376017  0.043815  1
