# generated using pymatgen
data_Nd2UTc2
_symmetry_space_group_name_H-M   'P 1'
_cell_length_a   6.15929809
_cell_length_b   6.15929883
_cell_length_c   6.15929870
_cell_angle_alpha   140.08713281
_cell_angle_beta   124.72300678
_cell_angle_gamma   70.32827397
_symmetry_Int_Tables_number   1
_chemical_formula_structural   Nd2UTc2
_chemical_formula_sum   'Nd2 U1 Tc2'
_cell_volume   120.97734981
_cell_formula_units_Z   1
loop_
 _symmetry_equiv_pos_site_id
 _symmetry_equiv_pos_as_xyz
  1  'x, y, z'
loop_
 _atom_site_type_symbol
 _atom_site_label
 _atom_site_symmetry_multiplicity
 _atom_site_fract_x
 _atom_site_fract_y
 _atom_site_fract_z
 _atom_site_occupancy
  Nd  Nd0  1  0.699201  0.199202  0.500000  1
  Nd  Nd1  1  0.300798  0.800798  0.500000  1
  U  U2  1  0.000000  0.000000  0.000000  1
  Tc  Tc3  1  0.756480  0.500000  0.256480  1
  Tc  Tc4  1  0.243519  0.500000  0.743520  1
