# generated using pymatgen
data_DyHo3Sc6(GaSi3)2
_symmetry_space_group_name_H-M   'P 1'
_cell_length_a   7.12582857
_cell_length_b   7.40440577
_cell_length_c   14.12937109
_cell_angle_alpha   90.01793280
_cell_angle_beta   89.87149714
_cell_angle_gamma   90.15037936
_symmetry_Int_Tables_number   1
_chemical_formula_structural   DyHo3Sc6(GaSi3)2
_chemical_formula_sum   'Dy2 Ho6 Sc12 Ga4 Si12'
_cell_volume   745.49683487
_cell_formula_units_Z   2
loop_
 _symmetry_equiv_pos_site_id
 _symmetry_equiv_pos_as_xyz
  1  'x, y, z'
loop_
 _atom_site_type_symbol
 _atom_site_label
 _atom_site_symmetry_multiplicity
 _atom_site_fract_x
 _atom_site_fract_y
 _atom_site_fract_z
 _atom_site_occupancy
  Dy  Dy0  1  0.013676  0.174643  0.097138  1
  Dy  Dy1  1  0.987969  0.824986  0.901761  1
  Ho  Ho2  1  0.486958  0.676824  0.901424  1
  Ho  Ho3  1  0.987589  0.827503  0.600263  1
  Ho  Ho4  1  0.510898  0.321539  0.097381  1
  Ho  Ho5  1  0.009923  0.174683  0.400617  1
  Ho  Ho6  1  0.511265  0.324581  0.400552  1
  Ho  Ho7  1  0.490097  0.675867  0.600543  1
  Sc  Sc8  1  0.162566  0.501221  0.751235  1
  Sc  Sc9  1  0.836794  0.497987  0.250143  1
  Sc  Sc10  1  0.336554  0.002286  0.248550  1
  Sc  Sc11  1  0.663046  0.998208  0.749940  1
  Sc  Sc12  1  0.333046  0.174925  0.627502  1
  Sc  Sc13  1  0.669423  0.825929  0.373901  1
  Sc  Sc14  1  0.170268  0.674126  0.373210  1
  Sc  Sc15  1  0.668809  0.825754  0.125425  1
  Sc  Sc16  1  0.828848  0.324380  0.626548  1
  Sc  Sc17  1  0.330460  0.175833  0.874677  1
  Sc  Sc18  1  0.829141  0.323267  0.874273  1
  Sc  Sc19  1  0.173051  0.675613  0.124514  1
  Ga  Ga20  1  0.161585  0.461695  0.539781  1
  Ga  Ga21  1  0.839304  0.537818  0.461260  1
  Ga  Ga22  1  0.339647  0.962053  0.461392  1
  Ga  Ga23  1  0.839759  0.537865  0.038772  1
  Si  Si24  1  0.032986  0.116530  0.751081  1
  Si  Si25  1  0.966970  0.883820  0.249348  1
  Si  Si26  1  0.467317  0.614652  0.248543  1
  Si  Si27  1  0.532919  0.385047  0.751081  1
  Si  Si28  1  0.286053  0.871819  0.750950  1
  Si  Si29  1  0.714895  0.127717  0.248807  1
  Si  Si30  1  0.214316  0.372248  0.248928  1
  Si  Si31  1  0.786521  0.628655  0.751312  1
  Si  Si32  1  0.658115  0.036134  0.539358  1
  Si  Si33  1  0.158302  0.463702  0.960710  1
  Si  Si34  1  0.656474  0.035877  0.961220  1
  Si  Si35  1  0.344458  0.964210  0.037863  1
