# generated using pymatgen
data_SrYb3(Si5Pt3)2
_symmetry_space_group_name_H-M   'P 1'
_cell_length_a   8.28326587
_cell_length_b   8.31027068
_cell_length_c   8.31027080
_cell_angle_alpha   138.27990636
_cell_angle_beta   104.76766979
_cell_angle_gamma   89.97260493
_symmetry_Int_Tables_number   1
_chemical_formula_structural   SrYb3(Si5Pt3)2
_chemical_formula_sum   'Sr1 Yb3 Si10 Pt6'
_cell_volume   351.74510731
_cell_formula_units_Z   1
loop_
 _symmetry_equiv_pos_site_id
 _symmetry_equiv_pos_as_xyz
  1  'x, y, z'
loop_
 _atom_site_type_symbol
 _atom_site_label
 _atom_site_symmetry_multiplicity
 _atom_site_fract_x
 _atom_site_fract_y
 _atom_site_fract_z
 _atom_site_occupancy
  Sr  Sr0  1  0.605679  0.870659  0.735019  1
  Yb  Yb1  1  0.862093  0.629731  0.232362  1
  Yb  Yb2  1  0.137080  0.370179  0.766902  1
  Yb  Yb3  1  0.396683  0.129747  0.266936  1
  Si  Si4  1  0.499558  0.752078  0.250259  1
  Si  Si5  1  0.499558  0.249298  0.747479  1
  Si  Si6  1  0.227063  0.977327  0.748056  1
  Si  Si7  1  0.771043  0.519098  0.749506  1
  Si  Si8  1  0.771043  0.021537  0.251944  1
  Si  Si9  1  0.227063  0.479006  0.249736  1
  Si  Si10  1  0.037990  0.888022  0.149969  1
  Si  Si11  1  0.965098  0.115011  0.850087  1
  Si  Si12  1  0.738308  0.388207  0.350101  1
  Si  Si13  1  0.261014  0.609537  0.651478  1
  Pt  Pt14  1  0.002112  0.751193  0.751635  1
  Pt  Pt15  1  0.002112  0.250477  0.250920  1
  Pt  Pt16  1  0.246709  0.863171  0.383540  1
  Pt  Pt17  1  0.753479  0.138065  0.615412  1
  Pt  Pt18  1  0.476295  0.363653  0.112642  1
  Pt  Pt19  1  0.520022  0.634006  0.886016  1
