# generated using pymatgen
data_Gd6CuTcNi
_symmetry_space_group_name_H-M   'P 1'
_cell_length_a   8.56016473
_cell_length_b   8.56016576
_cell_length_c   8.56016500
_cell_angle_alpha   113.16399417
_cell_angle_beta   111.32019304
_cell_angle_gamma   104.06698973
_symmetry_Int_Tables_number   1
_chemical_formula_structural   Gd6CuTcNi
_chemical_formula_sum   'Gd12 Cu2 Tc2 Ni2'
_cell_volume   479.54494321
_cell_formula_units_Z   2
loop_
 _symmetry_equiv_pos_site_id
 _symmetry_equiv_pos_as_xyz
  1  'x, y, z'
loop_
 _atom_site_type_symbol
 _atom_site_label
 _atom_site_symmetry_multiplicity
 _atom_site_fract_x
 _atom_site_fract_y
 _atom_site_fract_z
 _atom_site_occupancy
  Gd  Gd0  1  0.054488  0.740654  0.313833  1
  Gd  Gd1  1  0.945512  0.259346  0.686167  1
  Gd  Gd2  1  0.573181  0.259346  0.313833  1
  Gd  Gd3  1  0.426819  0.740654  0.686167  1
  Gd  Gd4  1  0.666567  0.847792  0.181223  1
  Gd  Gd5  1  0.333433  0.514657  0.181223  1
  Gd  Gd6  1  0.333433  0.152208  0.818777  1
  Gd  Gd7  1  0.666567  0.485343  0.818777  1
  Gd  Gd8  1  0.177840  0.222167  0.400008  1
  Gd  Gd9  1  0.822160  0.222167  0.044326  1
  Gd  Gd10  1  0.177840  0.777833  0.955674  1
  Gd  Gd11  1  0.822160  0.777833  0.599992  1
  Cu  Cu12  1  0.000000  0.500000  0.500000  1
  Cu  Cu13  1  0.500000  0.000000  0.500000  1
  Tc  Tc14  1  0.683950  0.500000  0.183950  1
  Tc  Tc15  1  0.316050  0.500000  0.816050  1
  Ni  Ni16  1  0.884591  0.884591  0.000000  1
  Ni  Ni17  1  0.115409  0.115409  0.000000  1
