# generated using pymatgen
data_KVGa2F9
_symmetry_space_group_name_H-M   'P 1'
_cell_length_a   7.38705714
_cell_length_b   7.45050453
_cell_length_c   7.60156974
_cell_angle_alpha   89.63941361
_cell_angle_beta   89.79602139
_cell_angle_gamma   59.71844630
_symmetry_Int_Tables_number   1
_chemical_formula_structural   KVGa2F9
_chemical_formula_sum   'K2 V2 Ga4 F18'
_cell_volume   361.27945278
_cell_formula_units_Z   2
loop_
 _symmetry_equiv_pos_site_id
 _symmetry_equiv_pos_as_xyz
  1  'x, y, z'
loop_
 _atom_site_type_symbol
 _atom_site_label
 _atom_site_symmetry_multiplicity
 _atom_site_fract_x
 _atom_site_fract_y
 _atom_site_fract_z
 _atom_site_occupancy
  K  K0  1  0.996219  0.501254  0.250189  1
  K  K1  1  0.002834  0.498193  0.750426  1
  V  V2  1  0.499268  0.000070  0.999436  1
  V  V3  1  0.499208  0.500306  0.499725  1
  Ga  Ga4  1  0.499361  0.500129  0.999812  1
  Ga  Ga5  1  0.999191  0.000179  0.499586  1
  Ga  Ga6  1  0.999225  0.000107  0.999565  1
  Ga  Ga7  1  0.499310  0.000214  0.499314  1
  F  F8  1  0.586229  0.498910  0.764614  1
  F  F9  1  0.412498  0.085336  0.264226  1
  F  F10  1  0.826898  0.289434  0.460682  1
  F  F11  1  0.217925  0.055769  0.558421  1
  F  F12  1  0.780766  0.274443  0.059070  1
  F  F13  1  0.171645  0.117026  0.960431  1
  F  F14  1  0.397673  0.285065  0.554665  1
  F  F15  1  0.600658  0.715413  0.443982  1
  F  F16  1  0.080128  0.959538  0.249494  1
  F  F17  1  0.918301  0.040996  0.749556  1
  F  F18  1  0.398028  0.316706  0.944105  1
  F  F19  1  0.600859  0.683439  0.055423  1
  F  F20  1  0.780652  0.944464  0.439997  1
  F  F21  1  0.171427  0.710965  0.538844  1
  F  F22  1  0.826884  0.883097  0.037857  1
  F  F23  1  0.218016  0.725781  0.940591  1
  F  F24  1  0.585613  0.915395  0.734437  1
  F  F25  1  0.412311  0.501558  0.234945  1
