# generated using pymatgen
data_Dy8Sc12Si15B
_symmetry_space_group_name_H-M   'P 1'
_cell_length_a   7.03151602
_cell_length_b   7.38124840
_cell_length_c   13.94516600
_cell_angle_alpha   90.00000000
_cell_angle_beta   90.00000000
_cell_angle_gamma   89.43203815
_symmetry_Int_Tables_number   1
_chemical_formula_structural   Dy8Sc12Si15B
_chemical_formula_sum   'Dy8 Sc12 Si15 B1'
_cell_volume   723.73760954
_cell_formula_units_Z   1
loop_
 _symmetry_equiv_pos_site_id
 _symmetry_equiv_pos_as_xyz
  1  'x, y, z'
loop_
 _atom_site_type_symbol
 _atom_site_label
 _atom_site_symmetry_multiplicity
 _atom_site_fract_x
 _atom_site_fract_y
 _atom_site_fract_z
 _atom_site_occupancy
  Dy  Dy0  1  0.010139  0.178052  0.096722  1
  Dy  Dy1  1  0.988519  0.828932  0.902739  1
  Dy  Dy2  1  0.488846  0.678250  0.901861  1
  Dy  Dy3  1  0.988519  0.828932  0.597261  1
  Dy  Dy4  1  0.511400  0.324676  0.095319  1
  Dy  Dy5  1  0.010139  0.178052  0.403278  1
  Dy  Dy6  1  0.511400  0.324676  0.404681  1
  Dy  Dy7  1  0.488846  0.678250  0.598139  1
  Sc  Sc8  1  0.166538  0.509538  0.750000  1
  Sc  Sc9  1  0.838717  0.497547  0.250000  1
  Sc  Sc10  1  0.338369  0.003196  0.250000  1
  Sc  Sc11  1  0.673187  0.997869  0.750000  1
  Sc  Sc12  1  0.314813  0.174287  0.629369  1
  Sc  Sc13  1  0.669220  0.823478  0.375539  1
  Sc  Sc14  1  0.168438  0.676868  0.375640  1
  Sc  Sc15  1  0.669220  0.823478  0.124461  1
  Sc  Sc16  1  0.848739  0.310486  0.632028  1
  Sc  Sc17  1  0.314813  0.174287  0.870631  1
  Sc  Sc18  1  0.848739  0.310486  0.867972  1
  Sc  Sc19  1  0.168438  0.676868  0.124360  1
  Si  Si20  1  0.966409  0.883412  0.250000  1
  Si  Si21  1  0.467116  0.616117  0.250000  1
  Si  Si22  1  0.538134  0.380441  0.750000  1
  Si  Si23  1  0.268003  0.885569  0.750000  1
  Si  Si24  1  0.711928  0.128988  0.250000  1
  Si  Si25  1  0.214573  0.372575  0.250000  1
  Si  Si26  1  0.787540  0.623123  0.750000  1
  Si  Si27  1  0.159080  0.466801  0.539958  1
  Si  Si28  1  0.839884  0.534642  0.465020  1
  Si  Si29  1  0.339933  0.964727  0.463075  1
  Si  Si30  1  0.839884  0.534642  0.034980  1
  Si  Si31  1  0.654636  0.037691  0.540772  1
  Si  Si32  1  0.159080  0.466801  0.960042  1
  Si  Si33  1  0.654636  0.037691  0.959228  1
  Si  Si34  1  0.339933  0.964727  0.036925  1
  B  B35  1  0.042197  0.103845  0.750000  1
