# generated using pymatgen
data_Hf4AlSiIr10
_symmetry_space_group_name_H-M   'P 1'
_cell_length_a   4.08107700
_cell_length_b   5.53412995
_cell_length_c   10.87074300
_cell_angle_alpha   90.04809047
_cell_angle_beta   90.00000000
_cell_angle_gamma   90.00000000
_symmetry_Int_Tables_number   1
_chemical_formula_structural   Hf4AlSiIr10
_chemical_formula_sum   'Hf4 Al1 Si1 Ir10'
_cell_volume   245.51793194
_cell_formula_units_Z   1
loop_
 _symmetry_equiv_pos_site_id
 _symmetry_equiv_pos_as_xyz
  1  'x, y, z'
loop_
 _atom_site_type_symbol
 _atom_site_label
 _atom_site_symmetry_multiplicity
 _atom_site_fract_x
 _atom_site_fract_y
 _atom_site_fract_z
 _atom_site_occupancy
  Hf  Hf0  1  0.500000  0.187333  0.638016  1
  Hf  Hf1  1  0.500000  0.812667  0.361984  1
  Hf  Hf2  1  0.500000  0.683348  0.860628  1
  Hf  Hf3  1  0.500000  0.316652  0.139372  1
  Al  Al4  1  0.000000  0.500000  0.500000  1
  Si  Si5  1  0.000000  0.000000  0.000000  1
  Ir  Ir6  1  0.500000  0.184199  0.894341  1
  Ir  Ir7  1  0.500000  0.815801  0.105659  1
  Ir  Ir8  1  0.500000  0.691067  0.610214  1
  Ir  Ir9  1  0.500000  0.308933  0.389786  1
  Ir  Ir10  1  0.000000  0.438480  0.748659  1
  Ir  Ir11  1  0.000000  0.561520  0.251341  1
  Ir  Ir12  1  0.000000  0.000000  0.500000  1
  Ir  Ir13  1  0.000000  0.500000  0.000000  1
  Ir  Ir14  1  0.000000  0.060227  0.245674  1
  Ir  Ir15  1  0.000000  0.939773  0.754326  1
