# generated using pymatgen
data_Li8Dy7HoSn7Bi
_symmetry_space_group_name_H-M   'P 1'
_cell_length_a   9.41805700
_cell_length_b   9.41810548
_cell_length_c   7.26750500
_cell_angle_alpha   90.09531506
_cell_angle_beta   89.99998954
_cell_angle_gamma   119.99593564
_symmetry_Int_Tables_number   1
_chemical_formula_structural   Li8Dy7HoSn7Bi
_chemical_formula_sum   'Li8 Dy7 Ho1 Sn7 Bi1'
_cell_volume   558.28739151
_cell_formula_units_Z   1
loop_
 _symmetry_equiv_pos_site_id
 _symmetry_equiv_pos_as_xyz
  1  'x, y, z'
loop_
 _atom_site_type_symbol
 _atom_site_label
 _atom_site_symmetry_multiplicity
 _atom_site_fract_x
 _atom_site_fract_y
 _atom_site_fract_z
 _atom_site_occupancy
  Li  Li0  1  0.166579  0.333244  0.284818  1
  Li  Li1  1  0.168020  0.833641  0.288475  1
  Li  Li2  1  0.665557  0.833675  0.288420  1
  Li  Li3  1  0.833423  0.666720  0.787049  1
  Li  Li4  1  0.829157  0.164789  0.791200  1
  Li  Li5  1  0.335674  0.164751  0.791152  1
  Li  Li6  1  0.335321  0.670659  0.669415  1
  Li  Li7  1  0.666004  0.332044  0.171585  1
  Dy  Dy8  1  0.512628  0.025165  0.493716  1
  Dy  Dy9  1  0.517151  0.490772  0.490906  1
  Dy  Dy10  1  0.973711  0.490771  0.490826  1
  Dy  Dy11  1  0.487401  0.974877  0.994623  1
  Dy  Dy12  1  0.493391  0.514479  0.996575  1
  Dy  Dy13  1  0.020989  0.514447  0.996511  1
  Dy  Dy14  1  0.997276  0.994597  0.497054  1
  Ho  Ho15  1  0.997741  0.995463  0.002477  1
  Sn  Sn16  1  0.166739  0.832976  0.730493  1
  Sn  Sn17  1  0.666313  0.833002  0.730386  1
  Sn  Sn18  1  0.833148  0.666389  0.231066  1
  Sn  Sn19  1  0.833940  0.167452  0.230085  1
  Sn  Sn20  1  0.333464  0.167394  0.230131  1
  Sn  Sn21  1  0.332628  0.665294  0.260908  1
  Sn  Sn22  1  0.667023  0.334022  0.761437  1
  Bi  Bi23  1  0.166727  0.333380  0.732664  1
