# generated using pymatgen
data_Lu12GaSi4Hg
_symmetry_space_group_name_H-M   'P 1'
_cell_length_a   8.25458358
_cell_length_b   8.25470895
_cell_length_c   8.25458300
_cell_angle_alpha   111.43854231
_cell_angle_beta   111.21603549
_cell_angle_gamma   105.81913456
_symmetry_Int_Tables_number   1
_chemical_formula_structural   Lu12GaSi4Hg
_chemical_formula_sum   'Lu12 Ga1 Si4 Hg1'
_cell_volume   431.67544134
_cell_formula_units_Z   1
loop_
 _symmetry_equiv_pos_site_id
 _symmetry_equiv_pos_as_xyz
  1  'x, y, z'
loop_
 _atom_site_type_symbol
 _atom_site_label
 _atom_site_symmetry_multiplicity
 _atom_site_fract_x
 _atom_site_fract_y
 _atom_site_fract_z
 _atom_site_occupancy
  Lu  Lu0  1  0.045660  0.742103  0.303477  1
  Lu  Lu1  1  0.954340  0.257897  0.696523  1
  Lu  Lu2  1  0.561374  0.257897  0.303558  1
  Lu  Lu3  1  0.438626  0.742103  0.696442  1
  Lu  Lu4  1  0.677795  0.881325  0.203529  1
  Lu  Lu5  1  0.322167  0.525642  0.203476  1
  Lu  Lu6  1  0.322206  0.118675  0.796471  1
  Lu  Lu7  1  0.677834  0.474358  0.796524  1
  Lu  Lu8  1  0.179298  0.230922  0.410261  1
  Lu  Lu9  1  0.820661  0.230922  0.051623  1
  Lu  Lu10  1  0.179339  0.769078  0.948377  1
  Lu  Lu11  1  0.820702  0.769078  0.589739  1
  Ga  Ga12  1  0.000000  0.500000  0.500000  1
  Si  Si13  1  0.636360  0.500000  0.136360  1
  Si  Si14  1  0.363640  0.500000  0.863640  1
  Si  Si15  1  0.880886  0.880873  0.999988  1
  Si  Si16  1  0.119114  0.119127  0.000012  1
  Hg  Hg17  1  0.500000  0.000000  0.500000  1
