# generated using pymatgen
data_Tm12Ni4HgRu
_symmetry_space_group_name_H-M   'P 1'
_cell_length_a   8.09437410
_cell_length_b   8.09476967
_cell_length_c   8.09459775
_cell_angle_alpha   107.31091256
_cell_angle_beta   110.14893568
_cell_angle_gamma   110.97601429
_symmetry_Int_Tables_number   1
_chemical_formula_structural   Tm12Ni4HgRu
_chemical_formula_sum   'Tm12 Ni4 Hg1 Ru1'
_cell_volume   407.82889134
_cell_formula_units_Z   1
loop_
 _symmetry_equiv_pos_site_id
 _symmetry_equiv_pos_as_xyz
  1  'x, y, z'
loop_
 _atom_site_type_symbol
 _atom_site_label
 _atom_site_symmetry_multiplicity
 _atom_site_fract_x
 _atom_site_fract_y
 _atom_site_fract_z
 _atom_site_occupancy
  Tm  Tm0  1  0.689756  0.272513  0.962272  1
  Tm  Tm1  1  0.310177  0.727418  0.037572  1
  Tm  Tm2  1  0.689782  0.727449  0.417222  1
  Tm  Tm3  1  0.310162  0.272600  0.582754  1
  Tm  Tm4  1  0.803659  0.126971  0.323328  1
  Tm  Tm5  1  0.803663  0.480361  0.676676  1
  Tm  Tm6  1  0.196289  0.873002  0.676634  1
  Tm  Tm7  1  0.196319  0.519639  0.323285  1
  Tm  Tm8  1  0.599475  0.779128  0.820352  1
  Tm  Tm9  1  0.958764  0.779070  0.179662  1
  Tm  Tm10  1  0.041256  0.220904  0.820366  1
  Tm  Tm11  1  0.400574  0.220897  0.179657  1
  Ni  Ni12  1  0.855963  0.500218  0.355881  1
  Ni  Ni13  1  0.144050  0.499930  0.644230  1
  Ni  Ni14  1  0.000059  0.120596  0.120600  1
  Ni  Ni15  1  0.000034  0.879308  0.879518  1
  Hg  Hg16  1  0.500015  0.000010  0.499998  1
  Ru  Ru17  1  0.500003  0.499988  0.999990  1
