# generated using pymatgen
data_Yb6SmYBi6
_symmetry_space_group_name_H-M   'P 1'
_cell_length_a   8.22918107
_cell_length_b   8.39101006
_cell_length_c   8.39100953
_cell_angle_alpha   109.85859706
_cell_angle_beta   109.08101393
_cell_angle_gamma   109.08100556
_symmetry_Int_Tables_number   1
_chemical_formula_structural   Yb6SmYBi6
_chemical_formula_sum   'Yb6 Sm1 Y1 Bi6'
_cell_volume   448.15887463
_cell_formula_units_Z   1
loop_
 _symmetry_equiv_pos_site_id
 _symmetry_equiv_pos_as_xyz
  1  'x, y, z'
loop_
 _atom_site_type_symbol
 _atom_site_label
 _atom_site_symmetry_multiplicity
 _atom_site_fract_x
 _atom_site_fract_y
 _atom_site_fract_z
 _atom_site_occupancy
  Yb  Yb0  1  0.500875  0.998232  0.645185  1
  Yb  Yb1  1  0.355118  0.353240  0.354376  1
  Yb  Yb2  1  0.501879  0.001136  0.146760  1
  Yb  Yb3  1  0.002643  0.646954  0.501768  1
  Yb  Yb4  1  0.855689  0.854815  0.853046  1
  Yb  Yb5  1  0.000743  0.145624  0.498864  1
  Sm  Sm6  1  0.139574  0.500000  0.000000  1
  Y  Y7  1  0.640695  0.500000  0.000000  1
  Bi  Bi8  1  0.377991  0.623610  0.754518  1
  Bi  Bi9  1  0.874971  0.253909  0.124063  1
  Bi  Bi10  1  0.623472  0.745482  0.369093  1
  Bi  Bi11  1  0.121062  0.870156  0.246091  1
  Bi  Bi12  1  0.254380  0.130907  0.876390  1
  Bi  Bi13  1  0.750908  0.375937  0.629844  1
