# generated using pymatgen
data_Ca20IrAu15
_symmetry_space_group_name_H-M   'P 1'
_cell_length_a   7.92892200
_cell_length_b   8.01246767
_cell_length_c   15.43237000
_cell_angle_alpha   90.00000000
_cell_angle_beta   90.00000000
_cell_angle_gamma   89.62822583
_symmetry_Int_Tables_number   1
_chemical_formula_structural   Ca20IrAu15
_chemical_formula_sum   'Ca20 Ir1 Au15'
_cell_volume   980.40139499
_cell_formula_units_Z   1
loop_
 _symmetry_equiv_pos_site_id
 _symmetry_equiv_pos_as_xyz
  1  'x, y, z'
loop_
 _atom_site_type_symbol
 _atom_site_label
 _atom_site_symmetry_multiplicity
 _atom_site_fract_x
 _atom_site_fract_y
 _atom_site_fract_z
 _atom_site_occupancy
  Ca  Ca0  1  0.335548  0.829961  0.880131  1
  Ca  Ca1  1  0.834295  0.672507  0.619081  1
  Ca  Ca2  1  0.664723  0.167507  0.378134  1
  Ca  Ca3  1  0.167216  0.340839  0.124675  1
  Ca  Ca4  1  0.664723  0.167507  0.121866  1
  Ca  Ca5  1  0.167216  0.340839  0.375325  1
  Ca  Ca6  1  0.335548  0.829961  0.619869  1
  Ca  Ca7  1  0.834295  0.672507  0.880919  1
  Ca  Ca8  1  0.489684  0.322821  0.901513  1
  Ca  Ca9  1  0.989799  0.180436  0.596572  1
  Ca  Ca10  1  0.499551  0.675161  0.394254  1
  Ca  Ca11  1  0.021706  0.807300  0.107065  1
  Ca  Ca12  1  0.499551  0.675161  0.105746  1
  Ca  Ca13  1  0.021706  0.807300  0.392935  1
  Ca  Ca14  1  0.489684  0.322821  0.598487  1
  Ca  Ca15  1  0.989799  0.180436  0.903428  1
  Ca  Ca16  1  0.168349  0.491733  0.750000  1
  Ca  Ca17  1  0.669559  0.012539  0.750000  1
  Ca  Ca18  1  0.841148  0.508081  0.250000  1
  Ca  Ca19  1  0.326778  0.977854  0.250000  1
  Ir  Ir20  1  0.209119  0.629531  0.250000  1
  Au  Au21  1  0.331503  0.026627  0.046509  1
  Au  Au22  1  0.827753  0.474718  0.454069  1
  Au  Au23  1  0.664000  0.983287  0.548429  1
  Au  Au24  1  0.166206  0.521311  0.952422  1
  Au  Au25  1  0.664000  0.983287  0.951571  1
  Au  Au26  1  0.166206  0.521311  0.547578  1
  Au  Au27  1  0.331503  0.026627  0.453491  1
  Au  Au28  1  0.827753  0.474718  0.045931  1
  Au  Au29  1  0.535602  0.617572  0.750000  1
  Au  Au30  1  0.035997  0.883271  0.750000  1
  Au  Au31  1  0.467463  0.389950  0.250000  1
  Au  Au32  1  0.965346  0.116501  0.250000  1
  Au  Au33  1  0.292416  0.133373  0.750000  1
  Au  Au34  1  0.795215  0.368913  0.750000  1
  Au  Au35  1  0.709042  0.865730  0.250000  1
