# generated using pymatgen
data_Ho3Mg4PaRh4
_symmetry_space_group_name_H-M   'P 1'
_cell_length_a   4.01514700
_cell_length_b   7.12364405
_cell_length_c   8.68191789
_cell_angle_alpha   91.38251094
_cell_angle_beta   90.00000000
_cell_angle_gamma   90.00000000
_symmetry_Int_Tables_number   1
_chemical_formula_structural   Ho3Mg4PaRh4
_chemical_formula_sum   'Ho3 Mg4 Pa1 Rh4'
_cell_volume   248.25207877
_cell_formula_units_Z   1
loop_
 _symmetry_equiv_pos_site_id
 _symmetry_equiv_pos_as_xyz
  1  'x, y, z'
loop_
 _atom_site_type_symbol
 _atom_site_label
 _atom_site_symmetry_multiplicity
 _atom_site_fract_x
 _atom_site_fract_y
 _atom_site_fract_z
 _atom_site_occupancy
  Ho  Ho0  1  0.750000  0.460856  0.817881  1
  Ho  Ho1  1  0.250000  0.035251  0.330843  1
  Ho  Ho2  1  0.750000  0.957215  0.679931  1
  Mg  Mg3  1  0.250000  0.139574  0.939293  1
  Mg  Mg4  1  0.750000  0.881811  0.060776  1
  Mg  Mg5  1  0.250000  0.630073  0.559037  1
  Mg  Mg6  1  0.750000  0.356512  0.444932  1
  Pa  Pa7  1  0.250000  0.542995  0.174316  1
  Rh  Rh8  1  0.750000  0.731304  0.348460  1
  Rh  Rh9  1  0.250000  0.237437  0.630565  1
  Rh  Rh10  1  0.750000  0.284181  0.129094  1
  Rh  Rh11  1  0.250000  0.742790  0.884872  1
