# generated using pymatgen
data_Dy5GaGeB8
_symmetry_space_group_name_H-M   'P 1'
_cell_length_a   7.26017134
_cell_length_b   7.26017127
_cell_length_c   8.18745000
_cell_angle_alpha   90.00000000
_cell_angle_beta   90.00000000
_cell_angle_gamma   89.62759973
_symmetry_Int_Tables_number   1
_chemical_formula_structural   Dy5GaGeB8
_chemical_formula_sum   'Dy10 Ga2 Ge2 B16'
_cell_volume   431.55208952
_cell_formula_units_Z   2
loop_
 _symmetry_equiv_pos_site_id
 _symmetry_equiv_pos_as_xyz
  1  'x, y, z'
loop_
 _atom_site_type_symbol
 _atom_site_label
 _atom_site_symmetry_multiplicity
 _atom_site_fract_x
 _atom_site_fract_y
 _atom_site_fract_z
 _atom_site_occupancy
  Dy  Dy0  1  0.680124  0.180124  0.221910  1
  Dy  Dy1  1  0.319876  0.819876  0.778090  1
  Dy  Dy2  1  0.319876  0.819876  0.221910  1
  Dy  Dy3  1  0.816120  0.683880  0.217328  1
  Dy  Dy4  1  0.816120  0.683880  0.782672  1
  Dy  Dy5  1  0.680124  0.180124  0.778090  1
  Dy  Dy6  1  0.183880  0.316120  0.782672  1
  Dy  Dy7  1  0.183880  0.316120  0.217328  1
  Dy  Dy8  1  0.000000  0.000000  0.500000  1
  Dy  Dy9  1  0.500000  0.500000  0.500000  1
  Ga  Ga10  1  0.117102  0.617102  0.500000  1
  Ga  Ga11  1  0.882898  0.382898  0.500000  1
  Ge  Ge12  1  0.379185  0.120815  0.500000  1
  Ge  Ge13  1  0.620815  0.879185  0.500000  1
  B  B14  1  0.171690  0.039297  0.000000  1
  B  B15  1  0.828310  0.960703  0.000000  1
  B  B16  1  0.959305  0.171828  0.000000  1
  B  B17  1  0.328172  0.540695  0.000000  1
  B  B18  1  0.040695  0.828172  0.000000  1
  B  B19  1  0.671828  0.459305  0.000000  1
  B  B20  1  0.539297  0.671690  0.000000  1
  B  B21  1  0.460703  0.328310  0.000000  1
  B  B22  1  0.091169  0.591169  0.000000  1
  B  B23  1  0.908831  0.408831  0.000000  1
  B  B24  1  0.408258  0.091742  0.000000  1
  B  B25  1  0.591742  0.908258  0.000000  1
  B  B26  1  0.000000  0.000000  0.161476  1
  B  B27  1  0.000000  0.000000  0.838524  1
  B  B28  1  0.500000  0.500000  0.838524  1
  B  B29  1  0.500000  0.500000  0.161476  1
