# generated using pymatgen
data_Yb2NiTeO6
_symmetry_space_group_name_H-M   'P 1'
_cell_length_a   5.48833001
_cell_length_b   5.48829843
_cell_length_c   5.50609215
_cell_angle_alpha   120.04959013
_cell_angle_beta   120.04929354
_cell_angle_gamma   59.78539210
_symmetry_Int_Tables_number   1
_chemical_formula_structural   Yb2NiTeO6
_chemical_formula_sum   'Yb2 Ni1 Te1 O6'
_cell_volume   116.99658074
_cell_formula_units_Z   1
loop_
 _symmetry_equiv_pos_site_id
 _symmetry_equiv_pos_as_xyz
  1  'x, y, z'
loop_
 _atom_site_type_symbol
 _atom_site_label
 _atom_site_symmetry_multiplicity
 _atom_site_fract_x
 _atom_site_fract_y
 _atom_site_fract_z
 _atom_site_occupancy
  Yb  Yb0  1  0.749540  0.749537  0.270305  1
  Yb  Yb1  1  0.250460  0.250463  0.729694  1
  Ni  Ni2  1  0.000000  0.000000  0.000000  1
  Te  Te3  1  0.500001  0.500001  0.500001  1
  O  O4  1  0.261242  0.261236  0.157749  1
  O  O5  1  0.804766  0.314100  0.319798  1
  O  O6  1  0.314098  0.804763  0.319795  1
  O  O7  1  0.685902  0.195237  0.680205  1
  O  O8  1  0.195234  0.685900  0.680202  1
  O  O9  1  0.738758  0.738764  0.842250  1
