# generated using pymatgen
data_La11YbNi6Sn
_symmetry_space_group_name_H-M   'P 1'
_cell_length_a   8.79419309
_cell_length_b   8.79419401
_cell_length_c   8.76334759
_cell_angle_alpha   109.30185186
_cell_angle_beta   109.39461193
_cell_angle_gamma   109.85900824
_symmetry_Int_Tables_number   1
_chemical_formula_structural   La11YbNi6Sn
_chemical_formula_sum   'La11 Yb1 Ni6 Sn1'
_cell_volume   520.79755080
_cell_formula_units_Z   1
loop_
 _symmetry_equiv_pos_site_id
 _symmetry_equiv_pos_as_xyz
  1  'x, y, z'
loop_
 _atom_site_type_symbol
 _atom_site_label
 _atom_site_symmetry_multiplicity
 _atom_site_fract_x
 _atom_site_fract_y
 _atom_site_fract_z
 _atom_site_occupancy
  La  La0  1  0.815884  0.505574  0.691522  1
  La  La1  1  0.491640  0.307613  0.177131  1
  La  La2  1  0.816728  0.126063  0.308242  1
  La  La3  1  0.509265  0.694605  0.819810  1
  La  La4  1  0.182179  0.491514  0.308242  1
  La  La5  1  0.125205  0.310545  0.819810  1
  La  La6  1  0.869517  0.685491  0.177131  1
  La  La7  1  0.185948  0.875638  0.691522  1
  La  La8  1  0.690825  0.819366  0.510191  1
  La  La9  1  0.313166  0.185970  0.499136  1
  La  La10  1  0.307664  0.818106  0.125769  1
  Yb  Yb11  1  0.690965  0.180222  0.871188  1
  Ni  Ni12  1  0.624590  0.124390  0.501145  1
  Ni  Ni13  1  0.875279  0.504188  0.379467  1
  Ni  Ni14  1  0.500115  0.372371  0.872486  1
  Ni  Ni15  1  0.125513  0.497407  0.622919  1
  Ni  Ni16  1  0.498148  0.624949  0.123096  1
  Ni  Ni17  1  0.376755  0.876555  0.501145  1
  Sn  Sn18  1  0.000615  0.999434  0.000049  1
