# generated using pymatgen
data_Ti3Mn2B4W
_symmetry_space_group_name_H-M   'P 1'
_cell_length_a   5.75118601
_cell_length_b   5.75118601
_cell_length_c   3.15052400
_cell_angle_alpha   90.00000000
_cell_angle_beta   90.00000000
_cell_angle_gamma   90.56138509
_symmetry_Int_Tables_number   1
_chemical_formula_structural   Ti3Mn2B4W
_chemical_formula_sum   'Ti3 Mn2 B4 W1'
_cell_volume   104.20217275
_cell_formula_units_Z   1
loop_
 _symmetry_equiv_pos_site_id
 _symmetry_equiv_pos_as_xyz
  1  'x, y, z'
loop_
 _atom_site_type_symbol
 _atom_site_label
 _atom_site_symmetry_multiplicity
 _atom_site_fract_x
 _atom_site_fract_y
 _atom_site_fract_z
 _atom_site_occupancy
  Ti  Ti0  1  0.819850  0.680410  0.500000  1
  Ti  Ti1  1  0.180410  0.319850  0.500000  1
  Ti  Ti2  1  0.680877  0.180877  0.500000  1
  Mn  Mn3  1  0.501591  0.498107  0.000000  1
  Mn  Mn4  1  0.998107  0.001591  0.000000  1
  B  B5  1  0.111567  0.611567  0.000000  1
  B  B6  1  0.888902  0.388902  0.000000  1
  B  B7  1  0.611041  0.886218  0.000000  1
  B  B8  1  0.386218  0.111041  0.000000  1
  W  W9  1  0.321438  0.821438  0.500000  1
