# generated using pymatgen
data_Ho11LuInCo4Pt
_symmetry_space_group_name_H-M   'P 1'
_cell_length_a   8.27093826
_cell_length_b   8.27125858
_cell_length_c   8.27093732
_cell_angle_alpha   111.12544179
_cell_angle_beta   110.48003113
_cell_angle_gamma   106.83896504
_symmetry_Int_Tables_number   1
_chemical_formula_structural   Ho11LuInCo4Pt
_chemical_formula_sum   'Ho11 Lu1 In1 Co4 Pt1'
_cell_volume   434.87978085
_cell_formula_units_Z   1
loop_
 _symmetry_equiv_pos_site_id
 _symmetry_equiv_pos_as_xyz
  1  'x, y, z'
loop_
 _atom_site_type_symbol
 _atom_site_label
 _atom_site_symmetry_multiplicity
 _atom_site_fract_x
 _atom_site_fract_y
 _atom_site_fract_z
 _atom_site_occupancy
  Ho  Ho0  1  0.684886  0.380485  0.695600  1
  Ho  Ho1  1  0.314971  0.010011  0.695042  1
  Ho  Ho2  1  0.684426  0.988740  0.304313  1
  Ho  Ho3  1  0.186371  0.291975  0.477341  1
  Ho  Ho4  1  0.813053  0.708288  0.522005  1
  Ho  Ho5  1  0.186283  0.708288  0.895236  1
  Ho  Ho6  1  0.814635  0.291975  0.105603  1
  Ho  Ho7  1  0.413786  0.216112  0.198498  1
  Ho  Ho8  1  0.585512  0.784071  0.800624  1
  Ho  Ho9  1  0.017614  0.216112  0.802327  1
  Ho  Ho10  1  0.983446  0.784071  0.198559  1
  Lu  Lu11  1  0.315698  0.621517  0.305818  1
  In  In12  1  0.499753  0.500177  0.000424  1
  Co  Co13  1  0.112771  0.612352  0.499581  1
  Co  Co14  1  0.887920  0.387957  0.500037  1
  Co  Co15  1  0.378977  0.999029  0.379082  1
  Co  Co16  1  0.619947  0.999029  0.620052  1
  Pt  Pt17  1  0.999952  0.999810  0.999859  1
