# generated using pymatgen
data_Er6As5Se
_symmetry_space_group_name_H-M   'P 1'
_cell_length_a   4.06263706
_cell_length_b   10.00040523
_cell_length_c   8.12169300
_cell_angle_alpha   90.04557122
_cell_angle_beta   60.00259789
_cell_angle_gamma   89.99085406
_symmetry_Int_Tables_number   1
_chemical_formula_structural   Er6As5Se
_chemical_formula_sum   'Er6 As5 Se1'
_cell_volume   285.76824424
_cell_formula_units_Z   1
loop_
 _symmetry_equiv_pos_site_id
 _symmetry_equiv_pos_as_xyz
  1  'x, y, z'
loop_
 _atom_site_type_symbol
 _atom_site_label
 _atom_site_symmetry_multiplicity
 _atom_site_fract_x
 _atom_site_fract_y
 _atom_site_fract_z
 _atom_site_occupancy
  Er  Er0  1  0.940490  0.895019  0.652303  1
  Er  Er1  1  0.269612  0.234881  0.326100  1
  Er  Er2  1  0.606103  0.564963  0.988865  1
  Er  Er3  1  0.279366  0.238879  0.816374  1
  Er  Er4  1  0.605944  0.564977  0.488821  1
  Er  Er5  1  0.930453  0.891186  0.162014  1
  As  As6  1  0.270793  0.731166  0.322569  1
  As  As7  1  0.940149  0.398860  0.655421  1
  As  As8  1  0.604841  0.064924  0.489300  1
  As  As9  1  0.941248  0.396598  0.154411  1
  As  As10  1  0.269989  0.733320  0.823629  1
  Se  Se11  1  0.604522  0.064958  0.989284  1
