# generated using pymatgen
data_NaHgBPt3
_symmetry_space_group_name_H-M   'P 1'
_cell_length_a   5.69756000
_cell_length_b   5.69755976
_cell_length_c   7.50221400
_cell_angle_alpha   90.00000000
_cell_angle_beta   90.00000000
_cell_angle_gamma   119.99998978
_symmetry_Int_Tables_number   1
_chemical_formula_structural   NaHgBPt3
_chemical_formula_sum   'Na2 Hg2 B2 Pt6'
_cell_volume   210.91036392
_cell_formula_units_Z   2
loop_
 _symmetry_equiv_pos_site_id
 _symmetry_equiv_pos_as_xyz
  1  'x, y, z'
loop_
 _atom_site_type_symbol
 _atom_site_label
 _atom_site_symmetry_multiplicity
 _atom_site_fract_x
 _atom_site_fract_y
 _atom_site_fract_z
 _atom_site_occupancy
  Na  Na0  1  0.000000  0.000000  0.000000  1
  Na  Na1  1  0.000000  0.000000  0.500000  1
  Hg  Hg2  1  0.666667  0.333334  0.500000  1
  Hg  Hg3  1  0.333334  0.666667  0.500000  1
  B  B4  1  0.666667  0.333334  0.000000  1
  B  B5  1  0.333334  0.666667  0.000000  1
  Pt  Pt6  1  0.500000  0.000000  0.188729  1
  Pt  Pt7  1  0.000000  0.500000  0.188729  1
  Pt  Pt8  1  0.499999  0.500000  0.188729  1
  Pt  Pt9  1  0.500000  0.000000  0.811271  1
  Pt  Pt10  1  0.000000  0.500000  0.811271  1
  Pt  Pt11  1  0.499999  0.500000  0.811271  1
