# generated using pymatgen
data_Er16MgCd3OsPd3
_symmetry_space_group_name_H-M   'P 1'
_cell_length_a   9.66594372
_cell_length_b   9.66594324
_cell_length_c   9.66594345
_cell_angle_alpha   59.23653386
_cell_angle_beta   59.23652723
_cell_angle_gamma   59.23653010
_symmetry_Int_Tables_number   1
_chemical_formula_structural   Er16MgCd3OsPd3
_chemical_formula_sum   'Er16 Mg1 Cd3 Os1 Pd3'
_cell_volume   627.47808187
_cell_formula_units_Z   1
loop_
 _symmetry_equiv_pos_site_id
 _symmetry_equiv_pos_as_xyz
  1  'x, y, z'
loop_
 _atom_site_type_symbol
 _atom_site_label
 _atom_site_symmetry_multiplicity
 _atom_site_fract_x
 _atom_site_fract_y
 _atom_site_fract_z
 _atom_site_occupancy
  Er  Er0  1  0.353995  0.353995  0.353995  1
  Er  Er1  1  0.349252  0.349252  0.947293  1
  Er  Er2  1  0.349252  0.947293  0.349252  1
  Er  Er3  1  0.947293  0.349252  0.349252  1
  Er  Er4  1  0.815650  0.188469  0.188469  1
  Er  Er5  1  0.186868  0.811712  0.811712  1
  Er  Er6  1  0.188469  0.815650  0.188469  1
  Er  Er7  1  0.811712  0.186868  0.811712  1
  Er  Er8  1  0.188469  0.188469  0.815650  1
  Er  Er9  1  0.811712  0.811712  0.186868  1
  Er  Er10  1  0.934864  0.566962  0.566962  1
  Er  Er11  1  0.558884  0.937110  0.937110  1
  Er  Er12  1  0.566962  0.934864  0.566962  1
  Er  Er13  1  0.937110  0.558884  0.937110  1
  Er  Er14  1  0.566962  0.566962  0.934864  1
  Er  Er15  1  0.937110  0.937110  0.558884  1
  Mg  Mg16  1  0.576353  0.576353  0.576353  1
  Cd  Cd17  1  0.581663  0.581663  0.253311  1
  Cd  Cd18  1  0.581663  0.253311  0.581663  1
  Cd  Cd19  1  0.253311  0.581663  0.581663  1
  Os  Os20  1  0.143814  0.143814  0.143814  1
  Pd  Pd21  1  0.144881  0.144881  0.568867  1
  Pd  Pd22  1  0.144881  0.568867  0.144881  1
  Pd  Pd23  1  0.568867  0.144881  0.144881  1
