# generated using pymatgen
data_Dy7Ho9Cd4(OsPt)2
_symmetry_space_group_name_H-M   'P 1'
_cell_length_a   9.63468102
_cell_length_b   9.63468005
_cell_length_c   9.69028700
_cell_angle_alpha   59.80889115
_cell_angle_beta   59.80889453
_cell_angle_gamma   59.65206565
_symmetry_Int_Tables_number   1
_chemical_formula_structural   Dy7Ho9Cd4(OsPt)2
_chemical_formula_sum   'Dy7 Ho9 Cd4 Os2 Pt2'
_cell_volume   632.53901537
_cell_formula_units_Z   1
loop_
 _symmetry_equiv_pos_site_id
 _symmetry_equiv_pos_as_xyz
  1  'x, y, z'
loop_
 _atom_site_type_symbol
 _atom_site_label
 _atom_site_symmetry_multiplicity
 _atom_site_fract_x
 _atom_site_fract_y
 _atom_site_fract_z
 _atom_site_occupancy
  Dy  Dy0  1  0.808634  0.808634  0.191366  1
  Dy  Dy1  1  0.938065  0.556865  0.566796  1
  Dy  Dy2  1  0.556865  0.938065  0.938273  1
  Dy  Dy3  1  0.556865  0.938065  0.566796  1
  Dy  Dy4  1  0.938065  0.556864  0.938273  1
  Dy  Dy5  1  0.563982  0.563982  0.936018  1
  Dy  Dy6  1  0.939964  0.939964  0.560035  1
  Ho  Ho7  1  0.349608  0.349608  0.352264  1
  Ho  Ho8  1  0.349608  0.349608  0.948519  1
  Ho  Ho9  1  0.346280  0.954558  0.349582  1
  Ho  Ho10  1  0.954558  0.346280  0.349582  1
  Ho  Ho11  1  0.814792  0.188105  0.190199  1
  Ho  Ho12  1  0.188105  0.814792  0.806905  1
  Ho  Ho13  1  0.188105  0.814792  0.190199  1
  Ho  Ho14  1  0.814792  0.188105  0.806905  1
  Ho  Ho15  1  0.188125  0.188125  0.811875  1
  Cd  Cd16  1  0.580121  0.580121  0.581442  1
  Cd  Cd17  1  0.580121  0.580121  0.258316  1
  Cd  Cd18  1  0.581016  0.255557  0.581713  1
  Cd  Cd19  1  0.255557  0.581016  0.581713  1
  Os  Os20  1  0.143984  0.143984  0.137970  1
  Os  Os21  1  0.143984  0.143984  0.574064  1
  Pt  Pt22  1  0.144747  0.574059  0.140598  1
  Pt  Pt23  1  0.574059  0.144747  0.140598  1
