# generated using pymatgen
data_HoTh2(AlNi)3
_symmetry_space_group_name_H-M   'P 1'
_cell_length_a   7.05489910
_cell_length_b   7.05489962
_cell_length_c   4.02392800
_cell_angle_alpha   90.00000000
_cell_angle_beta   90.00000000
_cell_angle_gamma   120.93748728
_symmetry_Int_Tables_number   1
_chemical_formula_structural   HoTh2(AlNi)3
_chemical_formula_sum   'Ho1 Th2 Al3 Ni3'
_cell_volume   171.78364004
_cell_formula_units_Z   1
loop_
 _symmetry_equiv_pos_site_id
 _symmetry_equiv_pos_as_xyz
  1  'x, y, z'
loop_
 _atom_site_type_symbol
 _atom_site_label
 _atom_site_symmetry_multiplicity
 _atom_site_fract_x
 _atom_site_fract_y
 _atom_site_fract_z
 _atom_site_occupancy
  Ho  Ho0  1  0.416643  0.416643  0.500000  1
  Th  Th1  1  0.998335  0.578279  0.500000  1
  Th  Th2  1  0.578279  0.998335  0.500000  1
  Al  Al3  1  0.231166  0.007028  0.000000  1
  Al  Al4  1  0.763972  0.763972  0.000000  1
  Al  Al5  1  0.007028  0.231166  0.000000  1
  Ni  Ni6  1  0.333666  0.673060  0.000000  1
  Ni  Ni7  1  0.673060  0.333666  0.000000  1
  Ni  Ni8  1  0.997852  0.997852  0.500000  1
