# generated using pymatgen
data_Ba12NbFe3O19
_symmetry_space_group_name_H-M   'P 1'
_cell_length_a   7.95757959
_cell_length_b   7.98575577
_cell_length_c   10.58602841
_cell_angle_alpha   89.88503082
_cell_angle_beta   89.95575284
_cell_angle_gamma   97.31251743
_symmetry_Int_Tables_number   1
_chemical_formula_structural   Ba12NbFe3O19
_chemical_formula_sum   'Ba12 Nb1 Fe3 O19'
_cell_volume   667.24027849
_cell_formula_units_Z   1
loop_
 _symmetry_equiv_pos_site_id
 _symmetry_equiv_pos_as_xyz
  1  'x, y, z'
loop_
 _atom_site_type_symbol
 _atom_site_label
 _atom_site_symmetry_multiplicity
 _atom_site_fract_x
 _atom_site_fract_y
 _atom_site_fract_z
 _atom_site_occupancy
  Ba  Ba0  1  0.752770  0.270767  0.514794  1
  Ba  Ba1  1  0.257737  0.722982  0.985458  1
  Ba  Ba2  1  0.741088  0.279303  0.983086  1
  Ba  Ba3  1  0.250520  0.733259  0.515907  1
  Ba  Ba4  1  0.578317  0.568252  0.244959  1
  Ba  Ba5  1  0.072079  0.067927  0.764798  1
  Ba  Ba6  1  0.423143  0.420404  0.753269  1
  Ba  Ba7  1  0.940020  0.926334  0.232573  1
  Ba  Ba8  1  0.747367  0.744715  0.923318  1
  Ba  Ba9  1  0.253851  0.270845  0.432285  1
  Ba  Ba10  1  0.245795  0.263542  0.066171  1
  Ba  Ba11  1  0.739367  0.736158  0.578130  1
  Nb  Nb12  1  0.502481  0.001517  0.258002  1
  Fe  Fe13  1  0.998003  0.499226  0.744397  1
  Fe  Fe14  1  0.001613  0.502418  0.258270  1
  Fe  Fe15  1  0.497957  0.997304  0.741160  1
  O  O16  1  0.268297  0.956848  0.291006  1
  O  O17  1  0.758412  0.461104  0.758889  1
  O  O18  1  0.542267  0.235120  0.236612  1
  O  O19  1  0.036718  0.737702  0.716598  1
  O  O20  1  0.930450  0.643110  0.391088  1
  O  O21  1  0.425319  0.115091  0.884565  1
  O  O22  1  0.885445  0.580545  0.114897  1
  O  O23  1  0.358863  0.063922  0.606005  1
  O  O24  1  0.241689  0.536622  0.237694  1
  O  O25  1  0.738742  0.037940  0.706851  1
  O  O26  1  0.960317  0.261734  0.293643  1
  O  O27  1  0.460095  0.757673  0.761122  1
  O  O28  1  0.572699  0.888772  0.115929  1
  O  O29  1  0.072491  0.367410  0.610726  1
  O  O30  1  0.634579  0.932281  0.389956  1
  O  O31  1  0.109952  0.420619  0.886896  1
  O  O32  1  0.501485  0.501064  0.000394  1
  O  O33  1  0.999734  0.997891  0.001051  1
  O  O34  1  0.500339  0.499597  0.499502  1
