# generated using pymatgen
data_Rb6W2O9
_symmetry_space_group_name_H-M   'P 1'
_cell_length_a   8.87019713
_cell_length_b   8.87019824
_cell_length_c   11.21641624
_cell_angle_alpha   67.90381258
_cell_angle_beta   67.90381034
_cell_angle_gamma   92.66628067
_symmetry_Int_Tables_number   1
_chemical_formula_structural   Rb6W2O9
_chemical_formula_sum   'Rb12 W4 O18'
_cell_volume   739.24542743
_cell_formula_units_Z   2
loop_
 _symmetry_equiv_pos_site_id
 _symmetry_equiv_pos_as_xyz
  1  'x, y, z'
loop_
 _atom_site_type_symbol
 _atom_site_label
 _atom_site_symmetry_multiplicity
 _atom_site_fract_x
 _atom_site_fract_y
 _atom_site_fract_z
 _atom_site_occupancy
  Rb  Rb0  1  0.498052  0.695503  0.019114  1
  Rb  Rb1  1  0.304497  0.501948  0.480886  1
  Rb  Rb2  1  0.501948  0.304497  0.980886  1
  Rb  Rb3  1  0.695503  0.498052  0.519114  1
  Rb  Rb4  1  0.002079  0.705151  0.025227  1
  Rb  Rb5  1  0.294849  0.997921  0.474773  1
  Rb  Rb6  1  0.997921  0.294849  0.974773  1
  Rb  Rb7  1  0.705151  0.002079  0.525227  1
  Rb  Rb8  1  0.096515  0.321807  0.264796  1
  Rb  Rb9  1  0.678193  0.903485  0.235204  1
  Rb  Rb10  1  0.903485  0.678193  0.735204  1
  Rb  Rb11  1  0.321807  0.096515  0.764796  1
  W  W12  1  0.373050  0.626950  0.750000  1
  W  W13  1  0.626950  0.373050  0.250000  1
  W  W14  1  0.146951  0.853049  0.250000  1
  W  W15  1  0.853049  0.146951  0.750000  1
  O  O16  1  0.094374  0.635278  0.284044  1
  O  O17  1  0.364722  0.905626  0.215956  1
  O  O18  1  0.905626  0.364722  0.715956  1
  O  O19  1  0.635278  0.094374  0.784044  1
  O  O20  1  0.883943  0.016178  0.904902  1
  O  O21  1  0.983822  0.116057  0.595098  1
  O  O22  1  0.116057  0.983822  0.095098  1
  O  O23  1  0.016178  0.883943  0.404902  1
  O  O24  1  0.675664  0.577848  0.256383  1
  O  O25  1  0.422152  0.324336  0.243617  1
  O  O26  1  0.324336  0.422152  0.743617  1
  O  O27  1  0.577848  0.675664  0.756383  1
  O  O28  1  0.519780  0.262929  0.457705  1
  O  O29  1  0.737071  0.480220  0.042295  1
  O  O30  1  0.480220  0.737071  0.542295  1
  O  O31  1  0.262929  0.519780  0.957705  1
  O  O32  1  0.225719  0.774281  0.750000  1
  O  O33  1  0.774281  0.225719  0.250000  1
