# generated using pymatgen
data_Y9HoSi16Pd
_symmetry_space_group_name_H-M   'P 1'
_cell_length_a   11.13660747
_cell_length_b   11.13997087
_cell_length_c   11.13595955
_cell_angle_alpha   144.75508087
_cell_angle_beta   136.46882280
_cell_angle_gamma   57.18850607
_symmetry_Int_Tables_number   1
_chemical_formula_structural   Y9HoSi16Pd
_chemical_formula_sum   'Y9 Ho1 Si16 Pd1'
_cell_volume   544.70433247
_cell_formula_units_Z   1
loop_
 _symmetry_equiv_pos_site_id
 _symmetry_equiv_pos_as_xyz
  1  'x, y, z'
loop_
 _atom_site_type_symbol
 _atom_site_label
 _atom_site_symmetry_multiplicity
 _atom_site_fract_x
 _atom_site_fract_y
 _atom_site_fract_z
 _atom_site_occupancy
  Y  Y0  1  0.051855  0.564319  0.016338  1
  Y  Y1  1  0.352120  0.370679  0.521480  1
  Y  Y2  1  0.151807  0.165534  0.519347  1
  Y  Y3  1  0.451341  0.963289  0.014844  1
  Y  Y4  1  0.646084  0.165383  0.013580  1
  Y  Y5  1  0.948550  0.963476  0.512070  1
  Y  Y6  1  0.849423  0.370671  0.018655  1
  Y  Y7  1  0.547775  0.564310  0.512588  1
  Y  Y8  1  0.249560  0.763805  0.011896  1
  Ho  Ho9  1  0.751745  0.763244  0.513904  1
  Si  Si10  1  0.116342  0.073629  0.957044  1
  Si  Si11  1  0.798134  0.188416  0.390231  1
  Si  Si12  1  0.300423  0.899601  0.598940  1
  Si  Si13  1  0.400527  0.500875  0.101586  1
  Si  Si14  1  0.886289  0.846836  0.960337  1
  Si  Si15  1  0.103023  0.707627  0.603148  1
  Si  Si16  1  0.200395  0.588649  0.388158  1
  Si  Si17  1  0.698134  0.293849  0.595962  1
  Si  Si18  1  0.999175  0.433258  0.432844  1
  Si  Si19  1  0.712929  0.664884  0.952102  1
  Si  Si20  1  0.601091  0.702371  0.102500  1
  Si  Si21  1  0.999425  0.086481  0.084731  1
  Si  Si22  1  0.501365  0.395835  0.895379  1
  Si  Si23  1  0.286626  0.240726  0.954352  1
  Si  Si24  1  0.584820  0.039299  0.456679  1
  Si  Si25  1  0.415188  0.868839  0.455279  1
  Pd  Pd26  1  0.895856  0.503033  0.604944  1
