# generated using pymatgen
data_Th7IrPt20
_symmetry_space_group_name_H-M   'P 1'
_cell_length_a   5.96008900
_cell_length_b   5.97866268
_cell_length_c   17.24273218
_cell_angle_alpha   90.26949943
_cell_angle_beta   90.00000000
_cell_angle_gamma   119.89729109
_symmetry_Int_Tables_number   1
_chemical_formula_structural   Th7IrPt20
_chemical_formula_sum   'Th7 Ir1 Pt20'
_cell_volume   532.64231706
_cell_formula_units_Z   1
loop_
 _symmetry_equiv_pos_site_id
 _symmetry_equiv_pos_as_xyz
  1  'x, y, z'
loop_
 _atom_site_type_symbol
 _atom_site_label
 _atom_site_symmetry_multiplicity
 _atom_site_fract_x
 _atom_site_fract_y
 _atom_site_fract_z
 _atom_site_occupancy
  Th  Th0  1  0.997618  0.995236  0.713713  1
  Th  Th1  1  0.666518  0.333036  0.856026  1
  Th  Th2  1  0.333630  0.667260  0.143882  1
  Th  Th3  1  0.999864  0.999728  0.284099  1
  Th  Th4  1  0.669413  0.338824  0.432356  1
  Th  Th5  1  0.000178  0.000354  0.999510  1
  Th  Th6  1  0.333056  0.666113  0.570660  1
  Ir  Ir7  1  0.832963  0.665926  0.571166  1
  Pt  Pt8  1  0.332347  0.165665  0.571265  1
  Pt  Pt9  1  0.175099  0.350198  0.856406  1
  Pt  Pt10  1  0.166698  0.333395  0.427713  1
  Pt  Pt11  1  0.167064  0.835269  0.428827  1
  Pt  Pt12  1  0.500353  0.000706  0.713609  1
  Pt  Pt13  1  0.668205  0.835269  0.428827  1
  Pt  Pt14  1  0.174623  0.824389  0.856825  1
  Pt  Pt15  1  0.649766  0.824389  0.856825  1
  Pt  Pt16  1  0.825147  0.175125  0.143143  1
  Pt  Pt17  1  0.833318  0.165665  0.571265  1
  Pt  Pt18  1  0.500671  0.498038  0.712617  1
  Pt  Pt19  1  0.349978  0.175125  0.143143  1
  Pt  Pt20  1  0.824861  0.649721  0.142952  1
  Pt  Pt21  1  0.499725  0.500693  0.287436  1
  Pt  Pt22  1  0.500450  0.000903  0.288018  1
  Pt  Pt23  1  0.500038  0.000076  0.999945  1
  Pt  Pt24  1  0.000966  0.500693  0.287436  1
  Pt  Pt25  1  0.997367  0.498038  0.712617  1
  Pt  Pt26  1  0.499782  0.500085  0.999859  1
  Pt  Pt27  1  0.000303  0.500085  0.999859  1
