# generated using pymatgen
data_LaY4Mg3(Ni4P3)4
_symmetry_space_group_name_H-M   'P 1'
_cell_length_a   12.29168500
_cell_length_b   12.29168485
_cell_length_c   3.81170400
_cell_angle_alpha   90.00000000
_cell_angle_beta   90.00000000
_cell_angle_gamma   120.00000310
_symmetry_Int_Tables_number   1
_chemical_formula_structural   LaY4Mg3(Ni4P3)4
_chemical_formula_sum   'La1 Y4 Mg3 Ni16 P12'
_cell_volume   498.73818981
_cell_formula_units_Z   1
loop_
 _symmetry_equiv_pos_site_id
 _symmetry_equiv_pos_as_xyz
  1  'x, y, z'
loop_
 _atom_site_type_symbol
 _atom_site_label
 _atom_site_symmetry_multiplicity
 _atom_site_fract_x
 _atom_site_fract_y
 _atom_site_fract_z
 _atom_site_occupancy
  La  La0  1  0.333333  0.666667  0.000000  1
  Y  Y1  1  0.185430  0.186766  0.500000  1
  Y  Y2  1  0.813234  0.998664  0.500000  1
  Y  Y3  1  0.001336  0.814570  0.500000  1
  Y  Y4  1  0.666667  0.333333  0.000000  1
  Mg  Mg5  1  0.565043  0.563528  0.000000  1
  Mg  Mg6  1  0.436472  0.001515  0.000000  1
  Mg  Mg7  1  0.998485  0.434957  0.000000  1
  Ni  Ni8  1  0.724099  0.718949  0.500000  1
  Ni  Ni9  1  0.281051  0.005150  0.500000  1
  Ni  Ni10  1  0.994850  0.275901  0.500000  1
  Ni  Ni11  1  0.180610  0.374731  0.000000  1
  Ni  Ni12  1  0.625269  0.805879  0.000000  1
  Ni  Ni13  1  0.194121  0.819390  0.000000  1
  Ni  Ni14  1  0.806114  0.620567  0.000000  1
  Ni  Ni15  1  0.814453  0.193886  0.000000  1
  Ni  Ni16  1  0.379433  0.185547  0.000000  1
  Ni  Ni17  1  0.363183  0.479583  0.500000  1
  Ni  Ni18  1  0.520417  0.883601  0.500000  1
  Ni  Ni19  1  0.116399  0.636817  0.500000  1
  Ni  Ni20  1  0.876523  0.512905  0.500000  1
  Ni  Ni21  1  0.636384  0.123477  0.500000  1
  Ni  Ni22  1  0.487095  0.363616  0.500000  1
  Ni  Ni23  1  0.000000  0.000000  0.000000  1
  P  P24  1  0.824573  0.822753  0.000000  1
  P  P25  1  0.177247  0.001820  0.000000  1
  P  P26  1  0.998180  0.175427  0.000000  1
  P  P27  1  0.167887  0.469603  0.500000  1
  P  P28  1  0.530397  0.698284  0.500000  1
  P  P29  1  0.301716  0.832113  0.500000  1
  P  P30  1  0.696521  0.522712  0.500000  1
  P  P31  1  0.826191  0.303479  0.500000  1
  P  P32  1  0.477288  0.173809  0.500000  1
  P  P33  1  0.358212  0.359563  0.000000  1
  P  P34  1  0.640437  0.998648  0.000000  1
  P  P35  1  0.001352  0.641788  0.000000  1
