# generated using pymatgen
data_Cs3Rb(SiAs)12
_symmetry_space_group_name_H-M   'P 1'
_cell_length_a   3.73760200
_cell_length_b   10.19304840
_cell_length_c   20.91166447
_cell_angle_alpha   89.04001219
_cell_angle_beta   90.00000000
_cell_angle_gamma   90.00000000
_symmetry_Int_Tables_number   1
_chemical_formula_structural   Cs3Rb(SiAs)12
_chemical_formula_sum   'Cs3 Rb1 Si12 As12'
_cell_volume   796.57152892
_cell_formula_units_Z   1
loop_
 _symmetry_equiv_pos_site_id
 _symmetry_equiv_pos_as_xyz
  1  'x, y, z'
loop_
 _atom_site_type_symbol
 _atom_site_label
 _atom_site_symmetry_multiplicity
 _atom_site_fract_x
 _atom_site_fract_y
 _atom_site_fract_z
 _atom_site_occupancy
  Cs  Cs0  1  0.000000  0.299382  0.301303  1
  Cs  Cs1  1  0.000000  0.713753  0.693938  1
  Cs  Cs2  1  0.000000  0.213843  0.806479  1
  Rb  Rb3  1  0.000000  0.793040  0.193284  1
  Si  Si4  1  0.500000  0.400686  0.038001  1
  Si  Si5  1  0.500000  0.589896  0.971737  1
  Si  Si6  1  0.500000  0.093513  0.531412  1
  Si  Si7  1  0.500000  0.909767  0.464601  1
  Si  Si8  1  0.000000  0.106623  0.017313  1
  Si  Si9  1  0.000000  0.884990  0.988662  1
  Si  Si10  1  0.000000  0.389871  0.510457  1
  Si  Si11  1  0.000000  0.613374  0.480426  1
  Si  Si12  1  0.000000  0.163659  0.125758  1
  Si  Si13  1  0.000000  0.823669  0.880607  1
  Si  Si14  1  0.000000  0.326410  0.619424  1
  Si  Si15  1  0.000000  0.685251  0.372630  1
  As  As16  1  0.500000  0.092236  0.185953  1
  As  As17  1  0.500000  0.895197  0.820510  1
  As  As18  1  0.500000  0.396558  0.678771  1
  As  As19  1  0.500000  0.617260  0.312634  1
  As  As20  1  0.500000  0.283834  0.459811  1
  As  As21  1  0.500000  0.715270  0.533204  1
  As  As22  1  0.500000  0.215310  0.966348  1
  As  As23  1  0.500000  0.778876  0.041132  1
  As  As24  1  0.000000  0.401790  0.110726  1
  As  As25  1  0.000000  0.586132  0.898787  1
  As  As26  1  0.000000  0.088801  0.604343  1
  As  As27  1  0.000000  0.921006  0.391749  1
