# generated using pymatgen
data_Nd2Re17C3
_symmetry_space_group_name_H-M   'P 1'
_cell_length_a   7.06045065
_cell_length_b   7.06045064
_cell_length_c   7.06045036
_cell_angle_alpha   82.82820509
_cell_angle_beta   82.82820887
_cell_angle_gamma   82.82819706
_symmetry_Int_Tables_number   1
_chemical_formula_structural   Nd2Re17C3
_chemical_formula_sum   'Nd2 Re17 C3'
_cell_volume   344.33676420
_cell_formula_units_Z   1
loop_
 _symmetry_equiv_pos_site_id
 _symmetry_equiv_pos_as_xyz
  1  'x, y, z'
loop_
 _atom_site_type_symbol
 _atom_site_label
 _atom_site_symmetry_multiplicity
 _atom_site_fract_x
 _atom_site_fract_y
 _atom_site_fract_z
 _atom_site_occupancy
  Nd  Nd0  1  0.651088  0.651088  0.651088  1
  Nd  Nd1  1  0.348912  0.348912  0.348912  1
  Re  Re2  1  0.000000  0.000000  0.500000  1
  Re  Re3  1  0.500000  0.000000  0.000000  1
  Re  Re4  1  0.000000  0.500000  0.000000  1
  Re  Re5  1  0.721121  0.278879  0.000000  1
  Re  Re6  1  0.000000  0.721121  0.278879  1
  Re  Re7  1  0.278879  0.000000  0.721121  1
  Re  Re8  1  0.000000  0.278879  0.721121  1
  Re  Re9  1  0.721121  0.000000  0.278879  1
  Re  Re10  1  0.278879  0.721121  0.000000  1
  Re  Re11  1  0.348606  0.862461  0.348606  1
  Re  Re12  1  0.348606  0.348606  0.862461  1
  Re  Re13  1  0.862461  0.348606  0.348606  1
  Re  Re14  1  0.651394  0.137539  0.651394  1
  Re  Re15  1  0.651394  0.651394  0.137539  1
  Re  Re16  1  0.137539  0.651394  0.651394  1
  Re  Re17  1  0.902606  0.902606  0.902606  1
  Re  Re18  1  0.097394  0.097394  0.097394  1
  C  C19  1  0.500000  0.500000  0.000000  1
  C  C20  1  0.000000  0.500000  0.500000  1
  C  C21  1  0.500000  0.000000  0.500000  1
