# generated using pymatgen
data_BiOs2(Cl4O)2
_symmetry_space_group_name_H-M   'P 1'
_cell_length_a   7.42376370
_cell_length_b   8.68822330
_cell_length_c   10.79754475
_cell_angle_alpha   91.21034864
_cell_angle_beta   99.97011208
_cell_angle_gamma   91.90138897
_symmetry_Int_Tables_number   1
_chemical_formula_structural   BiOs2(Cl4O)2
_chemical_formula_sum   'Bi2 Os4 Cl16 O4'
_cell_volume   685.28378482
_cell_formula_units_Z   2
loop_
 _symmetry_equiv_pos_site_id
 _symmetry_equiv_pos_as_xyz
  1  'x, y, z'
loop_
 _atom_site_type_symbol
 _atom_site_label
 _atom_site_symmetry_multiplicity
 _atom_site_fract_x
 _atom_site_fract_y
 _atom_site_fract_z
 _atom_site_occupancy
  Bi  Bi0  1  0.630313  0.681978  0.426547  1
  Bi  Bi1  1  0.369687  0.318022  0.573453  1
  Os  Os2  1  0.718103  0.104709  0.854198  1
  Os  Os3  1  0.281897  0.895291  0.145802  1
  Os  Os4  1  0.782502  0.898300  0.143974  1
  Os  Os5  1  0.217498  0.101700  0.856026  1
  Cl  Cl6  1  0.709270  0.363646  0.803444  1
  Cl  Cl7  1  0.290730  0.636354  0.196556  1
  Cl  Cl8  1  0.654460  0.041081  0.639106  1
  Cl  Cl9  1  0.345540  0.958919  0.360894  1
  Cl  Cl10  1  0.778965  0.162042  0.078858  1
  Cl  Cl11  1  0.221035  0.837958  0.921142  1
  Cl  Cl12  1  0.726370  0.837617  0.919509  1
  Cl  Cl13  1  0.273630  0.162383  0.080491  1
  Cl  Cl14  1  0.829598  0.964942  0.358820  1
  Cl  Cl15  1  0.170402  0.035058  0.641180  1
  Cl  Cl16  1  0.783216  0.637824  0.203625  1
  Cl  Cl17  1  0.216784  0.362176  0.796375  1
  Cl  Cl18  1  0.592711  0.377926  0.394243  1
  Cl  Cl19  1  0.407289  0.622074  0.605757  1
  Cl  Cl20  1  0.900653  0.657029  0.593322  1
  Cl  Cl21  1  0.099347  0.342971  0.406678  1
  O  O22  1  0.468776  0.100648  0.860160  1
  O  O23  1  0.531224  0.899352  0.139840  1
  O  O24  1  0.031789  0.897168  0.144788  1
  O  O25  1  0.968211  0.102832  0.855212  1
