# generated using pymatgen
data_Sm5Tm(WO7)2
_symmetry_space_group_name_H-M   'P 1'
_cell_length_a   6.61478931
_cell_length_b   6.52433014
_cell_length_c   7.60319200
_cell_angle_alpha   90.00000000
_cell_angle_beta   90.00000000
_cell_angle_gamma   108.85365448
_symmetry_Int_Tables_number   1
_chemical_formula_structural   Sm5Tm(WO7)2
_chemical_formula_sum   'Sm5 Tm1 W2 O14'
_cell_volume   310.52626532
_cell_formula_units_Z   1
loop_
 _symmetry_equiv_pos_site_id
 _symmetry_equiv_pos_as_xyz
  1  'x, y, z'
loop_
 _atom_site_type_symbol
 _atom_site_label
 _atom_site_symmetry_multiplicity
 _atom_site_fract_x
 _atom_site_fract_y
 _atom_site_fract_z
 _atom_site_occupancy
  Sm  Sm0  1  0.525947  0.519626  0.498898  1
  Sm  Sm1  1  0.525947  0.519626  0.001102  1
  Sm  Sm2  1  0.005492  0.460209  0.750000  1
  Sm  Sm3  1  0.528342  0.004278  0.750000  1
  Sm  Sm4  1  0.465202  0.002302  0.250000  1
  Tm  Tm5  1  0.005137  0.531433  0.250000  1
  W  W6  1  0.998795  0.998512  0.497863  1
  W  W7  1  0.998795  0.998512  0.002137  1
  O  O8  1  0.927633  0.065148  0.750000  1
  O  O9  1  0.069927  0.923302  0.250000  1
  O  O10  1  0.353001  0.630107  0.250000  1
  O  O11  1  0.643713  0.371772  0.750000  1
  O  O12  1  0.369060  0.629545  0.750000  1
  O  O13  1  0.648552  0.379170  0.250000  1
  O  O14  1  0.317402  0.083022  0.972997  1
  O  O15  1  0.674354  0.913351  0.472712  1
  O  O16  1  0.317402  0.083022  0.527003  1
  O  O17  1  0.674354  0.913351  0.027288  1
  O  O18  1  0.044076  0.306956  0.460604  1
  O  O19  1  0.931397  0.679900  0.974489  1
  O  O20  1  0.931397  0.679900  0.525511  1
  O  O21  1  0.044076  0.306956  0.039396  1
