# generated using pymatgen
data_PuU(MoC2)2
_symmetry_space_group_name_H-M   'P 1'
_cell_length_a   3.25728700
_cell_length_b   5.66467851
_cell_length_c   10.97035233
_cell_angle_alpha   89.83317146
_cell_angle_beta   90.00000000
_cell_angle_gamma   90.00000000
_symmetry_Int_Tables_number   1
_chemical_formula_structural   PuU(MoC2)2
_chemical_formula_sum   'Pu2 U2 Mo4 C8'
_cell_volume   202.41841874
_cell_formula_units_Z   2
loop_
 _symmetry_equiv_pos_site_id
 _symmetry_equiv_pos_as_xyz
  1  'x, y, z'
loop_
 _atom_site_type_symbol
 _atom_site_label
 _atom_site_symmetry_multiplicity
 _atom_site_fract_x
 _atom_site_fract_y
 _atom_site_fract_z
 _atom_site_occupancy
  Pu  Pu0  1  0.250000  0.081918  0.858519  1
  Pu  Pu1  1  0.750000  0.918082  0.141481  1
  U  U2  1  0.250000  0.579784  0.642307  1
  U  U3  1  0.750000  0.420216  0.357693  1
  Mo  Mo4  1  0.750000  0.080514  0.601899  1
  Mo  Mo5  1  0.750000  0.582928  0.897427  1
  Mo  Mo6  1  0.250000  0.919486  0.398101  1
  Mo  Mo7  1  0.250000  0.417072  0.102573  1
  C  C8  1  0.250000  0.741424  0.990939  1
  C  C9  1  0.750000  0.258576  0.009061  1
  C  C10  1  0.250000  0.250422  0.508958  1
  C  C11  1  0.750000  0.749578  0.491042  1
  C  C12  1  0.250000  0.166554  0.248498  1
  C  C13  1  0.750000  0.340709  0.742397  1
  C  C14  1  0.250000  0.659291  0.257603  1
  C  C15  1  0.750000  0.833446  0.751502  1
