# generated using pymatgen
data_Tb4Mg(NiTe)2
_symmetry_space_group_name_H-M   'P 1'
_cell_length_a   7.60947400
_cell_length_b   7.60947343
_cell_length_c   15.12271900
_cell_angle_alpha   90.00000000
_cell_angle_beta   90.00000000
_cell_angle_gamma   149.92878255
_symmetry_Int_Tables_number   1
_chemical_formula_structural   Tb4Mg(NiTe)2
_chemical_formula_sum   'Tb8 Mg2 Ni4 Te4'
_cell_volume   438.77591724
_cell_formula_units_Z   2
loop_
 _symmetry_equiv_pos_site_id
 _symmetry_equiv_pos_as_xyz
  1  'x, y, z'
loop_
 _atom_site_type_symbol
 _atom_site_label
 _atom_site_symmetry_multiplicity
 _atom_site_fract_x
 _atom_site_fract_y
 _atom_site_fract_z
 _atom_site_occupancy
  Tb  Tb0  1  0.967899  0.032101  0.130422  1
  Tb  Tb1  1  0.032101  0.967899  0.869578  1
  Tb  Tb2  1  0.032101  0.967899  0.630422  1
  Tb  Tb3  1  0.967899  0.032101  0.369578  1
  Tb  Tb4  1  0.749725  0.250275  0.633344  1
  Tb  Tb5  1  0.250275  0.749725  0.366656  1
  Tb  Tb6  1  0.250275  0.749725  0.133344  1
  Tb  Tb7  1  0.749725  0.250275  0.866656  1
  Mg  Mg8  1  0.607593  0.392407  0.250000  1
  Mg  Mg9  1  0.392407  0.607593  0.750000  1
  Ni  Ni10  1  0.414805  0.585195  0.250000  1
  Ni  Ni11  1  0.585195  0.414805  0.750000  1
  Ni  Ni12  1  0.809486  0.190514  0.250000  1
  Ni  Ni13  1  0.190514  0.809486  0.750000  1
  Te  Te14  1  0.618977  0.381023  0.030546  1
  Te  Te15  1  0.381023  0.618977  0.969454  1
  Te  Te16  1  0.381023  0.618977  0.530546  1
  Te  Te17  1  0.618977  0.381023  0.469454  1
