# generated using pymatgen
data_La3Pr(NdTe2)4
_symmetry_space_group_name_H-M   'P 1'
_cell_length_a   9.06587358
_cell_length_b   9.09593481
_cell_length_c   9.09593500
_cell_angle_alpha   60.00000294
_cell_angle_beta   59.89025419
_cell_angle_gamma   59.89025845
_symmetry_Int_Tables_number   1
_chemical_formula_structural   La3Pr(NdTe2)4
_chemical_formula_sum   'La3 Pr1 Nd4 Te8'
_cell_volume   529.50122056
_cell_formula_units_Z   1
loop_
 _symmetry_equiv_pos_site_id
 _symmetry_equiv_pos_as_xyz
  1  'x, y, z'
loop_
 _atom_site_type_symbol
 _atom_site_label
 _atom_site_symmetry_multiplicity
 _atom_site_fract_x
 _atom_site_fract_y
 _atom_site_fract_z
 _atom_site_occupancy
  La  La0  1  0.625000  0.125000  0.625000  1
  La  La1  1  0.625000  0.625000  0.625000  1
  La  La2  1  0.625000  0.625000  0.125000  1
  Pr  Pr3  1  0.125000  0.625000  0.625000  1
  Nd  Nd4  1  0.125000  0.625000  0.125000  1
  Nd  Nd5  1  0.125000  0.125000  0.625000  1
  Nd  Nd6  1  0.625000  0.125000  0.125000  1
  Nd  Nd7  1  0.125000  0.125000  0.125000  1
  Te  Te8  1  0.372583  0.879327  0.374045  1
  Te  Te9  1  0.877417  0.370673  0.875955  1
  Te  Te10  1  0.877417  0.875955  0.370673  1
  Te  Te11  1  0.877417  0.875955  0.875955  1
  Te  Te12  1  0.880147  0.373284  0.373284  1
  Te  Te13  1  0.372583  0.374045  0.879327  1
  Te  Te14  1  0.372583  0.374045  0.374045  1
  Te  Te15  1  0.369853  0.876716  0.876716  1
