# generated using pymatgen
data_Th3Ga3CuRuRh
_symmetry_space_group_name_H-M   'P 1'
_cell_length_a   7.28389100
_cell_length_b   7.28389206
_cell_length_c   4.00104200
_cell_angle_alpha   90.00000000
_cell_angle_beta   90.00000000
_cell_angle_gamma   120.00000882
_symmetry_Int_Tables_number   1
_chemical_formula_structural   Th3Ga3CuRuRh
_chemical_formula_sum   'Th3 Ga3 Cu1 Ru1 Rh1'
_cell_volume   183.83603427
_cell_formula_units_Z   1
loop_
 _symmetry_equiv_pos_site_id
 _symmetry_equiv_pos_as_xyz
  1  'x, y, z'
loop_
 _atom_site_type_symbol
 _atom_site_label
 _atom_site_symmetry_multiplicity
 _atom_site_fract_x
 _atom_site_fract_y
 _atom_site_fract_z
 _atom_site_occupancy
  Th  Th0  1  0.003160  0.421022  0.500000  1
  Th  Th1  1  0.578978  0.582138  0.500000  1
  Th  Th2  1  0.417862  0.996840  0.500000  1
  Ga  Ga3  1  0.001448  0.763890  0.000000  1
  Ga  Ga4  1  0.236110  0.237558  0.000000  1
  Ga  Ga5  1  0.762442  0.998552  0.000000  1
  Cu  Cu6  1  0.000000  0.000000  0.500000  1
  Ru  Ru7  1  0.333333  0.666667  0.000000  1
  Rh  Rh8  1  0.666667  0.333333  0.000000  1
