# generated using pymatgen
data_Dy4ZrCo2
_symmetry_space_group_name_H-M   'P 1'
_cell_length_a   6.24253635
_cell_length_b   6.67193662
_cell_length_c   8.62235253
_cell_angle_alpha   95.75333085
_cell_angle_beta   111.22291939
_cell_angle_gamma   90.00000447
_symmetry_Int_Tables_number   1
_chemical_formula_structural   Dy4ZrCo2
_chemical_formula_sum   'Dy8 Zr2 Co4'
_cell_volume   332.82216018
_cell_formula_units_Z   2
loop_
 _symmetry_equiv_pos_site_id
 _symmetry_equiv_pos_as_xyz
  1  'x, y, z'
loop_
 _atom_site_type_symbol
 _atom_site_label
 _atom_site_symmetry_multiplicity
 _atom_site_fract_x
 _atom_site_fract_y
 _atom_site_fract_z
 _atom_site_occupancy
  Dy  Dy0  1  0.523401  0.079528  0.814629  1
  Dy  Dy1  1  0.476599  0.920472  0.185371  1
  Dy  Dy2  1  0.708773  0.420472  0.185371  1
  Dy  Dy3  1  0.291227  0.579528  0.814629  1
  Dy  Dy4  1  0.278769  0.311178  0.424568  1
  Dy  Dy5  1  0.721231  0.688822  0.575432  1
  Dy  Dy6  1  0.854201  0.188822  0.575432  1
  Dy  Dy7  1  0.145799  0.811178  0.424568  1
  Zr  Zr8  1  0.060382  0.250000  0.000000  1
  Zr  Zr9  1  0.939618  0.750000  0.000000  1
  Co  Co10  1  0.290694  0.560885  0.197072  1
  Co  Co11  1  0.709306  0.439115  0.802928  1
  Co  Co12  1  0.093623  0.939115  0.802928  1
  Co  Co13  1  0.906377  0.060885  0.197072  1
