# generated using pymatgen
data_Cs2EuP2O7
_symmetry_space_group_name_H-M   'P 1'
_cell_length_a   6.15703404
_cell_length_b   6.15703056
_cell_length_c   13.75046610
_cell_angle_alpha   76.30902563
_cell_angle_beta   76.30905210
_cell_angle_gamma   59.70830247
_symmetry_Int_Tables_number   1
_chemical_formula_structural   Cs2EuP2O7
_chemical_formula_sum   'Cs4 Eu2 P4 O14'
_cell_volume   433.01314248
_cell_formula_units_Z   2
loop_
 _symmetry_equiv_pos_site_id
 _symmetry_equiv_pos_as_xyz
  1  'x, y, z'
loop_
 _atom_site_type_symbol
 _atom_site_label
 _atom_site_symmetry_multiplicity
 _atom_site_fract_x
 _atom_site_fract_y
 _atom_site_fract_z
 _atom_site_occupancy
  Cs  Cs0  1  0.370505  0.912922  0.835774  1
  Cs  Cs1  1  0.087078  0.629495  0.664226  1
  Cs  Cs2  1  0.629495  0.087078  0.164226  1
  Cs  Cs3  1  0.912922  0.370505  0.335774  1
  Eu  Eu4  1  0.000000  0.500000  0.000000  1
  Eu  Eu5  1  0.500000  0.000000  0.500000  1
  P  P6  1  0.698017  0.230241  0.867183  1
  P  P7  1  0.769758  0.301984  0.632816  1
  P  P8  1  0.301983  0.769759  0.132817  1
  P  P9  1  0.230242  0.698016  0.367184  1
  O  O10  1  0.825719  0.174281  0.750000  1
  O  O11  1  0.174281  0.825719  0.250000  1
  O  O12  1  0.407709  0.377244  0.871070  1
  O  O13  1  0.622755  0.592292  0.628930  1
  O  O14  1  0.592291  0.622756  0.128930  1
  O  O15  1  0.377245  0.407708  0.371070  1
  O  O16  1  0.798220  0.960127  0.924889  1
  O  O17  1  0.039874  0.201780  0.575111  1
  O  O18  1  0.201780  0.039873  0.075111  1
  O  O19  1  0.960126  0.798220  0.424889  1
  O  O20  1  0.383755  0.808374  0.391122  1
  O  O21  1  0.191626  0.616246  0.108878  1
  O  O22  1  0.616245  0.191626  0.608878  1
  O  O23  1  0.808374  0.383754  0.891122  1
