# generated using pymatgen
data_Ho13Er7Ni3Bi8Ru
_symmetry_space_group_name_H-M   'P 1'
_cell_length_a   7.96832499
_cell_length_b   8.93796106
_cell_length_c   12.33056610
_cell_angle_alpha   89.98897763
_cell_angle_beta   90.24141354
_cell_angle_gamma   90.00678925
_symmetry_Int_Tables_number   1
_chemical_formula_structural   Ho13Er7Ni3Bi8Ru
_chemical_formula_sum   'Ho13 Er7 Ni3 Bi8 Ru1'
_cell_volume   878.18223224
_cell_formula_units_Z   1
loop_
 _symmetry_equiv_pos_site_id
 _symmetry_equiv_pos_as_xyz
  1  'x, y, z'
loop_
 _atom_site_type_symbol
 _atom_site_label
 _atom_site_symmetry_multiplicity
 _atom_site_fract_x
 _atom_site_fract_y
 _atom_site_fract_z
 _atom_site_occupancy
  Ho  Ho0  1  0.838974  0.750115  0.791200  1
  Ho  Ho1  1  0.157793  0.249998  0.205094  1
  Ho  Ho2  1  0.345709  0.250003  0.702426  1
  Ho  Ho3  1  0.654603  0.750012  0.296030  1
  Ho  Ho4  1  0.377966  0.749970  0.695410  1
  Ho  Ho5  1  0.619946  0.250015  0.306687  1
  Ho  Ho6  1  0.880033  0.249896  0.808843  1
  Ho  Ho7  1  0.119017  0.750189  0.189685  1
  Ho  Ho8  1  0.949912  0.750019  0.501926  1
  Ho  Ho9  1  0.051298  0.249999  0.497642  1
  Ho  Ho10  1  0.450739  0.249865  0.000128  1
  Ho  Ho11  1  0.550140  0.750120  0.000850  1
  Ho  Ho12  1  0.176457  0.541033  0.934969  1
  Er  Er13  1  0.676736  0.041527  0.564928  1
  Er  Er14  1  0.325090  0.956618  0.436869  1
  Er  Er15  1  0.175744  0.958733  0.935018  1
  Er  Er16  1  0.325082  0.543417  0.436892  1
  Er  Er17  1  0.823919  0.042385  0.064112  1
  Er  Er18  1  0.676753  0.458498  0.564916  1
  Er  Er19  1  0.823739  0.457684  0.064142  1
  Ni  Ni20  1  0.426854  0.249978  0.488596  1
  Ni  Ni21  1  0.070159  0.249668  0.991486  1
  Ni  Ni22  1  0.928194  0.750273  0.006638  1
  Bi  Bi23  1  0.571128  0.489115  0.828498  1
  Bi  Bi24  1  0.428242  0.509842  0.172775  1
  Bi  Bi25  1  0.070395  0.507560  0.673706  1
  Bi  Bi26  1  0.428334  0.990180  0.172802  1
  Bi  Bi27  1  0.930743  0.491343  0.326037  1
  Bi  Bi28  1  0.570713  0.010840  0.828559  1
  Bi  Bi29  1  0.930707  0.008699  0.326098  1
  Bi  Bi30  1  0.070497  0.992411  0.673834  1
  Ru  Ru31  1  0.574385  0.749997  0.513208  1
