# generated using pymatgen
data_Tb8Ho7Sc5Si15Tc
_symmetry_space_group_name_H-M   'P 1'
_cell_length_a   7.22343776
_cell_length_b   7.67419462
_cell_length_c   14.33654075
_cell_angle_alpha   90.09556213
_cell_angle_beta   90.05570278
_cell_angle_gamma   90.44182516
_symmetry_Int_Tables_number   1
_chemical_formula_structural   Tb8Ho7Sc5Si15Tc
_chemical_formula_sum   'Tb8 Ho7 Sc5 Si15 Tc1'
_cell_volume   794.70764370
_cell_formula_units_Z   1
loop_
 _symmetry_equiv_pos_site_id
 _symmetry_equiv_pos_as_xyz
  1  'x, y, z'
loop_
 _atom_site_type_symbol
 _atom_site_label
 _atom_site_symmetry_multiplicity
 _atom_site_fract_x
 _atom_site_fract_y
 _atom_site_fract_z
 _atom_site_occupancy
  Tb  Tb0  1  0.017640  0.181895  0.097325  1
  Tb  Tb1  1  0.986399  0.824013  0.906526  1
  Tb  Tb2  1  0.482007  0.682649  0.903671  1
  Tb  Tb3  1  0.984825  0.824650  0.595618  1
  Tb  Tb4  1  0.515763  0.319368  0.096065  1
  Tb  Tb5  1  0.018099  0.183352  0.400597  1
  Tb  Tb6  1  0.516796  0.319133  0.401467  1
  Tb  Tb7  1  0.483017  0.681828  0.596608  1
  Ho  Ho8  1  0.310365  0.173150  0.628996  1
  Ho  Ho9  1  0.678083  0.824626  0.372755  1
  Ho  Ho10  1  0.178038  0.678412  0.372054  1
  Ho  Ho11  1  0.676558  0.823881  0.125322  1
  Ho  Ho12  1  0.830493  0.318551  0.627784  1
  Ho  Ho13  1  0.309990  0.173474  0.872593  1
  Ho  Ho14  1  0.830731  0.321080  0.874667  1
  Sc  Sc15  1  0.153806  0.514604  0.750378  1
  Sc  Sc16  1  0.844513  0.486671  0.248062  1
  Sc  Sc17  1  0.342518  0.014897  0.247848  1
  Sc  Sc18  1  0.668382  0.987501  0.750882  1
  Sc  Sc19  1  0.178992  0.678008  0.128292  1
  Si  Si20  1  0.982369  0.897257  0.246873  1
  Si  Si21  1  0.478078  0.596026  0.247002  1
  Si  Si22  1  0.518954  0.404796  0.750926  1
  Si  Si23  1  0.278266  0.859597  0.750567  1
  Si  Si24  1  0.717102  0.135871  0.248675  1
  Si  Si25  1  0.219838  0.367558  0.247826  1
  Si  Si26  1  0.775389  0.632955  0.750676  1
  Si  Si27  1  0.156234  0.472262  0.537859  1
  Si  Si28  1  0.848020  0.530875  0.459785  1
  Si  Si29  1  0.346540  0.970653  0.459015  1
  Si  Si30  1  0.857270  0.532156  0.043476  1
  Si  Si31  1  0.648869  0.031021  0.538916  1
  Si  Si32  1  0.160529  0.474423  0.967144  1
  Si  Si33  1  0.648166  0.030253  0.960865  1
  Si  Si34  1  0.340806  0.963898  0.041675  1
  Tc  Tc35  1  0.016551  0.088656  0.751208  1
