# generated using pymatgen
data_Er5Mn2Ga2P10Ir17
_symmetry_space_group_name_H-M   'P 1'
_cell_length_a   12.69344172
_cell_length_b   12.72217022
_cell_length_c   3.94195100
_cell_angle_alpha   90.00000000
_cell_angle_beta   90.00000000
_cell_angle_gamma   120.07490511
_symmetry_Int_Tables_number   1
_chemical_formula_structural   Er5Mn2Ga2P10Ir17
_chemical_formula_sum   'Er5 Mn2 Ga2 P10 Ir17'
_cell_volume   550.87637905
_cell_formula_units_Z   1
loop_
 _symmetry_equiv_pos_site_id
 _symmetry_equiv_pos_as_xyz
  1  'x, y, z'
loop_
 _atom_site_type_symbol
 _atom_site_label
 _atom_site_symmetry_multiplicity
 _atom_site_fract_x
 _atom_site_fract_y
 _atom_site_fract_z
 _atom_site_occupancy
  Er  Er0  1  0.660234  0.327058  0.000000  1
  Er  Er1  1  0.339766  0.666825  0.000000  1
  Er  Er2  1  0.818888  0.821762  0.500000  1
  Er  Er3  1  0.181112  0.002874  0.500000  1
  Er  Er4  1  0.000000  0.182447  0.500000  1
  Mn  Mn5  1  0.283515  0.289302  0.500000  1
  Mn  Mn6  1  0.716485  0.005786  0.500000  1
  Ga  Ga7  1  0.641896  0.643204  0.000000  1
  Ga  Ga8  1  0.358104  0.001308  0.000000  1
  P  P9  1  0.684634  0.160853  0.500000  1
  P  P10  1  0.818497  0.509810  0.500000  1
  P  P11  1  0.470750  0.310755  0.500000  1
  P  P12  1  0.181503  0.691312  0.500000  1
  P  P13  1  0.529250  0.840005  0.500000  1
  P  P14  1  0.315366  0.476219  0.500000  1
  P  P15  1  0.000000  0.356896  0.000000  1
  P  P16  1  0.178987  0.182229  0.000000  1
  P  P17  1  0.821013  0.003240  0.000000  1
  P  P18  1  0.000000  0.815817  0.000000  1
  Ir  Ir19  1  0.811820  0.182065  0.000000  1
  Ir  Ir20  1  0.823858  0.613042  0.000000  1
  Ir  Ir21  1  0.373348  0.206088  0.000000  1
  Ir  Ir22  1  0.176142  0.789184  0.000000  1
  Ir  Ir23  1  0.626652  0.832739  0.000000  1
  Ir  Ir24  1  0.188180  0.370245  0.000000  1
  Ir  Ir25  1  0.437584  0.451910  0.000000  1
  Ir  Ir26  1  0.562416  0.014326  0.000000  1
  Ir  Ir27  1  0.000000  0.535596  0.000000  1
  Ir  Ir28  1  0.000000  0.713437  0.500000  1
  Ir  Ir29  1  0.863967  0.357734  0.500000  1
  Ir  Ir30  1  0.630878  0.503372  0.500000  1
  Ir  Ir31  1  0.492425  0.136836  0.500000  1
  Ir  Ir32  1  0.369122  0.872493  0.500000  1
  Ir  Ir33  1  0.507575  0.644409  0.500000  1
  Ir  Ir34  1  0.136033  0.493766  0.500000  1
  Ir  Ir35  1  0.000000  0.995060  0.000000  1
