# generated using pymatgen
data_Tb3Mg3Hg2Ru
_symmetry_space_group_name_H-M   'P 1'
_cell_length_a   7.95200100
_cell_length_b   7.95199949
_cell_length_c   3.89524700
_cell_angle_alpha   90.00000000
_cell_angle_beta   90.00000000
_cell_angle_gamma   119.99999380
_symmetry_Int_Tables_number   1
_chemical_formula_structural   Tb3Mg3Hg2Ru
_chemical_formula_sum   'Tb3 Mg3 Hg2 Ru1'
_cell_volume   213.31354351
_cell_formula_units_Z   1
loop_
 _symmetry_equiv_pos_site_id
 _symmetry_equiv_pos_as_xyz
  1  'x, y, z'
loop_
 _atom_site_type_symbol
 _atom_site_label
 _atom_site_symmetry_multiplicity
 _atom_site_fract_x
 _atom_site_fract_y
 _atom_site_fract_z
 _atom_site_occupancy
  Tb  Tb0  1  0.567525  0.961108  0.000000  1
  Tb  Tb1  1  0.038892  0.606418  0.000000  1
  Tb  Tb2  1  0.393582  0.432475  0.000000  1
  Mg  Mg3  1  0.263570  0.000947  0.500000  1
  Mg  Mg4  1  0.999053  0.262623  0.500000  1
  Mg  Mg5  1  0.737377  0.736430  0.500000  1
  Hg  Hg6  1  0.666667  0.333333  0.500000  1
  Hg  Hg7  1  0.000000  0.000000  0.000000  1
  Ru  Ru8  1  0.333333  0.666667  0.500000  1
