# generated using pymatgen
data_CaPr(BIr)4
_symmetry_space_group_name_H-M   'P 1'
_cell_length_a   7.14698768
_cell_length_b   6.16260083
_cell_length_c   5.57089085
_cell_angle_alpha   74.86008065
_cell_angle_beta   56.33954782
_cell_angle_gamma   48.80035747
_symmetry_Int_Tables_number   1
_chemical_formula_structural   CaPr(BIr)4
_chemical_formula_sum   'Ca1 Pr1 B4 Ir4'
_cell_volume   151.53348826
_cell_formula_units_Z   1
loop_
 _symmetry_equiv_pos_site_id
 _symmetry_equiv_pos_as_xyz
  1  'x, y, z'
loop_
 _atom_site_type_symbol
 _atom_site_label
 _atom_site_symmetry_multiplicity
 _atom_site_fract_x
 _atom_site_fract_y
 _atom_site_fract_z
 _atom_site_occupancy
  Ca  Ca0  1  0.250000  0.250000  0.250000  1
  Pr  Pr1  1  0.000000  0.000000  0.000000  1
  B  B2  1  0.323912  0.676088  0.323912  1
  B  B3  1  0.570646  0.929354  0.570646  1
  B  B4  1  0.676088  0.323912  0.676088  1
  B  B5  1  0.929354  0.570646  0.929354  1
  Ir  Ir6  1  0.630976  0.630976  0.369024  1
  Ir  Ir7  1  0.878730  0.878730  0.621270  1
  Ir  Ir8  1  0.621270  0.621270  0.878730  1
  Ir  Ir9  1  0.369024  0.369024  0.630976  1
