# generated using pymatgen
data_K3LuB24
_symmetry_space_group_name_H-M   'P 1'
_cell_length_a   4.19366200
_cell_length_b   5.94391300
_cell_length_c   11.77975600
_cell_angle_alpha   90.00000000
_cell_angle_beta   90.00000000
_cell_angle_gamma   90.00000000
_symmetry_Int_Tables_number   1
_chemical_formula_structural   K3LuB24
_chemical_formula_sum   'K3 Lu1 B24'
_cell_volume   293.63117517
_cell_formula_units_Z   1
loop_
 _symmetry_equiv_pos_site_id
 _symmetry_equiv_pos_as_xyz
  1  'x, y, z'
loop_
 _atom_site_type_symbol
 _atom_site_label
 _atom_site_symmetry_multiplicity
 _atom_site_fract_x
 _atom_site_fract_y
 _atom_site_fract_z
 _atom_site_occupancy
  K  K0  1  0.000000  0.500000  0.252363  1
  K  K1  1  0.000000  0.000000  0.500000  1
  K  K2  1  0.000000  0.500000  0.747637  1
  Lu  Lu3  1  0.000000  0.000000  0.000000  1
  B  B4  1  0.199137  0.500000  0.500000  1
  B  B5  1  0.200711  0.000000  0.756299  1
  B  B6  1  0.201110  0.500000  0.000000  1
  B  B7  1  0.200711  0.000000  0.243701  1
  B  B8  1  0.500000  0.650049  0.576464  1
  B  B9  1  0.500000  0.148483  0.829482  1
  B  B10  1  0.500000  0.647863  0.074656  1
  B  B11  1  0.500000  0.150554  0.321081  1
  B  B12  1  0.500000  0.349951  0.576464  1
  B  B13  1  0.500000  0.851517  0.829482  1
  B  B14  1  0.500000  0.352137  0.074656  1
  B  B15  1  0.500000  0.849446  0.321081  1
  B  B16  1  0.500000  0.349951  0.423536  1
  B  B17  1  0.500000  0.849446  0.678919  1
  B  B18  1  0.500000  0.352137  0.925344  1
  B  B19  1  0.500000  0.851517  0.170518  1
  B  B20  1  0.500000  0.650049  0.423536  1
  B  B21  1  0.500000  0.150554  0.678919  1
  B  B22  1  0.500000  0.647863  0.925344  1
  B  B23  1  0.500000  0.148483  0.170518  1
  B  B24  1  0.800863  0.500000  0.500000  1
  B  B25  1  0.799289  0.000000  0.756299  1
  B  B26  1  0.798890  0.500000  0.000000  1
  B  B27  1  0.799289  0.000000  0.243701  1
