# generated using pymatgen
data_HfZr9Ga2(BiPb2)2
_symmetry_space_group_name_H-M   'P 1'
_cell_length_a   8.86824972
_cell_length_b   8.85160459
_cell_length_c   5.95215706
_cell_angle_alpha   90.00311056
_cell_angle_beta   89.98429439
_cell_angle_gamma   119.94941570
_symmetry_Int_Tables_number   1
_chemical_formula_structural   HfZr9Ga2(BiPb2)2
_chemical_formula_sum   'Hf1 Zr9 Ga2 Bi2 Pb4'
_cell_volume   404.84246346
_cell_formula_units_Z   1
loop_
 _symmetry_equiv_pos_site_id
 _symmetry_equiv_pos_as_xyz
  1  'x, y, z'
loop_
 _atom_site_type_symbol
 _atom_site_label
 _atom_site_symmetry_multiplicity
 _atom_site_fract_x
 _atom_site_fract_y
 _atom_site_fract_z
 _atom_site_occupancy
  Hf  Hf0  1  0.666940  0.333651  0.000998  1
  Zr  Zr1  1  0.333293  0.666727  0.000714  1
  Zr  Zr2  1  0.333286  0.666682  0.499223  1
  Zr  Zr3  1  0.666560  0.333311  0.499525  1
  Zr  Zr4  1  0.736862  0.736115  0.750070  1
  Zr  Zr5  1  0.263376  0.999860  0.750106  1
  Zr  Zr6  1  0.999666  0.263386  0.750083  1
  Zr  Zr7  1  0.264490  0.263639  0.249781  1
  Zr  Zr8  1  0.735839  0.999795  0.249831  1
  Zr  Zr9  1  0.999707  0.735853  0.249841  1
  Ga  Ga10  1  0.000006  0.999658  0.000720  1
  Ga  Ga11  1  0.000020  0.999660  0.499277  1
  Bi  Bi12  1  0.390381  0.389978  0.750273  1
  Bi  Bi13  1  0.609908  0.000213  0.750270  1
  Pb  Pb14  1  0.999638  0.610953  0.750314  1
  Pb  Pb15  1  0.612231  0.611621  0.249677  1
  Pb  Pb16  1  0.388097  0.000033  0.249627  1
  Pb  Pb17  1  0.999699  0.388865  0.249670  1
