# generated using pymatgen
data_Sc2Pa2Nb2Zn7
_symmetry_space_group_name_H-M   'P 1'
_cell_length_a   5.18200495
_cell_length_b   5.18200623
_cell_length_c   10.35485800
_cell_angle_alpha   75.50941871
_cell_angle_beta   75.50941505
_cell_angle_gamma   60.00000111
_symmetry_Int_Tables_number   1
_chemical_formula_structural   Sc2Pa2Nb2Zn7
_chemical_formula_sum   'Sc2 Pa2 Nb2 Zn7'
_cell_volume   230.53738199
_cell_formula_units_Z   1
loop_
 _symmetry_equiv_pos_site_id
 _symmetry_equiv_pos_as_xyz
  1  'x, y, z'
loop_
 _atom_site_type_symbol
 _atom_site_label
 _atom_site_symmetry_multiplicity
 _atom_site_fract_x
 _atom_site_fract_y
 _atom_site_fract_z
 _atom_site_occupancy
  Sc  Sc0  1  0.645488  0.645488  0.063536  1
  Sc  Sc1  1  0.354512  0.354512  0.936464  1
  Pa  Pa2  1  0.833221  0.833221  0.500337  1
  Pa  Pa3  1  0.166779  0.166779  0.499663  1
  Nb  Nb4  1  0.543719  0.543719  0.368840  1
  Nb  Nb5  1  0.456281  0.456281  0.631160  1
  Zn  Zn6  1  0.000000  0.000000  0.000000  1
  Zn  Zn7  1  0.904204  0.904204  0.781712  1
  Zn  Zn8  1  0.409878  0.904204  0.781712  1
  Zn  Zn9  1  0.904204  0.409878  0.781712  1
  Zn  Zn10  1  0.095796  0.095796  0.218288  1
  Zn  Zn11  1  0.590122  0.095796  0.218288  1
  Zn  Zn12  1  0.095796  0.590122  0.218288  1
