# generated using pymatgen
data_Tm4Lu(GeB4)2
_symmetry_space_group_name_H-M   'P 1'
_cell_length_a   7.16800100
_cell_length_b   7.16800100
_cell_length_c   7.96933600
_cell_angle_alpha   90.00000000
_cell_angle_beta   90.00000000
_cell_angle_gamma   90.00000000
_symmetry_Int_Tables_number   1
_chemical_formula_structural   Tm4Lu(GeB4)2
_chemical_formula_sum   'Tm8 Lu2 Ge4 B16'
_cell_volume   409.46638306
_cell_formula_units_Z   2
loop_
 _symmetry_equiv_pos_site_id
 _symmetry_equiv_pos_as_xyz
  1  'x, y, z'
loop_
 _atom_site_type_symbol
 _atom_site_label
 _atom_site_symmetry_multiplicity
 _atom_site_fract_x
 _atom_site_fract_y
 _atom_site_fract_z
 _atom_site_occupancy
  Tm  Tm0  1  0.680179  0.180179  0.221484  1
  Tm  Tm1  1  0.319821  0.819821  0.778516  1
  Tm  Tm2  1  0.319821  0.819821  0.221484  1
  Tm  Tm3  1  0.819821  0.680179  0.221484  1
  Tm  Tm4  1  0.819821  0.680179  0.778516  1
  Tm  Tm5  1  0.680179  0.180179  0.778516  1
  Tm  Tm6  1  0.180179  0.319821  0.778516  1
  Tm  Tm7  1  0.180179  0.319821  0.221484  1
  Lu  Lu8  1  0.000000  0.000000  0.500000  1
  Lu  Lu9  1  0.500000  0.500000  0.500000  1
  Ge  Ge10  1  0.121590  0.621590  0.500000  1
  Ge  Ge11  1  0.878410  0.378410  0.500000  1
  Ge  Ge12  1  0.378410  0.121590  0.500000  1
  Ge  Ge13  1  0.621590  0.878410  0.500000  1
  B  B14  1  0.172701  0.039330  0.000000  1
  B  B15  1  0.827299  0.960670  0.000000  1
  B  B16  1  0.960670  0.172701  0.000000  1
  B  B17  1  0.327299  0.539330  0.000000  1
  B  B18  1  0.039330  0.827299  0.000000  1
  B  B19  1  0.672701  0.460670  0.000000  1
  B  B20  1  0.539330  0.672701  0.000000  1
  B  B21  1  0.460670  0.327299  0.000000  1
  B  B22  1  0.089531  0.589531  0.000000  1
  B  B23  1  0.910469  0.410469  0.000000  1
  B  B24  1  0.410469  0.089531  0.000000  1
  B  B25  1  0.589531  0.910469  0.000000  1
  B  B26  1  0.000000  0.000000  0.166249  1
  B  B27  1  0.000000  0.000000  0.833751  1
  B  B28  1  0.500000  0.500000  0.833751  1
  B  B29  1  0.500000  0.500000  0.166249  1
