# generated using pymatgen
data_La4Y16Si15Sb
_symmetry_space_group_name_H-M   'P 1'
_cell_length_a   7.53810594
_cell_length_b   7.78631652
_cell_length_c   14.83760600
_cell_angle_alpha   90.11307112
_cell_angle_beta   89.31042184
_cell_angle_gamma   89.85805649
_symmetry_Int_Tables_number   1
_chemical_formula_structural   La4Y16Si15Sb
_chemical_formula_sum   'La4 Y16 Si15 Sb1'
_cell_volume   870.81212342
_cell_formula_units_Z   1
loop_
 _symmetry_equiv_pos_site_id
 _symmetry_equiv_pos_as_xyz
  1  'x, y, z'
loop_
 _atom_site_type_symbol
 _atom_site_label
 _atom_site_symmetry_multiplicity
 _atom_site_fract_x
 _atom_site_fract_y
 _atom_site_fract_z
 _atom_site_occupancy
  La  La0  1  0.228243  0.680003  0.154615  1
  La  La1  1  0.732032  0.818665  0.848774  1
  La  La2  1  0.269907  0.324980  0.654372  1
  La  La3  1  0.771113  0.179131  0.344579  1
  Y  Y4  1  0.917227  0.664341  0.620173  1
  Y  Y5  1  0.429023  0.821989  0.373067  1
  Y  Y6  1  0.570112  0.322505  0.126561  1
  Y  Y7  1  0.080493  0.182376  0.877849  1
  Y  Y8  1  0.577948  0.321306  0.873615  1
  Y  Y9  1  0.072714  0.180286  0.129104  1
  Y  Y10  1  0.927842  0.680467  0.370758  1
  Y  Y11  1  0.429896  0.821867  0.628606  1
  Y  Y12  1  0.094633  0.009999  0.497713  1
  Y  Y13  1  0.592879  0.488776  0.497685  1
  Y  Y14  1  0.406836  0.988816  0.999200  1
  Y  Y15  1  0.903973  0.509648  0.999418  1
  Y  Y16  1  0.277169  0.316553  0.351730  1
  Y  Y17  1  0.759170  0.185751  0.645580  1
  Y  Y18  1  0.231464  0.678213  0.853886  1
  Y  Y19  1  0.722571  0.817118  0.147132  1
  Si  Si20  1  0.600084  0.534662  0.287649  1
  Si  Si21  1  0.401192  0.034952  0.212030  1
  Si  Si22  1  0.905862  0.464073  0.787389  1
  Si  Si23  1  0.418598  0.029447  0.795835  1
  Si  Si24  1  0.886950  0.478220  0.206888  1
  Si  Si25  1  0.113283  0.978245  0.292582  1
  Si  Si26  1  0.605373  0.525148  0.709313  1
  Si  Si27  1  0.977789  0.373519  0.496218  1
  Si  Si28  1  0.476016  0.122996  0.501029  1
  Si  Si29  1  0.522027  0.623477  0.000591  1
  Si  Si30  1  0.023731  0.877267  0.002536  1
  Si  Si31  1  0.221724  0.610564  0.498489  1
  Si  Si32  1  0.719727  0.890730  0.498137  1
  Si  Si33  1  0.278702  0.392407  0.001823  1
  Si  Si34  1  0.781996  0.109487  0.003639  1
  Sb  Sb35  1  0.071706  0.962012  0.711436  1
