# generated using pymatgen
data_Hf8Be8InHg3
_symmetry_space_group_name_H-M   'P 1'
_cell_length_a   6.36642200
_cell_length_b   6.36641800
_cell_length_c   7.89212100
_cell_angle_alpha   90.00000000
_cell_angle_beta   90.00000000
_cell_angle_gamma   90.00007200
_symmetry_Int_Tables_number   1
_chemical_formula_structural   Hf8Be8InHg3
_chemical_formula_sum   'Hf8 Be8 In1 Hg3'
_cell_volume   319.87795243
_cell_formula_units_Z   1
loop_
 _symmetry_equiv_pos_site_id
 _symmetry_equiv_pos_as_xyz
  1  'x, y, z'
loop_
 _atom_site_type_symbol
 _atom_site_label
 _atom_site_symmetry_multiplicity
 _atom_site_fract_x
 _atom_site_fract_y
 _atom_site_fract_z
 _atom_site_occupancy
  Hf  Hf0  1  0.168273  0.831204  0.500738  1
  Hf  Hf1  1  0.331205  0.331727  0.999262  1
  Hf  Hf2  1  0.668110  0.667548  0.500731  1
  Hf  Hf3  1  0.831727  0.168796  0.500738  1
  Hf  Hf4  1  0.167548  0.831890  0.999268  1
  Hf  Hf5  1  0.331890  0.332452  0.500731  1
  Hf  Hf6  1  0.668795  0.668273  0.999262  1
  Hf  Hf7  1  0.832452  0.168110  0.999268  1
  Be  Be8  1  0.117129  0.124141  0.250492  1
  Be  Be9  1  0.878274  0.878196  0.749690  1
  Be  Be10  1  0.882871  0.875859  0.250492  1
  Be  Be11  1  0.121726  0.121804  0.749690  1
  Be  Be12  1  0.375858  0.617129  0.249506  1
  Be  Be13  1  0.621804  0.378274  0.750312  1
  Be  Be14  1  0.378196  0.621726  0.750312  1
  Be  Be15  1  0.624142  0.382871  0.249506  1
  In  In16  1  0.500000  0.000000  0.250000  1
  Hg  Hg17  1  0.500000  0.000000  0.750000  1
  Hg  Hg18  1  0.000000  0.500000  0.250000  1
  Hg  Hg19  1  0.000000  0.500000  0.750000  1
