# generated using pymatgen
data_Nd2CdCu10Au
_symmetry_space_group_name_H-M   'P 1'
_cell_length_a   5.12499000
_cell_length_b   8.32942900
_cell_length_c   10.42356600
_cell_angle_alpha   90.00000000
_cell_angle_beta   90.00000000
_cell_angle_gamma   90.00000000
_symmetry_Int_Tables_number   1
_chemical_formula_structural   Nd2CdCu10Au
_chemical_formula_sum   'Nd4 Cd2 Cu20 Au2'
_cell_volume   444.96369051
_cell_formula_units_Z   2
loop_
 _symmetry_equiv_pos_site_id
 _symmetry_equiv_pos_as_xyz
  1  'x, y, z'
loop_
 _atom_site_type_symbol
 _atom_site_label
 _atom_site_symmetry_multiplicity
 _atom_site_fract_x
 _atom_site_fract_y
 _atom_site_fract_z
 _atom_site_occupancy
  Nd  Nd0  1  0.250000  0.258430  0.572867  1
  Nd  Nd1  1  0.250000  0.758430  0.927133  1
  Nd  Nd2  1  0.750000  0.742463  0.445120  1
  Nd  Nd3  1  0.750000  0.242463  0.054880  1
  Cd  Cd4  1  0.750000  0.860160  0.137683  1
  Cd  Cd5  1  0.750000  0.360160  0.362317  1
  Cu  Cu6  1  0.250000  0.815561  0.255307  1
  Cu  Cu7  1  0.250000  0.315561  0.244693  1
  Cu  Cu8  1  0.750000  0.184411  0.746863  1
  Cu  Cu9  1  0.750000  0.684411  0.753137  1
  Cu  Cu10  1  0.250000  0.555855  0.391987  1
  Cu  Cu11  1  0.250000  0.055855  0.108013  1
  Cu  Cu12  1  0.750000  0.443644  0.609105  1
  Cu  Cu13  1  0.750000  0.943644  0.890895  1
  Cu  Cu14  1  0.250000  0.913879  0.483851  1
  Cu  Cu15  1  0.250000  0.413879  0.016149  1
  Cu  Cu16  1  0.750000  0.086523  0.517135  1
  Cu  Cu17  1  0.750000  0.586523  0.982865  1
  Cu  Cu18  1  0.001263  0.432969  0.813568  1
  Cu  Cu19  1  0.498737  0.932969  0.686432  1
  Cu  Cu20  1  0.500164  0.567097  0.186264  1
  Cu  Cu21  1  0.999836  0.067097  0.313736  1
  Cu  Cu22  1  0.999836  0.567097  0.186264  1
  Cu  Cu23  1  0.500164  0.067097  0.313736  1
  Cu  Cu24  1  0.498737  0.432969  0.813568  1
  Cu  Cu25  1  0.001263  0.932969  0.686432  1
  Au  Au26  1  0.250000  0.138942  0.862941  1
  Au  Au27  1  0.250000  0.638942  0.637059  1
