# generated using pymatgen
data_CeDy6Er(Si3Rh)4
_symmetry_space_group_name_H-M   'P 1'
_cell_length_a   8.17215700
_cell_length_b   8.17040312
_cell_length_c   7.93720900
_cell_angle_alpha   90.00000000
_cell_angle_beta   90.00000000
_cell_angle_gamma   120.00710528
_symmetry_Int_Tables_number   1
_chemical_formula_structural   CeDy6Er(Si3Rh)4
_chemical_formula_sum   'Ce1 Dy6 Er1 Si12 Rh4'
_cell_volume   458.93114880
_cell_formula_units_Z   1
loop_
 _symmetry_equiv_pos_site_id
 _symmetry_equiv_pos_as_xyz
  1  'x, y, z'
loop_
 _atom_site_type_symbol
 _atom_site_label
 _atom_site_symmetry_multiplicity
 _atom_site_fract_x
 _atom_site_fract_y
 _atom_site_fract_z
 _atom_site_occupancy
  Ce  Ce0  1  0.000061  0.000122  0.250000  1
  Dy  Dy1  1  0.000000  0.000000  0.750000  1
  Dy  Dy2  1  0.492706  0.507307  0.250000  1
  Dy  Dy3  1  0.492728  0.985457  0.250000  1
  Dy  Dy4  1  0.014600  0.507307  0.250000  1
  Dy  Dy5  1  0.508394  0.491484  0.750000  1
  Dy  Dy6  1  0.983090  0.491484  0.750000  1
  Er  Er7  1  0.508107  0.016214  0.750000  1
  Si  Si8  1  0.833214  0.166430  0.501851  1
  Si  Si9  1  0.833363  0.666726  0.500947  1
  Si  Si10  1  0.333217  0.166430  0.501851  1
  Si  Si11  1  0.833214  0.166430  0.998149  1
  Si  Si12  1  0.833363  0.666726  0.999053  1
  Si  Si13  1  0.333217  0.166430  0.998149  1
  Si  Si14  1  0.167516  0.832697  0.000415  1
  Si  Si15  1  0.665182  0.832697  0.000415  1
  Si  Si16  1  0.167536  0.335070  0.000479  1
  Si  Si17  1  0.167516  0.832697  0.499585  1
  Si  Si18  1  0.665182  0.832697  0.499585  1
  Si  Si19  1  0.167536  0.335070  0.499521  1
  Rh  Rh20  1  0.666425  0.332850  0.473675  1
  Rh  Rh21  1  0.666425  0.332850  0.026325  1
  Rh  Rh22  1  0.333705  0.667411  0.964543  1
  Rh  Rh23  1  0.333705  0.667411  0.535457  1
