# generated using pymatgen
data_Eu5PtRh2
_symmetry_space_group_name_H-M   'P 1'
_cell_length_a   8.89036954
_cell_length_b   8.89036887
_cell_length_c   8.89036877
_cell_angle_alpha   128.55175622
_cell_angle_beta   128.55176062
_cell_angle_gamma   75.73288965
_symmetry_Int_Tables_number   1
_chemical_formula_structural   Eu5PtRh2
_chemical_formula_sum   'Eu10 Pt2 Rh4'
_cell_volume   418.01975941
_cell_formula_units_Z   2
loop_
 _symmetry_equiv_pos_site_id
 _symmetry_equiv_pos_as_xyz
  1  'x, y, z'
loop_
 _atom_site_type_symbol
 _atom_site_label
 _atom_site_symmetry_multiplicity
 _atom_site_fract_x
 _atom_site_fract_y
 _atom_site_fract_z
 _atom_site_occupancy
  Eu  Eu0  1  0.527900  0.027900  0.841055  1
  Eu  Eu1  1  0.186845  0.686845  0.158945  1
  Eu  Eu2  1  0.027900  0.186845  0.500000  1
  Eu  Eu3  1  0.686845  0.527900  0.500000  1
  Eu  Eu4  1  0.472100  0.972100  0.158945  1
  Eu  Eu5  1  0.813155  0.313155  0.841055  1
  Eu  Eu6  1  0.972100  0.813155  0.500000  1
  Eu  Eu7  1  0.313155  0.472100  0.500000  1
  Eu  Eu8  1  0.500000  0.500000  0.000000  1
  Eu  Eu9  1  0.000000  0.000000  0.000000  1
  Pt  Pt10  1  0.250000  0.250000  0.000000  1
  Pt  Pt11  1  0.750000  0.750000  0.000000  1
  Rh  Rh12  1  0.873072  0.373072  0.246144  1
  Rh  Rh13  1  0.126928  0.626928  0.753856  1
  Rh  Rh14  1  0.373072  0.126928  0.500000  1
  Rh  Rh15  1  0.626928  0.873072  0.500000  1
