# generated using pymatgen
data_PaSe6BrF6
_symmetry_space_group_name_H-M   'P 1'
_cell_length_a   7.45380500
_cell_length_b   9.53112396
_cell_length_c   11.84063000
_cell_angle_alpha   61.88237316
_cell_angle_beta   90.00000000
_cell_angle_gamma   90.00000000
_symmetry_Int_Tables_number   1
_chemical_formula_structural   PaSe6BrF6
_chemical_formula_sum   'Pa2 Se12 Br2 F12'
_cell_volume   741.91924601
_cell_formula_units_Z   2
loop_
 _symmetry_equiv_pos_site_id
 _symmetry_equiv_pos_as_xyz
  1  'x, y, z'
loop_
 _atom_site_type_symbol
 _atom_site_label
 _atom_site_symmetry_multiplicity
 _atom_site_fract_x
 _atom_site_fract_y
 _atom_site_fract_z
 _atom_site_occupancy
  Pa  Pa0  1  0.000000  0.000000  0.000000  1
  Pa  Pa1  1  0.000000  0.000000  0.500000  1
  Se  Se2  1  0.732805  0.346694  0.616495  1
  Se  Se3  1  0.267195  0.653306  0.383505  1
  Se  Se4  1  0.247234  0.551260  0.896307  1
  Se  Se5  1  0.752766  0.448740  0.103693  1
  Se  Se6  1  0.434850  0.246931  0.618026  1
  Se  Se7  1  0.732805  0.653306  0.883505  1
  Se  Se8  1  0.565150  0.753069  0.381974  1
  Se  Se9  1  0.752766  0.551260  0.396307  1
  Se  Se10  1  0.247234  0.448740  0.603693  1
  Se  Se11  1  0.267195  0.346694  0.116495  1
  Se  Se12  1  0.565150  0.246931  0.118026  1
  Se  Se13  1  0.434850  0.753069  0.881974  1
  Br  Br14  1  0.715705  0.500000  0.750000  1
  Br  Br15  1  0.284295  0.500000  0.250000  1
  F  F16  1  0.113621  0.225546  0.877617  1
  F  F17  1  0.768374  0.940520  0.616529  1
  F  F18  1  0.231626  0.940520  0.116529  1
  F  F19  1  0.878977  0.098666  0.108011  1
  F  F20  1  0.886379  0.774454  0.122383  1
  F  F21  1  0.231626  0.059480  0.383471  1
  F  F22  1  0.886379  0.225546  0.377617  1
  F  F23  1  0.121023  0.901334  0.891989  1
  F  F24  1  0.121023  0.098666  0.608011  1
  F  F25  1  0.113621  0.774454  0.622383  1
  F  F26  1  0.878977  0.901334  0.391989  1
  F  F27  1  0.768374  0.059480  0.883471  1
