# generated using pymatgen
data_NdEu3Ta4O16
_symmetry_space_group_name_H-M   'P 1'
_cell_length_a   5.45355373
_cell_length_b   7.69735295
_cell_length_c   7.71906914
_cell_angle_alpha   80.38712657
_cell_angle_beta   89.86343006
_cell_angle_gamma   89.56936212
_symmetry_Int_Tables_number   1
_chemical_formula_structural   NdEu3Ta4O16
_chemical_formula_sum   'Nd1 Eu3 Ta4 O16'
_cell_volume   319.47143359
_cell_formula_units_Z   1
loop_
 _symmetry_equiv_pos_site_id
 _symmetry_equiv_pos_as_xyz
  1  'x, y, z'
loop_
 _atom_site_type_symbol
 _atom_site_label
 _atom_site_symmetry_multiplicity
 _atom_site_fract_x
 _atom_site_fract_y
 _atom_site_fract_z
 _atom_site_occupancy
  Nd  Nd0  1  0.275528  0.354638  0.395817  1
  Eu  Eu1  1  0.221703  0.353693  0.896033  1
  Eu  Eu2  1  0.725148  0.642670  0.605513  1
  Eu  Eu3  1  0.777291  0.647598  0.103299  1
  Ta  Ta4  1  0.730697  0.163485  0.693177  1
  Ta  Ta5  1  0.232575  0.836649  0.808441  1
  Ta  Ta6  1  0.269329  0.836185  0.308569  1
  Ta  Ta7  1  0.767273  0.163927  0.190225  1
  O  O8  1  0.502117  0.330279  0.126863  1
  O  O9  1  0.012006  0.664456  0.371288  1
  O  O10  1  0.494722  0.667763  0.871765  1
  O  O11  1  0.988527  0.334868  0.630954  1
  O  O12  1  0.984273  0.382947  0.164635  1
  O  O13  1  0.495663  0.617502  0.332400  1
  O  O14  1  0.010881  0.618988  0.832656  1
  O  O15  1  0.507500  0.382905  0.669863  1
  O  O16  1  0.855294  0.164204  0.941898  1
  O  O17  1  0.354685  0.832327  0.558082  1
  O  O18  1  0.146827  0.833111  0.058394  1
  O  O19  1  0.647528  0.169693  0.441826  1
  O  O20  1  0.409664  0.059272  0.801143  1
  O  O21  1  0.911568  0.941526  0.696637  1
  O  O22  1  0.588846  0.941874  0.198159  1
  O  O23  1  0.090355  0.059442  0.302365  1
