# generated using pymatgen
data_Yb3Al12Os3Pt
_symmetry_space_group_name_H-M   'P 1'
_cell_length_a   8.85578200
_cell_length_b   8.86068062
_cell_length_c   9.60493304
_cell_angle_alpha   89.57420672
_cell_angle_beta   90.00000000
_cell_angle_gamma   119.98171359
_symmetry_Int_Tables_number   1
_chemical_formula_structural   Yb3Al12Os3Pt
_chemical_formula_sum   'Yb6 Al24 Os6 Pt2'
_cell_volume   652.80426801
_cell_formula_units_Z   2
loop_
 _symmetry_equiv_pos_site_id
 _symmetry_equiv_pos_as_xyz
  1  'x, y, z'
loop_
 _atom_site_type_symbol
 _atom_site_label
 _atom_site_symmetry_multiplicity
 _atom_site_fract_x
 _atom_site_fract_y
 _atom_site_fract_z
 _atom_site_occupancy
  Yb  Yb0  1  0.193151  0.386303  0.253441  1
  Yb  Yb1  1  0.806849  0.613697  0.746559  1
  Yb  Yb2  1  0.610592  0.807118  0.252720  1
  Yb  Yb3  1  0.389408  0.192882  0.747280  1
  Yb  Yb4  1  0.196525  0.807118  0.252720  1
  Yb  Yb5  1  0.803475  0.192882  0.747280  1
  Al  Al6  1  0.335024  0.670049  0.001898  1
  Al  Al7  1  0.664976  0.329951  0.998102  1
  Al  Al8  1  0.667055  0.334109  0.504310  1
  Al  Al9  1  0.332945  0.665891  0.495690  1
  Al  Al10  1  0.161907  0.323813  0.575496  1
  Al  Al11  1  0.838093  0.676187  0.424504  1
  Al  Al12  1  0.674776  0.837079  0.573938  1
  Al  Al13  1  0.839102  0.678203  0.079057  1
  Al  Al14  1  0.325224  0.162921  0.426062  1
  Al  Al15  1  0.160898  0.321797  0.920943  1
  Al  Al16  1  0.162303  0.837079  0.573938  1
  Al  Al17  1  0.322061  0.155728  0.076051  1
  Al  Al18  1  0.837697  0.162921  0.426062  1
  Al  Al19  1  0.677939  0.844272  0.923949  1
  Al  Al20  1  0.833667  0.155728  0.076051  1
  Al  Al21  1  0.166333  0.844272  0.923949  1
  Al  Al22  1  0.561726  0.123451  0.248799  1
  Al  Al23  1  0.438274  0.876549  0.751201  1
  Al  Al24  1  0.875860  0.438661  0.251839  1
  Al  Al25  1  0.124140  0.561339  0.748161  1
  Al  Al26  1  0.562801  0.438661  0.251839  1
  Al  Al27  1  0.437199  0.561339  0.748161  1
  Al  Al28  1  0.999864  0.999728  0.250148  1
  Al  Al29  1  0.000136  0.000272  0.749852  1
  Os  Os30  1  0.500000  0.000000  0.000000  1
  Os  Os31  1  0.500000  0.000000  0.500000  1
  Os  Os32  1  0.000000  0.500000  0.500000  1
  Os  Os33  1  0.500000  0.500000  0.500000  1
  Os  Os34  1  0.000000  0.000000  0.000000  1
  Os  Os35  1  0.000000  0.000000  0.500000  1
  Pt  Pt36  1  0.000000  0.500000  0.000000  1
  Pt  Pt37  1  0.500000  0.500000  0.000000  1
