# generated using pymatgen
data_Sc2V12P7
_symmetry_space_group_name_H-M   'P 1'
_cell_length_a   9.99715800
_cell_length_b   9.99715818
_cell_length_c   3.28246400
_cell_angle_alpha   90.00000000
_cell_angle_beta   90.00000000
_cell_angle_gamma   119.99999941
_symmetry_Int_Tables_number   1
_chemical_formula_structural   Sc2V12P7
_chemical_formula_sum   'Sc2 V12 P7'
_cell_volume   284.10817192
_cell_formula_units_Z   1
loop_
 _symmetry_equiv_pos_site_id
 _symmetry_equiv_pos_as_xyz
  1  'x, y, z'
loop_
 _atom_site_type_symbol
 _atom_site_label
 _atom_site_symmetry_multiplicity
 _atom_site_fract_x
 _atom_site_fract_y
 _atom_site_fract_z
 _atom_site_occupancy
  Sc  Sc0  1  0.000000  0.000000  0.000000  1
  Sc  Sc1  1  0.666667  0.333333  0.500000  1
  V  V2  1  0.380795  0.281704  0.000000  1
  V  V3  1  0.900909  0.619205  0.000000  1
  V  V4  1  0.718296  0.099091  0.000000  1
  V  V5  1  0.610694  0.778511  0.000000  1
  V  V6  1  0.167819  0.389306  0.000000  1
  V  V7  1  0.221489  0.832181  0.000000  1
  V  V8  1  0.766358  0.711877  0.500000  1
  V  V9  1  0.945519  0.233642  0.500000  1
  V  V10  1  0.288123  0.054481  0.500000  1
  V  V11  1  0.417735  0.537881  0.500000  1
  V  V12  1  0.120146  0.582265  0.500000  1
  V  V13  1  0.462119  0.879854  0.500000  1
  P  P14  1  0.612398  0.525931  0.000000  1
  P  P15  1  0.913532  0.387602  0.000000  1
  P  P16  1  0.474069  0.086468  0.000000  1
  P  P17  1  0.765668  0.959091  0.500000  1
  P  P18  1  0.193423  0.234332  0.500000  1
  P  P19  1  0.040909  0.806577  0.500000  1
  P  P20  1  0.333333  0.666667  0.000000  1
