# generated using pymatgen
data_TiRe2O9
_symmetry_space_group_name_H-M   'P 1'
_cell_length_a   8.25827109
_cell_length_b   8.25826190
_cell_length_c   9.26427400
_cell_angle_alpha   90.00000000
_cell_angle_beta   90.00000000
_cell_angle_gamma   138.80108782
_symmetry_Int_Tables_number   1
_chemical_formula_structural   TiRe2O9
_chemical_formula_sum   'Ti2 Re4 O18'
_cell_volume   416.16013284
_cell_formula_units_Z   2
loop_
 _symmetry_equiv_pos_site_id
 _symmetry_equiv_pos_as_xyz
  1  'x, y, z'
loop_
 _atom_site_type_symbol
 _atom_site_label
 _atom_site_symmetry_multiplicity
 _atom_site_fract_x
 _atom_site_fract_y
 _atom_site_fract_z
 _atom_site_occupancy
  Ti  Ti0  1  0.881570  0.118430  0.781753  1
  Ti  Ti1  1  0.118430  0.881570  0.281753  1
  Re  Re2  1  0.516685  0.483315  0.688999  1
  Re  Re3  1  0.483315  0.516685  0.188999  1
  Re  Re4  1  0.229211  0.770790  0.869179  1
  Re  Re5  1  0.770789  0.229210  0.369179  1
  O  O6  1  0.932017  0.067981  0.936034  1
  O  O7  1  0.067983  0.932019  0.436034  1
  O  O8  1  0.572960  0.427040  0.849783  1
  O  O9  1  0.427040  0.572960  0.349783  1
  O  O10  1  0.590927  0.409072  0.549695  1
  O  O11  1  0.409073  0.590928  0.049695  1
  O  O12  1  0.964171  0.540618  0.326364  1
  O  O13  1  0.035829  0.459382  0.826364  1
  O  O14  1  0.459383  0.035829  0.326364  1
  O  O15  1  0.540617  0.964171  0.826364  1
  O  O16  1  0.801648  0.198350  0.550116  1
  O  O17  1  0.198352  0.801650  0.050116  1
  O  O18  1  0.863318  0.136679  0.265740  1
  O  O19  1  0.136682  0.863321  0.765740  1
  O  O20  1  0.799611  0.698976  0.179472  1
  O  O21  1  0.200389  0.301024  0.679472  1
  O  O22  1  0.301023  0.200388  0.179472  1
  O  O23  1  0.698977  0.799612  0.679472  1
