# generated using pymatgen
data_Eu4AlW3O14
_symmetry_space_group_name_H-M   'P 1'
_cell_length_a   7.34613396
_cell_length_b   7.34613439
_cell_length_c   7.34613457
_cell_angle_alpha   61.49777616
_cell_angle_beta   61.49777801
_cell_angle_gamma   61.49776102
_symmetry_Int_Tables_number   1
_chemical_formula_structural   Eu4AlW3O14
_chemical_formula_sum   'Eu4 Al1 W3 O14'
_cell_volume   289.74983397
_cell_formula_units_Z   1
loop_
 _symmetry_equiv_pos_site_id
 _symmetry_equiv_pos_as_xyz
  1  'x, y, z'
loop_
 _atom_site_type_symbol
 _atom_site_label
 _atom_site_symmetry_multiplicity
 _atom_site_fract_x
 _atom_site_fract_y
 _atom_site_fract_z
 _atom_site_occupancy
  Eu  Eu0  1  0.125000  0.125000  0.125000  1
  Eu  Eu1  1  0.625000  0.125000  0.125000  1
  Eu  Eu2  1  0.125000  0.625000  0.125000  1
  Eu  Eu3  1  0.125000  0.125000  0.625000  1
  Al  Al4  1  0.625000  0.625000  0.625000  1
  W  W5  1  0.125000  0.625000  0.625000  1
  W  W6  1  0.625000  0.125000  0.625000  1
  W  W7  1  0.625000  0.625000  0.125000  1
  O  O8  1  0.953428  0.546638  0.953428  1
  O  O9  1  0.703362  0.296572  0.296572  1
  O  O10  1  0.312258  0.689936  0.689936  1
  O  O11  1  0.689936  0.312258  0.689936  1
  O  O12  1  0.296572  0.296572  0.703362  1
  O  O13  1  0.689936  0.689936  0.312258  1
  O  O14  1  0.953428  0.953428  0.546638  1
  O  O15  1  0.546638  0.953428  0.953428  1
  O  O16  1  0.937742  0.560064  0.560064  1
  O  O17  1  0.560064  0.560064  0.937742  1
  O  O18  1  0.296572  0.703362  0.296572  1
  O  O19  1  0.560064  0.937742  0.560064  1
  O  O20  1  0.996689  0.996689  0.996689  1
  O  O21  1  0.253311  0.253311  0.253311  1
