# generated using pymatgen
data_NaCa21(Ga4Hg3)2
_symmetry_space_group_name_H-M   'P 1'
_cell_length_a   11.49071826
_cell_length_b   11.49071869
_cell_length_c   11.49071900
_cell_angle_alpha   60.00000198
_cell_angle_beta   60.00000076
_cell_angle_gamma   60.00000505
_symmetry_Int_Tables_number   1
_chemical_formula_structural   NaCa21(Ga4Hg3)2
_chemical_formula_sum   'Na1 Ca21 Ga8 Hg6'
_cell_volume   1072.81935709
_cell_formula_units_Z   1
loop_
 _symmetry_equiv_pos_site_id
 _symmetry_equiv_pos_as_xyz
  1  'x, y, z'
loop_
 _atom_site_type_symbol
 _atom_site_label
 _atom_site_symmetry_multiplicity
 _atom_site_fract_x
 _atom_site_fract_y
 _atom_site_fract_z
 _atom_site_occupancy
  Na  Na0  1  0.500000  0.500000  0.500000  1
  Ca  Ca1  1  0.000000  0.000000  0.000000  1
  Ca  Ca2  1  0.130943  0.130943  0.130943  1
  Ca  Ca3  1  0.392828  0.869057  0.869057  1
  Ca  Ca4  1  0.869057  0.392828  0.869057  1
  Ca  Ca5  1  0.869057  0.869057  0.392828  1
  Ca  Ca6  1  0.130943  0.607172  0.130943  1
  Ca  Ca7  1  0.130943  0.130943  0.607172  1
  Ca  Ca8  1  0.607172  0.130943  0.130943  1
  Ca  Ca9  1  0.869057  0.869057  0.869057  1
  Ca  Ca10  1  0.500000  0.833229  0.500000  1
  Ca  Ca11  1  0.833229  0.500000  0.500000  1
  Ca  Ca12  1  0.500000  0.833229  0.166771  1
  Ca  Ca13  1  0.166771  0.500000  0.833229  1
  Ca  Ca14  1  0.833229  0.500000  0.166771  1
  Ca  Ca15  1  0.500000  0.500000  0.833229  1
  Ca  Ca16  1  0.166771  0.833229  0.500000  1
  Ca  Ca17  1  0.500000  0.166771  0.833229  1
  Ca  Ca18  1  0.500000  0.500000  0.166771  1
  Ca  Ca19  1  0.833229  0.166771  0.500000  1
  Ca  Ca20  1  0.166771  0.500000  0.500000  1
  Ca  Ca21  1  0.500000  0.166771  0.500000  1
  Ga  Ga22  1  0.309293  0.309292  0.309292  1
  Ga  Ga23  1  0.927877  0.690708  0.690708  1
  Ga  Ga24  1  0.690708  0.927877  0.690708  1
  Ga  Ga25  1  0.690708  0.690708  0.927877  1
  Ga  Ga26  1  0.309292  0.072123  0.309292  1
  Ga  Ga27  1  0.309292  0.309292  0.072123  1
  Ga  Ga28  1  0.072123  0.309292  0.309292  1
  Ga  Ga29  1  0.690708  0.690708  0.690707  1
  Hg  Hg30  1  0.216833  0.783167  0.216833  1
  Hg  Hg31  1  0.216833  0.783167  0.783167  1
  Hg  Hg32  1  0.783167  0.216833  0.216833  1
  Hg  Hg33  1  0.783167  0.783167  0.216833  1
  Hg  Hg34  1  0.216833  0.216833  0.783167  1
  Hg  Hg35  1  0.783167  0.216833  0.783167  1
