# generated using pymatgen
data_Tm(Al3Pd)3
_symmetry_space_group_name_H-M   'P 1'
_cell_length_a   10.39197724
_cell_length_b   10.39197774
_cell_length_c   10.39197900
_cell_angle_alpha   42.21989130
_cell_angle_beta   42.21989645
_cell_angle_gamma   42.21989103
_symmetry_Int_Tables_number   1
_chemical_formula_structural   Tm(Al3Pd)3
_chemical_formula_sum   'Tm2 Al18 Pd6'
_cell_volume   458.60468720
_cell_formula_units_Z   2
loop_
 _symmetry_equiv_pos_site_id
 _symmetry_equiv_pos_as_xyz
  1  'x, y, z'
loop_
 _atom_site_type_symbol
 _atom_site_label
 _atom_site_symmetry_multiplicity
 _atom_site_fract_x
 _atom_site_fract_y
 _atom_site_fract_z
 _atom_site_occupancy
  Tm  Tm0  1  0.166871  0.166871  0.166871  1
  Tm  Tm1  1  0.833129  0.833129  0.833129  1
  Al  Al2  1  0.107737  0.436129  0.765105  1
  Al  Al3  1  0.436129  0.765105  0.107737  1
  Al  Al4  1  0.563871  0.892263  0.234895  1
  Al  Al5  1  0.949714  0.949714  0.949714  1
  Al  Al6  1  0.050286  0.050286  0.050286  1
  Al  Al7  1  0.295154  0.704846  0.500000  1
  Al  Al8  1  0.892263  0.234895  0.563871  1
  Al  Al9  1  0.385015  0.385015  0.385015  1
  Al  Al10  1  0.500000  0.295154  0.704846  1
  Al  Al11  1  0.234895  0.563871  0.892263  1
  Al  Al12  1  0.716507  0.716507  0.716507  1
  Al  Al13  1  0.614985  0.614985  0.614985  1
  Al  Al14  1  0.334098  0.000000  0.665902  1
  Al  Al15  1  0.704846  0.500000  0.295154  1
  Al  Al16  1  0.665902  0.334098  0.000000  1
  Al  Al17  1  0.283493  0.283493  0.283493  1
  Al  Al18  1  0.000000  0.665902  0.334098  1
  Al  Al19  1  0.765105  0.107737  0.436129  1
  Pd  Pd20  1  0.419056  0.077138  0.760652  1
  Pd  Pd21  1  0.580944  0.239348  0.922862  1
  Pd  Pd22  1  0.077138  0.760652  0.419056  1
  Pd  Pd23  1  0.760652  0.419056  0.077138  1
  Pd  Pd24  1  0.922862  0.580944  0.239348  1
  Pd  Pd25  1  0.239348  0.922862  0.580944  1
