# generated using pymatgen
data_Lu4Sc4Ir3Pt
_symmetry_space_group_name_H-M   'P 1'
_cell_length_a   4.31352200
_cell_length_b   7.04832499
_cell_length_c   8.48993406
_cell_angle_alpha   88.70169591
_cell_angle_beta   90.00000000
_cell_angle_gamma   90.00000000
_symmetry_Int_Tables_number   1
_chemical_formula_structural   Lu4Sc4Ir3Pt
_chemical_formula_sum   'Lu4 Sc4 Ir3 Pt1'
_cell_volume   258.05409142
_cell_formula_units_Z   1
loop_
 _symmetry_equiv_pos_site_id
 _symmetry_equiv_pos_as_xyz
  1  'x, y, z'
loop_
 _atom_site_type_symbol
 _atom_site_label
 _atom_site_symmetry_multiplicity
 _atom_site_fract_x
 _atom_site_fract_y
 _atom_site_fract_z
 _atom_site_occupancy
  Lu  Lu0  1  0.250000  0.011828  0.666215  1
  Lu  Lu1  1  0.250000  0.527969  0.824896  1
  Lu  Lu2  1  0.750000  0.983942  0.332673  1
  Lu  Lu3  1  0.750000  0.481333  0.174174  1
  Sc  Sc4  1  0.250000  0.139669  0.072615  1
  Sc  Sc5  1  0.250000  0.641135  0.429500  1
  Sc  Sc6  1  0.750000  0.859971  0.933259  1
  Sc  Sc7  1  0.750000  0.355642  0.568736  1
  Ir  Ir8  1  0.250000  0.255535  0.392021  1
  Ir  Ir9  1  0.250000  0.752008  0.101477  1
  Ir  Ir10  1  0.750000  0.741641  0.608706  1
  Pt  Pt11  1  0.750000  0.249328  0.895730  1
