# generated using pymatgen
data_Th4Pd11Rh
_symmetry_space_group_name_H-M   'P 1'
_cell_length_a   5.96125455
_cell_length_b   5.92518188
_cell_length_c   9.79249936
_cell_angle_alpha   90.00000145
_cell_angle_beta   88.99295509
_cell_angle_gamma   119.80003138
_symmetry_Int_Tables_number   1
_chemical_formula_structural   Th4Pd11Rh
_chemical_formula_sum   'Th4 Pd11 Rh1'
_cell_volume   300.08620499
_cell_formula_units_Z   1
loop_
 _symmetry_equiv_pos_site_id
 _symmetry_equiv_pos_as_xyz
  1  'x, y, z'
loop_
 _atom_site_type_symbol
 _atom_site_label
 _atom_site_symmetry_multiplicity
 _atom_site_fract_x
 _atom_site_fract_y
 _atom_site_fract_z
 _atom_site_occupancy
  Th  Th0  1  0.000000  0.000000  0.500000  1
  Th  Th1  1  0.000000  0.000000  0.000000  1
  Th  Th2  1  0.326270  0.663135  0.255888  1
  Th  Th3  1  0.673730  0.336865  0.744112  1
  Pd  Pd4  1  0.500000  0.500000  0.500000  1
  Pd  Pd5  1  0.500000  0.000000  0.500000  1
  Pd  Pd6  1  0.500000  0.500000  0.000000  1
  Pd  Pd7  1  0.500000  0.000000  0.000000  1
  Pd  Pd8  1  0.000000  0.500000  0.000000  1
  Pd  Pd9  1  0.823242  0.650309  0.249149  1
  Pd  Pd10  1  0.349696  0.174848  0.248514  1
  Pd  Pd11  1  0.823242  0.172933  0.249149  1
  Pd  Pd12  1  0.176758  0.349691  0.750851  1
  Pd  Pd13  1  0.650304  0.825152  0.751486  1
  Pd  Pd14  1  0.176758  0.827067  0.750851  1
  Rh  Rh15  1  0.000000  0.500000  0.500000  1
