# generated using pymatgen
data_Dy7HoTi11Si16Ru
_symmetry_space_group_name_H-M   'P 1'
_cell_length_a   7.02978389
_cell_length_b   7.02942403
_cell_length_c   12.88096607
_cell_angle_alpha   89.97528385
_cell_angle_beta   90.03781439
_cell_angle_gamma   89.87480761
_symmetry_Int_Tables_number   1
_chemical_formula_structural   Dy7HoTi11Si16Ru
_chemical_formula_sum   'Dy7 Ho1 Ti11 Si16 Ru1'
_cell_volume   636.51549450
_cell_formula_units_Z   1
loop_
 _symmetry_equiv_pos_site_id
 _symmetry_equiv_pos_as_xyz
  1  'x, y, z'
loop_
 _atom_site_type_symbol
 _atom_site_label
 _atom_site_symmetry_multiplicity
 _atom_site_fract_x
 _atom_site_fract_y
 _atom_site_fract_z
 _atom_site_occupancy
  Dy  Dy0  1  0.001633  0.341687  0.531726  1
  Dy  Dy1  1  0.659727  0.995846  0.967328  1
  Dy  Dy2  1  0.159061  0.503326  0.782011  1
  Dy  Dy3  1  0.840510  0.499623  0.284974  1
  Dy  Dy4  1  0.503225  0.159148  0.218032  1
  Dy  Dy5  1  0.499557  0.840490  0.715012  1
  Dy  Dy6  1  0.341600  0.001557  0.468288  1
  Ho  Ho7  1  0.996223  0.659554  0.032697  1
  Ti  Ti8  1  0.344183  0.507182  0.374546  1
  Ti  Ti9  1  0.849215  0.995942  0.375858  1
  Ti  Ti10  1  0.006177  0.151783  0.124651  1
  Ti  Ti11  1  0.996008  0.849177  0.624168  1
  Ti  Ti12  1  0.507151  0.344236  0.625436  1
  Ti  Ti13  1  0.151825  0.006120  0.875343  1
  Ti  Ti14  1  0.825230  0.172390  0.748659  1
  Ti  Ti15  1  0.172457  0.825089  0.251317  1
  Ti  Ti16  1  0.326085  0.326252  0.999991  1
  Ti  Ti17  1  0.492997  0.651477  0.127899  1
  Ti  Ti18  1  0.651508  0.493078  0.872115  1
  Si  Si19  1  0.046591  0.712887  0.435539  1
  Si  Si20  1  0.952203  0.291543  0.934442  1
  Si  Si21  1  0.712968  0.046442  0.564527  1
  Si  Si22  1  0.207627  0.453363  0.184245  1
  Si  Si23  1  0.790616  0.550168  0.682034  1
  Si  Si24  1  0.453070  0.207718  0.815675  1
  Si  Si25  1  0.550014  0.790496  0.317952  1
  Si  Si26  1  0.291123  0.951918  0.065599  1
  Si  Si27  1  0.797670  0.868417  0.185168  1
  Si  Si28  1  0.300123  0.626932  0.565718  1
  Si  Si29  1  0.703748  0.369537  0.065480  1
  Si  Si30  1  0.626860  0.300261  0.434229  1
  Si  Si31  1  0.369025  0.703601  0.934573  1
  Si  Si32  1  0.130806  0.203278  0.315866  1
  Si  Si33  1  0.203170  0.130674  0.684161  1
  Si  Si34  1  0.868702  0.797499  0.814744  1
  Ru  Ru35  1  0.671312  0.671309  0.499995  1
