# generated using pymatgen
data_Tb16Mg3HgPt4
_symmetry_space_group_name_H-M   'P 1'
_cell_length_a   9.74879849
_cell_length_b   9.81122900
_cell_length_c   9.81122900
_cell_angle_alpha   59.99999662
_cell_angle_beta   59.78792961
_cell_angle_gamma   59.78793385
_symmetry_Int_Tables_number   1
_chemical_formula_structural   Tb16Mg3HgPt4
_chemical_formula_sum   'Tb16 Mg3 Hg1 Pt4'
_cell_volume   661.42918623
_cell_formula_units_Z   1
loop_
 _symmetry_equiv_pos_site_id
 _symmetry_equiv_pos_as_xyz
  1  'x, y, z'
loop_
 _atom_site_type_symbol
 _atom_site_label
 _atom_site_symmetry_multiplicity
 _atom_site_fract_x
 _atom_site_fract_y
 _atom_site_fract_z
 _atom_site_occupancy
  Tb  Tb0  1  0.349266  0.350315  0.350315  1
  Tb  Tb1  1  0.349266  0.350315  0.950104  1
  Tb  Tb2  1  0.349266  0.950104  0.350315  1
  Tb  Tb3  1  0.952477  0.349174  0.349174  1
  Tb  Tb4  1  0.811854  0.188296  0.188296  1
  Tb  Tb5  1  0.189990  0.810492  0.810492  1
  Tb  Tb6  1  0.189990  0.810492  0.189027  1
  Tb  Tb7  1  0.811854  0.188296  0.811554  1
  Tb  Tb8  1  0.189990  0.189027  0.810492  1
  Tb  Tb9  1  0.811854  0.811554  0.188296  1
  Tb  Tb10  1  0.939172  0.564889  0.564889  1
  Tb  Tb11  1  0.566251  0.933722  0.933722  1
  Tb  Tb12  1  0.566251  0.933722  0.566304  1
  Tb  Tb13  1  0.939172  0.564889  0.931050  1
  Tb  Tb14  1  0.566251  0.566304  0.933722  1
  Tb  Tb15  1  0.939172  0.931050  0.564889  1
  Mg  Mg16  1  0.576192  0.580584  0.580584  1
  Mg  Mg17  1  0.576192  0.580584  0.262639  1
  Mg  Mg18  1  0.576192  0.262639  0.580584  1
  Hg  Hg19  1  0.249569  0.583477  0.583477  1
  Pt  Pt20  1  0.142878  0.142497  0.142497  1
  Pt  Pt21  1  0.142878  0.142497  0.572129  1
  Pt  Pt22  1  0.142878  0.572129  0.142497  1
  Pt  Pt23  1  0.571145  0.142952  0.142952  1
