# generated using pymatgen
data_Ca2H12Ir2Pb
_symmetry_space_group_name_H-M   'P 1'
_cell_length_a   5.02580000
_cell_length_b   5.02580132
_cell_length_c   8.24874500
_cell_angle_alpha   90.00000000
_cell_angle_beta   90.00000000
_cell_angle_gamma   119.99999130
_symmetry_Int_Tables_number   1
_chemical_formula_structural   Ca2H12Ir2Pb
_chemical_formula_sum   'Ca2 H12 Ir2 Pb1'
_cell_volume   180.43844097
_cell_formula_units_Z   1
loop_
 _symmetry_equiv_pos_site_id
 _symmetry_equiv_pos_as_xyz
  1  'x, y, z'
loop_
 _atom_site_type_symbol
 _atom_site_label
 _atom_site_symmetry_multiplicity
 _atom_site_fract_x
 _atom_site_fract_y
 _atom_site_fract_z
 _atom_site_occupancy
  Ca  Ca0  1  0.666667  0.333333  0.362220  1
  Ca  Ca1  1  0.333333  0.666667  0.637780  1
  H  H2  1  0.174202  0.825798  0.372662  1
  H  H3  1  0.651596  0.825798  0.372662  1
  H  H4  1  0.174202  0.348404  0.372662  1
  H  H5  1  0.825798  0.174202  0.627338  1
  H  H6  1  0.348404  0.174202  0.627338  1
  H  H7  1  0.825798  0.651596  0.627338  1
  H  H8  1  0.511547  0.023092  0.864378  1
  H  H9  1  0.511547  0.488453  0.864378  1
  H  H10  1  0.976908  0.488453  0.864378  1
  H  H11  1  0.488453  0.976908  0.135622  1
  H  H12  1  0.488453  0.511547  0.135622  1
  H  H13  1  0.023092  0.511547  0.135622  1
  Ir  Ir14  1  0.666667  0.333333  0.743708  1
  Ir  Ir15  1  0.333333  0.666667  0.256292  1
  Pb  Pb16  1  0.000000  0.000000  0.000000  1
