# generated using pymatgen
data_Dy4Tm8TcRu3
_symmetry_space_group_name_H-M   'P 1'
_cell_length_a   6.26437408
_cell_length_b   7.29559409
_cell_length_c   9.02941700
_cell_angle_alpha   90.00000000
_cell_angle_beta   90.00000000
_cell_angle_gamma   90.00042088
_symmetry_Int_Tables_number   1
_chemical_formula_structural   Dy4Tm8TcRu3
_chemical_formula_sum   'Dy4 Tm8 Tc1 Ru3'
_cell_volume   412.66540002
_cell_formula_units_Z   1
loop_
 _symmetry_equiv_pos_site_id
 _symmetry_equiv_pos_as_xyz
  1  'x, y, z'
loop_
 _atom_site_type_symbol
 _atom_site_label
 _atom_site_symmetry_multiplicity
 _atom_site_fract_x
 _atom_site_fract_y
 _atom_site_fract_z
 _atom_site_occupancy
  Dy  Dy0  1  0.629454  0.040505  0.250000  1
  Dy  Dy1  1  0.368026  0.957493  0.750000  1
  Dy  Dy2  1  0.131906  0.457670  0.750000  1
  Dy  Dy3  1  0.874322  0.541866  0.250000  1
  Tm  Tm4  1  0.165679  0.175856  0.064750  1
  Tm  Tm5  1  0.833209  0.823941  0.935514  1
  Tm  Tm6  1  0.664258  0.325288  0.936744  1
  Tm  Tm7  1  0.833209  0.823941  0.564486  1
  Tm  Tm8  1  0.333511  0.675795  0.064436  1
  Tm  Tm9  1  0.165679  0.175856  0.435250  1
  Tm  Tm10  1  0.333511  0.675795  0.435564  1
  Tm  Tm11  1  0.664258  0.325288  0.563256  1
  Tc  Tc12  1  0.461944  0.384426  0.250000  1
  Ru  Ru13  1  0.541630  0.617054  0.750000  1
  Ru  Ru14  1  0.958993  0.115141  0.750000  1
  Ru  Ru15  1  0.040409  0.884085  0.250000  1
