# generated using pymatgen
data_Ho8Er8CdIn3Ir4
_symmetry_space_group_name_H-M   'P 1'
_cell_length_a   9.59950101
_cell_length_b   9.60145695
_cell_length_c   9.60933400
_cell_angle_alpha   59.97285072
_cell_angle_beta   59.96610297
_cell_angle_gamma   60.04646880
_symmetry_Int_Tables_number   1
_chemical_formula_structural   Ho8Er8CdIn3Ir4
_chemical_formula_sum   'Ho8 Er8 Cd1 In3 Ir4'
_cell_volume   626.20381926
_cell_formula_units_Z   1
loop_
 _symmetry_equiv_pos_site_id
 _symmetry_equiv_pos_as_xyz
  1  'x, y, z'
loop_
 _atom_site_type_symbol
 _atom_site_label
 _atom_site_symmetry_multiplicity
 _atom_site_fract_x
 _atom_site_fract_y
 _atom_site_fract_z
 _atom_site_occupancy
  Ho  Ho0  1  0.439774  0.439407  0.060410  1
  Ho  Ho1  1  0.058116  0.058350  0.441766  1
  Ho  Ho2  1  0.191155  0.811217  0.811009  1
  Ho  Ho3  1  0.812186  0.188761  0.188353  1
  Ho  Ho4  1  0.812186  0.188761  0.810700  1
  Ho  Ho5  1  0.191155  0.811217  0.186617  1
  Ho  Ho6  1  0.813981  0.811188  0.187416  1
  Ho  Ho7  1  0.192291  0.189169  0.809270  1
  Er  Er8  1  0.599347  0.598669  0.596036  1
  Er  Er9  1  0.599347  0.598669  0.205949  1
  Er  Er10  1  0.600706  0.202698  0.598299  1
  Er  Er11  1  0.201543  0.600769  0.598845  1
  Er  Er12  1  0.058077  0.440095  0.442810  1
  Er  Er13  1  0.438808  0.059707  0.060308  1
  Er  Er14  1  0.438808  0.059707  0.441176  1
  Er  Er15  1  0.058077  0.440095  0.059016  1
  Cd  Cd16  1  0.503469  0.831730  0.832399  1
  In  In17  1  0.830821  0.833059  0.833772  1
  In  In18  1  0.830821  0.833059  0.502348  1
  In  In19  1  0.830425  0.502791  0.833392  1
  Ir  Ir20  1  0.390681  0.391394  0.392690  1
  Ir  Ir21  1  0.390681  0.391394  0.825235  1
  Ir  Ir22  1  0.390729  0.826667  0.391303  1
  Ir  Ir23  1  0.826818  0.391423  0.390881  1
