# generated using pymatgen
data_Y4Er4CdHgIr2
_symmetry_space_group_name_H-M   'P 1'
_cell_length_a   9.58357473
_cell_length_b   9.58357357
_cell_length_c   9.60517600
_cell_angle_alpha   59.92539967
_cell_angle_beta   59.92540369
_cell_angle_gamma   60.06058230
_symmetry_Int_Tables_number   1
_chemical_formula_structural   Y4Er4CdHgIr2
_chemical_formula_sum   'Y8 Er8 Cd2 Hg2 Ir4'
_cell_volume   623.37980651
_cell_formula_units_Z   2
loop_
 _symmetry_equiv_pos_site_id
 _symmetry_equiv_pos_as_xyz
  1  'x, y, z'
loop_
 _atom_site_type_symbol
 _atom_site_label
 _atom_site_symmetry_multiplicity
 _atom_site_fract_x
 _atom_site_fract_y
 _atom_site_fract_z
 _atom_site_occupancy
  Y  Y0  1  0.189374  0.189374  0.810626  1
  Y  Y1  1  0.809185  0.809185  0.190815  1
  Y  Y2  1  0.938265  0.560835  0.561753  1
  Y  Y3  1  0.560835  0.938265  0.939147  1
  Y  Y4  1  0.560835  0.938265  0.561753  1
  Y  Y5  1  0.938265  0.560835  0.939147  1
  Y  Y6  1  0.560813  0.560813  0.939187  1
  Y  Y7  1  0.938745  0.938745  0.561255  1
  Er  Er8  1  0.349209  0.349209  0.347463  1
  Er  Er9  1  0.349209  0.349209  0.954121  1
  Er  Er10  1  0.350540  0.950880  0.349290  1
  Er  Er11  1  0.950880  0.350540  0.349290  1
  Er  Er12  1  0.809468  0.188819  0.191385  1
  Er  Er13  1  0.188819  0.809468  0.810329  1
  Er  Er14  1  0.188819  0.809468  0.191385  1
  Er  Er15  1  0.809468  0.188819  0.810329  1
  Cd  Cd16  1  0.580042  0.258722  0.580619  1
  Cd  Cd17  1  0.258722  0.580042  0.580619  1
  Hg  Hg18  1  0.583428  0.583428  0.585648  1
  Hg  Hg19  1  0.583428  0.583428  0.247498  1
  Ir  Ir20  1  0.141581  0.141581  0.143244  1
  Ir  Ir21  1  0.141581  0.141581  0.573594  1
  Ir  Ir22  1  0.144052  0.574440  0.140754  1
  Ir  Ir23  1  0.574440  0.144052  0.140754  1
