# generated using pymatgen
data_LiPaBr6
_symmetry_space_group_name_H-M   'P 1'
_cell_length_a   7.42169175
_cell_length_b   7.42169112
_cell_length_c   7.01817641
_cell_angle_alpha   79.37611473
_cell_angle_beta   79.37611296
_cell_angle_gamma   116.89035999
_symmetry_Int_Tables_number   1
_chemical_formula_structural   LiPaBr6
_chemical_formula_sum   'Li1 Pa1 Br6'
_cell_volume   322.66933030
_cell_formula_units_Z   1
loop_
 _symmetry_equiv_pos_site_id
 _symmetry_equiv_pos_as_xyz
  1  'x, y, z'
loop_
 _atom_site_type_symbol
 _atom_site_label
 _atom_site_symmetry_multiplicity
 _atom_site_fract_x
 _atom_site_fract_y
 _atom_site_fract_z
 _atom_site_occupancy
  Li  Li0  1  0.886211  0.113789  0.500000  1
  Pa  Pa1  1  0.995226  0.004774  0.000000  1
  Br  Br2  1  0.230640  0.248174  0.208599  1
  Br  Br3  1  0.751826  0.769360  0.791401  1
  Br  Br4  1  0.035732  0.353065  0.731650  1
  Br  Br5  1  0.349361  0.061931  0.750800  1
  Br  Br6  1  0.938069  0.650639  0.249200  1
  Br  Br7  1  0.646935  0.964268  0.268350  1
