# generated using pymatgen
data_Ce2(SiRh)3
_symmetry_space_group_name_H-M   'P 1'
_cell_length_a   4.04858900
_cell_length_b   4.12220200
_cell_length_c   17.39547200
_cell_angle_alpha   90.00000000
_cell_angle_beta   90.00000000
_cell_angle_gamma   90.00000000
_symmetry_Int_Tables_number   1
_chemical_formula_structural   Ce2(SiRh)3
_chemical_formula_sum   'Ce4 Si6 Rh6'
_cell_volume   290.31480086
_cell_formula_units_Z   2
loop_
 _symmetry_equiv_pos_site_id
 _symmetry_equiv_pos_as_xyz
  1  'x, y, z'
loop_
 _atom_site_type_symbol
 _atom_site_label
 _atom_site_symmetry_multiplicity
 _atom_site_fract_x
 _atom_site_fract_y
 _atom_site_fract_z
 _atom_site_occupancy
  Ce  Ce0  1  0.750001  0.250001  0.147659  1
  Ce  Ce1  1  0.750001  0.750000  0.348326  1
  Ce  Ce2  1  0.250001  0.250001  0.651674  1
  Ce  Ce3  1  0.250001  0.750000  0.852341  1
  Si  Si4  1  0.250001  0.750000  0.073889  1
  Si  Si5  1  0.250001  0.750000  0.212161  1
  Si  Si6  1  0.250001  0.250001  0.426318  1
  Si  Si7  1  0.750001  0.750000  0.573682  1
  Si  Si8  1  0.750001  0.250001  0.787839  1
  Si  Si9  1  0.750001  0.250001  0.926111  1
  Rh  Rh10  1  0.250001  0.250001  0.002044  1
  Rh  Rh11  1  0.250001  0.250001  0.287551  1
  Rh  Rh12  1  0.750001  0.250001  0.499802  1
  Rh  Rh13  1  0.250001  0.750000  0.500198  1
  Rh  Rh14  1  0.750001  0.750000  0.712449  1
  Rh  Rh15  1  0.750001  0.750000  0.997956  1
