# generated using pymatgen
data_Tm12Fe2TcAu2
_symmetry_space_group_name_H-M   'P 1'
_cell_length_a   8.11595802
_cell_length_b   8.11577526
_cell_length_c   8.11595986
_cell_angle_alpha   108.84664247
_cell_angle_beta   108.77428337
_cell_angle_gamma   110.80192346
_symmetry_Int_Tables_number   1
_chemical_formula_structural   Tm12Fe2TcAu2
_chemical_formula_sum   'Tm12 Fe2 Tc1 Au2'
_cell_volume   411.34528514
_cell_formula_units_Z   1
loop_
 _symmetry_equiv_pos_site_id
 _symmetry_equiv_pos_as_xyz
  1  'x, y, z'
loop_
 _atom_site_type_symbol
 _atom_site_label
 _atom_site_symmetry_multiplicity
 _atom_site_fract_x
 _atom_site_fract_y
 _atom_site_fract_z
 _atom_site_occupancy
  Tm  Tm0  1  0.190442  0.436390  0.245948  1
  Tm  Tm1  1  0.809558  0.563610  0.754052  1
  Tm  Tm2  1  0.190415  0.944452  0.754036  1
  Tm  Tm3  1  0.944434  0.190432  0.754025  1
  Tm  Tm4  1  0.809585  0.055548  0.245964  1
  Tm  Tm5  1  0.055566  0.809568  0.245975  1
  Tm  Tm6  1  0.436407  0.190432  0.245999  1
  Tm  Tm7  1  0.563593  0.809568  0.754001  1
  Tm  Tm8  1  0.309630  0.309585  0.619222  1
  Tm  Tm9  1  0.690370  0.690415  0.380778  1
  Tm  Tm10  1  0.690363  0.309585  0.999956  1
  Tm  Tm11  1  0.309637  0.690415  0.000044  1
  Fe  Fe12  1  0.379645  0.379648  0.000003  1
  Fe  Fe13  1  0.620355  0.620352  0.999997  1
  Tc  Tc14  1  0.000000  0.000000  0.000000  1
  Au  Au15  1  0.000000  0.500000  0.500000  1
  Au  Au16  1  0.500000  0.000000  0.500000  1
