# generated using pymatgen
data_Y2Ga2NiIr
_symmetry_space_group_name_H-M   'P 1'
_cell_length_a   4.34716500
_cell_length_b   6.82599600
_cell_length_c   7.59507800
_cell_angle_alpha   90.00000000
_cell_angle_beta   90.00000000
_cell_angle_gamma   90.00000000
_symmetry_Int_Tables_number   1
_chemical_formula_structural   Y2Ga2NiIr
_chemical_formula_sum   'Y4 Ga4 Ni2 Ir2'
_cell_volume   225.37430075
_cell_formula_units_Z   2
loop_
 _symmetry_equiv_pos_site_id
 _symmetry_equiv_pos_as_xyz
  1  'x, y, z'
loop_
 _atom_site_type_symbol
 _atom_site_label
 _atom_site_symmetry_multiplicity
 _atom_site_fract_x
 _atom_site_fract_y
 _atom_site_fract_z
 _atom_site_occupancy
  Y  Y0  1  0.250000  0.982727  0.308022  1
  Y  Y1  1  0.250000  0.482727  0.191978  1
  Y  Y2  1  0.750000  0.020802  0.690834  1
  Y  Y3  1  0.750000  0.520802  0.809166  1
  Ga  Ga4  1  0.250000  0.337010  0.580874  1
  Ga  Ga5  1  0.250000  0.837010  0.919126  1
  Ga  Ga6  1  0.750000  0.667033  0.434705  1
  Ga  Ga7  1  0.750000  0.167033  0.065295  1
  Ni  Ni8  1  0.250000  0.216216  0.895329  1
  Ni  Ni9  1  0.250000  0.716216  0.604671  1
  Ir  Ir10  1  0.750000  0.776213  0.103986  1
  Ir  Ir11  1  0.750000  0.276213  0.396014  1
