# generated using pymatgen
data_Sm7Ho(Sc3Sn4)4
_symmetry_space_group_name_H-M   'P 1'
_cell_length_a   7.75357328
_cell_length_b   8.01174325
_cell_length_c   14.93874122
_cell_angle_alpha   89.98830297
_cell_angle_beta   89.98397478
_cell_angle_gamma   90.02617288
_symmetry_Int_Tables_number   1
_chemical_formula_structural   Sm7Ho(Sc3Sn4)4
_chemical_formula_sum   'Sm7 Ho1 Sc12 Sn16'
_cell_volume   927.98905020
_cell_formula_units_Z   1
loop_
 _symmetry_equiv_pos_site_id
 _symmetry_equiv_pos_as_xyz
  1  'x, y, z'
loop_
 _atom_site_type_symbol
 _atom_site_label
 _atom_site_symmetry_multiplicity
 _atom_site_fract_x
 _atom_site_fract_y
 _atom_site_fract_z
 _atom_site_occupancy
  Sm  Sm0  1  0.995255  0.176551  0.094268  1
  Sm  Sm1  1  0.004736  0.823311  0.905447  1
  Sm  Sm2  1  0.504585  0.676618  0.905947  1
  Sm  Sm3  1  0.004640  0.823148  0.594307  1
  Sm  Sm4  1  0.495320  0.323406  0.094249  1
  Sm  Sm5  1  0.995437  0.176568  0.405925  1
  Sm  Sm6  1  0.495123  0.323554  0.405980  1
  Ho  Ho7  1  0.504942  0.677269  0.594626  1
  Sc  Sc8  1  0.164592  0.496203  0.749831  1
  Sc  Sc9  1  0.835574  0.504169  0.250005  1
  Sc  Sc10  1  0.335630  0.995854  0.250045  1
  Sc  Sc11  1  0.664246  0.003929  0.749817  1
  Sc  Sc12  1  0.336041  0.162006  0.627488  1
  Sc  Sc13  1  0.663775  0.837672  0.372664  1
  Sc  Sc14  1  0.164123  0.662055  0.372661  1
  Sc  Sc15  1  0.664039  0.838031  0.127435  1
  Sc  Sc16  1  0.835679  0.338305  0.627394  1
  Sc  Sc17  1  0.335957  0.161962  0.872359  1
  Sc  Sc18  1  0.835894  0.337928  0.872437  1
  Sc  Sc19  1  0.164054  0.662057  0.127462  1
  Sn  Sn20  1  0.027052  0.125867  0.749979  1
  Sn  Sn21  1  0.972867  0.874112  0.250114  1
  Sn  Sn22  1  0.472950  0.625852  0.250058  1
  Sn  Sn23  1  0.527069  0.375076  0.749736  1
  Sn  Sn24  1  0.307941  0.851095  0.749023  1
  Sn  Sn25  1  0.693256  0.147595  0.250001  1
  Sn  Sn26  1  0.193234  0.352391  0.250022  1
  Sn  Sn27  1  0.805634  0.647812  0.749387  1
  Sn  Sn28  1  0.180731  0.458337  0.543063  1
  Sn  Sn29  1  0.819876  0.543235  0.457820  1
  Sn  Sn30  1  0.322049  0.956442  0.457571  1
  Sn  Sn31  1  0.821485  0.542755  0.042698  1
  Sn  Sn32  1  0.677841  0.041555  0.543010  1
  Sn  Sn33  1  0.178296  0.457195  0.957239  1
  Sn  Sn34  1  0.678614  0.042748  0.957206  1
  Sn  Sn35  1  0.321465  0.957336  0.042724  1
