# generated using pymatgen
data_Dy6Tm10Cd4Ir3Rh
_symmetry_space_group_name_H-M   'P 1'
_cell_length_a   9.55837513
_cell_length_b   9.55837570
_cell_length_c   9.55837502
_cell_angle_alpha   59.92561623
_cell_angle_beta   59.92561490
_cell_angle_gamma   59.92561851
_symmetry_Int_Tables_number   1
_chemical_formula_structural   Dy6Tm10Cd4Ir3Rh
_chemical_formula_sum   'Dy6 Tm10 Cd4 Ir3 Rh1'
_cell_volume   616.45851426
_cell_formula_units_Z   1
loop_
 _symmetry_equiv_pos_site_id
 _symmetry_equiv_pos_as_xyz
  1  'x, y, z'
loop_
 _atom_site_type_symbol
 _atom_site_label
 _atom_site_symmetry_multiplicity
 _atom_site_fract_x
 _atom_site_fract_y
 _atom_site_fract_z
 _atom_site_occupancy
  Dy  Dy0  1  0.189625  0.811271  0.811271  1
  Dy  Dy1  1  0.812548  0.188170  0.188170  1
  Dy  Dy2  1  0.811271  0.189625  0.811271  1
  Dy  Dy3  1  0.188170  0.812548  0.188170  1
  Dy  Dy4  1  0.811271  0.811271  0.189625  1
  Dy  Dy5  1  0.188170  0.188170  0.812548  1
  Tm  Tm6  1  0.598190  0.598190  0.598190  1
  Tm  Tm7  1  0.599703  0.599703  0.203610  1
  Tm  Tm8  1  0.599703  0.203610  0.599703  1
  Tm  Tm9  1  0.203610  0.599703  0.599703  1
  Tm  Tm10  1  0.060128  0.438355  0.438355  1
  Tm  Tm11  1  0.437206  0.061586  0.061586  1
  Tm  Tm12  1  0.438355  0.060128  0.438355  1
  Tm  Tm13  1  0.061586  0.437206  0.061586  1
  Tm  Tm14  1  0.438355  0.438355  0.060128  1
  Tm  Tm15  1  0.061586  0.061586  0.437206  1
  Cd  Cd16  1  0.830123  0.830123  0.830123  1
  Cd  Cd17  1  0.830535  0.830535  0.508022  1
  Cd  Cd18  1  0.830535  0.508022  0.830535  1
  Cd  Cd19  1  0.508022  0.830535  0.830535  1
  Ir  Ir20  1  0.392415  0.392415  0.824528  1
  Ir  Ir21  1  0.392415  0.824528  0.392415  1
  Ir  Ir22  1  0.824528  0.392415  0.392415  1
  Rh  Rh23  1  0.391954  0.391954  0.391954  1
