# generated using pymatgen
data_MnNi2Ag4GeO8
_symmetry_space_group_name_H-M   'P 1'
_cell_length_a   5.19943266
_cell_length_b   6.07811825
_cell_length_c   7.15676691
_cell_angle_alpha   64.78017463
_cell_angle_beta   103.60113316
_cell_angle_gamma   89.98562975
_symmetry_Int_Tables_number   1
_chemical_formula_structural   MnNi2Ag4GeO8
_chemical_formula_sum   'Mn1 Ni2 Ag4 Ge1 O8'
_cell_volume   197.57456382
_cell_formula_units_Z   1
loop_
 _symmetry_equiv_pos_site_id
 _symmetry_equiv_pos_as_xyz
  1  'x, y, z'
loop_
 _atom_site_type_symbol
 _atom_site_label
 _atom_site_symmetry_multiplicity
 _atom_site_fract_x
 _atom_site_fract_y
 _atom_site_fract_z
 _atom_site_occupancy
  Mn  Mn0  1  0.500074  0.748165  0.499913  1
  Ni  Ni1  1  0.499793  0.250966  0.500271  1
  Ni  Ni2  1  0.999969  0.497384  0.499954  1
  Ag  Ag3  1  0.003674  0.998212  0.000419  1
  Ag  Ag4  1  0.505106  0.252724  0.999024  1
  Ag  Ag5  1  0.996338  0.498700  0.999456  1
  Ag  Ag6  1  0.494983  0.751868  0.001034  1
  Ge  Ge7  1  0.999998  0.004123  0.499977  1
  O  O8  1  0.878491  0.685753  0.658614  1
  O  O9  1  0.372961  0.905231  0.660495  1
  O  O10  1  0.899695  0.149616  0.663460  1
  O  O11  1  0.399278  0.433708  0.663709  1
  O  O12  1  0.121647  0.845304  0.341230  1
  O  O13  1  0.626920  0.066457  0.339678  1
  O  O14  1  0.100142  0.313699  0.336568  1
  O  O15  1  0.600934  0.598096  0.336199  1
