# generated using pymatgen
data_Sm4Lu4Re(B8Ru)3
_symmetry_space_group_name_H-M   'P 1'
_cell_length_a   3.66616300
_cell_length_b   9.13211553
_cell_length_c   11.55504346
_cell_angle_alpha   89.89924651
_cell_angle_beta   90.00000000
_cell_angle_gamma   90.00000000
_symmetry_Int_Tables_number   1
_chemical_formula_structural   Sm4Lu4Re(B8Ru)3
_chemical_formula_sum   'Sm4 Lu4 Re1 B24 Ru3'
_cell_volume   386.86022421
_cell_formula_units_Z   1
loop_
 _symmetry_equiv_pos_site_id
 _symmetry_equiv_pos_as_xyz
  1  'x, y, z'
loop_
 _atom_site_type_symbol
 _atom_site_label
 _atom_site_symmetry_multiplicity
 _atom_site_fract_x
 _atom_site_fract_y
 _atom_site_fract_z
 _atom_site_occupancy
  Sm  Sm0  1  0.000000  0.323352  0.413618  1
  Sm  Sm1  1  0.000000  0.677572  0.583940  1
  Sm  Sm2  1  0.000000  0.820827  0.087043  1
  Sm  Sm3  1  0.000000  0.177412  0.915224  1
  Lu  Lu4  1  0.000000  0.944200  0.372350  1
  Lu  Lu5  1  0.000000  0.056541  0.628307  1
  Lu  Lu6  1  0.000000  0.444519  0.128097  1
  Lu  Lu7  1  0.000000  0.556184  0.871293  1
  Re  Re8  1  0.000000  0.639426  0.319283  1
  B  B9  1  0.500000  0.554549  0.431496  1
  B  B10  1  0.500000  0.444516  0.569135  1
  B  B11  1  0.500000  0.055783  0.068769  1
  B  B12  1  0.500000  0.944330  0.931273  1
  B  B13  1  0.500000  0.750945  0.417609  1
  B  B14  1  0.500000  0.249305  0.582514  1
  B  B15  1  0.500000  0.250552  0.082287  1
  B  B16  1  0.500000  0.749339  0.917663  1
  B  B17  1  0.500000  0.792515  0.265889  1
  B  B18  1  0.500000  0.208334  0.733993  1
  B  B19  1  0.500000  0.291667  0.233422  1
  B  B20  1  0.500000  0.708664  0.765961  1
  B  B21  1  0.500000  0.630240  0.184679  1
  B  B22  1  0.500000  0.369530  0.815622  1
  B  B23  1  0.500000  0.130192  0.315160  1
  B  B24  1  0.500000  0.870025  0.684463  1
  B  B25  1  0.500000  0.984252  0.214002  1
  B  B26  1  0.500000  0.015778  0.786245  1
  B  B27  1  0.500000  0.483031  0.285925  1
  B  B28  1  0.500000  0.515596  0.714074  1
  B  B29  1  0.500000  0.601261  0.026914  1
  B  B30  1  0.500000  0.398335  0.972014  1
  B  B31  1  0.500000  0.101747  0.472724  1
  B  B32  1  0.500000  0.899352  0.528066  1
  Ru  Ru33  1  0.000000  0.360190  0.681415  1
  Ru  Ru34  1  0.000000  0.139528  0.180680  1
  Ru  Ru35  1  0.000000  0.860411  0.818850  1
