# generated using pymatgen
data_HoV6InO18
_symmetry_space_group_name_H-M   'P 1'
_cell_length_a   8.33508363
_cell_length_b   8.36159822
_cell_length_c   10.74570655
_cell_angle_alpha   122.34262567
_cell_angle_beta   122.13844571
_cell_angle_gamma   52.31105229
_symmetry_Int_Tables_number   1
_chemical_formula_structural   HoV6InO18
_chemical_formula_sum   'Ho1 V6 In1 O18'
_cell_volume   476.61588976
_cell_formula_units_Z   1
loop_
 _symmetry_equiv_pos_site_id
 _symmetry_equiv_pos_as_xyz
  1  'x, y, z'
loop_
 _atom_site_type_symbol
 _atom_site_label
 _atom_site_symmetry_multiplicity
 _atom_site_fract_x
 _atom_site_fract_y
 _atom_site_fract_z
 _atom_site_occupancy
  Ho  Ho0  1  0.991133  0.509371  0.497775  1
  V  V1  1  0.497963  0.730323  0.171522  1
  V  V2  1  0.047189  0.959949  0.255603  1
  V  V3  1  0.303885  0.476998  0.326025  1
  V  V4  1  0.722364  0.507952  0.679131  1
  V  V5  1  0.966657  0.055839  0.767734  1
  V  V6  1  0.482053  0.293038  0.830315  1
  In  In7  1  0.511759  0.990186  0.000057  1
  O  O8  1  0.831714  0.953123  0.099431  1
  O  O9  1  0.388623  0.301164  0.168553  1
  O  O10  1  0.598045  0.841689  0.155554  1
  O  O11  1  0.243746  0.923390  0.204864  1
  O  O12  1  0.143353  0.429231  0.337698  1
  O  O13  1  0.672109  0.625089  0.318262  1
  O  O14  1  0.167276  0.747167  0.327108  1
  O  O15  1  0.979389  0.198698  0.393282  1
  O  O16  1  0.526309  0.456790  0.498728  1
  O  O17  1  0.973399  0.833859  0.614648  1
  O  O18  1  0.310736  0.360117  0.666176  1
  O  O19  1  0.837252  0.602489  0.662069  1
  O  O20  1  0.916055  0.254812  0.713121  1
  O  O21  1  0.433804  0.136960  0.847168  1
  O  O22  1  0.610696  0.682346  0.823516  1
  O  O23  1  0.754580  0.162114  0.836916  1
  O  O24  1  0.203374  0.000595  0.908345  1
  O  O25  1  0.449135  0.529314  0.993814  1
