# generated using pymatgen
data_DyHo(BIr)4
_symmetry_space_group_name_H-M   'P 1'
_cell_length_a   7.20708956
_cell_length_b   6.20709086
_cell_length_c   5.47236000
_cell_angle_alpha   75.91512618
_cell_angle_beta   56.65288342
_cell_angle_gamma   47.43198565
_symmetry_Int_Tables_number   1
_chemical_formula_structural   DyHo(BIr)4
_chemical_formula_sum   'Dy1 Ho1 B4 Ir4'
_cell_volume   147.28744474
_cell_formula_units_Z   1
loop_
 _symmetry_equiv_pos_site_id
 _symmetry_equiv_pos_as_xyz
  1  'x, y, z'
loop_
 _atom_site_type_symbol
 _atom_site_label
 _atom_site_symmetry_multiplicity
 _atom_site_fract_x
 _atom_site_fract_y
 _atom_site_fract_z
 _atom_site_occupancy
  Dy  Dy0  1  0.750000  0.750000  0.750000  1
  Ho  Ho1  1  0.500000  0.500000  0.500000  1
  B  B2  1  0.180173  0.819827  0.180173  1
  B  B3  1  0.069891  0.430109  0.069891  1
  B  B4  1  0.819827  0.180173  0.819827  1
  B  B5  1  0.430109  0.069891  0.430109  1
  Ir  Ir6  1  0.873347  0.873347  0.126653  1
  Ir  Ir7  1  0.126653  0.126653  0.873347  1
  Ir  Ir8  1  0.376835  0.376835  0.123165  1
  Ir  Ir9  1  0.123165  0.123165  0.376835  1
