# generated using pymatgen
data_Nd17Y3Si15As
_symmetry_space_group_name_H-M   'P 1'
_cell_length_a   7.88322532
_cell_length_b   7.87178514
_cell_length_c   15.34620600
_cell_angle_alpha   89.91052381
_cell_angle_beta   89.67308801
_cell_angle_gamma   89.96362099
_symmetry_Int_Tables_number   1
_chemical_formula_structural   Nd17Y3Si15As
_chemical_formula_sum   'Nd17 Y3 Si15 As1'
_cell_volume   952.29282265
_cell_formula_units_Z   1
loop_
 _symmetry_equiv_pos_site_id
 _symmetry_equiv_pos_as_xyz
  1  'x, y, z'
loop_
 _atom_site_type_symbol
 _atom_site_label
 _atom_site_symmetry_multiplicity
 _atom_site_fract_x
 _atom_site_fract_y
 _atom_site_fract_z
 _atom_site_occupancy
  Nd  Nd0  1  0.689214  0.691417  0.498247  1
  Nd  Nd1  1  0.379645  0.009376  0.443568  1
  Nd  Nd2  1  0.488411  0.878514  0.697060  1
  Nd  Nd3  1  0.511305  0.120907  0.194491  1
  Nd  Nd4  1  0.878294  0.486755  0.302723  1
  Nd  Nd5  1  0.122997  0.511644  0.805832  1
  Nd  Nd6  1  0.624729  0.986919  0.946557  1
  Nd  Nd7  1  0.005856  0.379669  0.553035  1
  Nd  Nd8  1  0.989001  0.620066  0.054741  1
  Nd  Nd9  1  0.130723  0.981320  0.876820  1
  Nd  Nd10  1  0.522201  0.627038  0.126516  1
  Nd  Nd11  1  0.476685  0.374264  0.630141  1
  Nd  Nd12  1  0.628506  0.522681  0.873961  1
  Nd  Nd13  1  0.373040  0.476626  0.371910  1
  Nd  Nd14  1  0.873537  0.022334  0.377294  1
  Nd  Nd15  1  0.978980  0.126371  0.122367  1
  Nd  Nd16  1  0.019944  0.872689  0.622180  1
  Y  Y17  1  0.312101  0.310106  0.999994  1
  Y  Y18  1  0.189546  0.809154  0.248924  1
  Y  Y19  1  0.805075  0.190501  0.751810  1
  Si  Si20  1  0.328181  0.689900  0.955844  1
  Si  Si21  1  0.667324  0.307281  0.456789  1
  Si  Si22  1  0.692645  0.329461  0.044760  1
  Si  Si23  1  0.306173  0.669519  0.544880  1
  Si  Si24  1  0.810746  0.828894  0.205214  1
  Si  Si25  1  0.171168  0.188926  0.292931  1
  Si  Si26  1  0.832983  0.810275  0.794787  1
  Si  Si27  1  0.286194  0.922382  0.062060  1
  Si  Si28  1  0.575211  0.787586  0.309072  1
  Si  Si29  1  0.435478  0.212306  0.818777  1
  Si  Si30  1  0.788511  0.576787  0.689655  1
  Si  Si31  1  0.213373  0.422477  0.187001  1
  Si  Si32  1  0.708557  0.078930  0.564360  1
  Si  Si33  1  0.925869  0.287405  0.937759  1
  Si  Si34  1  0.080073  0.714047  0.436146  1
  As  As35  1  0.177724  0.175467  0.701792  1
