# generated using pymatgen
data_Ti9Co4Ir7
_symmetry_space_group_name_H-M   'P 1'
_cell_length_a   7.36861362
_cell_length_b   7.36861444
_cell_length_c   7.36861417
_cell_angle_alpha   101.46072451
_cell_angle_beta   101.46073077
_cell_angle_gamma   127.05688635
_symmetry_Int_Tables_number   1
_chemical_formula_structural   Ti9Co4Ir7
_chemical_formula_sum   'Ti9 Co4 Ir7'
_cell_volume   285.81128623
_cell_formula_units_Z   1
loop_
 _symmetry_equiv_pos_site_id
 _symmetry_equiv_pos_as_xyz
  1  'x, y, z'
loop_
 _atom_site_type_symbol
 _atom_site_label
 _atom_site_symmetry_multiplicity
 _atom_site_fract_x
 _atom_site_fract_y
 _atom_site_fract_z
 _atom_site_occupancy
  Ti  Ti0  1  0.930703  0.930703  0.000000  1
  Ti  Ti1  1  0.248569  0.608071  0.822631  1
  Ti  Ti2  1  0.425938  0.248569  0.640499  1
  Ti  Ti3  1  0.608071  0.785440  0.359501  1
  Ti  Ti4  1  0.785440  0.425938  0.177369  1
  Ti  Ti5  1  0.298589  0.892588  0.206005  1
  Ti  Ti6  1  0.092583  0.298589  0.406002  1
  Ti  Ti7  1  0.892588  0.686582  0.593998  1
  Ti  Ti8  1  0.686582  0.092583  0.793995  1
  Co  Co9  1  0.668273  0.000874  0.107964  1
  Co  Co10  1  0.560309  0.668273  0.667399  1
  Co  Co11  1  0.000874  0.892910  0.332601  1
  Co  Co12  1  0.892910  0.560309  0.892036  1
  Ir  Ir13  1  0.531575  0.531575  0.000000  1
  Ir  Ir14  1  0.746601  0.246601  0.500000  1
  Ir  Ir15  1  0.246601  0.746601  0.500000  1
  Ir  Ir16  1  0.318829  0.025471  0.902404  1
  Ir  Ir17  1  0.416425  0.318829  0.293358  1
  Ir  Ir18  1  0.025471  0.123067  0.706642  1
  Ir  Ir19  1  0.123067  0.416425  0.097596  1
