# generated using pymatgen
data_Dy4Al16Si2Ir5Pt
_symmetry_space_group_name_H-M   'P 1'
_cell_length_a   7.55515713
_cell_length_b   7.55515715
_cell_length_c   9.35693234
_cell_angle_alpha   90.01557547
_cell_angle_beta   90.01557113
_cell_angle_gamma   119.68304978
_symmetry_Int_Tables_number   1
_chemical_formula_structural   Dy4Al16Si2Ir5Pt
_chemical_formula_sum   'Dy4 Al16 Si2 Ir5 Pt1'
_cell_volume   464.01206141
_cell_formula_units_Z   1
loop_
 _symmetry_equiv_pos_site_id
 _symmetry_equiv_pos_as_xyz
  1  'x, y, z'
loop_
 _atom_site_type_symbol
 _atom_site_label
 _atom_site_symmetry_multiplicity
 _atom_site_fract_x
 _atom_site_fract_y
 _atom_site_fract_z
 _atom_site_occupancy
  Dy  Dy0  1  0.994243  0.674388  0.750687  1
  Dy  Dy1  1  0.004899  0.325130  0.249297  1
  Dy  Dy2  1  0.674870  0.995101  0.750703  1
  Dy  Dy3  1  0.325612  0.005757  0.249313  1
  Al  Al4  1  0.004625  0.336480  0.577357  1
  Al  Al5  1  0.001784  0.666919  0.422823  1
  Al  Al6  1  0.999480  0.663236  0.075030  1
  Al  Al7  1  0.336764  0.000520  0.924970  1
  Al  Al8  1  0.001004  0.336358  0.924371  1
  Al  Al9  1  0.663642  0.998996  0.075629  1
  Al  Al10  1  0.663520  0.995375  0.422643  1
  Al  Al11  1  0.333081  0.998216  0.577177  1
  Al  Al12  1  0.334768  0.334835  0.056056  1
  Al  Al13  1  0.665165  0.665232  0.943944  1
  Al  Al14  1  0.664221  0.667545  0.558954  1
  Al  Al15  1  0.332455  0.335779  0.441046  1
  Al  Al16  1  0.335891  0.548838  0.750658  1
  Al  Al17  1  0.664672  0.453540  0.247699  1
  Al  Al18  1  0.546460  0.335328  0.752301  1
  Al  Al19  1  0.451162  0.664109  0.249342  1
  Si  Si20  1  0.129462  0.128761  0.750606  1
  Si  Si21  1  0.871239  0.870538  0.249394  1
  Ir  Ir22  1  0.328298  0.671702  0.500000  1
  Ir  Ir23  1  0.328477  0.671523  0.000000  1
  Ir  Ir24  1  0.672044  0.327956  0.000000  1
  Ir  Ir25  1  0.999843  0.000157  0.500000  1
  Ir  Ir26  1  0.000180  0.999820  0.000000  1
  Pt  Pt27  1  0.672139  0.327861  0.500000  1
