# generated using pymatgen
data_Er3LuRe5Os3
_symmetry_space_group_name_H-M   'P 1'
_cell_length_a   5.34875962
_cell_length_b   5.34875926
_cell_length_c   8.97027320
_cell_angle_alpha   90.02103896
_cell_angle_beta   89.97896382
_cell_angle_gamma   121.41453886
_symmetry_Int_Tables_number   1
_chemical_formula_structural   Er3LuRe5Os3
_chemical_formula_sum   'Er3 Lu1 Re5 Os3'
_cell_volume   219.01499449
_cell_formula_units_Z   1
loop_
 _symmetry_equiv_pos_site_id
 _symmetry_equiv_pos_as_xyz
  1  'x, y, z'
loop_
 _atom_site_type_symbol
 _atom_site_label
 _atom_site_symmetry_multiplicity
 _atom_site_fract_x
 _atom_site_fract_y
 _atom_site_fract_z
 _atom_site_occupancy
  Er  Er0  1  0.335075  0.664925  0.436015  1
  Er  Er1  1  0.665632  0.334368  0.562409  1
  Er  Er2  1  0.665646  0.334354  0.937968  1
  Lu  Lu3  1  0.335230  0.664770  0.063996  1
  Re  Re4  1  0.169386  0.340345  0.750769  1
  Re  Re5  1  0.171771  0.828229  0.750768  1
  Re  Re6  1  0.336789  0.170302  0.249143  1
  Re  Re7  1  0.829698  0.663211  0.249143  1
  Re  Re8  1  0.659655  0.830614  0.750769  1
  Os  Os9  1  0.003410  0.996590  0.000875  1
  Os  Os10  1  0.824080  0.175920  0.248894  1
  Os  Os11  1  0.003626  0.996374  0.499252  1
