# generated using pymatgen
data_K2Nd3Sm(Sb3Se8)2
_symmetry_space_group_name_H-M   'P 1'
_cell_length_a   17.33637654
_cell_length_b   4.15123800
_cell_length_c   22.28193528
_cell_angle_alpha   90.00000000
_cell_angle_beta   90.06211213
_cell_angle_gamma   90.00000000
_symmetry_Int_Tables_number   1
_chemical_formula_structural   K2Nd3Sm(Sb3Se8)2
_chemical_formula_sum   'K4 Nd6 Sm2 Sb12 Se32'
_cell_volume   1603.57256567
_cell_formula_units_Z   2
loop_
 _symmetry_equiv_pos_site_id
 _symmetry_equiv_pos_as_xyz
  1  'x, y, z'
loop_
 _atom_site_type_symbol
 _atom_site_label
 _atom_site_symmetry_multiplicity
 _atom_site_fract_x
 _atom_site_fract_y
 _atom_site_fract_z
 _atom_site_occupancy
  K  K0  1  0.301055  0.750002  0.241877  1
  K  K1  1  0.801130  0.750002  0.258095  1
  K  K2  1  0.198632  0.250000  0.742200  1
  K  K3  1  0.699077  0.250000  0.758410  1
  Nd  Nd4  1  0.207535  0.750002  0.043165  1
  Nd  Nd5  1  0.962785  0.750002  0.090570  1
  Nd  Nd6  1  0.462926  0.750002  0.408884  1
  Nd  Nd7  1  0.707910  0.750002  0.456417  1
  Nd  Nd8  1  0.292039  0.250000  0.543561  1
  Nd  Nd9  1  0.537093  0.250000  0.591145  1
  Sm  Sm10  1  0.035629  0.250000  0.908827  1
  Sm  Sm11  1  0.791846  0.250000  0.956917  1
  Sb  Sb12  1  0.420855  0.250000  0.084049  1
  Sb  Sb13  1  0.648640  0.750002  0.101519  1
  Sb  Sb14  1  0.036547  0.250000  0.244758  1
  Sb  Sb15  1  0.536484  0.250000  0.255164  1
  Sb  Sb16  1  0.148187  0.750002  0.398229  1
  Sb  Sb17  1  0.921046  0.250000  0.415991  1
  Sb  Sb18  1  0.078948  0.750002  0.584066  1
  Sb  Sb19  1  0.851852  0.250000  0.601836  1
  Sb  Sb20  1  0.463470  0.750002  0.744854  1
  Sb  Sb21  1  0.963518  0.750002  0.755729  1
  Sb  Sb22  1  0.350941  0.250000  0.898362  1
  Sb  Sb23  1  0.579489  0.750002  0.916018  1
  Se  Se24  1  0.622245  0.250000  0.000566  1
  Se  Se25  1  0.073572  0.250000  0.041387  1
  Se  Se26  1  0.790670  0.750002  0.053770  1
  Se  Se27  1  0.278505  0.250000  0.125314  1
  Se  Se28  1  0.473317  0.750002  0.165800  1
  Se  Se29  1  0.907978  0.250000  0.172708  1
  Se  Se30  1  0.102494  0.750002  0.178692  1
  Se  Se31  1  0.681626  0.250000  0.178875  1
  Se  Se32  1  0.181327  0.250000  0.320898  1
  Se  Se33  1  0.602528  0.750002  0.321195  1
  Se  Se34  1  0.408045  0.250000  0.326949  1
  Se  Se35  1  0.973320  0.750002  0.334212  1
  Se  Se36  1  0.778621  0.250000  0.374562  1
  Se  Se37  1  0.290748  0.750002  0.444369  1
  Se  Se38  1  0.574340  0.250000  0.456960  1
  Se  Se39  1  0.120463  0.250000  0.498929  1
  Se  Se40  1  0.879567  0.750002  0.501038  1
  Se  Se41  1  0.425697  0.750002  0.543053  1
  Se  Se42  1  0.709340  0.250000  0.555625  1
  Se  Se43  1  0.221384  0.750002  0.625486  1
  Se  Se44  1  0.026833  0.250000  0.665778  1
  Se  Se45  1  0.592057  0.750002  0.673038  1
  Se  Se46  1  0.397498  0.250000  0.678825  1
  Se  Se47  1  0.818676  0.750002  0.679192  1
  Se  Se48  1  0.318689  0.750002  0.820803  1
  Se  Se49  1  0.898771  0.250000  0.822046  1
  Se  Se50  1  0.090706  0.750002  0.829448  1
  Se  Se51  1  0.527069  0.250000  0.834273  1
  Se  Se52  1  0.722933  0.750002  0.876533  1
  Se  Se53  1  0.208357  0.250000  0.943993  1
  Se  Se54  1  0.925497  0.750002  0.956072  1
  Se  Se55  1  0.379492  0.750002  0.998968  1
