# generated using pymatgen
data_TbEr5Co16(MoP6)2
_symmetry_space_group_name_H-M   'P 1'
_cell_length_a   3.71020000
_cell_length_b   10.53430800
_cell_length_c   12.21489600
_cell_angle_alpha   90.00000000
_cell_angle_beta   90.00000000
_cell_angle_gamma   90.00000000
_symmetry_Int_Tables_number   1
_chemical_formula_structural   TbEr5Co16(MoP6)2
_chemical_formula_sum   'Tb1 Er5 Co16 Mo2 P12'
_cell_volume   477.41175347
_cell_formula_units_Z   1
loop_
 _symmetry_equiv_pos_site_id
 _symmetry_equiv_pos_as_xyz
  1  'x, y, z'
loop_
 _atom_site_type_symbol
 _atom_site_label
 _atom_site_symmetry_multiplicity
 _atom_site_fract_x
 _atom_site_fract_y
 _atom_site_fract_z
 _atom_site_occupancy
  Tb  Tb0  1  0.750000  0.250000  0.475193  1
  Er  Er1  1  0.250000  0.750000  0.524568  1
  Er  Er2  1  0.250000  0.930603  0.794925  1
  Er  Er3  1  0.250000  0.569397  0.794925  1
  Er  Er4  1  0.750000  0.069064  0.204858  1
  Er  Er5  1  0.750000  0.430936  0.204858  1
  Co  Co6  1  0.250000  0.250000  0.297746  1
  Co  Co7  1  0.750000  0.750000  0.701463  1
  Co  Co8  1  0.750000  0.250000  0.013684  1
  Co  Co9  1  0.250000  0.750000  0.986266  1
  Co  Co10  1  0.250000  0.417849  0.010062  1
  Co  Co11  1  0.250000  0.082151  0.010062  1
  Co  Co12  1  0.750000  0.582444  0.989979  1
  Co  Co13  1  0.750000  0.917556  0.989979  1
  Co  Co14  1  0.250000  0.454984  0.568679  1
  Co  Co15  1  0.250000  0.045016  0.568679  1
  Co  Co16  1  0.750000  0.546820  0.431375  1
  Co  Co17  1  0.750000  0.953180  0.431375  1
  Co  Co18  1  0.250000  0.872095  0.293342  1
  Co  Co19  1  0.250000  0.627905  0.293342  1
  Co  Co20  1  0.750000  0.127432  0.706946  1
  Co  Co21  1  0.750000  0.372568  0.706946  1
  Mo  Mo22  1  0.250000  0.250000  0.843697  1
  Mo  Mo23  1  0.750000  0.750000  0.156891  1
  P  P24  1  0.250000  0.250000  0.119590  1
  P  P25  1  0.750000  0.750000  0.880162  1
  P  P26  1  0.250000  0.250000  0.650724  1
  P  P27  1  0.750000  0.750000  0.350419  1
  P  P28  1  0.250000  0.438859  0.383272  1
  P  P29  1  0.250000  0.061141  0.383272  1
  P  P30  1  0.750000  0.562330  0.616265  1
  P  P31  1  0.750000  0.937670  0.616265  1
  P  P32  1  0.250000  0.905743  0.107615  1
  P  P33  1  0.250000  0.594257  0.107615  1
  P  P34  1  0.750000  0.093954  0.892482  1
  P  P35  1  0.750000  0.406046  0.892482  1
