# generated using pymatgen
data_Pr2DyHo5(CdIr)2
_symmetry_space_group_name_H-M   'P 1'
_cell_length_a   9.71997125
_cell_length_b   9.70638250
_cell_length_c   9.70638188
_cell_angle_alpha   59.89702389
_cell_angle_beta   59.93297668
_cell_angle_gamma   59.93296859
_symmetry_Int_Tables_number   1
_chemical_formula_structural   Pr2DyHo5(CdIr)2
_chemical_formula_sum   'Pr4 Dy2 Ho10 Cd4 Ir4'
_cell_volume   646.37653388
_cell_formula_units_Z   2
loop_
 _symmetry_equiv_pos_site_id
 _symmetry_equiv_pos_as_xyz
  1  'x, y, z'
loop_
 _atom_site_type_symbol
 _atom_site_label
 _atom_site_symmetry_multiplicity
 _atom_site_fract_x
 _atom_site_fract_y
 _atom_site_fract_z
 _atom_site_occupancy
  Pr  Pr0  1  0.562481  0.937685  0.562409  1
  Pr  Pr1  1  0.938329  0.562033  0.937611  1
  Pr  Pr2  1  0.562481  0.562409  0.937685  1
  Pr  Pr3  1  0.938329  0.937611  0.562033  1
  Dy  Dy4  1  0.945684  0.554061  0.554061  1
  Dy  Dy5  1  0.553227  0.945864  0.945864  1
  Ho  Ho6  1  0.349355  0.346440  0.346440  1
  Ho  Ho7  1  0.347502  0.350391  0.956933  1
  Ho  Ho8  1  0.347502  0.956933  0.350391  1
  Ho  Ho9  1  0.954974  0.347548  0.347548  1
  Ho  Ho10  1  0.812750  0.186293  0.186293  1
  Ho  Ho11  1  0.185022  0.814013  0.814013  1
  Ho  Ho12  1  0.188924  0.810684  0.188225  1
  Ho  Ho13  1  0.811460  0.187100  0.811666  1
  Ho  Ho14  1  0.188924  0.188225  0.810684  1
  Ho  Ho15  1  0.811460  0.811666  0.187100  1
  Cd  Cd16  1  0.582577  0.577871  0.577871  1
  Cd  Cd17  1  0.578365  0.582396  0.260570  1
  Cd  Cd18  1  0.578365  0.260570  0.582396  1
  Cd  Cd19  1  0.261067  0.578296  0.578296  1
  Ir  Ir20  1  0.146489  0.139174  0.139174  1
  Ir  Ir21  1  0.139472  0.146769  0.575881  1
  Ir  Ir22  1  0.139472  0.575881  0.146769  1
  Ir  Ir23  1  0.575785  0.140086  0.140086  1
