# generated using pymatgen
data_Li3(P3Pd10)2
_symmetry_space_group_name_H-M   'P 1'
_cell_length_a   8.55343698
_cell_length_b   8.55343653
_cell_length_c   8.55343700
_cell_angle_alpha   60.00000205
_cell_angle_beta   60.00000380
_cell_angle_gamma   60.00000525
_symmetry_Int_Tables_number   1
_chemical_formula_structural   Li3(P3Pd10)2
_chemical_formula_sum   'Li3 P6 Pd20'
_cell_volume   442.49360306
_cell_formula_units_Z   1
loop_
 _symmetry_equiv_pos_site_id
 _symmetry_equiv_pos_as_xyz
  1  'x, y, z'
loop_
 _atom_site_type_symbol
 _atom_site_label
 _atom_site_symmetry_multiplicity
 _atom_site_fract_x
 _atom_site_fract_y
 _atom_site_fract_z
 _atom_site_occupancy
  Li  Li0  1  0.250000  0.250000  0.250000  1
  Li  Li1  1  0.750000  0.750000  0.750000  1
  Li  Li2  1  0.000000  0.000000  0.000000  1
  P  P3  1  0.735583  0.264417  0.264417  1
  P  P4  1  0.264417  0.735583  0.735583  1
  P  P5  1  0.264417  0.735583  0.264417  1
  P  P6  1  0.735583  0.264417  0.735583  1
  P  P7  1  0.264417  0.264417  0.735583  1
  P  P8  1  0.735583  0.735583  0.264417  1
  Pd  Pd9  1  0.382860  0.382860  0.382860  1
  Pd  Pd10  1  0.617140  0.617140  0.617140  1
  Pd  Pd11  1  0.382860  0.382860  0.851422  1
  Pd  Pd12  1  0.382860  0.851422  0.382860  1
  Pd  Pd13  1  0.617140  0.617140  0.148578  1
  Pd  Pd14  1  0.617140  0.148578  0.617140  1
  Pd  Pd15  1  0.851422  0.382860  0.382860  1
  Pd  Pd16  1  0.148578  0.617140  0.617140  1
  Pd  Pd17  1  0.342603  0.000000  0.000000  1
  Pd  Pd18  1  0.657397  0.000000  0.000000  1
  Pd  Pd19  1  0.000000  0.342603  0.657397  1
  Pd  Pd20  1  0.000000  0.657397  0.342603  1
  Pd  Pd21  1  0.000000  0.342603  0.000000  1
  Pd  Pd22  1  0.657397  0.000000  0.342603  1
  Pd  Pd23  1  0.000000  0.657397  0.000000  1
  Pd  Pd24  1  0.342603  0.000000  0.657397  1
  Pd  Pd25  1  0.000000  0.000000  0.342603  1
  Pd  Pd26  1  0.000000  0.000000  0.657397  1
  Pd  Pd27  1  0.657397  0.342603  0.000000  1
  Pd  Pd28  1  0.342603  0.657397  0.000000  1
