# generated using pymatgen
data_Ho4Lu(InSb)2
_symmetry_space_group_name_H-M   'P 1'
_cell_length_a   8.75787660
_cell_length_b   8.75787724
_cell_length_c   8.04743000
_cell_angle_alpha   90.00000000
_cell_angle_beta   90.00000000
_cell_angle_gamma   125.24742921
_symmetry_Int_Tables_number   1
_chemical_formula_structural   Ho4Lu(InSb)2
_chemical_formula_sum   'Ho8 Lu2 In4 Sb4'
_cell_volume   504.08076841
_cell_formula_units_Z   2
loop_
 _symmetry_equiv_pos_site_id
 _symmetry_equiv_pos_as_xyz
  1  'x, y, z'
loop_
 _atom_site_type_symbol
 _atom_site_label
 _atom_site_symmetry_multiplicity
 _atom_site_fract_x
 _atom_site_fract_y
 _atom_site_fract_z
 _atom_site_occupancy
  Ho  Ho0  1  0.031669  0.306272  0.334255  1
  Ho  Ho1  1  0.968331  0.693728  0.665745  1
  Ho  Ho2  1  0.468331  0.193728  0.834255  1
  Ho  Ho3  1  0.806272  0.531669  0.165745  1
  Ho  Ho4  1  0.531669  0.806272  0.165745  1
  Ho  Ho5  1  0.193728  0.468331  0.834255  1
  Ho  Ho6  1  0.693728  0.968331  0.665745  1
  Ho  Ho7  1  0.306272  0.031669  0.334255  1
  Lu  Lu8  1  0.000000  0.000000  0.000000  1
  Lu  Lu9  1  0.500000  0.500000  0.500000  1
  In  In10  1  0.369505  0.369505  0.129705  1
  In  In11  1  0.630495  0.630495  0.870295  1
  In  In12  1  0.130495  0.130495  0.629705  1
  In  In13  1  0.869505  0.869505  0.370295  1
  Sb  Sb14  1  0.797237  0.202763  0.000000  1
  Sb  Sb15  1  0.202763  0.797237  0.000000  1
  Sb  Sb16  1  0.702763  0.297237  0.500000  1
  Sb  Sb17  1  0.297237  0.702763  0.500000  1
