# generated using pymatgen
data_Pr6Mn(SiS7)2
_symmetry_space_group_name_H-M   'P 1'
_cell_length_a   10.28821200
_cell_length_b   10.28821118
_cell_length_c   5.74847600
_cell_angle_alpha   90.00000000
_cell_angle_beta   90.00000000
_cell_angle_gamma   120.00000265
_symmetry_Int_Tables_number   1
_chemical_formula_structural   Pr6Mn(SiS7)2
_chemical_formula_sum   'Pr6 Mn1 Si2 S14'
_cell_volume   526.94236636
_cell_formula_units_Z   1
loop_
 _symmetry_equiv_pos_site_id
 _symmetry_equiv_pos_as_xyz
  1  'x, y, z'
loop_
 _atom_site_type_symbol
 _atom_site_label
 _atom_site_symmetry_multiplicity
 _atom_site_fract_x
 _atom_site_fract_y
 _atom_site_fract_z
 _atom_site_occupancy
  Pr  Pr0  1  0.876874  0.233966  0.249495  1
  Pr  Pr1  1  0.766034  0.642910  0.249495  1
  Pr  Pr2  1  0.357090  0.123126  0.249495  1
  Pr  Pr3  1  0.123125  0.766536  0.752478  1
  Pr  Pr4  1  0.233464  0.356589  0.752478  1
  Pr  Pr5  1  0.643411  0.876875  0.752478  1
  Mn  Mn6  1  0.000000  0.000000  0.488698  1
  Si  Si7  1  0.666667  0.333333  0.835725  1
  Si  Si8  1  0.333333  0.666667  0.338918  1
  S  S9  1  0.666667  0.333333  0.469082  1
  S  S10  1  0.333333  0.666667  0.971898  1
  S  S11  1  0.915317  0.160264  0.726298  1
  S  S12  1  0.839736  0.755053  0.726298  1
  S  S13  1  0.244947  0.084683  0.726298  1
  S  S14  1  0.082563  0.837830  0.248243  1
  S  S15  1  0.162170  0.244734  0.248243  1
  S  S16  1  0.755266  0.917437  0.248243  1
  S  S17  1  0.591219  0.113949  0.978949  1
  S  S18  1  0.886051  0.477271  0.978949  1
  S  S19  1  0.522729  0.408781  0.978949  1
  S  S20  1  0.409404  0.886117  0.481650  1
  S  S21  1  0.113883  0.523287  0.481650  1
  S  S22  1  0.476713  0.590596  0.481650  1
