# generated using pymatgen
data_TbHo3Ga18NiIr5
_symmetry_space_group_name_H-M   'P 1'
_cell_length_a   7.56610684
_cell_length_b   7.56670747
_cell_length_c   9.44876206
_cell_angle_alpha   90.18421380
_cell_angle_beta   90.18850265
_cell_angle_gamma   119.94259548
_symmetry_Int_Tables_number   1
_chemical_formula_structural   TbHo3Ga18NiIr5
_chemical_formula_sum   'Tb1 Ho3 Ga18 Ni1 Ir5'
_cell_volume   468.73427351
_cell_formula_units_Z   1
loop_
 _symmetry_equiv_pos_site_id
 _symmetry_equiv_pos_as_xyz
  1  'x, y, z'
loop_
 _atom_site_type_symbol
 _atom_site_label
 _atom_site_symmetry_multiplicity
 _atom_site_fract_x
 _atom_site_fract_y
 _atom_site_fract_z
 _atom_site_occupancy
  Tb  Tb0  1  0.996856  0.667467  0.250064  1
  Ho  Ho1  1  0.003104  0.332535  0.749897  1
  Ho  Ho2  1  0.667470  0.996899  0.250091  1
  Ho  Ho3  1  0.332542  0.003107  0.749912  1
  Ga  Ga4  1  0.122544  0.122659  0.245324  1
  Ga  Ga5  1  0.877551  0.877571  0.754681  1
  Ga  Ga6  1  0.999180  0.330004  0.079779  1
  Ga  Ga7  1  0.000765  0.669779  0.919964  1
  Ga  Ga8  1  0.000943  0.666458  0.580546  1
  Ga  Ga9  1  0.333771  0.999250  0.419724  1
  Ga  Ga10  1  0.999027  0.333307  0.419721  1
  Ga  Ga11  1  0.666477  0.000989  0.580364  1
  Ga  Ga12  1  0.669819  0.000817  0.920115  1
  Ga  Ga13  1  0.330418  0.999432  0.079795  1
  Ga  Ga14  1  0.332281  0.332256  0.564773  1
  Ga  Ga15  1  0.667544  0.667745  0.435334  1
  Ga  Ga16  1  0.672090  0.672284  0.064419  1
  Ga  Ga17  1  0.327733  0.327718  0.935471  1
  Ga  Ga18  1  0.338890  0.545877  0.249519  1
  Ga  Ga19  1  0.661176  0.454052  0.750482  1
  Ga  Ga20  1  0.545734  0.338678  0.249503  1
  Ga  Ga21  1  0.454063  0.661211  0.750487  1
  Ni  Ni22  1  0.000007  0.000039  0.999966  1
  Ir  Ir23  1  0.671860  0.327959  0.999907  1
  Ir  Ir24  1  0.328099  0.671947  0.999923  1
  Ir  Ir25  1  0.328275  0.671683  0.500084  1
  Ir  Ir26  1  0.671690  0.328263  0.500079  1
  Ir  Ir27  1  0.000092  0.000015  0.500074  1
