# generated using pymatgen
data_Al(V4Co)3
_symmetry_space_group_name_H-M   'P 1'
_cell_length_a   4.67686900
_cell_length_b   4.67804200
_cell_length_c   9.40665900
_cell_angle_alpha   90.00000000
_cell_angle_beta   90.00000000
_cell_angle_gamma   90.00000000
_symmetry_Int_Tables_number   1
_chemical_formula_structural   Al(V4Co)3
_chemical_formula_sum   'Al1 V12 Co3'
_cell_volume   205.80443187
_cell_formula_units_Z   1
loop_
 _symmetry_equiv_pos_site_id
 _symmetry_equiv_pos_as_xyz
  1  'x, y, z'
loop_
 _atom_site_type_symbol
 _atom_site_label
 _atom_site_symmetry_multiplicity
 _atom_site_fract_x
 _atom_site_fract_y
 _atom_site_fract_z
 _atom_site_occupancy
  Al  Al0  1  0.500000  0.500000  0.000000  1
  V  V1  1  0.000000  0.500000  0.132922  1
  V  V2  1  0.000000  0.500000  0.619581  1
  V  V3  1  0.500000  0.247434  0.746258  1
  V  V4  1  0.500000  0.247434  0.253742  1
  V  V5  1  0.756946  0.000000  0.000000  1
  V  V6  1  0.749427  0.000000  0.500000  1
  V  V7  1  0.000000  0.500000  0.867078  1
  V  V8  1  0.000000  0.500000  0.380419  1
  V  V9  1  0.500000  0.752566  0.746258  1
  V  V10  1  0.500000  0.752566  0.253742  1
  V  V11  1  0.243054  0.000000  0.000000  1
  V  V12  1  0.250573  0.000000  0.500000  1
  Co  Co13  1  0.500000  0.500000  0.500000  1
  Co  Co14  1  0.000000  0.000000  0.746190  1
  Co  Co15  1  0.000000  0.000000  0.253810  1
