# generated using pymatgen
data_Dy3Sc3(Zn3C)2
_symmetry_space_group_name_H-M   'P 1'
_cell_length_a   8.91797260
_cell_length_b   8.91797317
_cell_length_c   8.91797200
_cell_angle_alpha   60.00000435
_cell_angle_beta   60.00000224
_cell_angle_gamma   60.00000360
_symmetry_Int_Tables_number   1
_chemical_formula_structural   Dy3Sc3(Zn3C)2
_chemical_formula_sum   'Dy6 Sc6 Zn12 C4'
_cell_volume   501.51443235
_cell_formula_units_Z   2
loop_
 _symmetry_equiv_pos_site_id
 _symmetry_equiv_pos_as_xyz
  1  'x, y, z'
loop_
 _atom_site_type_symbol
 _atom_site_label
 _atom_site_symmetry_multiplicity
 _atom_site_fract_x
 _atom_site_fract_y
 _atom_site_fract_z
 _atom_site_occupancy
  Dy  Dy0  1  0.449391  0.449391  0.050609  1
  Dy  Dy1  1  0.050609  0.449391  0.050609  1
  Dy  Dy2  1  0.449391  0.050609  0.050609  1
  Dy  Dy3  1  0.050609  0.050609  0.449391  1
  Dy  Dy4  1  0.449391  0.050609  0.449391  1
  Dy  Dy5  1  0.050609  0.449391  0.449391  1
  Sc  Sc6  1  0.810470  0.810470  0.189530  1
  Sc  Sc7  1  0.189530  0.810470  0.189530  1
  Sc  Sc8  1  0.810470  0.189530  0.189530  1
  Sc  Sc9  1  0.189530  0.189530  0.810470  1
  Sc  Sc10  1  0.810470  0.189530  0.810470  1
  Sc  Sc11  1  0.189530  0.810470  0.810470  1
  Zn  Zn12  1  0.829070  0.829070  0.512789  1
  Zn  Zn13  1  0.829070  0.512789  0.829070  1
  Zn  Zn14  1  0.512789  0.829070  0.829070  1
  Zn  Zn15  1  0.829070  0.829070  0.829070  1
  Zn  Zn16  1  0.423288  0.423288  0.730137  1
  Zn  Zn17  1  0.423288  0.730137  0.423288  1
  Zn  Zn18  1  0.730137  0.423288  0.423288  1
  Zn  Zn19  1  0.423288  0.423288  0.423288  1
  Zn  Zn20  1  0.625066  0.625066  0.124801  1
  Zn  Zn21  1  0.625066  0.124801  0.625066  1
  Zn  Zn22  1  0.124801  0.625066  0.625066  1
  Zn  Zn23  1  0.625066  0.625066  0.625066  1
  C  C24  1  0.115938  0.115938  0.652186  1
  C  C25  1  0.115938  0.652186  0.115938  1
  C  C26  1  0.652186  0.115938  0.115938  1
  C  C27  1  0.115938  0.115938  0.115938  1
