# generated using pymatgen
data_Zn3Ni5(Mo3N)4
_symmetry_space_group_name_H-M   'P 1'
_cell_length_a   6.71528975
_cell_length_b   6.71528975
_cell_length_c   6.71528975
_cell_angle_alpha   89.88519796
_cell_angle_beta   90.11480204
_cell_angle_gamma   89.88519796
_symmetry_Int_Tables_number   1
_chemical_formula_structural   Zn3Ni5(Mo3N)4
_chemical_formula_sum   'Zn3 Ni5 Mo12 N4'
_cell_volume   302.82494659
_cell_formula_units_Z   1
loop_
 _symmetry_equiv_pos_site_id
 _symmetry_equiv_pos_as_xyz
  1  'x, y, z'
loop_
 _atom_site_type_symbol
 _atom_site_label
 _atom_site_symmetry_multiplicity
 _atom_site_fract_x
 _atom_site_fract_y
 _atom_site_fract_z
 _atom_site_occupancy
  Zn  Zn0  1  0.070397  0.070921  0.068598  1
  Zn  Zn1  1  0.429079  0.931402  0.570396  1
  Zn  Zn2  1  0.568597  0.429603  0.929079  1
  Ni  Ni3  1  0.933432  0.566567  0.433432  1
  Ni  Ni4  1  0.683323  0.683382  0.681972  1
  Ni  Ni5  1  0.816619  0.318028  0.183323  1
  Ni  Ni6  1  0.318609  0.181391  0.818610  1
  Ni  Ni7  1  0.181972  0.816678  0.316618  1
  Mo  Mo8  1  0.125130  0.208587  0.454106  1
  Mo  Mo9  1  0.375141  0.793202  0.951990  1
  Mo  Mo10  1  0.631161  0.300412  0.541356  1
  Mo  Mo11  1  0.875979  0.704295  0.051813  1
  Mo  Mo12  1  0.451990  0.124861  0.206798  1
  Mo  Mo13  1  0.199590  0.458643  0.131163  1
  Mo  Mo14  1  0.041356  0.868837  0.699588  1
  Mo  Mo15  1  0.795703  0.948186  0.375981  1
  Mo  Mo16  1  0.954106  0.374872  0.791413  1
  Mo  Mo17  1  0.291415  0.545893  0.625128  1
  Mo  Mo18  1  0.551813  0.624019  0.295705  1
  Mo  Mo19  1  0.706796  0.048009  0.875139  1
  N  N20  1  0.376413  0.377905  0.375976  1
  N  N21  1  0.122097  0.624024  0.876411  1
  N  N22  1  0.875974  0.123589  0.622095  1
  N  N23  1  0.623306  0.876692  0.123308  1
