# generated using pymatgen
data_Lu12Tl2Co3
_symmetry_space_group_name_H-M   'P 1'
_cell_length_a   8.18172030
_cell_length_b   8.18172112
_cell_length_c   8.18172027
_cell_angle_alpha   109.14651070
_cell_angle_beta   109.14651844
_cell_angle_gamma   110.12260297
_symmetry_Int_Tables_number   1
_chemical_formula_structural   Lu12Tl2Co3
_chemical_formula_sum   'Lu12 Tl2 Co3'
_cell_volume   421.57017706
_cell_formula_units_Z   1
loop_
 _symmetry_equiv_pos_site_id
 _symmetry_equiv_pos_as_xyz
  1  'x, y, z'
loop_
 _atom_site_type_symbol
 _atom_site_label
 _atom_site_symmetry_multiplicity
 _atom_site_fract_x
 _atom_site_fract_y
 _atom_site_fract_z
 _atom_site_occupancy
  Lu  Lu0  1  0.318619  0.318619  0.637237  1
  Lu  Lu1  1  0.681381  0.681381  0.362763  1
  Lu  Lu2  1  0.681381  0.318619  0.000000  1
  Lu  Lu3  1  0.318619  0.681381  0.000000  1
  Lu  Lu4  1  0.185847  0.425257  0.239410  1
  Lu  Lu5  1  0.814153  0.574743  0.760590  1
  Lu  Lu6  1  0.185847  0.946436  0.760590  1
  Lu  Lu7  1  0.946436  0.185847  0.760590  1
  Lu  Lu8  1  0.814153  0.053564  0.239410  1
  Lu  Lu9  1  0.053564  0.814153  0.239410  1
  Lu  Lu10  1  0.425257  0.185847  0.239410  1
  Lu  Lu11  1  0.574743  0.814153  0.760590  1
  Tl  Tl12  1  0.000000  0.500000  0.500000  1
  Tl  Tl13  1  0.500000  0.000000  0.500000  1
  Co  Co14  1  0.348811  0.348811  0.000000  1
  Co  Co15  1  0.651189  0.651189  0.000000  1
  Co  Co16  1  0.000000  0.000000  0.000000  1
