# generated using pymatgen
data_Ti11Nb2ReP8
_symmetry_space_group_name_H-M   'P 1'
_cell_length_a   7.51485990
_cell_length_b   7.51486025
_cell_length_c   13.48941220
_cell_angle_alpha   75.70529528
_cell_angle_beta   75.70529405
_cell_angle_gamma   26.29042560
_symmetry_Int_Tables_number   1
_chemical_formula_structural   Ti11Nb2ReP8
_chemical_formula_sum   'Ti11 Nb2 Re1 P8'
_cell_volume   326.38655439
_cell_formula_units_Z   1
loop_
 _symmetry_equiv_pos_site_id
 _symmetry_equiv_pos_as_xyz
  1  'x, y, z'
loop_
 _atom_site_type_symbol
 _atom_site_label
 _atom_site_symmetry_multiplicity
 _atom_site_fract_x
 _atom_site_fract_y
 _atom_site_fract_z
 _atom_site_occupancy
  Ti  Ti0  1  0.661080  0.661080  0.032237  1
  Ti  Ti1  1  0.338920  0.338920  0.967763  1
  Ti  Ti2  1  0.996324  0.996324  0.660592  1
  Ti  Ti3  1  0.003676  0.003676  0.339408  1
  Ti  Ti4  1  0.824207  0.824207  0.539628  1
  Ti  Ti5  1  0.175793  0.175793  0.460372  1
  Ti  Ti6  1  0.205410  0.205410  0.207864  1
  Ti  Ti7  1  0.794590  0.794590  0.792136  1
  Ti  Ti8  1  0.198083  0.198083  0.688584  1
  Ti  Ti9  1  0.801917  0.801917  0.311416  1
  Ti  Ti10  1  0.000000  0.000000  0.000000  1
  Nb  Nb11  1  0.426696  0.426696  0.173110  1
  Nb  Nb12  1  0.573304  0.573304  0.826890  1
  Re  Re13  1  0.500000  0.500000  0.500000  1
  P  P14  1  0.063150  0.063150  0.151810  1
  P  P15  1  0.936850  0.936850  0.848190  1
  P  P16  1  0.370086  0.370086  0.658178  1
  P  P17  1  0.629914  0.629914  0.341822  1
  P  P18  1  0.373442  0.373442  0.394825  1
  P  P19  1  0.626558  0.626558  0.605175  1
  P  P20  1  0.181385  0.181385  0.890858  1
  P  P21  1  0.818615  0.818615  0.109142  1
