# generated using pymatgen
data_TbNd4P12Ru19
_symmetry_space_group_name_H-M   'P 1'
_cell_length_a   4.00790000
_cell_length_b   12.62517737
_cell_length_c   12.62695600
_cell_angle_alpha   120.00450003
_cell_angle_beta   90.00000000
_cell_angle_gamma   90.00000000
_symmetry_Int_Tables_number   1
_chemical_formula_structural   TbNd4P12Ru19
_chemical_formula_sum   'Tb1 Nd4 P12 Ru19'
_cell_volume   553.30420268
_cell_formula_units_Z   1
loop_
 _symmetry_equiv_pos_site_id
 _symmetry_equiv_pos_as_xyz
  1  'x, y, z'
loop_
 _atom_site_type_symbol
 _atom_site_label
 _atom_site_symmetry_multiplicity
 _atom_site_fract_x
 _atom_site_fract_y
 _atom_site_fract_z
 _atom_site_occupancy
  Tb  Tb0  1  0.000000  0.666699  0.333332  1
  Nd  Nd1  1  0.500000  0.000053  0.183909  1
  Nd  Nd2  1  0.500000  0.183876  0.999956  1
  Nd  Nd3  1  0.500000  0.816107  0.816155  1
  Nd  Nd4  1  0.000000  0.333261  0.666665  1
  P  P5  1  0.000000  0.999232  0.812367  1
  P  P6  1  0.000000  0.813108  0.000766  1
  P  P7  1  0.000000  0.187663  0.186899  1
  P  P8  1  0.500000  0.305830  0.476249  1
  P  P9  1  0.500000  0.170430  0.694176  1
  P  P10  1  0.500000  0.523736  0.829583  1
  P  P11  1  0.500000  0.827236  0.521638  1
  P  P12  1  0.500000  0.478347  0.305610  1
  P  P13  1  0.500000  0.694368  0.172714  1
  P  P14  1  0.000000  0.000056  0.374450  1
  P  P15  1  0.000000  0.374287  0.999944  1
  P  P16  1  0.000000  0.625658  0.625708  1
  Ru  Ru17  1  0.000000  0.999783  0.554353  1
  Ru  Ru18  1  0.000000  0.554590  0.000212  1
  Ru  Ru19  1  0.000000  0.445618  0.445391  1
  Ru  Ru20  1  0.500000  0.998989  0.713818  1
  Ru  Ru21  1  0.500000  0.714921  0.001022  1
  Ru  Ru22  1  0.500000  0.286089  0.285107  1
  Ru  Ru23  1  0.000000  0.194252  0.378233  1
  Ru  Ru24  1  0.000000  0.183900  0.805705  1
  Ru  Ru25  1  0.000000  0.621783  0.816065  1
  Ru  Ru26  1  0.000000  0.814577  0.619844  1
  Ru  Ru27  1  0.000000  0.380149  0.194699  1
  Ru  Ru28  1  0.000000  0.805336  0.185505  1
  Ru  Ru29  1  0.500000  0.123927  0.490490  1
  Ru  Ru30  1  0.500000  0.366545  0.876020  1
  Ru  Ru31  1  0.500000  0.509496  0.633430  1
  Ru  Ru32  1  0.500000  0.633080  0.506850  1
  Ru  Ru33  1  0.500000  0.493112  0.126208  1
  Ru  Ru34  1  0.500000  0.873796  0.366942  1
  Ru  Ru35  1  0.000000  0.000005  0.999984  1
