# generated using pymatgen
data_Nb12Ni8Mo3WN4
_symmetry_space_group_name_H-M   'P 1'
_cell_length_a   8.18160691
_cell_length_b   8.18160644
_cell_length_c   8.18160638
_cell_angle_alpha   60.00822404
_cell_angle_beta   60.00822181
_cell_angle_gamma   60.00822829
_symmetry_Int_Tables_number   1
_chemical_formula_structural   Nb12Ni8Mo3WN4
_chemical_formula_sum   'Nb12 Ni8 Mo3 W1 N4'
_cell_volume   387.33054936
_cell_formula_units_Z   1
loop_
 _symmetry_equiv_pos_site_id
 _symmetry_equiv_pos_as_xyz
  1  'x, y, z'
loop_
 _atom_site_type_symbol
 _atom_site_label
 _atom_site_symmetry_multiplicity
 _atom_site_fract_x
 _atom_site_fract_y
 _atom_site_fract_z
 _atom_site_occupancy
  Nb  Nb0  1  0.812458  0.812458  0.187370  1
  Nb  Nb1  1  0.187189  0.187189  0.812878  1
  Nb  Nb2  1  0.812458  0.187370  0.812458  1
  Nb  Nb3  1  0.187189  0.812878  0.187189  1
  Nb  Nb4  1  0.187370  0.812458  0.812458  1
  Nb  Nb5  1  0.812878  0.187189  0.187189  1
  Nb  Nb6  1  0.437542  0.437542  0.062630  1
  Nb  Nb7  1  0.062811  0.062811  0.437122  1
  Nb  Nb8  1  0.437542  0.062630  0.437542  1
  Nb  Nb9  1  0.062811  0.437122  0.062811  1
  Nb  Nb10  1  0.062630  0.437542  0.437542  1
  Nb  Nb11  1  0.437122  0.062811  0.062811  1
  Ni  Ni12  1  0.739003  0.420299  0.420299  1
  Ni  Ni13  1  0.420299  0.739003  0.420299  1
  Ni  Ni14  1  0.420299  0.420299  0.739003  1
  Ni  Ni15  1  0.420331  0.420331  0.420331  1
  Ni  Ni16  1  0.510997  0.829701  0.829701  1
  Ni  Ni17  1  0.829701  0.510997  0.829701  1
  Ni  Ni18  1  0.829701  0.829701  0.510997  1
  Ni  Ni19  1  0.829669  0.829669  0.829669  1
  Mo  Mo20  1  0.125000  0.625000  0.625000  1
  Mo  Mo21  1  0.625000  0.125000  0.625000  1
  Mo  Mo22  1  0.625000  0.625000  0.125000  1
  W  W23  1  0.625000  0.625000  0.625000  1
  N  N24  1  0.625000  0.125000  0.125000  1
  N  N25  1  0.125000  0.625000  0.125000  1
  N  N26  1  0.125000  0.125000  0.625000  1
  N  N27  1  0.125000  0.125000  0.125000  1
