# generated using pymatgen
data_Ce6Ga(P3Rh5)4
_symmetry_space_group_name_H-M   'P 1'
_cell_length_a   13.58944400
_cell_length_b   13.58944424
_cell_length_c   3.93800900
_cell_angle_alpha   90.00000000
_cell_angle_beta   90.00000000
_cell_angle_gamma   119.99999943
_symmetry_Int_Tables_number   1
_chemical_formula_structural   Ce6Ga(P3Rh5)4
_chemical_formula_sum   'Ce6 Ga1 P12 Rh20'
_cell_volume   629.81169782
_cell_formula_units_Z   1
loop_
 _symmetry_equiv_pos_site_id
 _symmetry_equiv_pos_as_xyz
  1  'x, y, z'
loop_
 _atom_site_type_symbol
 _atom_site_label
 _atom_site_symmetry_multiplicity
 _atom_site_fract_x
 _atom_site_fract_y
 _atom_site_fract_z
 _atom_site_occupancy
  Ce  Ce0  1  0.530061  0.718256  0.249675  1
  Ce  Ce1  1  0.281744  0.811805  0.249675  1
  Ce  Ce2  1  0.188195  0.469939  0.249675  1
  Ce  Ce3  1  0.469939  0.281744  0.750325  1
  Ce  Ce4  1  0.718256  0.188195  0.750325  1
  Ce  Ce5  1  0.811805  0.530061  0.750325  1
  Ga  Ga6  1  0.000000  0.000000  0.000000  1
  P  P7  1  0.524828  0.136718  0.250513  1
  P  P8  1  0.863282  0.388111  0.250513  1
  P  P9  1  0.611889  0.475172  0.250513  1
  P  P10  1  0.949563  0.720384  0.249428  1
  P  P11  1  0.279616  0.229179  0.249428  1
  P  P12  1  0.770821  0.050437  0.249428  1
  P  P13  1  0.388111  0.524828  0.749487  1
  P  P14  1  0.475172  0.863282  0.749487  1
  P  P15  1  0.136718  0.611889  0.749487  1
  P  P16  1  0.720384  0.770821  0.750572  1
  P  P17  1  0.229179  0.949563  0.750572  1
  P  P18  1  0.050437  0.279616  0.750572  1
  Rh  Rh19  1  0.333333  0.666667  0.748136  1
  Rh  Rh20  1  0.920302  0.250750  0.250274  1
  Rh  Rh21  1  0.749250  0.669553  0.250274  1
  Rh  Rh22  1  0.330447  0.079698  0.250274  1
  Rh  Rh23  1  0.440592  0.024807  0.750426  1
  Rh  Rh24  1  0.975193  0.415786  0.750426  1
  Rh  Rh25  1  0.584214  0.559408  0.750426  1
  Rh  Rh26  1  0.666667  0.333333  0.251864  1
  Rh  Rh27  1  0.095495  0.199082  0.253889  1
  Rh  Rh28  1  0.800918  0.896414  0.253889  1
  Rh  Rh29  1  0.103586  0.904505  0.253889  1
  Rh  Rh30  1  0.024807  0.584214  0.249574  1
  Rh  Rh31  1  0.415786  0.440592  0.249574  1
  Rh  Rh32  1  0.559408  0.975193  0.249574  1
  Rh  Rh33  1  0.669553  0.920302  0.749726  1
  Rh  Rh34  1  0.079698  0.749250  0.749726  1
  Rh  Rh35  1  0.250750  0.330447  0.749726  1
  Rh  Rh36  1  0.904505  0.800918  0.746111  1
  Rh  Rh37  1  0.199082  0.103586  0.746111  1
  Rh  Rh38  1  0.896414  0.095495  0.746111  1
