# generated using pymatgen
data_Ho6Tm4In8CuPt3
_symmetry_space_group_name_H-M   'P 1'
_cell_length_a   3.60928100
_cell_length_b   8.10022494
_cell_length_c   18.09328521
_cell_angle_alpha   89.98418817
_cell_angle_beta   90.00000000
_cell_angle_gamma   90.00000000
_symmetry_Int_Tables_number   1
_chemical_formula_structural   Ho6Tm4In8CuPt3
_chemical_formula_sum   'Ho6 Tm4 In8 Cu1 Pt3'
_cell_volume   528.97504897
_cell_formula_units_Z   1
loop_
 _symmetry_equiv_pos_site_id
 _symmetry_equiv_pos_as_xyz
  1  'x, y, z'
loop_
 _atom_site_type_symbol
 _atom_site_label
 _atom_site_symmetry_multiplicity
 _atom_site_fract_x
 _atom_site_fract_y
 _atom_site_fract_z
 _atom_site_occupancy
  Ho  Ho0  1  0.000000  0.246181  0.219934  1
  Ho  Ho1  1  0.000000  0.757067  0.779759  1
  Ho  Ho2  1  0.000000  0.257222  0.720322  1
  Ho  Ho3  1  0.000000  0.736037  0.280254  1
  Ho  Ho4  1  0.000000  0.999118  0.000432  1
  Ho  Ho5  1  0.000000  0.499144  0.499477  1
  Tm  Tm6  1  0.000000  0.117469  0.414596  1
  Tm  Tm7  1  0.000000  0.884495  0.584522  1
  Tm  Tm8  1  0.000000  0.384367  0.915291  1
  Tm  Tm9  1  0.000000  0.617153  0.085053  1
  In  In10  1  0.500000  0.418777  0.352055  1
  In  In11  1  0.500000  0.578355  0.647844  1
  In  In12  1  0.500000  0.077544  0.851800  1
  In  In13  1  0.500000  0.924148  0.151403  1
  In  In14  1  0.500000  0.292871  0.066542  1
  In  In15  1  0.500000  0.707821  0.933995  1
  In  In16  1  0.500000  0.207853  0.565829  1
  In  In17  1  0.500000  0.794817  0.431911  1
  Cu  Cu18  1  0.500000  0.024257  0.302524  1
  Pt  Pt19  1  0.500000  0.974546  0.695324  1
  Pt  Pt20  1  0.500000  0.474581  0.804241  1
  Pt  Pt21  1  0.500000  0.526178  0.196891  1
