# generated using pymatgen
data_Tb10In8Ag3Ir
_symmetry_space_group_name_H-M   'P 1'
_cell_length_a   8.28567500
_cell_length_b   18.60416223
_cell_length_c   3.63398700
_cell_angle_alpha   90.00000000
_cell_angle_beta   90.00000000
_cell_angle_gamma   89.99096715
_symmetry_Int_Tables_number   1
_chemical_formula_structural   Tb10In8Ag3Ir
_chemical_formula_sum   'Tb10 In8 Ag3 Ir1'
_cell_volume   560.17197336
_cell_formula_units_Z   1
loop_
 _symmetry_equiv_pos_site_id
 _symmetry_equiv_pos_as_xyz
  1  'x, y, z'
loop_
 _atom_site_type_symbol
 _atom_site_label
 _atom_site_symmetry_multiplicity
 _atom_site_fract_x
 _atom_site_fract_y
 _atom_site_fract_z
 _atom_site_occupancy
  Tb  Tb0  1  0.503020  0.498717  0.000000  1
  Tb  Tb1  1  0.000831  0.001187  0.000000  1
  Tb  Tb2  1  0.715352  0.277600  0.000000  1
  Tb  Tb3  1  0.267062  0.713989  0.000000  1
  Tb  Tb4  1  0.767463  0.786501  0.000000  1
  Tb  Tb5  1  0.263896  0.216605  0.000000  1
  Tb  Tb6  1  0.615745  0.085955  0.000000  1
  Tb  Tb7  1  0.373980  0.923773  0.000000  1
  Tb  Tb8  1  0.874954  0.576552  0.000000  1
  Tb  Tb9  1  0.122212  0.421746  0.000000  1
  In  In10  1  0.706553  0.934060  0.500000  1
  In  In11  1  0.291730  0.069476  0.500000  1
  In  In12  1  0.791497  0.429435  0.500000  1
  In  In13  1  0.209226  0.567478  0.500000  1
  In  In14  1  0.584345  0.649187  0.500000  1
  In  In15  1  0.418192  0.350760  0.500000  1
  In  In16  1  0.919344  0.149757  0.500000  1
  In  In17  1  0.084654  0.850725  0.500000  1
  Ag  Ag18  1  0.473505  0.804262  0.500000  1
  Ag  Ag19  1  0.973026  0.696142  0.500000  1
  Ag  Ag20  1  0.020947  0.301012  0.500000  1
  Ir  Ir21  1  0.522467  0.195082  0.500000  1
