# generated using pymatgen
data_U4Mn7GaP5
_symmetry_space_group_name_H-M   'P 1'
_cell_length_a   6.72302066
_cell_length_b   6.72301965
_cell_length_c   6.72302000
_cell_angle_alpha   109.55369312
_cell_angle_beta   109.30640142
_cell_angle_gamma   109.55369285
_symmetry_Int_Tables_number   1
_chemical_formula_structural   U4Mn7GaP5
_chemical_formula_sum   'U4 Mn7 Ga1 P5'
_cell_volume   233.92069485
_cell_formula_units_Z   1
loop_
 _symmetry_equiv_pos_site_id
 _symmetry_equiv_pos_as_xyz
  1  'x, y, z'
loop_
 _atom_site_type_symbol
 _atom_site_label
 _atom_site_symmetry_multiplicity
 _atom_site_fract_x
 _atom_site_fract_y
 _atom_site_fract_z
 _atom_site_occupancy
  U  U0  1  0.490518  0.488139  0.490518  1
  U  U1  1  0.002377  0.511861  0.002377  1
  U  U2  1  0.490518  0.000000  0.002377  1
  U  U3  1  0.002377  0.000000  0.490518  1
  Mn  Mn4  1  0.497387  0.746184  0.243570  1
  Mn  Mn5  1  0.751201  0.253816  0.497387  1
  Mn  Mn6  1  0.243570  0.746184  0.497387  1
  Mn  Mn7  1  0.246092  0.500000  0.746092  1
  Mn  Mn8  1  0.021542  0.000000  0.021542  1
  Mn  Mn9  1  0.497387  0.253816  0.751201  1
  Mn  Mn10  1  0.746092  0.500000  0.246092  1
  Ga  Ga11  1  0.697164  0.000000  0.697164  1
  P  P12  1  0.679852  0.684749  0.995103  1
  P  P13  1  0.310354  0.315251  0.995103  1
  P  P14  1  0.995103  0.684749  0.679852  1
  P  P15  1  0.995103  0.315251  0.310354  1
  P  P16  1  0.333360  0.000000  0.333360  1
