# generated using pymatgen
data_Pr12IrRuI17
_symmetry_space_group_name_H-M   'P 1'
_cell_length_a   10.16850219
_cell_length_b   12.16828165
_cell_length_c   12.20608066
_cell_angle_alpha   93.44454032
_cell_angle_beta   104.80720346
_cell_angle_gamma   114.55081384
_symmetry_Int_Tables_number   1
_chemical_formula_structural   Pr12IrRuI17
_chemical_formula_sum   'Pr12 Ir1 Ru1 I17'
_cell_volume   1304.17923631
_cell_formula_units_Z   1
loop_
 _symmetry_equiv_pos_site_id
 _symmetry_equiv_pos_as_xyz
  1  'x, y, z'
loop_
 _atom_site_type_symbol
 _atom_site_label
 _atom_site_symmetry_multiplicity
 _atom_site_fract_x
 _atom_site_fract_y
 _atom_site_fract_z
 _atom_site_occupancy
  Pr  Pr0  1  0.056992  0.510629  0.322796  1
  Pr  Pr1  1  0.988613  0.811413  0.579387  1
  Pr  Pr2  1  0.644138  0.240421  0.284369  1
  Pr  Pr3  1  0.011064  0.189611  0.417312  1
  Pr  Pr4  1  0.224814  0.669419  0.991450  1
  Pr  Pr5  1  0.261192  0.988677  0.893260  1
  Pr  Pr6  1  0.358081  0.759645  0.714626  1
  Pr  Pr7  1  0.940700  0.486502  0.676256  1
  Pr  Pr8  1  0.740683  0.014051  0.108353  1
  Pr  Pr9  1  0.151847  0.286994  0.150996  1
  Pr  Pr10  1  0.776838  0.330424  0.010934  1
  Pr  Pr11  1  0.845915  0.712142  0.850021  1
  Ir  Ir12  1  0.104070  0.738384  0.785158  1
  Ru  Ru13  1  0.895813  0.261801  0.214134  1
  I  I14  1  0.785704  0.529132  0.419119  1
  I  I15  1  0.642141  0.419319  0.758923  1
  I  I16  1  0.842974  0.894448  0.325407  1
  I  I17  1  0.325405  0.212422  0.369495  1
  I  I18  1  0.156858  0.104598  0.675721  1
  I  I19  1  0.586252  0.052243  0.843380  1
  I  I20  1  0.755503  0.183696  0.537902  1
  I  I21  1  0.548421  0.707142  0.952881  1
  I  I22  1  0.358394  0.581230  0.240999  1
  I  I23  1  0.214221  0.471506  0.582667  1
  I  I24  1  0.055129  0.368440  0.897071  1
  I  I25  1  0.451020  0.292080  0.046388  1
  I  I26  1  0.999987  0.999344  0.999294  1
  I  I27  1  0.244947  0.816755  0.462554  1
  I  I28  1  0.411300  0.946587  0.155515  1
  I  I29  1  0.674669  0.787877  0.630950  1
  I  I30  1  0.946313  0.633069  0.102684  1
