# generated using pymatgen
data_ZrScCo6(Ni2P3)2
_symmetry_space_group_name_H-M   'P 1'
_cell_length_a   3.60852400
_cell_length_b   10.11416100
_cell_length_c   11.76812900
_cell_angle_alpha   90.00000000
_cell_angle_beta   90.00000000
_cell_angle_gamma   90.00000000
_symmetry_Int_Tables_number   1
_chemical_formula_structural   ZrScCo6(Ni2P3)2
_chemical_formula_sum   'Zr2 Sc2 Co12 Ni8 P12'
_cell_volume   429.50367193
_cell_formula_units_Z   2
loop_
 _symmetry_equiv_pos_site_id
 _symmetry_equiv_pos_as_xyz
  1  'x, y, z'
loop_
 _atom_site_type_symbol
 _atom_site_label
 _atom_site_symmetry_multiplicity
 _atom_site_fract_x
 _atom_site_fract_y
 _atom_site_fract_z
 _atom_site_occupancy
  Zr  Zr0  1  0.250000  0.579444  0.706405  1
  Zr  Zr1  1  0.250000  0.920556  0.206405  1
  Sc  Sc2  1  0.750000  0.419961  0.293954  1
  Sc  Sc3  1  0.750000  0.080039  0.793954  1
  Co  Co4  1  0.250000  0.221046  0.177209  1
  Co  Co5  1  0.250000  0.278955  0.677209  1
  Co  Co6  1  0.750000  0.778210  0.822416  1
  Co  Co7  1  0.750000  0.721790  0.322416  1
  Co  Co8  1  0.250000  0.880829  0.698618  1
  Co  Co9  1  0.250000  0.619171  0.198618  1
  Co  Co10  1  0.750000  0.119783  0.301329  1
  Co  Co11  1  0.750000  0.380217  0.801329  1
  Co  Co12  1  0.250000  0.465948  0.932101  1
  Co  Co13  1  0.250000  0.034052  0.432101  1
  Co  Co14  1  0.750000  0.533805  0.067990  1
  Co  Co15  1  0.750000  0.966195  0.567990  1
  Ni  Ni16  1  0.250000  0.716711  0.991311  1
  Ni  Ni17  1  0.250000  0.783289  0.491311  1
  Ni  Ni18  1  0.750000  0.283757  0.008999  1
  Ni  Ni19  1  0.750000  0.216243  0.508999  1
  Ni  Ni20  1  0.250000  0.409899  0.482209  1
  Ni  Ni21  1  0.250000  0.090101  0.982209  1
  Ni  Ni22  1  0.750000  0.590758  0.517602  1
  Ni  Ni23  1  0.750000  0.909242  0.017602  1
  P  P24  1  0.250000  0.419963  0.115516  1
  P  P25  1  0.250000  0.080037  0.615516  1
  P  P26  1  0.750000  0.579599  0.885251  1
  P  P27  1  0.750000  0.920401  0.385251  1
  P  P28  1  0.250000  0.265984  0.864920  1
  P  P29  1  0.250000  0.234016  0.364920  1
  P  P30  1  0.750000  0.732794  0.134651  1
  P  P31  1  0.750000  0.767206  0.634651  1
  P  P32  1  0.250000  0.601556  0.385432  1
  P  P33  1  0.250000  0.898444  0.885432  1
  P  P34  1  0.750000  0.397387  0.614089  1
  P  P35  1  0.750000  0.102613  0.114089  1
