# generated using pymatgen
data_ThSeS
_symmetry_space_group_name_H-M   'P 1'
_cell_length_a   4.35384500
_cell_length_b   7.51729900
_cell_length_c   8.77008200
_cell_angle_alpha   90.00000000
_cell_angle_beta   90.00000000
_cell_angle_gamma   90.00000000
_symmetry_Int_Tables_number   1
_chemical_formula_structural   ThSeS
_chemical_formula_sum   'Th4 Se4 S4'
_cell_volume   287.03737020
_cell_formula_units_Z   4
loop_
 _symmetry_equiv_pos_site_id
 _symmetry_equiv_pos_as_xyz
  1  'x, y, z'
loop_
 _atom_site_type_symbol
 _atom_site_label
 _atom_site_symmetry_multiplicity
 _atom_site_fract_x
 _atom_site_fract_y
 _atom_site_fract_z
 _atom_site_occupancy
  Th  Th0  1  0.250000  0.232337  0.878051  1
  Th  Th1  1  0.250000  0.732337  0.621949  1
  Th  Th2  1  0.750000  0.767663  0.121949  1
  Th  Th3  1  0.750000  0.267663  0.378051  1
  Se  Se4  1  0.250000  0.468101  0.165976  1
  Se  Se5  1  0.250000  0.968101  0.334024  1
  Se  Se6  1  0.750000  0.531899  0.834024  1
  Se  Se7  1  0.750000  0.031899  0.665976  1
  S  S8  1  0.250000  0.357233  0.569190  1
  S  S9  1  0.250000  0.857233  0.930810  1
  S  S10  1  0.750000  0.642767  0.430810  1
  S  S11  1  0.750000  0.142767  0.069190  1
