# generated using pymatgen
data_Tm9Lu(Ir2Rh)2
_symmetry_space_group_name_H-M   'P 1'
_cell_length_a   10.71765700
_cell_length_b   10.71765700
_cell_length_c   6.30967300
_cell_angle_alpha   90.00000000
_cell_angle_beta   90.00000000
_cell_angle_gamma   90.00000000
_symmetry_Int_Tables_number   1
_chemical_formula_structural   Tm9Lu(Ir2Rh)2
_chemical_formula_sum   'Tm18 Lu2 Ir8 Rh4'
_cell_volume   724.78060071
_cell_formula_units_Z   2
loop_
 _symmetry_equiv_pos_site_id
 _symmetry_equiv_pos_as_xyz
  1  'x, y, z'
loop_
 _atom_site_type_symbol
 _atom_site_label
 _atom_site_symmetry_multiplicity
 _atom_site_fract_x
 _atom_site_fract_y
 _atom_site_fract_z
 _atom_site_occupancy
  Tm  Tm0  1  0.290424  0.088210  0.378018  1
  Tm  Tm1  1  0.290424  0.911790  0.878018  1
  Tm  Tm2  1  0.709576  0.088210  0.878018  1
  Tm  Tm3  1  0.709576  0.911790  0.378018  1
  Tm  Tm4  1  0.588279  0.790628  0.877990  1
  Tm  Tm5  1  0.588279  0.209372  0.377990  1
  Tm  Tm6  1  0.411721  0.790628  0.377990  1
  Tm  Tm7  1  0.411721  0.209372  0.877990  1
  Tm  Tm8  1  0.209372  0.411721  0.622010  1
  Tm  Tm9  1  0.209372  0.588279  0.122010  1
  Tm  Tm10  1  0.790628  0.411721  0.122010  1
  Tm  Tm11  1  0.790628  0.588279  0.622010  1
  Tm  Tm12  1  0.911790  0.709576  0.121982  1
  Tm  Tm13  1  0.911790  0.290424  0.621982  1
  Tm  Tm14  1  0.088210  0.709576  0.621982  1
  Tm  Tm15  1  0.088210  0.290424  0.121982  1
  Tm  Tm16  1  0.500000  0.500000  0.000000  1
  Tm  Tm17  1  0.500000  0.500000  0.500000  1
  Lu  Lu18  1  0.000000  0.000000  0.500000  1
  Lu  Lu19  1  0.000000  0.000000  0.000000  1
  Ir  Ir20  1  0.846412  0.153588  0.250000  1
  Ir  Ir21  1  0.846412  0.846412  0.750000  1
  Ir  Ir22  1  0.153588  0.153588  0.750000  1
  Ir  Ir23  1  0.153588  0.846412  0.250000  1
  Ir  Ir24  1  0.654050  0.345950  0.750000  1
  Ir  Ir25  1  0.654050  0.654050  0.250000  1
  Ir  Ir26  1  0.345950  0.345950  0.250000  1
  Ir  Ir27  1  0.345950  0.654050  0.750000  1
  Rh  Rh28  1  0.500000  0.000000  0.122884  1
  Rh  Rh29  1  0.500000  0.000000  0.622884  1
  Rh  Rh30  1  0.000000  0.500000  0.877116  1
  Rh  Rh31  1  0.000000  0.500000  0.377116  1
