# generated using pymatgen
data_Rb3LuSi2O7
_symmetry_space_group_name_H-M   'P 1'
_cell_length_a   5.76442200
_cell_length_b   5.76442210
_cell_length_c   14.06241300
_cell_angle_alpha   90.00000000
_cell_angle_beta   90.00000000
_cell_angle_gamma   119.99999945
_symmetry_Int_Tables_number   1
_chemical_formula_structural   Rb3LuSi2O7
_chemical_formula_sum   'Rb6 Lu2 Si4 O14'
_cell_volume   404.67094528
_cell_formula_units_Z   2
loop_
 _symmetry_equiv_pos_site_id
 _symmetry_equiv_pos_as_xyz
  1  'x, y, z'
loop_
 _atom_site_type_symbol
 _atom_site_label
 _atom_site_symmetry_multiplicity
 _atom_site_fract_x
 _atom_site_fract_y
 _atom_site_fract_z
 _atom_site_occupancy
  Rb  Rb0  1  0.666667  0.333333  0.900291  1
  Rb  Rb1  1  0.333333  0.666667  0.099709  1
  Rb  Rb2  1  0.666667  0.333333  0.599709  1
  Rb  Rb3  1  0.333333  0.666667  0.400291  1
  Rb  Rb4  1  0.000000  0.000000  0.750000  1
  Rb  Rb5  1  0.000000  0.000000  0.250000  1
  Lu  Lu6  1  0.000000  0.000000  0.000000  1
  Lu  Lu7  1  0.000000  0.000000  0.500000  1
  Si  Si8  1  0.666667  0.333333  0.369765  1
  Si  Si9  1  0.666667  0.333333  0.130235  1
  Si  Si10  1  0.333333  0.666667  0.869765  1
  Si  Si11  1  0.333333  0.666667  0.630235  1
  O  O12  1  0.177984  0.355970  0.593426  1
  O  O13  1  0.822016  0.177984  0.093426  1
  O  O14  1  0.644030  0.822016  0.906574  1
  O  O15  1  0.822016  0.644030  0.093426  1
  O  O16  1  0.177984  0.822016  0.906574  1
  O  O17  1  0.822016  0.644030  0.406574  1
  O  O18  1  0.822016  0.177984  0.406574  1
  O  O19  1  0.177984  0.822016  0.593426  1
  O  O20  1  0.644030  0.822016  0.593426  1
  O  O21  1  0.355970  0.177984  0.093426  1
  O  O22  1  0.666667  0.333333  0.250000  1
  O  O23  1  0.177984  0.355970  0.906574  1
  O  O24  1  0.355970  0.177984  0.406574  1
  O  O25  1  0.333333  0.666667  0.750000  1
