# generated using pymatgen
data_Er9Tm(Sn3Se)2
_symmetry_space_group_name_H-M   'P 1'
_cell_length_a   9.00416000
_cell_length_b   9.00415887
_cell_length_c   6.61373600
_cell_angle_alpha   90.00000000
_cell_angle_beta   90.00000000
_cell_angle_gamma   120.00000414
_symmetry_Int_Tables_number   1
_chemical_formula_structural   Er9Tm(Sn3Se)2
_chemical_formula_sum   'Er9 Tm1 Sn6 Se2'
_cell_volume   464.36964374
_cell_formula_units_Z   1
loop_
 _symmetry_equiv_pos_site_id
 _symmetry_equiv_pos_as_xyz
  1  'x, y, z'
loop_
 _atom_site_type_symbol
 _atom_site_label
 _atom_site_symmetry_multiplicity
 _atom_site_fract_x
 _atom_site_fract_y
 _atom_site_fract_z
 _atom_site_occupancy
  Er  Er0  1  0.333333  0.666667  0.000000  1
  Er  Er1  1  0.333333  0.666667  0.500000  1
  Er  Er2  1  0.666667  0.333333  0.500000  1
  Er  Er3  1  0.746513  0.745650  0.751163  1
  Er  Er4  1  0.254350  0.000862  0.751163  1
  Er  Er5  1  0.999138  0.253487  0.751163  1
  Er  Er6  1  0.254350  0.253487  0.248837  1
  Er  Er7  1  0.746513  0.000862  0.248837  1
  Er  Er8  1  0.999138  0.745650  0.248837  1
  Tm  Tm9  1  0.666667  0.333333  0.000000  1
  Sn  Sn10  1  0.396369  0.396248  0.750887  1
  Sn  Sn11  1  0.603752  0.000121  0.750887  1
  Sn  Sn12  1  0.999879  0.603631  0.750887  1
  Sn  Sn13  1  0.603752  0.603631  0.249113  1
  Sn  Sn14  1  0.396369  0.000121  0.249113  1
  Sn  Sn15  1  0.999879  0.396248  0.249113  1
  Se  Se16  1  0.000000  0.000000  0.000000  1
  Se  Se17  1  0.000000  0.000000  0.500000  1
