# generated using pymatgen
data_Ac5SmTl10
_symmetry_space_group_name_H-M   'P 1'
_cell_length_a   7.00679553
_cell_length_b   7.00679519
_cell_length_c   10.99637700
_cell_angle_alpha   90.00000000
_cell_angle_beta   90.00000000
_cell_angle_gamma   102.79054502
_symmetry_Int_Tables_number   1
_chemical_formula_structural   Ac5SmTl10
_chemical_formula_sum   'Ac5 Sm1 Tl10'
_cell_volume   526.47275548
_cell_formula_units_Z   1
loop_
 _symmetry_equiv_pos_site_id
 _symmetry_equiv_pos_as_xyz
  1  'x, y, z'
loop_
 _atom_site_type_symbol
 _atom_site_label
 _atom_site_symmetry_multiplicity
 _atom_site_fract_x
 _atom_site_fract_y
 _atom_site_fract_z
 _atom_site_occupancy
  Ac  Ac0  1  0.134417  0.134417  0.750000  1
  Ac  Ac1  1  0.704484  0.293031  0.001513  1
  Ac  Ac2  1  0.704484  0.293031  0.498487  1
  Ac  Ac3  1  0.293031  0.704484  0.001513  1
  Ac  Ac4  1  0.293031  0.704484  0.498487  1
  Sm  Sm5  1  0.854117  0.854117  0.250000  1
  Tl  Tl6  1  0.517239  0.517239  0.750000  1
  Tl  Tl7  1  0.490321  0.490321  0.250000  1
  Tl  Tl8  1  0.807203  0.807203  0.539717  1
  Tl  Tl9  1  0.187996  0.187996  0.437966  1
  Tl  Tl10  1  0.807203  0.807203  0.960283  1
  Tl  Tl11  1  0.187996  0.187996  0.062034  1
  Tl  Tl12  1  0.992767  0.579701  0.750000  1
  Tl  Tl13  1  0.443976  0.002037  0.250000  1
  Tl  Tl14  1  0.002037  0.443976  0.250000  1
  Tl  Tl15  1  0.579701  0.992767  0.750000  1
