# generated using pymatgen
data_Sr4Al12ZnAu9
_symmetry_space_group_name_H-M   'P 1'
_cell_length_a   11.95319300
_cell_length_b   11.95319120
_cell_length_c   4.28794100
_cell_angle_alpha   90.00000000
_cell_angle_beta   90.00000000
_cell_angle_gamma   120.00000222
_symmetry_Int_Tables_number   1
_chemical_formula_structural   Sr4Al12ZnAu9
_chemical_formula_sum   'Sr4 Al12 Zn1 Au9'
_cell_volume   530.57553553
_cell_formula_units_Z   1
loop_
 _symmetry_equiv_pos_site_id
 _symmetry_equiv_pos_as_xyz
  1  'x, y, z'
loop_
 _atom_site_type_symbol
 _atom_site_label
 _atom_site_symmetry_multiplicity
 _atom_site_fract_x
 _atom_site_fract_y
 _atom_site_fract_z
 _atom_site_occupancy
  Sr  Sr0  1  0.206731  0.793269  0.500000  1
  Sr  Sr1  1  0.586539  0.793269  0.500000  1
  Sr  Sr2  1  0.206731  0.413461  0.500000  1
  Sr  Sr3  1  0.666667  0.333333  0.000000  1
  Al  Al4  1  0.946344  0.288296  0.000000  1
  Al  Al5  1  0.711704  0.658047  0.000000  1
  Al  Al6  1  0.946344  0.658047  0.000000  1
  Al  Al7  1  0.341953  0.053656  0.000000  1
  Al  Al8  1  0.162187  0.081094  0.500000  1
  Al  Al9  1  0.918906  0.837813  0.500000  1
  Al  Al10  1  0.711704  0.053656  0.000000  1
  Al  Al11  1  0.534734  0.069468  0.500000  1
  Al  Al12  1  0.918906  0.081094  0.500000  1
  Al  Al13  1  0.341953  0.288296  0.000000  1
  Al  Al14  1  0.534734  0.465266  0.500000  1
  Al  Al15  1  0.930532  0.465266  0.500000  1
  Zn  Zn16  1  0.333333  0.666667  0.000000  1
  Au  Au17  1  0.461682  0.538318  0.000000  1
  Au  Au18  1  0.828574  0.914288  0.000000  1
  Au  Au19  1  0.461682  0.923363  0.000000  1
  Au  Au20  1  0.085712  0.171426  0.000000  1
  Au  Au21  1  0.085712  0.914288  0.000000  1
  Au  Au22  1  0.792569  0.585137  0.500000  1
  Au  Au23  1  0.076637  0.538318  0.000000  1
  Au  Au24  1  0.792569  0.207431  0.500000  1
  Au  Au25  1  0.414863  0.207431  0.500000  1
