# generated using pymatgen
data_Ac(PrSi2)2
_symmetry_space_group_name_H-M   'P 1'
_cell_length_a   4.02174141
_cell_length_b   4.63875419
_cell_length_c   9.56365499
_cell_angle_alpha   75.96468298
_cell_angle_beta   77.86229478
_cell_angle_gamma   89.99998353
_symmetry_Int_Tables_number   1
_chemical_formula_structural   Ac(PrSi2)2
_chemical_formula_sum   'Ac1 Pr2 Si4'
_cell_volume   168.97767604
_cell_formula_units_Z   1
loop_
 _symmetry_equiv_pos_site_id
 _symmetry_equiv_pos_as_xyz
  1  'x, y, z'
loop_
 _atom_site_type_symbol
 _atom_site_label
 _atom_site_symmetry_multiplicity
 _atom_site_fract_x
 _atom_site_fract_y
 _atom_site_fract_z
 _atom_site_occupancy
  Ac  Ac0  1  0.000001  0.000001  0.000000  1
  Pr  Pr1  1  0.682276  0.182276  0.635447  1
  Pr  Pr2  1  0.317725  0.817725  0.364552  1
  Si  Si3  1  0.853372  0.353372  0.293255  1
  Si  Si4  1  0.146627  0.646627  0.706746  1
  Si  Si5  1  0.567347  0.567347  0.865306  1
  Si  Si6  1  0.432654  0.432654  0.134695  1
