# generated using pymatgen
data_Sc4GaTc4Os3
_symmetry_space_group_name_H-M   'P 1'
_cell_length_a   5.15930661
_cell_length_b   5.24386782
_cell_length_c   8.68822000
_cell_angle_alpha   90.00000000
_cell_angle_beta   90.00000000
_cell_angle_gamma   120.14972573
_symmetry_Int_Tables_number   1
_chemical_formula_structural   Sc4GaTc4Os3
_chemical_formula_sum   'Sc4 Ga1 Tc4 Os3'
_cell_volume   203.25783730
_cell_formula_units_Z   1
loop_
 _symmetry_equiv_pos_site_id
 _symmetry_equiv_pos_as_xyz
  1  'x, y, z'
loop_
 _atom_site_type_symbol
 _atom_site_label
 _atom_site_symmetry_multiplicity
 _atom_site_fract_x
 _atom_site_fract_y
 _atom_site_fract_z
 _atom_site_occupancy
  Sc  Sc0  1  0.335029  0.667738  0.433841  1
  Sc  Sc1  1  0.664456  0.330058  0.557651  1
  Sc  Sc2  1  0.664456  0.330058  0.942349  1
  Sc  Sc3  1  0.335029  0.667738  0.066159  1
  Ga  Ga4  1  0.170850  0.344250  0.750000  1
  Tc  Tc5  1  0.183550  0.839318  0.750000  1
  Tc  Tc6  1  0.345792  0.176433  0.250000  1
  Tc  Tc7  1  0.832170  0.663895  0.250000  1
  Tc  Tc8  1  0.655076  0.839281  0.750000  1
  Os  Os9  1  0.991714  0.982857  0.997361  1
  Os  Os10  1  0.830163  0.175517  0.250000  1
  Os  Os11  1  0.991714  0.982857  0.502639  1
