# generated using pymatgen
data_Pr17Eu3Si16
_symmetry_space_group_name_H-M   'P 1'
_cell_length_a   7.94951891
_cell_length_b   7.93717683
_cell_length_c   15.31164600
_cell_angle_alpha   89.96811518
_cell_angle_beta   89.73518284
_cell_angle_gamma   90.10193066
_symmetry_Int_Tables_number   1
_chemical_formula_structural   Pr17Eu3Si16
_chemical_formula_sum   'Pr17 Eu3 Si16'
_cell_volume   966.10290273
_cell_formula_units_Z   1
loop_
 _symmetry_equiv_pos_site_id
 _symmetry_equiv_pos_as_xyz
  1  'x, y, z'
loop_
 _atom_site_type_symbol
 _atom_site_label
 _atom_site_symmetry_multiplicity
 _atom_site_fract_x
 _atom_site_fract_y
 _atom_site_fract_z
 _atom_site_occupancy
  Pr  Pr0  1  0.691744  0.690332  0.499694  1
  Pr  Pr1  1  0.376753  0.010977  0.448077  1
  Pr  Pr2  1  0.490271  0.875456  0.698368  1
  Pr  Pr3  1  0.511070  0.122589  0.197911  1
  Pr  Pr4  1  0.875803  0.489805  0.301320  1
  Pr  Pr5  1  0.122197  0.511577  0.802106  1
  Pr  Pr6  1  0.623934  0.989831  0.948363  1
  Pr  Pr7  1  0.010259  0.377568  0.551595  1
  Pr  Pr8  1  0.989921  0.623574  0.051919  1
  Pr  Pr9  1  0.125747  0.983593  0.876314  1
  Pr  Pr10  1  0.515575  0.628135  0.126105  1
  Pr  Pr11  1  0.481905  0.373077  0.625991  1
  Pr  Pr12  1  0.626980  0.515057  0.873881  1
  Pr  Pr13  1  0.372517  0.482006  0.373944  1
  Pr  Pr14  1  0.874258  0.017412  0.375941  1
  Pr  Pr15  1  0.984101  0.125786  0.123946  1
  Pr  Pr16  1  0.017693  0.875211  0.623726  1
  Eu  Eu17  1  0.308565  0.308235  0.000064  1
  Eu  Eu18  1  0.191803  0.808554  0.250292  1
  Eu  Eu19  1  0.808696  0.191029  0.749849  1
  Si  Si20  1  0.333009  0.699080  0.950590  1
  Si  Si21  1  0.667311  0.303314  0.451366  1
  Si  Si22  1  0.699453  0.333018  0.049477  1
  Si  Si23  1  0.303578  0.667998  0.548718  1
  Si  Si24  1  0.800521  0.833695  0.200671  1
  Si  Si25  1  0.166276  0.200206  0.298669  1
  Si  Si26  1  0.834342  0.799835  0.799507  1
  Si  Si27  1  0.288293  0.919766  0.058289  1
  Si  Si28  1  0.580955  0.787417  0.309930  1
  Si  Si29  1  0.420489  0.211098  0.809183  1
  Si  Si30  1  0.787071  0.581686  0.690114  1
  Si  Si31  1  0.212356  0.420323  0.190591  1
  Si  Si32  1  0.709447  0.076614  0.558544  1
  Si  Si33  1  0.919484  0.288439  0.941585  1
  Si  Si34  1  0.077795  0.710773  0.441528  1
  Si  Si35  1  0.199831  0.166932  0.701832  1
