# generated using pymatgen
data_Er5ThCoNi
_symmetry_space_group_name_H-M   'P 1'
_cell_length_a   6.26804500
_cell_length_b   6.86956500
_cell_length_c   9.49845700
_cell_angle_alpha   90.00000000
_cell_angle_beta   90.00000000
_cell_angle_gamma   90.00000000
_symmetry_Int_Tables_number   1
_chemical_formula_structural   Er5ThCoNi
_chemical_formula_sum   'Er10 Th2 Co2 Ni2'
_cell_volume   408.99161459
_cell_formula_units_Z   2
loop_
 _symmetry_equiv_pos_site_id
 _symmetry_equiv_pos_as_xyz
  1  'x, y, z'
loop_
 _atom_site_type_symbol
 _atom_site_label
 _atom_site_symmetry_multiplicity
 _atom_site_fract_x
 _atom_site_fract_y
 _atom_site_fract_z
 _atom_site_occupancy
  Er  Er0  1  0.328540  0.675582  0.068708  1
  Er  Er1  1  0.171460  0.175582  0.431292  1
  Er  Er2  1  0.675270  0.323575  0.568305  1
  Er  Er3  1  0.824730  0.823575  0.931695  1
  Er  Er4  1  0.675270  0.323575  0.931695  1
  Er  Er5  1  0.824730  0.823575  0.568305  1
  Er  Er6  1  0.328540  0.675582  0.431292  1
  Er  Er7  1  0.171460  0.175582  0.068708  1
  Er  Er8  1  0.143812  0.465911  0.750000  1
  Er  Er9  1  0.356188  0.965911  0.750000  1
  Th  Th10  1  0.848734  0.550613  0.250000  1
  Th  Th11  1  0.651266  0.050613  0.250000  1
  Co  Co12  1  0.034241  0.873111  0.250000  1
  Co  Co13  1  0.465759  0.373111  0.250000  1
  Ni  Ni14  1  0.944281  0.112052  0.750000  1
  Ni  Ni15  1  0.555719  0.612052  0.750000  1
