# generated using pymatgen
data_TmLuMg2(PaNi2)2
_symmetry_space_group_name_H-M   'P 1'
_cell_length_a   7.39858160
_cell_length_b   7.39858073
_cell_length_c   3.53024300
_cell_angle_alpha   90.00000000
_cell_angle_beta   90.00000000
_cell_angle_gamma   93.49594344
_symmetry_Int_Tables_number   1
_chemical_formula_structural   TmLuMg2(PaNi2)2
_chemical_formula_sum   'Tm1 Lu1 Mg2 Pa2 Ni4'
_cell_volume   192.88238247
_cell_formula_units_Z   1
loop_
 _symmetry_equiv_pos_site_id
 _symmetry_equiv_pos_as_xyz
  1  'x, y, z'
loop_
 _atom_site_type_symbol
 _atom_site_label
 _atom_site_symmetry_multiplicity
 _atom_site_fract_x
 _atom_site_fract_y
 _atom_site_fract_z
 _atom_site_occupancy
  Tm  Tm0  1  0.832275  0.667725  0.500000  1
  Lu  Lu1  1  0.168489  0.331511  0.500000  1
  Mg  Mg2  1  0.999656  0.000186  0.000000  1
  Mg  Mg3  1  0.499814  0.500344  0.000000  1
  Pa  Pa4  1  0.671091  0.171915  0.500000  1
  Pa  Pa5  1  0.328085  0.828909  0.500000  1
  Ni  Ni6  1  0.136666  0.634045  0.000000  1
  Ni  Ni7  1  0.865955  0.363334  0.000000  1
  Ni  Ni8  1  0.618172  0.881828  0.000000  1
  Ni  Ni9  1  0.379798  0.120202  0.000000  1
