# generated using pymatgen
data_Dy5Si9As3Ir19
_symmetry_space_group_name_H-M   'P 1'
_cell_length_a   12.95386200
_cell_length_b   12.95386237
_cell_length_c   3.97013700
_cell_angle_alpha   90.00000000
_cell_angle_beta   90.00000000
_cell_angle_gamma   119.99999905
_symmetry_Int_Tables_number   1
_chemical_formula_structural   Dy5Si9As3Ir19
_chemical_formula_sum   'Dy5 Si9 As3 Ir19'
_cell_volume   576.94534560
_cell_formula_units_Z   1
loop_
 _symmetry_equiv_pos_site_id
 _symmetry_equiv_pos_as_xyz
  1  'x, y, z'
loop_
 _atom_site_type_symbol
 _atom_site_label
 _atom_site_symmetry_multiplicity
 _atom_site_fract_x
 _atom_site_fract_y
 _atom_site_fract_z
 _atom_site_occupancy
  Dy  Dy0  1  0.333333  0.666667  0.500000  1
  Dy  Dy1  1  0.666667  0.333333  0.500000  1
  Dy  Dy2  1  0.000000  0.809782  0.000000  1
  Dy  Dy3  1  0.190218  0.190218  0.000000  1
  Dy  Dy4  1  0.809782  0.000000  0.000000  1
  Si  Si5  1  0.000000  0.631285  0.500000  1
  Si  Si6  1  0.368715  0.368715  0.500000  1
  Si  Si7  1  0.631285  0.000000  0.500000  1
  Si  Si8  1  0.516010  0.686509  0.000000  1
  Si  Si9  1  0.313491  0.829501  0.000000  1
  Si  Si10  1  0.170499  0.483990  0.000000  1
  Si  Si11  1  0.483990  0.170499  0.000000  1
  Si  Si12  1  0.686509  0.516010  0.000000  1
  Si  Si13  1  0.829501  0.313491  0.000000  1
  As  As14  1  0.000000  0.180148  0.500000  1
  As  As15  1  0.819852  0.819852  0.500000  1
  As  As16  1  0.180148  0.000000  0.500000  1
  Ir  Ir17  1  0.511999  0.873108  0.000000  1
  Ir  Ir18  1  0.126892  0.638890  0.000000  1
  Ir  Ir19  1  0.361110  0.488001  0.000000  1
  Ir  Ir20  1  0.488001  0.361110  0.000000  1
  Ir  Ir21  1  0.873108  0.511999  0.000000  1
  Ir  Ir22  1  0.638890  0.126892  0.000000  1
  Ir  Ir23  1  0.000000  0.448140  0.500000  1
  Ir  Ir24  1  0.551860  0.551860  0.500000  1
  Ir  Ir25  1  0.448140  0.000000  0.500000  1
  Ir  Ir26  1  0.000000  0.288885  0.000000  1
  Ir  Ir27  1  0.711115  0.711115  0.000000  1
  Ir  Ir28  1  0.288885  0.000000  0.000000  1
  Ir  Ir29  1  0.620753  0.804445  0.500000  1
  Ir  Ir30  1  0.195555  0.816308  0.500000  1
  Ir  Ir31  1  0.183692  0.379247  0.500000  1
  Ir  Ir32  1  0.379247  0.183692  0.500000  1
  Ir  Ir33  1  0.804445  0.620753  0.500000  1
  Ir  Ir34  1  0.816308  0.195555  0.500000  1
  Ir  Ir35  1  0.000000  0.000000  0.500000  1
