# generated using pymatgen
data_Ca2ErSi2GeRh6
_symmetry_space_group_name_H-M   'P 1'
_cell_length_a   5.62221800
_cell_length_b   5.62221697
_cell_length_c   15.11300500
_cell_angle_alpha   90.00000000
_cell_angle_beta   90.00000000
_cell_angle_gamma   119.99999430
_symmetry_Int_Tables_number   1
_chemical_formula_structural   Ca2ErSi2GeRh6
_chemical_formula_sum   'Ca4 Er2 Si4 Ge2 Rh12'
_cell_volume   413.71071151
_cell_formula_units_Z   2
loop_
 _symmetry_equiv_pos_site_id
 _symmetry_equiv_pos_as_xyz
  1  'x, y, z'
loop_
 _atom_site_type_symbol
 _atom_site_label
 _atom_site_symmetry_multiplicity
 _atom_site_fract_x
 _atom_site_fract_y
 _atom_site_fract_z
 _atom_site_occupancy
  Ca  Ca0  1  0.333333  0.666667  0.539076  1
  Ca  Ca1  1  0.666667  0.333333  0.460924  1
  Ca  Ca2  1  0.333333  0.666667  0.747167  1
  Ca  Ca3  1  0.666667  0.333333  0.252833  1
  Er  Er4  1  0.666667  0.333333  0.041461  1
  Er  Er5  1  0.333333  0.666667  0.958539  1
  Si  Si6  1  0.000000  0.000000  0.247339  1
  Si  Si7  1  0.000000  0.000000  0.752661  1
  Si  Si8  1  0.333333  0.666667  0.248095  1
  Si  Si9  1  0.666667  0.333333  0.751905  1
  Ge  Ge10  1  0.000000  0.000000  0.000000  1
  Ge  Ge11  1  0.000000  0.000000  0.500000  1
  Rh  Rh12  1  0.167420  0.334839  0.130715  1
  Rh  Rh13  1  0.832580  0.665161  0.869285  1
  Rh  Rh14  1  0.665161  0.832580  0.130715  1
  Rh  Rh15  1  0.834013  0.668027  0.636310  1
  Rh  Rh16  1  0.334839  0.167420  0.869285  1
  Rh  Rh17  1  0.165987  0.331973  0.363690  1
  Rh  Rh18  1  0.167420  0.832580  0.130715  1
  Rh  Rh19  1  0.331973  0.165987  0.636310  1
  Rh  Rh20  1  0.832580  0.167420  0.869285  1
  Rh  Rh21  1  0.668027  0.834013  0.363690  1
  Rh  Rh22  1  0.834013  0.165987  0.636310  1
  Rh  Rh23  1  0.165987  0.834013  0.363690  1
