# generated using pymatgen
data_NdDy3CdIr
_symmetry_space_group_name_H-M   'P 1'
_cell_length_a   9.73524046
_cell_length_b   9.69631158
_cell_length_c   9.69633141
_cell_angle_alpha   59.97002806
_cell_angle_beta   59.86758807
_cell_angle_gamma   59.86774176
_symmetry_Int_Tables_number   1
_chemical_formula_structural   NdDy3CdIr
_chemical_formula_sum   'Nd4 Dy12 Cd4 Ir4'
_cell_volume   645.76726598
_cell_formula_units_Z   4
loop_
 _symmetry_equiv_pos_site_id
 _symmetry_equiv_pos_as_xyz
  1  'x, y, z'
loop_
 _atom_site_type_symbol
 _atom_site_label
 _atom_site_symmetry_multiplicity
 _atom_site_fract_x
 _atom_site_fract_y
 _atom_site_fract_z
 _atom_site_occupancy
  Nd  Nd0  1  0.563550  0.937332  0.561201  1
  Nd  Nd1  1  0.937916  0.561201  0.937335  1
  Nd  Nd2  1  0.563549  0.561199  0.937334  1
  Nd  Nd3  1  0.937917  0.937340  0.561200  1
  Dy  Dy4  1  0.351170  0.347975  0.347974  1
  Dy  Dy5  1  0.345936  0.352437  0.955699  1
  Dy  Dy6  1  0.345936  0.955697  0.352438  1
  Dy  Dy7  1  0.952881  0.347977  0.347978  1
  Dy  Dy8  1  0.813147  0.186848  0.186849  1
  Dy  Dy9  1  0.187093  0.812907  0.812909  1
  Dy  Dy10  1  0.191227  0.811266  0.187340  1
  Dy  Dy11  1  0.810161  0.187340  0.811272  1
  Dy  Dy12  1  0.191229  0.187338  0.811266  1
  Dy  Dy13  1  0.810165  0.811269  0.187340  1
  Dy  Dy14  1  0.946605  0.553394  0.553393  1
  Dy  Dy15  1  0.553873  0.946128  0.946128  1
  Cd  Cd16  1  0.583629  0.577779  0.577778  1
  Cd  Cd17  1  0.579447  0.583703  0.257403  1
  Cd  Cd18  1  0.579447  0.257404  0.583702  1
  Cd  Cd19  1  0.260811  0.577775  0.577775  1
  Ir  Ir20  1  0.144775  0.140287  0.140286  1
  Ir  Ir21  1  0.137442  0.149026  0.576088  1
  Ir  Ir22  1  0.137443  0.576088  0.149024  1
  Ir  Ir23  1  0.574649  0.140286  0.140287  1
