# generated using pymatgen
data_LiHf3(ZnRh3)2
_symmetry_space_group_name_H-M   'P 1'
_cell_length_a   4.46488500
_cell_length_b   6.23822700
_cell_length_c   13.32518200
_cell_angle_alpha   90.00000000
_cell_angle_beta   90.00000000
_cell_angle_gamma   90.00000000
_symmetry_Int_Tables_number   1
_chemical_formula_structural   LiHf3(ZnRh3)2
_chemical_formula_sum   'Li2 Hf6 Zn4 Rh12'
_cell_volume   371.14584331
_cell_formula_units_Z   2
loop_
 _symmetry_equiv_pos_site_id
 _symmetry_equiv_pos_as_xyz
  1  'x, y, z'
loop_
 _atom_site_type_symbol
 _atom_site_label
 _atom_site_symmetry_multiplicity
 _atom_site_fract_x
 _atom_site_fract_y
 _atom_site_fract_z
 _atom_site_occupancy
  Li  Li0  1  0.000154  0.500000  0.667299  1
  Li  Li1  1  0.500153  0.000000  0.832701  1
  Hf  Hf2  1  0.999995  0.000000  0.998101  1
  Hf  Hf3  1  0.499879  0.500000  0.165287  1
  Hf  Hf4  1  0.999877  0.000000  0.334712  1
  Hf  Hf5  1  0.499996  0.500000  0.501899  1
  Hf  Hf6  1  0.000107  0.000000  0.667073  1
  Hf  Hf7  1  0.500105  0.500000  0.832928  1
  Zn  Zn8  1  0.999984  0.500000  0.999482  1
  Zn  Zn9  1  0.499876  0.000000  0.166391  1
  Zn  Zn10  1  0.999875  0.500000  0.333609  1
  Zn  Zn11  1  0.499985  0.000000  0.500518  1
  Rh  Rh12  1  0.500000  0.248745  0.999486  1
  Rh  Rh13  1  0.500000  0.751255  0.999486  1
  Rh  Rh14  1  0.999878  0.250127  0.167034  1
  Rh  Rh15  1  0.999878  0.749873  0.167034  1
  Rh  Rh16  1  0.499879  0.249873  0.332966  1
  Rh  Rh17  1  0.499879  0.750127  0.332966  1
  Rh  Rh18  1  0.999999  0.251255  0.500514  1
  Rh  Rh19  1  0.999999  0.748745  0.500514  1
  Rh  Rh20  1  0.500126  0.249889  0.667263  1
  Rh  Rh21  1  0.500126  0.750111  0.667263  1
  Rh  Rh22  1  0.000127  0.250111  0.832737  1
  Rh  Rh23  1  0.000127  0.749889  0.832737  1
