# generated using pymatgen
data_Ho7Mg3(SiPb3)2
_symmetry_space_group_name_H-M   'P 1'
_cell_length_a   9.24013400
_cell_length_b   9.24013333
_cell_length_c   6.40678400
_cell_angle_alpha   90.00000000
_cell_angle_beta   90.00000000
_cell_angle_gamma   120.00000241
_symmetry_Int_Tables_number   1
_chemical_formula_structural   Ho7Mg3(SiPb3)2
_chemical_formula_sum   'Ho7 Mg3 Si2 Pb6'
_cell_volume   473.72598835
_cell_formula_units_Z   1
loop_
 _symmetry_equiv_pos_site_id
 _symmetry_equiv_pos_as_xyz
  1  'x, y, z'
loop_
 _atom_site_type_symbol
 _atom_site_label
 _atom_site_symmetry_multiplicity
 _atom_site_fract_x
 _atom_site_fract_y
 _atom_site_fract_z
 _atom_site_occupancy
  Ho  Ho0  1  0.251117  0.997534  0.249204  1
  Ho  Ho1  1  0.002466  0.748883  0.750796  1
  Ho  Ho2  1  0.002466  0.253582  0.249204  1
  Ho  Ho3  1  0.746418  0.997534  0.750796  1
  Ho  Ho4  1  0.251117  0.253582  0.750796  1
  Ho  Ho5  1  0.666667  0.333333  0.000000  1
  Ho  Ho6  1  0.746418  0.748883  0.249204  1
  Mg  Mg7  1  0.333333  0.666667  0.500000  1
  Mg  Mg8  1  0.666667  0.333333  0.500000  1
  Mg  Mg9  1  0.333333  0.666667  0.000000  1
  Si  Si10  1  0.000000  0.000000  0.000000  1
  Si  Si11  1  0.000000  0.000000  0.500000  1
  Pb  Pb12  1  0.604968  0.000074  0.243983  1
  Pb  Pb13  1  0.395107  0.000074  0.756017  1
  Pb  Pb14  1  0.999926  0.604893  0.243983  1
  Pb  Pb15  1  0.604968  0.604893  0.756017  1
  Pb  Pb16  1  0.395107  0.395032  0.243983  1
  Pb  Pb17  1  0.999926  0.395032  0.756017  1
