# generated using pymatgen
data_Tb10Dy2InCo4Ru
_symmetry_space_group_name_H-M   'P 1'
_cell_length_a   8.32534090
_cell_length_b   8.32825204
_cell_length_c   8.32825213
_cell_angle_alpha   111.12771611
_cell_angle_beta   110.37502357
_cell_angle_gamma   106.95450226
_symmetry_Int_Tables_number   1
_chemical_formula_structural   Tb10Dy2InCo4Ru
_chemical_formula_sum   'Tb10 Dy2 In1 Co4 Ru1'
_cell_volume   443.77979527
_cell_formula_units_Z   1
loop_
 _symmetry_equiv_pos_site_id
 _symmetry_equiv_pos_as_xyz
  1  'x, y, z'
loop_
 _atom_site_type_symbol
 _atom_site_label
 _atom_site_symmetry_multiplicity
 _atom_site_fract_x
 _atom_site_fract_y
 _atom_site_fract_z
 _atom_site_occupancy
  Tb  Tb0  1  0.019384  0.211896  0.807486  1
  Tb  Tb1  1  0.980616  0.788104  0.192514  1
  Tb  Tb2  1  0.185198  0.290375  0.475282  1
  Tb  Tb3  1  0.814802  0.709625  0.524718  1
  Tb  Tb4  1  0.185198  0.709917  0.894823  1
  Tb  Tb5  1  0.814802  0.290083  0.105177  1
  Tb  Tb6  1  0.314587  0.619194  0.305640  1
  Tb  Tb7  1  0.685413  0.380806  0.694360  1
  Tb  Tb8  1  0.314587  0.008949  0.695394  1
  Tb  Tb9  1  0.685413  0.991051  0.304606  1
  Dy  Dy10  1  0.404804  0.212068  0.192737  1
  Dy  Dy11  1  0.595196  0.787932  0.807263  1
  In  In12  1  0.500000  0.500000  0.000000  1
  Co  Co13  1  0.379037  0.000087  0.378950  1
  Co  Co14  1  0.620963  0.999913  0.621050  1
  Co  Co15  1  0.112202  0.611767  0.500435  1
  Co  Co16  1  0.887798  0.388233  0.499565  1
  Ru  Ru17  1  0.000000  0.000000  0.000000  1
