# generated using pymatgen
data_Tb10Ga5BiCl2
_symmetry_space_group_name_H-M   'P 1'
_cell_length_a   8.87864154
_cell_length_b   8.85079858
_cell_length_c   6.64307000
_cell_angle_alpha   90.00000000
_cell_angle_beta   90.00000000
_cell_angle_gamma   119.89632146
_symmetry_Int_Tables_number   1
_chemical_formula_structural   Tb10Ga5BiCl2
_chemical_formula_sum   'Tb10 Ga5 Bi1 Cl2'
_cell_volume   452.56526145
_cell_formula_units_Z   1
loop_
 _symmetry_equiv_pos_site_id
 _symmetry_equiv_pos_as_xyz
  1  'x, y, z'
loop_
 _atom_site_type_symbol
 _atom_site_label
 _atom_site_symmetry_multiplicity
 _atom_site_fract_x
 _atom_site_fract_y
 _atom_site_fract_z
 _atom_site_occupancy
  Tb  Tb0  1  0.654832  0.332269  0.494711  1
  Tb  Tb1  1  0.345168  0.677437  0.494711  1
  Tb  Tb2  1  0.345168  0.677437  0.005289  1
  Tb  Tb3  1  0.654832  0.332269  0.005289  1
  Tb  Tb4  1  0.738304  0.736167  0.250000  1
  Tb  Tb5  1  0.261696  0.997863  0.250000  1
  Tb  Tb6  1  0.000000  0.261946  0.250000  1
  Tb  Tb7  1  0.273270  0.257291  0.750000  1
  Tb  Tb8  1  0.726730  0.984021  0.750000  1
  Tb  Tb9  1  0.000000  0.747434  0.750000  1
  Ga  Ga10  1  0.392178  0.392239  0.250000  1
  Ga  Ga11  1  0.607822  0.000061  0.250000  1
  Ga  Ga12  1  0.000000  0.607146  0.250000  1
  Ga  Ga13  1  0.606902  0.604056  0.750000  1
  Ga  Ga14  1  0.393098  0.997154  0.750000  1
  Bi  Bi15  1  0.000000  0.389979  0.750000  1
  Cl  Cl16  1  0.000000  0.002616  0.500931  1
  Cl  Cl17  1  0.000000  0.002616  0.999069  1
