# generated using pymatgen
data_Ho20IrPd3Rh8
_symmetry_space_group_name_H-M   'P 1'
_cell_length_a   10.93386406
_cell_length_b   10.93376745
_cell_length_c   6.31293300
_cell_angle_alpha   89.99478594
_cell_angle_beta   89.99391611
_cell_angle_gamma   90.20266691
_symmetry_Int_Tables_number   1
_chemical_formula_structural   Ho20IrPd3Rh8
_chemical_formula_sum   'Ho20 Ir1 Pd3 Rh8'
_cell_volume   754.69584949
_cell_formula_units_Z   1
loop_
 _symmetry_equiv_pos_site_id
 _symmetry_equiv_pos_as_xyz
  1  'x, y, z'
loop_
 _atom_site_type_symbol
 _atom_site_label
 _atom_site_symmetry_multiplicity
 _atom_site_fract_x
 _atom_site_fract_y
 _atom_site_fract_z
 _atom_site_occupancy
  Ho  Ho0  1  0.293109  0.086454  0.368187  1
  Ho  Ho1  1  0.292821  0.905422  0.876768  1
  Ho  Ho2  1  0.705011  0.090616  0.870925  1
  Ho  Ho3  1  0.702955  0.908680  0.370035  1
  Ho  Ho4  1  0.582631  0.789072  0.877454  1
  Ho  Ho5  1  0.585518  0.209801  0.377630  1
  Ho  Ho6  1  0.408785  0.789269  0.379611  1
  Ho  Ho7  1  0.413670  0.209944  0.876319  1
  Ho  Ho8  1  0.210974  0.417416  0.622515  1
  Ho  Ho9  1  0.210761  0.591278  0.120258  1
  Ho  Ho10  1  0.790205  0.414469  0.122476  1
  Ho  Ho11  1  0.790121  0.586310  0.623598  1
  Ho  Ho12  1  0.913631  0.706888  0.131685  1
  Ho  Ho13  1  0.909384  0.294917  0.629114  1
  Ho  Ho14  1  0.094554  0.707155  0.623287  1
  Ho  Ho15  1  0.091361  0.297008  0.129921  1
  Ho  Ho16  1  0.000697  0.997215  0.500312  1
  Ho  Ho17  1  0.002826  0.999307  0.999453  1
  Ho  Ho18  1  0.499542  0.499314  0.001189  1
  Ho  Ho19  1  0.500688  0.500436  0.498620  1
  Ir  Ir20  1  0.346906  0.653089  0.749925  1
  Pd  Pd21  1  0.846218  0.153882  0.249997  1
  Pd  Pd22  1  0.843270  0.844046  0.750240  1
  Pd  Pd23  1  0.155982  0.156745  0.749670  1
  Rh  Rh24  1  0.151766  0.848232  0.250220  1
  Rh  Rh25  1  0.655061  0.345030  0.750091  1
  Rh  Rh26  1  0.657431  0.654921  0.248181  1
  Rh  Rh27  1  0.345309  0.342643  0.251605  1
  Rh  Rh28  1  0.500253  0.000102  0.121520  1
  Rh  Rh29  1  0.499799  0.000845  0.622532  1
  Rh  Rh30  1  0.998992  0.499891  0.877887  1
  Rh  Rh31  1  0.999770  0.499603  0.378776  1
