# generated using pymatgen
data_Ca(S8Br)3
_symmetry_space_group_name_H-M   'P 1'
_cell_length_a   15.12918048
_cell_length_b   15.12918067
_cell_length_c   15.12918085
_cell_angle_alpha   119.09741402
_cell_angle_beta   119.09741235
_cell_angle_gamma   119.09740507
_symmetry_Int_Tables_number   1
_chemical_formula_structural   Ca(S8Br)3
_chemical_formula_sum   'Ca1 S24 Br3'
_cell_volume   852.10268247
_cell_formula_units_Z   1
loop_
 _symmetry_equiv_pos_site_id
 _symmetry_equiv_pos_as_xyz
  1  'x, y, z'
loop_
 _atom_site_type_symbol
 _atom_site_label
 _atom_site_symmetry_multiplicity
 _atom_site_fract_x
 _atom_site_fract_y
 _atom_site_fract_z
 _atom_site_occupancy
  Ca  Ca0  1  0.449769  0.449769  0.449769  1
  S  S1  1  0.004128  0.600880  0.600880  1
  S  S2  1  0.600880  0.600880  0.004128  1
  S  S3  1  0.600880  0.004128  0.600880  1
  S  S4  1  0.249899  0.859584  0.731128  1
  S  S5  1  0.859584  0.731128  0.249899  1
  S  S6  1  0.731128  0.249899  0.859584  1
  S  S7  1  0.859584  0.249899  0.731128  1
  S  S8  1  0.249899  0.731128  0.859584  1
  S  S9  1  0.731128  0.859584  0.249899  1
  S  S10  1  0.086472  0.612155  0.431282  1
  S  S11  1  0.612155  0.431282  0.086472  1
  S  S12  1  0.431282  0.086472  0.612155  1
  S  S13  1  0.612155  0.086472  0.431282  1
  S  S14  1  0.086472  0.431282  0.612155  1
  S  S15  1  0.431282  0.612155  0.086472  1
  S  S16  1  0.369595  0.754381  0.624950  1
  S  S17  1  0.754381  0.624950  0.369595  1
  S  S18  1  0.624950  0.369595  0.754381  1
  S  S19  1  0.754381  0.369595  0.624950  1
  S  S20  1  0.369595  0.624950  0.754381  1
  S  S21  1  0.624950  0.754381  0.369595  1
  S  S22  1  0.174645  0.449470  0.449470  1
  S  S23  1  0.449470  0.449470  0.174645  1
  S  S24  1  0.449470  0.174645  0.449470  1
  Br  Br25  1  0.052668  0.913150  0.913150  1
  Br  Br26  1  0.913150  0.913150  0.052668  1
  Br  Br27  1  0.913150  0.052668  0.913150  1
