# generated using pymatgen
data_Hf6Ti2Al14GeIr7
_symmetry_space_group_name_H-M   'P 1'
_cell_length_a   8.78399367
_cell_length_b   8.78388670
_cell_length_c   8.78383397
_cell_angle_alpha   120.09818776
_cell_angle_beta   119.76756774
_cell_angle_gamma   90.11667460
_symmetry_Int_Tables_number   1
_chemical_formula_structural   Hf6Ti2Al14GeIr7
_chemical_formula_sum   'Hf6 Ti2 Al14 Ge1 Ir7'
_cell_volume   479.71383719
_cell_formula_units_Z   1
loop_
 _symmetry_equiv_pos_site_id
 _symmetry_equiv_pos_as_xyz
  1  'x, y, z'
loop_
 _atom_site_type_symbol
 _atom_site_label
 _atom_site_symmetry_multiplicity
 _atom_site_fract_x
 _atom_site_fract_y
 _atom_site_fract_z
 _atom_site_occupancy
  Hf  Hf0  1  0.797362  0.294409  0.083732  1
  Hf  Hf1  1  0.210658  0.294360  0.497011  1
  Hf  Hf2  1  0.204382  0.704417  0.499993  1
  Hf  Hf3  1  0.210645  0.713670  0.916291  1
  Hf  Hf4  1  0.797365  0.713615  0.502950  1
  Hf  Hf5  1  0.788271  0.288278  0.499986  1
  Ti  Ti6  1  0.380396  0.123473  0.743087  1
  Ti  Ti7  1  0.380379  0.637318  0.256930  1
  Al  Al8  1  0.163090  0.336319  0.173238  1
  Al  Al9  1  0.163109  0.989912  0.826783  1
  Al  Al10  1  0.159150  0.338523  0.820586  1
  Al  Al11  1  0.517922  0.338523  0.179377  1
  Al  Al12  1  0.836475  0.662172  0.825672  1
  Al  Al13  1  0.836493  0.010807  0.174310  1
  Al  Al14  1  0.835824  0.662761  0.173066  1
  Al  Al15  1  0.489679  0.662741  0.826913  1
  Al  Al16  1  0.381073  0.120441  0.260634  1
  Al  Al17  1  0.859797  0.120438  0.739358  1
  Al  Al18  1  0.619360  0.878208  0.258861  1
  Al  Al19  1  0.619352  0.360484  0.741149  1
  Al  Al20  1  0.618353  0.878516  0.739870  1
  Al  Al21  1  0.138658  0.878533  0.260168  1
  Ge  Ge22  1  0.996191  0.496129  0.500040  1
  Ir  Ir23  1  0.001283  0.000240  0.501567  1
  Ir  Ir24  1  0.498689  0.000219  0.998954  1
  Ir  Ir25  1  0.498053  0.498053  0.999995  1
  Ir  Ir26  1  0.498689  0.499707  0.498429  1
  Ir  Ir27  1  0.001293  0.499738  0.001041  1
  Ir  Ir28  1  0.000241  0.000213  0.999966  1
  Ir  Ir29  1  0.497757  0.997781  0.500040  1
