# generated using pymatgen
data_KCrSnSe4
_symmetry_space_group_name_H-M   'P 1'
_cell_length_a   3.85830000
_cell_length_b   8.33594664
_cell_length_c   6.59544009
_cell_angle_alpha   74.23850892
_cell_angle_beta   90.00000000
_cell_angle_gamma   90.00000687
_symmetry_Int_Tables_number   1
_chemical_formula_structural   KCrSnSe4
_chemical_formula_sum   'K1 Cr1 Sn1 Se4'
_cell_volume   204.15060172
_cell_formula_units_Z   1
loop_
 _symmetry_equiv_pos_site_id
 _symmetry_equiv_pos_as_xyz
  1  'x, y, z'
loop_
 _atom_site_type_symbol
 _atom_site_label
 _atom_site_symmetry_multiplicity
 _atom_site_fract_x
 _atom_site_fract_y
 _atom_site_fract_z
 _atom_site_occupancy
  K  K0  1  0.500000  0.494495  0.655807  1
  Cr  Cr1  1  0.500000  0.003990  0.501380  1
  Sn  Sn2  1  0.000000  0.997245  0.001965  1
  Se  Se3  1  0.000000  0.825749  0.416212  1
  Se  Se4  1  0.500000  0.811747  0.878295  1
  Se  Se5  1  0.000000  0.179433  0.591659  1
  Se  Se6  1  0.500000  0.186461  0.121643  1
