# generated using pymatgen
data_Na2Er3Si5P7Ir19
_symmetry_space_group_name_H-M   'P 1'
_cell_length_a   12.75474500
_cell_length_b   12.77993604
_cell_length_c   3.94015300
_cell_angle_alpha   90.00000000
_cell_angle_beta   90.00000000
_cell_angle_gamma   120.06505963
_symmetry_Int_Tables_number   1
_chemical_formula_structural   Na2Er3Si5P7Ir19
_chemical_formula_sum   'Na2 Er3 Si5 P7 Ir19'
_cell_volume   555.85189229
_cell_formula_units_Z   1
loop_
 _symmetry_equiv_pos_site_id
 _symmetry_equiv_pos_as_xyz
  1  'x, y, z'
loop_
 _atom_site_type_symbol
 _atom_site_label
 _atom_site_symmetry_multiplicity
 _atom_site_fract_x
 _atom_site_fract_y
 _atom_site_fract_z
 _atom_site_occupancy
  Na  Na0  1  0.818960  0.817466  0.500000  1
  Na  Na1  1  0.180742  0.999070  0.500000  1
  Er  Er2  1  0.669363  0.333042  0.000000  1
  Er  Er3  1  0.331648  0.665717  0.000000  1
  Er  Er4  1  0.999575  0.178531  0.500000  1
  Si  Si5  1  0.684752  0.164676  0.500000  1
  Si  Si6  1  0.833596  0.519853  0.500000  1
  Si  Si7  1  0.639584  0.639627  0.000000  1
  Si  Si8  1  0.361387  0.000986  0.000000  1
  Si  Si9  1  0.999080  0.361743  0.000000  1
  P  P10  1  0.482149  0.310379  0.500000  1
  P  P11  1  0.174358  0.693316  0.500000  1
  P  P12  1  0.517098  0.825127  0.500000  1
  P  P13  1  0.308954  0.482747  0.500000  1
  P  P14  1  0.180478  0.178098  0.000000  1
  P  P15  1  0.818957  0.994514  0.000000  1
  P  P16  1  0.998699  0.821245  0.000000  1
  Ir  Ir17  1  0.808102  0.176532  0.000000  1
  Ir  Ir18  1  0.818721  0.624726  0.000000  1
  Ir  Ir19  1  0.380291  0.202171  0.000000  1
  Ir  Ir20  1  0.182817  0.800361  0.000000  1
  Ir  Ir21  1  0.615580  0.817295  0.000000  1
  Ir  Ir22  1  0.196783  0.377032  0.000000  1
  Ir  Ir23  1  0.451500  0.456699  0.000000  1
  Ir  Ir24  1  0.553323  0.011805  0.000000  1
  Ir  Ir25  1  0.993549  0.544157  0.000000  1
  Ir  Ir26  1  0.285213  0.288001  0.500000  1
  Ir  Ir27  1  0.714619  0.995732  0.500000  1
  Ir  Ir28  1  0.004338  0.719215  0.500000  1
  Ir  Ir29  1  0.871095  0.357164  0.500000  1
  Ir  Ir30  1  0.635118  0.506432  0.500000  1
  Ir  Ir31  1  0.485314  0.128701  0.500000  1
  Ir  Ir32  1  0.366877  0.871925  0.500000  1
  Ir  Ir33  1  0.505683  0.636330  0.500000  1
  Ir  Ir34  1  0.130726  0.495280  0.500000  1
  Ir  Ir35  1  0.000971  0.004300  0.000000  1
