# generated using pymatgen
data_TmNbP7Ru12
_symmetry_space_group_name_H-M   'P 1'
_cell_length_a   9.38236300
_cell_length_b   9.38236164
_cell_length_c   3.89729300
_cell_angle_alpha   90.00000000
_cell_angle_beta   90.00000000
_cell_angle_gamma   119.99999422
_symmetry_Int_Tables_number   1
_chemical_formula_structural   TmNbP7Ru12
_chemical_formula_sum   'Tm1 Nb1 P7 Ru12'
_cell_volume   297.11057831
_cell_formula_units_Z   1
loop_
 _symmetry_equiv_pos_site_id
 _symmetry_equiv_pos_as_xyz
  1  'x, y, z'
loop_
 _atom_site_type_symbol
 _atom_site_label
 _atom_site_symmetry_multiplicity
 _atom_site_fract_x
 _atom_site_fract_y
 _atom_site_fract_z
 _atom_site_occupancy
  Tm  Tm0  1  0.333333  0.666667  0.000000  1
  Nb  Nb1  1  0.666667  0.333333  0.500000  1
  P  P2  1  0.597011  0.718827  0.500000  1
  P  P3  1  0.000000  0.000000  0.000000  1
  P  P4  1  0.281173  0.878185  0.500000  1
  P  P5  1  0.121815  0.402989  0.500000  1
  P  P6  1  0.886188  0.574682  0.000000  1
  P  P7  1  0.425318  0.311506  0.000000  1
  P  P8  1  0.688494  0.113812  0.000000  1
  Ru  Ru9  1  0.557120  0.954901  0.500000  1
  Ru  Ru10  1  0.397781  0.442880  0.500000  1
  Ru  Ru11  1  0.912868  0.124491  0.500000  1
  Ru  Ru12  1  0.211623  0.087132  0.500000  1
  Ru  Ru13  1  0.875509  0.788377  0.500000  1
  Ru  Ru14  1  0.725445  0.887723  0.000000  1
  Ru  Ru15  1  0.112277  0.837721  0.000000  1
  Ru  Ru16  1  0.162279  0.274555  0.000000  1
  Ru  Ru17  1  0.431730  0.077861  0.000000  1
  Ru  Ru18  1  0.922139  0.353871  0.000000  1
  Ru  Ru19  1  0.646129  0.568270  0.000000  1
  Ru  Ru20  1  0.045099  0.602219  0.500000  1
