# generated using pymatgen
data_Dy8Sc12Ga7Si9
_symmetry_space_group_name_H-M   'P 1'
_cell_length_a   7.17301950
_cell_length_b   7.41114061
_cell_length_c   14.25740931
_cell_angle_alpha   90.00004799
_cell_angle_beta   89.92001759
_cell_angle_gamma   90.05447126
_symmetry_Int_Tables_number   1
_chemical_formula_structural   Dy8Sc12Ga7Si9
_chemical_formula_sum   'Dy8 Sc12 Ga7 Si9'
_cell_volume   757.92644972
_cell_formula_units_Z   1
loop_
 _symmetry_equiv_pos_site_id
 _symmetry_equiv_pos_as_xyz
  1  'x, y, z'
loop_
 _atom_site_type_symbol
 _atom_site_label
 _atom_site_symmetry_multiplicity
 _atom_site_fract_x
 _atom_site_fract_y
 _atom_site_fract_z
 _atom_site_occupancy
  Dy  Dy0  1  0.012511  0.173712  0.098719  1
  Dy  Dy1  1  0.989806  0.823576  0.901519  1
  Dy  Dy2  1  0.488299  0.676487  0.901619  1
  Dy  Dy3  1  0.989491  0.823847  0.599712  1
  Dy  Dy4  1  0.510455  0.322880  0.098973  1
  Dy  Dy5  1  0.010218  0.175676  0.400180  1
  Dy  Dy6  1  0.510614  0.323577  0.400067  1
  Dy  Dy7  1  0.489492  0.676092  0.599587  1
  Sc  Sc8  1  0.164039  0.502123  0.750008  1
  Sc  Sc9  1  0.836742  0.498992  0.249730  1
  Sc  Sc10  1  0.335769  0.002020  0.248888  1
  Sc  Sc11  1  0.663592  0.998249  0.749772  1
  Sc  Sc12  1  0.330500  0.173501  0.626059  1
  Sc  Sc13  1  0.668977  0.826905  0.373694  1
  Sc  Sc14  1  0.169329  0.673701  0.373580  1
  Sc  Sc15  1  0.667751  0.825329  0.126267  1
  Sc  Sc16  1  0.830248  0.326526  0.626311  1
  Sc  Sc17  1  0.329869  0.174141  0.874924  1
  Sc  Sc18  1  0.829299  0.326557  0.874295  1
  Sc  Sc19  1  0.172044  0.675818  0.125138  1
  Ga  Ga20  1  0.160766  0.463135  0.539485  1
  Ga  Ga21  1  0.839164  0.536882  0.460136  1
  Ga  Ga22  1  0.338846  0.962785  0.460354  1
  Ga  Ga23  1  0.839413  0.538166  0.040377  1
  Ga  Ga24  1  0.661036  0.037016  0.539350  1
  Ga  Ga25  1  0.160049  0.462318  0.960748  1
  Ga  Ga26  1  0.659592  0.037683  0.961087  1
  Si  Si27  1  0.032189  0.113823  0.750915  1
  Si  Si28  1  0.967361  0.885224  0.249456  1
  Si  Si29  1  0.467038  0.613447  0.249431  1
  Si  Si30  1  0.532408  0.385812  0.750326  1
  Si  Si31  1  0.284639  0.874476  0.750660  1
  Si  Si32  1  0.715770  0.125743  0.249107  1
  Si  Si33  1  0.214842  0.373824  0.249435  1
  Si  Si34  1  0.784538  0.626046  0.750559  1
  Si  Si35  1  0.343303  0.963909  0.039528  1
