# generated using pymatgen
data_Zr2MnNi10P7W
_symmetry_space_group_name_H-M   'P 1'
_cell_length_a   9.03119527
_cell_length_b   9.08257172
_cell_length_c   3.61834200
_cell_angle_alpha   90.00000000
_cell_angle_beta   90.00000000
_cell_angle_gamma   120.12849251
_symmetry_Int_Tables_number   1
_chemical_formula_structural   Zr2MnNi10P7W
_chemical_formula_sum   'Zr2 Mn1 Ni10 P7 W1'
_cell_volume   256.70276216
_cell_formula_units_Z   1
loop_
 _symmetry_equiv_pos_site_id
 _symmetry_equiv_pos_as_xyz
  1  'x, y, z'
loop_
 _atom_site_type_symbol
 _atom_site_label
 _atom_site_symmetry_multiplicity
 _atom_site_fract_x
 _atom_site_fract_y
 _atom_site_fract_z
 _atom_site_occupancy
  Zr  Zr0  1  0.000128  0.003387  0.000000  1
  Zr  Zr1  1  0.332961  0.668243  0.500000  1
  Mn  Mn2  1  0.541600  0.429475  0.500000  1
  Ni  Ni3  1  0.293270  0.394885  0.000000  1
  Ni  Ni4  1  0.101887  0.708000  0.000000  1
  Ni  Ni5  1  0.384921  0.171753  0.000000  1
  Ni  Ni6  1  0.790418  0.620928  0.000000  1
  Ni  Ni7  1  0.823781  0.208127  0.000000  1
  Ni  Ni8  1  0.233395  0.946745  0.500000  1
  Ni  Ni9  1  0.054173  0.280601  0.500000  1
  Ni  Ni10  1  0.715442  0.770665  0.500000  1
  Ni  Ni11  1  0.573391  0.109380  0.500000  1
  Ni  Ni12  1  0.604420  0.895428  0.000000  1
  P  P13  1  0.661414  0.331522  0.000000  1
  P  P14  1  0.082355  0.452338  0.000000  1
  P  P15  1  0.257008  0.212352  0.500000  1
  P  P16  1  0.785320  0.042276  0.500000  1
  P  P17  1  0.958850  0.750376  0.500000  1
  P  P18  1  0.546758  0.626139  0.000000  1
  P  P19  1  0.375173  0.921112  0.000000  1
  W  W20  1  0.883334  0.456270  0.500000  1
