# generated using pymatgen
data_Y9HoIr3Os
_symmetry_space_group_name_H-M   'P 1'
_cell_length_a   6.51172205
_cell_length_b   7.28135500
_cell_length_c   8.50271570
_cell_angle_alpha   96.48080511
_cell_angle_beta   112.27865269
_cell_angle_gamma   89.96237907
_symmetry_Int_Tables_number   1
_chemical_formula_structural   Y9HoIr3Os
_chemical_formula_sum   'Y9 Ho1 Ir3 Os1'
_cell_volume   370.28112878
_cell_formula_units_Z   1
loop_
 _symmetry_equiv_pos_site_id
 _symmetry_equiv_pos_as_xyz
  1  'x, y, z'
loop_
 _atom_site_type_symbol
 _atom_site_label
 _atom_site_symmetry_multiplicity
 _atom_site_fract_x
 _atom_site_fract_y
 _atom_site_fract_z
 _atom_site_occupancy
  Y  Y0  1  0.971868  0.915785  0.183442  1
  Y  Y1  1  0.790809  0.583116  0.821631  1
  Y  Y2  1  0.028105  0.083840  0.818106  1
  Y  Y3  1  0.210156  0.417116  0.183250  1
  Y  Y4  1  0.656039  0.817815  0.439730  1
  Y  Y5  1  0.211083  0.680885  0.557716  1
  Y  Y6  1  0.346354  0.181496  0.560083  1
  Y  Y7  1  0.786076  0.319372  0.438772  1
  Y  Y8  1  0.426874  0.749587  0.000337  1
  Ho  Ho9  1  0.573617  0.251300  0.000403  1
  Ir  Ir10  1  0.605888  0.927952  0.780261  1
  Ir  Ir11  1  0.174652  0.424791  0.781209  1
  Ir  Ir12  1  0.393690  0.074359  0.219217  1
  Os  Os13  1  0.824789  0.572586  0.215841  1
