# generated using pymatgen
data_HoLu2Ga5Pt
_symmetry_space_group_name_H-M   'P 1'
_cell_length_a   6.86819500
_cell_length_b   6.89467501
_cell_length_c   4.24838300
_cell_angle_alpha   90.00000000
_cell_angle_beta   90.00000000
_cell_angle_gamma   119.87303832
_symmetry_Int_Tables_number   1
_chemical_formula_structural   HoLu2Ga5Pt
_chemical_formula_sum   'Ho1 Lu2 Ga5 Pt1'
_cell_volume   174.44756246
_cell_formula_units_Z   1
loop_
 _symmetry_equiv_pos_site_id
 _symmetry_equiv_pos_as_xyz
  1  'x, y, z'
loop_
 _atom_site_type_symbol
 _atom_site_label
 _atom_site_symmetry_multiplicity
 _atom_site_fract_x
 _atom_site_fract_y
 _atom_site_fract_z
 _atom_site_occupancy
  Ho  Ho0  1  0.581957  0.000000  0.500000  1
  Lu  Lu1  1  0.414963  0.416112  0.500000  1
  Lu  Lu2  1  0.998851  0.583888  0.500000  1
  Ga  Ga3  1  0.243607  0.000000  0.000000  1
  Ga  Ga4  1  0.999751  0.242841  0.000000  1
  Ga  Ga5  1  0.668259  0.337201  0.000000  1
  Ga  Ga6  1  0.331058  0.662799  0.000000  1
  Ga  Ga7  1  0.756911  0.757159  0.000000  1
  Pt  Pt8  1  0.004643  0.000000  0.500000  1
