# generated using pymatgen
data_Sr11La(Si7Br3)2
_symmetry_space_group_name_H-M   'P 1'
_cell_length_a   4.17573700
_cell_length_b   12.14401300
_cell_length_c   17.74530400
_cell_angle_alpha   90.00000000
_cell_angle_beta   90.00000000
_cell_angle_gamma   90.00000000
_symmetry_Int_Tables_number   1
_chemical_formula_structural   Sr11La(Si7Br3)2
_chemical_formula_sum   'Sr11 La1 Si14 Br6'
_cell_volume   899.86799320
_cell_formula_units_Z   1
loop_
 _symmetry_equiv_pos_site_id
 _symmetry_equiv_pos_as_xyz
  1  'x, y, z'
loop_
 _atom_site_type_symbol
 _atom_site_label
 _atom_site_symmetry_multiplicity
 _atom_site_fract_x
 _atom_site_fract_y
 _atom_site_fract_z
 _atom_site_occupancy
  Sr  Sr0  1  0.500000  0.329098  0.500000  1
  Sr  Sr1  1  0.000000  0.669957  0.000000  1
  Sr  Sr2  1  0.500000  0.348058  0.751579  1
  Sr  Sr3  1  0.000000  0.652147  0.745668  1
  Sr  Sr4  1  0.500000  0.348058  0.248421  1
  Sr  Sr5  1  0.000000  0.652147  0.254332  1
  Sr  Sr6  1  0.500000  0.053207  0.876329  1
  Sr  Sr7  1  0.000000  0.945328  0.622746  1
  Sr  Sr8  1  0.500000  0.053207  0.123671  1
  Sr  Sr9  1  0.000000  0.945328  0.377254  1
  Sr  Sr10  1  0.500000  0.367355  0.000000  1
  La  La11  1  0.000000  0.636579  0.500000  1
  Si  Si12  1  0.000000  0.166645  0.000000  1
  Si  Si13  1  0.500000  0.834012  0.500000  1
  Si  Si14  1  0.500000  0.558715  0.872726  1
  Si  Si15  1  0.000000  0.442433  0.623532  1
  Si  Si16  1  0.500000  0.558715  0.127274  1
  Si  Si17  1  0.000000  0.442433  0.376468  1
  Si  Si18  1  0.000000  0.257343  0.881373  1
  Si  Si19  1  0.500000  0.741549  0.617588  1
  Si  Si20  1  0.000000  0.257343  0.118627  1
  Si  Si21  1  0.500000  0.741549  0.382412  1
  Si  Si22  1  0.000000  0.455715  0.876355  1
  Si  Si23  1  0.500000  0.544982  0.621008  1
  Si  Si24  1  0.500000  0.544982  0.378992  1
  Si  Si25  1  0.000000  0.455715  0.123645  1
  Br  Br26  1  0.500000  0.107177  0.692801  1
  Br  Br27  1  0.000000  0.892013  0.806131  1
  Br  Br28  1  0.000000  0.136632  0.500000  1
  Br  Br29  1  0.500000  0.862386  0.000000  1
  Br  Br30  1  0.500000  0.107177  0.307199  1
  Br  Br31  1  0.000000  0.892013  0.193869  1
