# generated using pymatgen
data_Zr6Ta4Sn6As
_symmetry_space_group_name_H-M   'P 1'
_cell_length_a   5.71941601
_cell_length_b   8.48118371
_cell_length_c   8.48127900
_cell_angle_alpha   119.99963575
_cell_angle_beta   90.00253880
_cell_angle_gamma   89.99492745
_symmetry_Int_Tables_number   1
_chemical_formula_structural   Zr6Ta4Sn6As
_chemical_formula_sum   'Zr6 Ta4 Sn6 As1'
_cell_volume   356.28843948
_cell_formula_units_Z   1
loop_
 _symmetry_equiv_pos_site_id
 _symmetry_equiv_pos_as_xyz
  1  'x, y, z'
loop_
 _atom_site_type_symbol
 _atom_site_label
 _atom_site_symmetry_multiplicity
 _atom_site_fract_x
 _atom_site_fract_y
 _atom_site_fract_z
 _atom_site_occupancy
  Zr  Zr0  1  0.763569  0.257967  0.000000  1
  Zr  Zr1  1  0.763572  0.742051  0.742027  1
  Zr  Zr2  1  0.763572  0.000024  0.257973  1
  Zr  Zr3  1  0.236432  0.742035  0.000000  1
  Zr  Zr4  1  0.236429  0.257949  0.257974  1
  Zr  Zr5  1  0.236429  0.999975  0.742026  1
  Ta  Ta6  1  0.500000  0.333327  0.666657  1
  Ta  Ta7  1  0.500000  0.666671  0.333343  1
  Ta  Ta8  1  0.000000  0.666651  0.333304  1
  Ta  Ta9  1  0.000000  0.333347  0.666696  1
  Sn  Sn10  1  0.747578  0.605910  0.000000  1
  Sn  Sn11  1  0.747557  0.394118  0.394113  1
  Sn  Sn12  1  0.747557  0.000006  0.605887  1
  Sn  Sn13  1  0.252421  0.394092  0.000000  1
  Sn  Sn14  1  0.252442  0.605882  0.605887  1
  Sn  Sn15  1  0.252442  0.999995  0.394113  1
  As  As16  1  0.500000  0.000001  0.000000  1
