# generated using pymatgen
data_Nd2HoBi(Mo2O7)2
_symmetry_space_group_name_H-M   'P 1'
_cell_length_a   7.52264373
_cell_length_b   7.44666851
_cell_length_c   7.45733264
_cell_angle_alpha   119.46891205
_cell_angle_beta   120.29038934
_cell_angle_gamma   90.13696227
_symmetry_Int_Tables_number   1
_chemical_formula_structural   Nd2HoBi(Mo2O7)2
_chemical_formula_sum   'Nd2 Ho1 Bi1 Mo4 O14'
_cell_volume   296.09870721
_cell_formula_units_Z   1
loop_
 _symmetry_equiv_pos_site_id
 _symmetry_equiv_pos_as_xyz
  1  'x, y, z'
loop_
 _atom_site_type_symbol
 _atom_site_label
 _atom_site_symmetry_multiplicity
 _atom_site_fract_x
 _atom_site_fract_y
 _atom_site_fract_z
 _atom_site_occupancy
  Nd  Nd0  1  0.375000  0.625000  0.250000  1
  Nd  Nd1  1  0.875000  0.625000  0.250000  1
  Ho  Ho2  1  0.375000  0.125000  0.750000  1
  Bi  Bi3  1  0.375000  0.625000  0.750000  1
  Mo  Mo4  1  0.875000  0.625000  0.750000  1
  Mo  Mo5  1  0.375000  0.125000  0.250000  1
  Mo  Mo6  1  0.875000  0.125000  0.250000  1
  Mo  Mo7  1  0.875000  0.125000  0.750000  1
  O  O8  1  0.772336  0.195475  0.987020  1
  O  O9  1  0.547533  0.463131  0.499790  1
  O  O10  1  0.209858  0.206738  0.997495  1
  O  O11  1  0.956466  0.456390  0.496114  1
  O  O12  1  0.795672  0.794276  0.578155  1
  O  O13  1  0.535612  0.034681  0.081324  1
  O  O14  1  0.254006  0.764374  0.507204  1
  O  O15  1  0.954328  0.455724  0.921845  1
  O  O16  1  0.977664  0.054525  0.512980  1
  O  O17  1  0.540142  0.043262  0.502505  1
  O  O18  1  0.214388  0.215319  0.418676  1
  O  O19  1  0.495994  0.485626  0.992796  1
  O  O20  1  0.793534  0.793610  0.003886  1
  O  O21  1  0.202467  0.786869  0.000210  1
