# generated using pymatgen
data_YMgNi3Pt
_symmetry_space_group_name_H-M   'P 1'
_cell_length_a   4.98959559
_cell_length_b   4.98959535
_cell_length_c   5.13754722
_cell_angle_alpha   60.94815563
_cell_angle_beta   60.94816305
_cell_angle_gamma   60.00000928
_symmetry_Int_Tables_number   1
_chemical_formula_structural   YMgNi3Pt
_chemical_formula_sum   'Y1 Mg1 Ni3 Pt1'
_cell_volume   91.71685307
_cell_formula_units_Z   1
loop_
 _symmetry_equiv_pos_site_id
 _symmetry_equiv_pos_as_xyz
  1  'x, y, z'
loop_
 _atom_site_type_symbol
 _atom_site_label
 _atom_site_symmetry_multiplicity
 _atom_site_fract_x
 _atom_site_fract_y
 _atom_site_fract_z
 _atom_site_occupancy
  Y  Y0  1  0.001951  0.001951  0.994148  1
  Mg  Mg1  1  0.247542  0.247542  0.257375  1
  Ni  Ni2  1  0.624624  0.127512  0.623240  1
  Ni  Ni3  1  0.127512  0.624624  0.623240  1
  Ni  Ni4  1  0.624624  0.624624  0.623240  1
  Pt  Pt5  1  0.623747  0.623747  0.128759  1
