# generated using pymatgen
data_Mn11Co(W6C)2
_symmetry_space_group_name_H-M   'P 1'
_cell_length_a   7.78789411
_cell_length_b   7.78789412
_cell_length_c   7.78789542
_cell_angle_alpha   59.75677211
_cell_angle_beta   59.75677387
_cell_angle_gamma   59.75677513
_symmetry_Int_Tables_number   1
_chemical_formula_structural   Mn11Co(W6C)2
_chemical_formula_sum   'Mn11 Co1 W12 C2'
_cell_volume   332.15436664
_cell_formula_units_Z   1
loop_
 _symmetry_equiv_pos_site_id
 _symmetry_equiv_pos_as_xyz
  1  'x, y, z'
loop_
 _atom_site_type_symbol
 _atom_site_label
 _atom_site_symmetry_multiplicity
 _atom_site_fract_x
 _atom_site_fract_y
 _atom_site_fract_z
 _atom_site_occupancy
  Mn  Mn0  1  0.421338  0.421338  0.736366  1
  Mn  Mn1  1  0.421338  0.736366  0.421338  1
  Mn  Mn2  1  0.736366  0.421338  0.421338  1
  Mn  Mn3  1  0.420605  0.420605  0.420605  1
  Mn  Mn4  1  0.829089  0.829089  0.517098  1
  Mn  Mn5  1  0.829089  0.517098  0.829089  1
  Mn  Mn6  1  0.517098  0.829089  0.829089  1
  Mn  Mn7  1  0.623481  0.623481  0.124903  1
  Mn  Mn8  1  0.623481  0.124903  0.623481  1
  Mn  Mn9  1  0.124903  0.623481  0.623481  1
  Mn  Mn10  1  0.625128  0.625128  0.625128  1
  Co  Co11  1  0.832906  0.832906  0.832906  1
  W  W12  1  0.053019  0.053019  0.447069  1
  W  W13  1  0.446583  0.052453  0.446583  1
  W  W14  1  0.052453  0.446583  0.446583  1
  W  W15  1  0.446583  0.446583  0.052453  1
  W  W16  1  0.053019  0.447069  0.053019  1
  W  W17  1  0.447069  0.053019  0.053019  1
  W  W18  1  0.195761  0.195761  0.802639  1
  W  W19  1  0.803592  0.195863  0.803592  1
  W  W20  1  0.195863  0.803592  0.803592  1
  W  W21  1  0.803592  0.803592  0.195863  1
  W  W22  1  0.195761  0.802639  0.195761  1
  W  W23  1  0.802639  0.195761  0.195761  1
  C  C24  1  0.249710  0.249710  0.249710  1
  C  C25  1  0.999533  0.999533  0.999533  1
