# generated using pymatgen
data_Er6HfZr3(Sn3O)2
_symmetry_space_group_name_H-M   'P 1'
_cell_length_a   8.70945500
_cell_length_b   8.70945587
_cell_length_c   6.00040500
_cell_angle_alpha   90.00000000
_cell_angle_beta   90.00000000
_cell_angle_gamma   120.00000049
_symmetry_Int_Tables_number   1
_chemical_formula_structural   Er6HfZr3(Sn3O)2
_chemical_formula_sum   'Er6 Hf1 Zr3 Sn6 O2'
_cell_volume   394.17873953
_cell_formula_units_Z   1
loop_
 _symmetry_equiv_pos_site_id
 _symmetry_equiv_pos_as_xyz
  1  'x, y, z'
loop_
 _atom_site_type_symbol
 _atom_site_label
 _atom_site_symmetry_multiplicity
 _atom_site_fract_x
 _atom_site_fract_y
 _atom_site_fract_z
 _atom_site_occupancy
  Er  Er0  1  0.000045  0.773310  0.749954  1
  Er  Er1  1  0.000045  0.226734  0.250046  1
  Er  Er2  1  0.226690  0.226734  0.749954  1
  Er  Er3  1  0.226690  0.999955  0.250046  1
  Er  Er4  1  0.773266  0.773310  0.250046  1
  Er  Er5  1  0.773266  0.999955  0.749954  1
  Hf  Hf6  1  0.333333  0.666667  0.000000  1
  Zr  Zr7  1  0.333333  0.666667  0.500000  1
  Zr  Zr8  1  0.666667  0.333333  0.000000  1
  Zr  Zr9  1  0.666667  0.333333  0.500000  1
  Sn  Sn10  1  0.000516  0.595642  0.249458  1
  Sn  Sn11  1  0.000516  0.404874  0.750542  1
  Sn  Sn12  1  0.404358  0.404874  0.249458  1
  Sn  Sn13  1  0.595126  0.595642  0.750542  1
  Sn  Sn14  1  0.404358  0.999484  0.750542  1
  Sn  Sn15  1  0.595126  0.999484  0.249458  1
  O  O16  1  0.000000  0.000000  0.000000  1
  O  O17  1  0.000000  0.000000  0.500000  1
