# generated using pymatgen
data_DyAl3Ga2Fe6Ge
_symmetry_space_group_name_H-M   'P 1'
_cell_length_a   4.97384974
_cell_length_b   6.56818383
_cell_length_c   6.56818591
_cell_angle_alpha   80.27629635
_cell_angle_beta   67.75103093
_cell_angle_gamma   67.75103068
_symmetry_Int_Tables_number   1
_chemical_formula_structural   DyAl3Ga2Fe6Ge
_chemical_formula_sum   'Dy1 Al3 Ga2 Fe6 Ge1'
_cell_volume   183.73319154
_cell_formula_units_Z   1
loop_
 _symmetry_equiv_pos_site_id
 _symmetry_equiv_pos_as_xyz
  1  'x, y, z'
loop_
 _atom_site_type_symbol
 _atom_site_label
 _atom_site_symmetry_multiplicity
 _atom_site_fract_x
 _atom_site_fract_y
 _atom_site_fract_z
 _atom_site_occupancy
  Dy  Dy0  1  0.000000  0.001854  0.998146  1
  Al  Al1  1  0.000000  0.349158  0.650842  1
  Al  Al2  1  0.346093  0.651313  0.656501  1
  Al  Al3  1  0.653907  0.343499  0.348687  1
  Ga  Ga4  1  0.316212  0.182889  0.184687  1
  Ga  Ga5  1  0.683788  0.815313  0.817111  1
  Fe  Fe6  1  0.500000  0.243627  0.756373  1
  Fe  Fe7  1  0.500000  0.755321  0.244679  1
  Fe  Fe8  1  0.998975  0.498695  0.000072  1
  Fe  Fe9  1  0.502258  0.498695  0.000072  1
  Fe  Fe10  1  0.001025  0.999928  0.501305  1
  Fe  Fe11  1  0.497742  0.999928  0.501305  1
  Ge  Ge12  1  0.000000  0.659778  0.340222  1
