# generated using pymatgen
data_Nd3TiZn2Ir3
_symmetry_space_group_name_H-M   'P 1'
_cell_length_a   7.09535200
_cell_length_b   7.29213450
_cell_length_c   4.16161800
_cell_angle_alpha   90.00000000
_cell_angle_beta   90.00000000
_cell_angle_gamma   119.11126790
_symmetry_Int_Tables_number   1
_chemical_formula_structural   Nd3TiZn2Ir3
_chemical_formula_sum   'Nd3 Ti1 Zn2 Ir3'
_cell_volume   188.12283481
_cell_formula_units_Z   1
loop_
 _symmetry_equiv_pos_site_id
 _symmetry_equiv_pos_as_xyz
  1  'x, y, z'
loop_
 _atom_site_type_symbol
 _atom_site_label
 _atom_site_symmetry_multiplicity
 _atom_site_fract_x
 _atom_site_fract_y
 _atom_site_fract_z
 _atom_site_occupancy
  Nd  Nd0  1  0.394618  0.000000  0.499999  1
  Nd  Nd1  1  0.013006  0.428571  0.499999  1
  Nd  Nd2  1  0.584434  0.571428  0.499999  1
  Ti  Ti3  1  0.763617  0.000000  0.000000  1
  Zn  Zn4  1  0.234580  0.238515  0.000000  1
  Zn  Zn5  1  0.996065  0.761485  0.000000  1
  Ir  Ir6  1  0.678274  0.312273  0.000000  1
  Ir  Ir7  1  0.366000  0.687727  0.000000  1
  Ir  Ir8  1  0.969405  0.000000  0.499999  1
