# generated using pymatgen
data_Pr(Ga3Pd)3
_symmetry_space_group_name_H-M   'P 1'
_cell_length_a   10.57119043
_cell_length_b   10.57119056
_cell_length_c   10.57118894
_cell_angle_alpha   42.29271383
_cell_angle_beta   42.29271522
_cell_angle_gamma   42.29272134
_symmetry_Int_Tables_number   1
_chemical_formula_structural   Pr(Ga3Pd)3
_chemical_formula_sum   'Pr2 Ga18 Pd6'
_cell_volume   484.16595899
_cell_formula_units_Z   2
loop_
 _symmetry_equiv_pos_site_id
 _symmetry_equiv_pos_as_xyz
  1  'x, y, z'
loop_
 _atom_site_type_symbol
 _atom_site_label
 _atom_site_symmetry_multiplicity
 _atom_site_fract_x
 _atom_site_fract_y
 _atom_site_fract_z
 _atom_site_occupancy
  Pr  Pr0  1  0.166765  0.166765  0.166765  1
  Pr  Pr1  1  0.833235  0.833235  0.833235  1
  Ga  Ga2  1  0.048669  0.048669  0.048669  1
  Ga  Ga3  1  0.702010  0.500000  0.297990  1
  Ga  Ga4  1  0.665644  0.334356  0.000000  1
  Ga  Ga5  1  0.107968  0.435117  0.763580  1
  Ga  Ga6  1  0.435117  0.763580  0.107968  1
  Ga  Ga7  1  0.384239  0.384239  0.384239  1
  Ga  Ga8  1  0.334356  0.000000  0.665644  1
  Ga  Ga9  1  0.615761  0.615761  0.615761  1
  Ga  Ga10  1  0.236420  0.564883  0.892032  1
  Ga  Ga11  1  0.564883  0.892032  0.236420  1
  Ga  Ga12  1  0.500000  0.297990  0.702010  1
  Ga  Ga13  1  0.763580  0.107968  0.435117  1
  Ga  Ga14  1  0.951331  0.951331  0.951331  1
  Ga  Ga15  1  0.297990  0.702010  0.500000  1
  Ga  Ga16  1  0.000000  0.665644  0.334356  1
  Ga  Ga17  1  0.714607  0.714607  0.714607  1
  Ga  Ga18  1  0.285393  0.285393  0.285393  1
  Ga  Ga19  1  0.892032  0.236420  0.564883  1
  Pd  Pd20  1  0.242400  0.921706  0.581529  1
  Pd  Pd21  1  0.921706  0.581529  0.242400  1
  Pd  Pd22  1  0.757600  0.418471  0.078294  1
  Pd  Pd23  1  0.078294  0.757600  0.418471  1
  Pd  Pd24  1  0.418471  0.078294  0.757600  1
  Pd  Pd25  1  0.581529  0.242400  0.921706  1
