# generated using pymatgen
data_TbTh2(GaNi)3
_symmetry_space_group_name_H-M   'P 1'
_cell_length_a   7.05671539
_cell_length_b   6.98579667
_cell_length_c   3.96907900
_cell_angle_alpha   90.00000000
_cell_angle_beta   90.00000000
_cell_angle_gamma   119.66811071
_symmetry_Int_Tables_number   1
_chemical_formula_structural   TbTh2(GaNi)3
_chemical_formula_sum   'Tb1 Th2 Ga3 Ni3'
_cell_volume   170.01281238
_cell_formula_units_Z   1
loop_
 _symmetry_equiv_pos_site_id
 _symmetry_equiv_pos_as_xyz
  1  'x, y, z'
loop_
 _atom_site_type_symbol
 _atom_site_label
 _atom_site_symmetry_multiplicity
 _atom_site_fract_x
 _atom_site_fract_y
 _atom_site_fract_z
 _atom_site_occupancy
  Tb  Tb0  1  0.000000  0.414719  0.500000  1
  Th  Th1  1  0.582284  0.581179  0.500000  1
  Th  Th2  1  0.417716  0.998895  0.500000  1
  Ga  Ga3  1  0.000000  0.757896  0.000000  1
  Ga  Ga4  1  0.230018  0.237734  0.000000  1
  Ga  Ga5  1  0.769982  0.007716  0.000000  1
  Ni  Ni6  1  0.339669  0.672321  0.000000  1
  Ni  Ni7  1  0.660331  0.332651  0.000000  1
  Ni  Ni8  1  0.000000  0.996889  0.500000  1
