# generated using pymatgen
data_Ca2Tb2MgAl17Pd6
_symmetry_space_group_name_H-M   'P 1'
_cell_length_a   7.69412215
_cell_length_b   7.69626371
_cell_length_c   9.50744700
_cell_angle_alpha   90.17859813
_cell_angle_beta   89.84856498
_cell_angle_gamma   119.48765180
_symmetry_Int_Tables_number   1
_chemical_formula_structural   Ca2Tb2MgAl17Pd6
_chemical_formula_sum   'Ca2 Tb2 Mg1 Al17 Pd6'
_cell_volume   490.06104929
_cell_formula_units_Z   1
loop_
 _symmetry_equiv_pos_site_id
 _symmetry_equiv_pos_as_xyz
  1  'x, y, z'
loop_
 _atom_site_type_symbol
 _atom_site_label
 _atom_site_symmetry_multiplicity
 _atom_site_fract_x
 _atom_site_fract_y
 _atom_site_fract_z
 _atom_site_occupancy
  Ca  Ca0  1  0.996113  0.674320  0.251295  1
  Ca  Ca1  1  0.004621  0.330171  0.748547  1
  Tb  Tb2  1  0.667848  0.990947  0.252478  1
  Tb  Tb3  1  0.328405  0.002942  0.749381  1
  Mg  Mg4  1  0.996654  0.336292  0.077184  1
  Al  Al5  1  0.129992  0.132176  0.250346  1
  Al  Al6  1  0.870902  0.867524  0.751461  1
  Al  Al7  1  0.999324  0.663042  0.923651  1
  Al  Al8  1  0.998655  0.664186  0.577063  1
  Al  Al9  1  0.335116  0.001421  0.422242  1
  Al  Al10  1  0.001350  0.334498  0.421244  1
  Al  Al11  1  0.666737  0.000206  0.577439  1
  Al  Al12  1  0.667530  0.002076  0.924548  1
  Al  Al13  1  0.335129  0.000974  0.076827  1
  Al  Al14  1  0.332937  0.333590  0.554559  1
  Al  Al15  1  0.666207  0.665695  0.445112  1
  Al  Al16  1  0.666976  0.666317  0.052878  1
  Al  Al17  1  0.330881  0.333137  0.944813  1
  Al  Al18  1  0.345612  0.547866  0.250127  1
  Al  Al19  1  0.655881  0.452361  0.749329  1
  Al  Al20  1  0.546288  0.336145  0.249223  1
  Al  Al21  1  0.457339  0.665002  0.751013  1
  Pd  Pd22  1  0.659804  0.325461  0.996125  1
  Pd  Pd23  1  0.336792  0.680924  0.999604  1
  Pd  Pd24  1  0.329669  0.673517  0.501658  1
  Pd  Pd25  1  0.671173  0.327212  0.500173  1
  Pd  Pd26  1  0.001389  0.993183  0.000055  1
  Pd  Pd27  1  0.000670  0.998817  0.501626  1
