# generated using pymatgen
data_TbDy2ZnAg3Ge2
_symmetry_space_group_name_H-M   'P 1'
_cell_length_a   7.23021416
_cell_length_b   7.22756347
_cell_length_c   4.16196500
_cell_angle_alpha   90.00000000
_cell_angle_beta   90.00000000
_cell_angle_gamma   119.98786879
_symmetry_Int_Tables_number   1
_chemical_formula_structural   TbDy2ZnAg3Ge2
_chemical_formula_sum   'Tb1 Dy2 Zn1 Ag3 Ge2'
_cell_volume   188.37584234
_cell_formula_units_Z   1
loop_
 _symmetry_equiv_pos_site_id
 _symmetry_equiv_pos_as_xyz
  1  'x, y, z'
loop_
 _atom_site_type_symbol
 _atom_site_label
 _atom_site_symmetry_multiplicity
 _atom_site_fract_x
 _atom_site_fract_y
 _atom_site_fract_z
 _atom_site_occupancy
  Tb  Tb0  1  0.000000  0.581971  0.000000  1
  Dy  Dy1  1  0.581901  0.999980  0.000000  1
  Dy  Dy2  1  0.418099  0.418080  0.000000  1
  Zn  Zn3  1  0.000000  0.000134  0.000000  1
  Ag  Ag4  1  0.752062  0.752270  0.500000  1
  Ag  Ag5  1  0.247938  0.000208  0.500000  1
  Ag  Ag6  1  0.000000  0.247523  0.500000  1
  Ge  Ge7  1  0.666218  0.333026  0.500000  1
  Ge  Ge8  1  0.333782  0.666809  0.500000  1
