# generated using pymatgen
data_Ba5Ho8Ni4O21
_symmetry_space_group_name_H-M   'P 1'
_cell_length_a   5.71054113
_cell_length_b   10.14129110
_cell_length_c   10.14123014
_cell_angle_alpha   94.54625441
_cell_angle_beta   106.35171793
_cell_angle_gamma   73.64869992
_symmetry_Int_Tables_number   1
_chemical_formula_structural   Ba5Ho8Ni4O21
_chemical_formula_sum   'Ba5 Ho8 Ni4 O21'
_cell_volume   540.75271721
_cell_formula_units_Z   1
loop_
 _symmetry_equiv_pos_site_id
 _symmetry_equiv_pos_as_xyz
  1  'x, y, z'
loop_
 _atom_site_type_symbol
 _atom_site_label
 _atom_site_symmetry_multiplicity
 _atom_site_fract_x
 _atom_site_fract_y
 _atom_site_fract_z
 _atom_site_occupancy
  Ba  Ba0  1  0.999995  0.999999  0.999996  1
  Ba  Ba1  1  0.861782  0.602262  0.325804  1
  Ba  Ba2  1  0.535989  0.325795  0.397748  1
  Ba  Ba3  1  0.464001  0.674208  0.602247  1
  Ba  Ba4  1  0.138200  0.397748  0.674182  1
  Ho  Ho5  1  0.411134  0.231694  0.053952  1
  Ho  Ho6  1  0.249551  0.583442  0.082505  1
  Ho  Ho7  1  0.642818  0.946042  0.231699  1
  Ho  Ho8  1  0.167024  0.082498  0.416545  1
  Ho  Ho9  1  0.832976  0.917494  0.583451  1
  Ho  Ho10  1  0.357163  0.053956  0.768284  1
  Ho  Ho11  1  0.750449  0.416562  0.917491  1
  Ho  Ho12  1  0.588849  0.768307  0.946041  1
  Ni  Ni13  1  0.959351  0.286695  0.205432  1
  Ni  Ni14  1  0.246001  0.794531  0.286716  1
  Ni  Ni15  1  0.754041  0.205421  0.713328  1
  Ni  Ni16  1  0.040645  0.713313  0.794621  1
  O  O17  1  0.499998  0.000001  0.999995  1
  O  O18  1  0.098691  0.405256  0.110891  1
  O  O19  1  0.606954  0.405260  0.110907  1
  O  O20  1  0.427611  0.773835  0.131214  1
  O  O21  1  0.929717  0.773830  0.131226  1
  O  O22  1  0.296414  0.131225  0.226152  1
  O  O23  1  0.798519  0.131234  0.226167  1
  O  O24  1  0.369648  0.592404  0.331708  1
  O  O25  1  0.012224  0.889093  0.405256  1
  O  O26  1  0.503951  0.889103  0.405256  1
  O  O27  1  0.037936  0.331715  0.407580  1
  O  O28  1  0.962136  0.668309  0.592432  1
  O  O29  1  0.496041  0.110907  0.594736  1
  O  O30  1  0.987766  0.110912  0.594732  1
  O  O31  1  0.630412  0.407587  0.668301  1
  O  O32  1  0.201470  0.868775  0.773840  1
  O  O33  1  0.703565  0.868777  0.773831  1
  O  O34  1  0.070269  0.226163  0.868768  1
  O  O35  1  0.572364  0.226166  0.868777  1
  O  O36  1  0.393053  0.594729  0.889092  1
  O  O37  1  0.901296  0.594754  0.889097  1
