# generated using pymatgen
data_LiNd3FeC6
_symmetry_space_group_name_H-M   'P 1'
_cell_length_a   8.44549800
_cell_length_b   8.44549779
_cell_length_c   5.23891600
_cell_angle_alpha   90.00000000
_cell_angle_beta   90.00000000
_cell_angle_gamma   120.00000186
_symmetry_Int_Tables_number   1
_chemical_formula_structural   LiNd3FeC6
_chemical_formula_sum   'Li2 Nd6 Fe2 C12'
_cell_volume   323.61047795
_cell_formula_units_Z   2
loop_
 _symmetry_equiv_pos_site_id
 _symmetry_equiv_pos_as_xyz
  1  'x, y, z'
loop_
 _atom_site_type_symbol
 _atom_site_label
 _atom_site_symmetry_multiplicity
 _atom_site_fract_x
 _atom_site_fract_y
 _atom_site_fract_z
 _atom_site_occupancy
  Li  Li0  1  0.000000  0.000000  0.500000  1
  Li  Li1  1  0.000000  0.000000  0.000000  1
  Nd  Nd2  1  0.616120  0.677301  0.750000  1
  Nd  Nd3  1  0.938819  0.616120  0.250000  1
  Nd  Nd4  1  0.677301  0.061181  0.250000  1
  Nd  Nd5  1  0.322699  0.938819  0.750000  1
  Nd  Nd6  1  0.061181  0.383880  0.750000  1
  Nd  Nd7  1  0.383880  0.322699  0.250000  1
  Fe  Fe8  1  0.666667  0.333333  0.750000  1
  Fe  Fe9  1  0.333333  0.666667  0.250000  1
  C  C10  1  0.978726  0.739835  0.750000  1
  C  C11  1  0.238890  0.978726  0.250000  1
  C  C12  1  0.739835  0.761110  0.250000  1
  C  C13  1  0.260165  0.238890  0.750000  1
  C  C14  1  0.761110  0.021274  0.750000  1
  C  C15  1  0.021274  0.260165  0.250000  1
  C  C16  1  0.854628  0.563425  0.750000  1
  C  C17  1  0.291201  0.854628  0.250000  1
  C  C18  1  0.563425  0.708799  0.250000  1
  C  C19  1  0.436575  0.291201  0.750000  1
  C  C20  1  0.145372  0.436575  0.250000  1
  C  C21  1  0.708799  0.145372  0.750000  1
