# generated using pymatgen
data_Na4ScMn2P12Ir17
_symmetry_space_group_name_H-M   'P 1'
_cell_length_a   12.61880386
_cell_length_b   12.59498516
_cell_length_c   3.95400100
_cell_angle_alpha   90.00000000
_cell_angle_beta   90.00000000
_cell_angle_gamma   120.02479728
_symmetry_Int_Tables_number   1
_chemical_formula_structural   Na4ScMn2P12Ir17
_chemical_formula_sum   'Na4 Sc1 Mn2 P12 Ir17'
_cell_volume   544.09493558
_cell_formula_units_Z   1
loop_
 _symmetry_equiv_pos_site_id
 _symmetry_equiv_pos_as_xyz
  1  'x, y, z'
loop_
 _atom_site_type_symbol
 _atom_site_label
 _atom_site_symmetry_multiplicity
 _atom_site_fract_x
 _atom_site_fract_y
 _atom_site_fract_z
 _atom_site_occupancy
  Na  Na0  1  0.331858  0.667521  0.000000  1
  Na  Na1  1  0.818717  0.998351  0.500000  1
  Na  Na2  1  0.998829  0.819286  0.500000  1
  Na  Na3  1  0.180147  0.180228  0.500000  1
  Sc  Sc4  1  0.667177  0.331486  0.000000  1
  Mn  Mn5  1  0.461515  0.003538  0.000000  1
  Mn  Mn6  1  0.999032  0.458820  0.000000  1
  P  P7  1  0.180373  0.002918  0.000000  1
  P  P8  1  0.001086  0.179171  0.000000  1
  P  P9  1  0.819335  0.820061  0.000000  1
  P  P10  1  0.170318  0.485836  0.500000  1
  P  P11  1  0.513033  0.688656  0.500000  1
  P  P12  1  0.312623  0.830576  0.500000  1
  P  P13  1  0.693978  0.516291  0.500000  1
  P  P14  1  0.828742  0.307742  0.500000  1
  P  P15  1  0.482890  0.171395  0.500000  1
  P  P16  1  0.635395  0.997711  0.000000  1
  P  P17  1  0.003921  0.638867  0.000000  1
  P  P18  1  0.357710  0.361459  0.000000  1
  Ir  Ir19  1  0.542446  0.539843  0.000000  1
  Ir  Ir20  1  0.359786  0.487789  0.500000  1
  Ir  Ir21  1  0.509599  0.873272  0.500000  1
  Ir  Ir22  1  0.125476  0.639732  0.500000  1
  Ir  Ir23  1  0.867163  0.500252  0.500000  1
  Ir  Ir24  1  0.636835  0.132867  0.500000  1
  Ir  Ir25  1  0.500032  0.363219  0.500000  1
  Ir  Ir26  1  0.179646  0.381678  0.000000  1
  Ir  Ir27  1  0.620336  0.801102  0.000000  1
  Ir  Ir28  1  0.201326  0.823306  0.000000  1
  Ir  Ir29  1  0.805278  0.620422  0.000000  1
  Ir  Ir30  1  0.818366  0.196635  0.000000  1
  Ir  Ir31  1  0.382583  0.185357  0.000000  1
  Ir  Ir32  1  0.284887  0.003003  0.500000  1
  Ir  Ir33  1  0.000658  0.283766  0.500000  1
  Ir  Ir34  1  0.709182  0.708360  0.500000  1
  Ir  Ir35  1  0.999722  0.999482  0.000000  1
