# generated using pymatgen
data_Ho2Er(TmIn2)2
_symmetry_space_group_name_H-M   'P 1'
_cell_length_a   9.20554762
_cell_length_b   9.20554837
_cell_length_c   6.63987400
_cell_angle_alpha   90.00000000
_cell_angle_beta   90.00000000
_cell_angle_gamma   119.95803384
_symmetry_Int_Tables_number   1
_chemical_formula_structural   Ho2Er(TmIn2)2
_chemical_formula_sum   'Ho4 Er2 Tm4 In8'
_cell_volume   487.49847518
_cell_formula_units_Z   2
loop_
 _symmetry_equiv_pos_site_id
 _symmetry_equiv_pos_as_xyz
  1  'x, y, z'
loop_
 _atom_site_type_symbol
 _atom_site_label
 _atom_site_symmetry_multiplicity
 _atom_site_fract_x
 _atom_site_fract_y
 _atom_site_fract_z
 _atom_site_occupancy
  Ho  Ho0  1  0.289232  0.999996  0.750000  1
  Ho  Ho1  1  0.710768  0.000004  0.250000  1
  Ho  Ho2  1  0.999996  0.289232  0.750000  1
  Ho  Ho3  1  0.000004  0.710768  0.250000  1
  Er  Er4  1  0.710778  0.710778  0.750000  1
  Er  Er5  1  0.289222  0.289222  0.250000  1
  Tm  Tm6  1  0.333463  0.666537  0.500000  1
  Tm  Tm7  1  0.666537  0.333463  0.500000  1
  Tm  Tm8  1  0.666537  0.333463  0.000000  1
  Tm  Tm9  1  0.333463  0.666537  0.000000  1
  In  In10  1  0.000000  0.000000  0.500000  1
  In  In11  1  0.000000  0.000000  0.000000  1
  In  In12  1  0.628025  0.999786  0.750000  1
  In  In13  1  0.371975  0.000214  0.250000  1
  In  In14  1  0.999786  0.628025  0.750000  1
  In  In15  1  0.000214  0.371975  0.250000  1
  In  In16  1  0.372331  0.372331  0.750000  1
  In  In17  1  0.627669  0.627669  0.250000  1
