# generated using pymatgen
data_Li3Cd(SnPd3)2
_symmetry_space_group_name_H-M   'P 1'
_cell_length_a   4.44890400
_cell_length_b   6.43500800
_cell_length_c   13.47931100
_cell_angle_alpha   90.00007387
_cell_angle_beta   89.99822724
_cell_angle_gamma   89.99992575
_symmetry_Int_Tables_number   1
_chemical_formula_structural   Li3Cd(SnPd3)2
_chemical_formula_sum   'Li6 Cd2 Sn4 Pd12'
_cell_volume   385.89559328
_cell_formula_units_Z   2
loop_
 _symmetry_equiv_pos_site_id
 _symmetry_equiv_pos_as_xyz
  1  'x, y, z'
loop_
 _atom_site_type_symbol
 _atom_site_label
 _atom_site_symmetry_multiplicity
 _atom_site_fract_x
 _atom_site_fract_y
 _atom_site_fract_z
 _atom_site_occupancy
  Li  Li0  1  0.999968  0.999997  0.996356  1
  Li  Li1  1  0.499826  0.500006  0.167452  1
  Li  Li2  1  0.999835  0.999994  0.332552  1
  Li  Li3  1  0.499963  0.500005  0.503642  1
  Li  Li4  1  0.000185  0.999995  0.669362  1
  Li  Li5  1  0.500209  0.500003  0.830627  1
  Cd  Cd6  1  0.000210  0.499997  0.665888  1
  Cd  Cd7  1  0.500225  0.000003  0.834128  1
  Sn  Sn8  1  0.999975  0.500000  0.999007  1
  Sn  Sn9  1  0.499815  0.999999  0.167327  1
  Sn  Sn10  1  0.999835  0.500001  0.332674  1
  Sn  Sn11  1  0.499973  0.000001  0.500992  1
  Pd  Pd12  1  0.499975  0.252136  0.002623  1
  Pd  Pd13  1  0.499974  0.747868  0.002622  1
  Pd  Pd14  1  0.999788  0.251112  0.165139  1
  Pd  Pd15  1  0.999789  0.748887  0.165136  1
  Pd  Pd16  1  0.499794  0.248872  0.334841  1
  Pd  Pd17  1  0.499793  0.751128  0.334842  1
  Pd  Pd18  1  0.999973  0.247865  0.497376  1
  Pd  Pd19  1  0.999972  0.752138  0.497378  1
  Pd  Pd20  1  0.500222  0.244679  0.664444  1
  Pd  Pd21  1  0.500220  0.755320  0.664443  1
  Pd  Pd22  1  0.000233  0.255319  0.835574  1
  Pd  Pd23  1  0.000238  0.744679  0.835574  1
