# generated using pymatgen
data_Ce3Pr3Cr2(Co4P3)4
_symmetry_space_group_name_H-M   'P 1'
_cell_length_a   3.75736200
_cell_length_b   10.61256333
_cell_length_c   12.42568121
_cell_angle_alpha   90.16725991
_cell_angle_beta   90.00000000
_cell_angle_gamma   90.00000000
_symmetry_Int_Tables_number   1
_chemical_formula_structural   Ce3Pr3Cr2(Co4P3)4
_chemical_formula_sum   'Ce3 Pr3 Cr2 Co16 P12'
_cell_volume   495.47493616
_cell_formula_units_Z   1
loop_
 _symmetry_equiv_pos_site_id
 _symmetry_equiv_pos_as_xyz
  1  'x, y, z'
loop_
 _atom_site_type_symbol
 _atom_site_label
 _atom_site_symmetry_multiplicity
 _atom_site_fract_x
 _atom_site_fract_y
 _atom_site_fract_z
 _atom_site_occupancy
  Ce  Ce0  1  0.500000  0.819945  0.206591  1
  Ce  Ce1  1  0.500000  0.179933  0.205953  1
  Ce  Ce2  1  0.000000  0.678770  0.792888  1
  Pr  Pr3  1  0.000000  0.500362  0.519897  1
  Pr  Pr4  1  0.500000  0.000756  0.480097  1
  Pr  Pr5  1  0.000000  0.316638  0.795625  1
  Cr  Cr6  1  0.500000  0.500840  0.154209  1
  Cr  Cr7  1  0.000000  0.998010  0.846426  1
  Co  Co8  1  0.500000  0.508586  0.708128  1
  Co  Co9  1  0.000000  0.000267  0.289785  1
  Co  Co10  1  0.000000  0.500585  0.988950  1
  Co  Co11  1  0.500000  0.998276  0.012828  1
  Co  Co12  1  0.500000  0.331974  0.996251  1
  Co  Co13  1  0.500000  0.667427  0.994859  1
  Co  Co14  1  0.000000  0.166133  0.007555  1
  Co  Co15  1  0.000000  0.831287  0.006223  1
  Co  Co16  1  0.500000  0.295716  0.428531  1
  Co  Co17  1  0.500000  0.705329  0.428608  1
  Co  Co18  1  0.000000  0.205473  0.568475  1
  Co  Co19  1  0.000000  0.796953  0.570375  1
  Co  Co20  1  0.500000  0.879315  0.713663  1
  Co  Co21  1  0.500000  0.117004  0.711718  1
  Co  Co22  1  0.000000  0.620591  0.286624  1
  Co  Co23  1  0.000000  0.379978  0.286372  1
  P  P24  1  0.500000  0.500225  0.889036  1
  P  P25  1  0.000000  0.998935  0.111183  1
  P  P26  1  0.500000  0.500550  0.339132  1
  P  P27  1  0.000000  0.000193  0.660645  1
  P  P28  1  0.500000  0.308026  0.614052  1
  P  P29  1  0.500000  0.695073  0.613536  1
  P  P30  1  0.000000  0.193647  0.384849  1
  P  P31  1  0.000000  0.807561  0.385441  1
  P  P32  1  0.500000  0.845941  0.894651  1
  P  P33  1  0.500000  0.149840  0.895646  1
  P  P34  1  0.000000  0.652472  0.105882  1
  P  P35  1  0.000000  0.347387  0.105319  1
