# generated using pymatgen
data_NaTbU2(Al3Ir)6
_symmetry_space_group_name_H-M   'P 1'
_cell_length_a   7.56720249
_cell_length_b   7.54319971
_cell_length_c   9.29180700
_cell_angle_alpha   90.00000000
_cell_angle_beta   90.00000000
_cell_angle_gamma   119.47725575
_symmetry_Int_Tables_number   1
_chemical_formula_structural   NaTbU2(Al3Ir)6
_chemical_formula_sum   'Na1 Tb1 U2 Al18 Ir6'
_cell_volume   461.72714850
_cell_formula_units_Z   1
loop_
 _symmetry_equiv_pos_site_id
 _symmetry_equiv_pos_as_xyz
  1  'x, y, z'
loop_
 _atom_site_type_symbol
 _atom_site_label
 _atom_site_symmetry_multiplicity
 _atom_site_fract_x
 _atom_site_fract_y
 _atom_site_fract_z
 _atom_site_occupancy
  Na  Na0  1  0.990862  0.673159  0.250000  1
  Tb  Tb1  1  0.325547  0.003209  0.750000  1
  U  U2  1  0.003654  0.327709  0.750000  1
  U  U3  1  0.674158  0.002289  0.250000  1
  Al  Al4  1  0.125689  0.128923  0.250000  1
  Al  Al5  1  0.869895  0.866706  0.750000  1
  Al  Al6  1  0.004476  0.344642  0.082210  1
  Al  Al7  1  0.998857  0.665925  0.930641  1
  Al  Al8  1  0.998857  0.665925  0.569359  1
  Al  Al9  1  0.328807  0.994420  0.418725  1
  Al  Al10  1  0.004476  0.344642  0.417790  1
  Al  Al11  1  0.661125  0.994921  0.578898  1
  Al  Al12  1  0.661125  0.994921  0.921102  1
  Al  Al13  1  0.328807  0.994420  0.081275  1
  Al  Al14  1  0.336062  0.333705  0.551091  1
  Al  Al15  1  0.669859  0.666406  0.442306  1
  Al  Al16  1  0.669859  0.666406  0.057694  1
  Al  Al17  1  0.336062  0.333705  0.948909  1
  Al  Al18  1  0.350017  0.556321  0.250000  1
  Al  Al19  1  0.663340  0.451888  0.750000  1
  Al  Al20  1  0.549622  0.336685  0.250000  1
  Al  Al21  1  0.450101  0.652520  0.750000  1
  Ir  Ir22  1  0.671473  0.322089  0.999275  1
  Ir  Ir23  1  0.330032  0.671958  0.997791  1
  Ir  Ir24  1  0.330032  0.671958  0.502209  1
  Ir  Ir25  1  0.671473  0.322089  0.500725  1
  Ir  Ir26  1  0.997867  0.006230  0.998205  1
  Ir  Ir27  1  0.997867  0.006230  0.501795  1
