# generated using pymatgen
data_Zr5Sc3V12Si15Ge
_symmetry_space_group_name_H-M   'P 1'
_cell_length_a   6.64026924
_cell_length_b   6.64929425
_cell_length_c   12.31524571
_cell_angle_alpha   89.96903524
_cell_angle_beta   90.00875142
_cell_angle_gamma   90.02174028
_symmetry_Int_Tables_number   1
_chemical_formula_structural   Zr5Sc3V12Si15Ge
_chemical_formula_sum   'Zr5 Sc3 V12 Si15 Ge1'
_cell_volume   543.75620044
_cell_formula_units_Z   1
loop_
 _symmetry_equiv_pos_site_id
 _symmetry_equiv_pos_as_xyz
  1  'x, y, z'
loop_
 _atom_site_type_symbol
 _atom_site_label
 _atom_site_symmetry_multiplicity
 _atom_site_fract_x
 _atom_site_fract_y
 _atom_site_fract_z
 _atom_site_occupancy
  Zr  Zr0  1  0.002213  0.659531  0.029909  1
  Zr  Zr1  1  0.837833  0.503160  0.281166  1
  Zr  Zr2  1  0.161112  0.496706  0.780116  1
  Zr  Zr3  1  0.502531  0.838295  0.718754  1
  Zr  Zr4  1  0.499059  0.163799  0.220987  1
  Sc  Sc5  1  0.998040  0.337859  0.529485  1
  Sc  Sc6  1  0.664344  0.001314  0.969965  1
  Sc  Sc7  1  0.337877  0.998087  0.470659  1
  V  V8  1  0.331507  0.337476  0.999314  1
  V  V9  1  0.166476  0.831449  0.251564  1
  V  V10  1  0.832812  0.167384  0.749814  1
  V  V11  1  0.667430  0.667412  0.500086  1
  V  V12  1  0.001582  0.162413  0.127668  1
  V  V13  1  0.341762  0.505778  0.375907  1
  V  V14  1  0.659350  0.494227  0.875654  1
  V  V15  1  0.505956  0.341888  0.624392  1
  V  V16  1  0.496501  0.655913  0.124149  1
  V  V17  1  0.994181  0.841195  0.627207  1
  V  V18  1  0.157323  0.005026  0.870830  1
  V  V19  1  0.841185  0.993723  0.373141  1
  Si  Si20  1  0.538157  0.792860  0.315653  1
  Si  Si21  1  0.461190  0.207187  0.815288  1
  Si  Si22  1  0.792839  0.538804  0.684175  1
  Si  Si23  1  0.208961  0.460096  0.186053  1
  Si  Si24  1  0.708987  0.040379  0.563301  1
  Si  Si25  1  0.958157  0.288221  0.935649  1
  Si  Si26  1  0.040240  0.708617  0.437087  1
  Si  Si27  1  0.703381  0.371136  0.070117  1
  Si  Si28  1  0.127928  0.203364  0.321195  1
  Si  Si29  1  0.871104  0.795433  0.820725  1
  Si  Si30  1  0.204048  0.128544  0.678515  1
  Si  Si31  1  0.794863  0.873157  0.179566  1
  Si  Si32  1  0.295730  0.627645  0.570012  1
  Si  Si33  1  0.375006  0.702862  0.927303  1
  Si  Si34  1  0.627746  0.295597  0.430349  1
  Ge  Ge35  1  0.292589  0.963461  0.064246  1
