# generated using pymatgen
data_Mg7Zr(B6Os)4
_symmetry_space_group_name_H-M   'P 1'
_cell_length_a   8.86107011
_cell_length_b   11.05366714
_cell_length_c   3.49661800
_cell_angle_alpha   90.00000000
_cell_angle_beta   90.00000000
_cell_angle_gamma   89.98178197
_symmetry_Int_Tables_number   1
_chemical_formula_structural   Mg7Zr(B6Os)4
_chemical_formula_sum   'Mg7 Zr1 B24 Os4'
_cell_volume   342.48434317
_cell_formula_units_Z   1
loop_
 _symmetry_equiv_pos_site_id
 _symmetry_equiv_pos_as_xyz
  1  'x, y, z'
loop_
 _atom_site_type_symbol
 _atom_site_label
 _atom_site_symmetry_multiplicity
 _atom_site_fract_x
 _atom_site_fract_y
 _atom_site_fract_z
 _atom_site_occupancy
  Mg  Mg0  1  0.325415  0.089539  0.000000  1
  Mg  Mg1  1  0.944648  0.129199  0.000000  1
  Mg  Mg2  1  0.443672  0.372619  0.000000  1
  Mg  Mg3  1  0.828075  0.412394  0.000000  1
  Mg  Mg4  1  0.172749  0.585563  0.000000  1
  Mg  Mg5  1  0.554603  0.624795  0.000000  1
  Mg  Mg6  1  0.055624  0.871973  0.000000  1
  Zr  Zr7  1  0.674753  0.913349  0.000000  1
  B  B8  1  0.093728  0.026132  0.500000  1
  B  B9  1  0.555927  0.065209  0.500000  1
  B  B10  1  0.756365  0.080058  0.500000  1
  B  B11  1  0.129880  0.180889  0.500000  1
  B  B12  1  0.478687  0.211736  0.500000  1
  B  B13  1  0.796429  0.238431  0.500000  1
  B  B14  1  0.295851  0.261200  0.500000  1
  B  B15  1  0.979327  0.288673  0.500000  1
  B  B16  1  0.630217  0.318450  0.500000  1
  B  B17  1  0.256211  0.420326  0.500000  1
  B  B18  1  0.054054  0.435684  0.500000  1
  B  B19  1  0.592580  0.474049  0.500000  1
  B  B20  1  0.407729  0.524485  0.500000  1
  B  B21  1  0.945101  0.565196  0.500000  1
  B  B22  1  0.744131  0.577652  0.500000  1
  B  B23  1  0.369705  0.679701  0.500000  1
  B  B24  1  0.020567  0.711710  0.500000  1
  B  B25  1  0.704056  0.737713  0.500000  1
  B  B26  1  0.204943  0.762106  0.500000  1
  B  B27  1  0.519508  0.787278  0.500000  1
  B  B28  1  0.870149  0.819024  0.500000  1
  B  B29  1  0.243929  0.921561  0.500000  1
  B  B30  1  0.445135  0.935786  0.500000  1
  B  B31  1  0.906371  0.974384  0.500000  1
  Os  Os32  1  0.640520  0.179519  0.000000  1
  Os  Os33  1  0.140943  0.321395  0.000000  1
  Os  Os34  1  0.856074  0.681392  0.000000  1
  Os  Os35  1  0.362351  0.820832  0.000000  1
