# generated using pymatgen
data_Er8Si16Tc11Ni
_symmetry_space_group_name_H-M   'P 1'
_cell_length_a   6.76980344
_cell_length_b   6.74245975
_cell_length_c   12.67412679
_cell_angle_alpha   89.94763308
_cell_angle_beta   89.35294669
_cell_angle_gamma   89.63088206
_symmetry_Int_Tables_number   1
_chemical_formula_structural   Er8Si16Tc11Ni
_chemical_formula_sum   'Er8 Si16 Tc11 Ni1'
_cell_volume   578.46302999
_cell_formula_units_Z   1
loop_
 _symmetry_equiv_pos_site_id
 _symmetry_equiv_pos_as_xyz
  1  'x, y, z'
loop_
 _atom_site_type_symbol
 _atom_site_label
 _atom_site_symmetry_multiplicity
 _atom_site_fract_x
 _atom_site_fract_y
 _atom_site_fract_z
 _atom_site_occupancy
  Er  Er0  1  0.336206  0.990796  0.467403  1
  Er  Er1  1  0.503676  0.839849  0.720719  1
  Er  Er2  1  0.499455  0.164938  0.219329  1
  Er  Er3  1  0.842596  0.506538  0.281704  1
  Er  Er4  1  0.157921  0.493063  0.780617  1
  Er  Er5  1  0.666068  0.008622  0.966967  1
  Er  Er6  1  0.992020  0.337151  0.529553  1
  Er  Er7  1  0.012876  0.666372  0.030824  1
  Si  Si8  1  0.181593  0.098928  0.689237  1
  Si  Si9  1  0.388319  0.696789  0.933616  1
  Si  Si10  1  0.610873  0.304052  0.435396  1
  Si  Si11  1  0.698963  0.385545  0.065235  1
  Si  Si12  1  0.301320  0.616993  0.567327  1
  Si  Si13  1  0.808819  0.883998  0.185129  1
  Si  Si14  1  0.118547  0.195560  0.313837  1
  Si  Si15  1  0.892400  0.810699  0.808733  1
  Si  Si16  1  0.285952  0.979006  0.065248  1
  Si  Si17  1  0.518632  0.768750  0.309744  1
  Si  Si18  1  0.477958  0.235549  0.811819  1
  Si  Si19  1  0.758978  0.510670  0.686843  1
  Si  Si20  1  0.233917  0.483642  0.189077  1
  Si  Si21  1  0.729407  0.014827  0.561352  1
  Si  Si22  1  0.978851  0.284794  0.939943  1
  Si  Si23  1  0.011521  0.732501  0.440874  1
  Tc  Tc24  1  0.339437  0.341512  0.001101  1
  Tc  Tc25  1  0.169175  0.835921  0.249569  1
  Tc  Tc26  1  0.829693  0.160240  0.742279  1
  Tc  Tc27  1  0.659467  0.660572  0.502411  1
  Tc  Tc28  1  0.179207  0.992317  0.877832  1
  Tc  Tc29  1  0.529062  0.688908  0.118006  1
  Tc  Tc30  1  0.458527  0.303882  0.618554  1
  Tc  Tc31  1  0.693427  0.523229  0.881285  1
  Tc  Tc32  1  0.310278  0.481990  0.383749  1
  Tc  Tc33  1  0.819577  0.021818  0.368724  1
  Tc  Tc34  1  0.987026  0.177691  0.128892  1
  Ni  Ni35  1  0.018260  0.802288  0.627073  1
