# generated using pymatgen
data_Er16Cd4CoRu3
_symmetry_space_group_name_H-M   'P 1'
_cell_length_a   9.55404772
_cell_length_b   9.55404672
_cell_length_c   9.45985541
_cell_angle_alpha   59.67008029
_cell_angle_beta   59.67007359
_cell_angle_gamma   60.00000734
_symmetry_Int_Tables_number   1
_chemical_formula_structural   Er16Cd4CoRu3
_chemical_formula_sum   'Er16 Cd4 Co1 Ru3'
_cell_volume   607.51983410
_cell_formula_units_Z   1
loop_
 _symmetry_equiv_pos_site_id
 _symmetry_equiv_pos_as_xyz
  1  'x, y, z'
loop_
 _atom_site_type_symbol
 _atom_site_label
 _atom_site_symmetry_multiplicity
 _atom_site_fract_x
 _atom_site_fract_y
 _atom_site_fract_z
 _atom_site_occupancy
  Er  Er0  1  0.937453  0.937453  0.561352  1
  Er  Er1  1  0.811604  0.189709  0.187083  1
  Er  Er2  1  0.937453  0.563741  0.561352  1
  Er  Er3  1  0.938261  0.561839  0.938059  1
  Er  Er4  1  0.811604  0.811604  0.187083  1
  Er  Er5  1  0.344041  0.344041  0.351041  1
  Er  Er6  1  0.561839  0.938261  0.938059  1
  Er  Er7  1  0.563741  0.937453  0.561352  1
  Er  Er8  1  0.188286  0.816153  0.807274  1
  Er  Er9  1  0.188286  0.188286  0.807274  1
  Er  Er10  1  0.346073  0.346073  0.961780  1
  Er  Er11  1  0.344041  0.960878  0.351041  1
  Er  Er12  1  0.816153  0.188286  0.807274  1
  Er  Er13  1  0.561839  0.561839  0.938059  1
  Er  Er14  1  0.189709  0.811604  0.187083  1
  Er  Er15  1  0.960878  0.344041  0.351041  1
  Cd  Cd16  1  0.580718  0.580718  0.257846  1
  Cd  Cd17  1  0.259923  0.580284  0.579512  1
  Cd  Cd18  1  0.580284  0.580284  0.579512  1
  Cd  Cd19  1  0.580284  0.259923  0.579512  1
  Co  Co20  1  0.140317  0.140317  0.579048  1
  Ru  Ru21  1  0.580193  0.138511  0.142787  1
  Ru  Ru22  1  0.138511  0.138511  0.142787  1
  Ru  Ru23  1  0.138511  0.580193  0.142787  1
