# generated using pymatgen
data_Ca2YHoTm4(B6Os)4
_symmetry_space_group_name_H-M   'P 1'
_cell_length_a   3.62784400
_cell_length_b   9.12367012
_cell_length_c   11.52704406
_cell_angle_alpha   89.83067515
_cell_angle_beta   90.00000000
_cell_angle_gamma   90.00000000
_symmetry_Int_Tables_number   1
_chemical_formula_structural   Ca2YHoTm4(B6Os)4
_chemical_formula_sum   'Ca2 Y1 Ho1 Tm4 B24 Os4'
_cell_volume   381.53486887
_cell_formula_units_Z   1
loop_
 _symmetry_equiv_pos_site_id
 _symmetry_equiv_pos_as_xyz
  1  'x, y, z'
loop_
 _atom_site_type_symbol
 _atom_site_label
 _atom_site_symmetry_multiplicity
 _atom_site_fract_x
 _atom_site_fract_y
 _atom_site_fract_z
 _atom_site_occupancy
  Ca  Ca0  1  0.000000  0.323223  0.414775  1
  Ca  Ca1  1  0.000000  0.676757  0.585211  1
  Y  Y2  1  0.000000  0.178506  0.913768  1
  Ho  Ho3  1  0.000000  0.821677  0.086274  1
  Tm  Tm4  1  0.000000  0.942190  0.370339  1
  Tm  Tm5  1  0.000000  0.057723  0.629635  1
  Tm  Tm6  1  0.000000  0.443052  0.129999  1
  Tm  Tm7  1  0.000000  0.557145  0.870074  1
  B  B8  1  0.500000  0.554215  0.432014  1
  B  B9  1  0.500000  0.445835  0.567919  1
  B  B10  1  0.500000  0.053494  0.066979  1
  B  B11  1  0.500000  0.945952  0.933310  1
  B  B12  1  0.500000  0.748849  0.417252  1
  B  B13  1  0.500000  0.251112  0.582640  1
  B  B14  1  0.500000  0.249043  0.081662  1
  B  B15  1  0.500000  0.750946  0.918762  1
  B  B16  1  0.500000  0.791633  0.264361  1
  B  B17  1  0.500000  0.208478  0.735324  1
  B  B18  1  0.500000  0.290437  0.234050  1
  B  B19  1  0.500000  0.709552  0.766025  1
  B  B20  1  0.500000  0.630993  0.184650  1
  B  B21  1  0.500000  0.369352  0.815108  1
  B  B22  1  0.500000  0.129932  0.313951  1
  B  B23  1  0.500000  0.869953  0.686034  1
  B  B24  1  0.500000  0.982405  0.211936  1
  B  B25  1  0.500000  0.017152  0.787939  1
  B  B26  1  0.500000  0.483559  0.287363  1
  B  B27  1  0.500000  0.516580  0.712618  1
  B  B28  1  0.500000  0.602162  0.028034  1
  B  B29  1  0.500000  0.398317  0.972100  1
  B  B30  1  0.500000  0.098220  0.472870  1
  B  B31  1  0.500000  0.901726  0.527098  1
  Os  Os32  1  0.000000  0.640478  0.317700  1
  Os  Os33  1  0.000000  0.359745  0.682039  1
  Os  Os34  1  0.000000  0.136641  0.178089  1
  Os  Os35  1  0.000000  0.862967  0.822097  1
