# generated using pymatgen
data_Tb4Cd2CuNi3
_symmetry_space_group_name_H-M   'P 1'
_cell_length_a   7.44428894
_cell_length_b   7.44428894
_cell_length_c   3.69688300
_cell_angle_alpha   90.00000000
_cell_angle_beta   90.00000000
_cell_angle_gamma   90.10185693
_symmetry_Int_Tables_number   1
_chemical_formula_structural   Tb4Cd2CuNi3
_chemical_formula_sum   'Tb4 Cd2 Cu1 Ni3'
_cell_volume   204.87146010
_cell_formula_units_Z   1
loop_
 _symmetry_equiv_pos_site_id
 _symmetry_equiv_pos_as_xyz
  1  'x, y, z'
loop_
 _atom_site_type_symbol
 _atom_site_label
 _atom_site_symmetry_multiplicity
 _atom_site_fract_x
 _atom_site_fract_y
 _atom_site_fract_z
 _atom_site_occupancy
  Tb  Tb0  1  0.676455  0.176455  0.500000  1
  Tb  Tb1  1  0.334370  0.834370  0.500000  1
  Tb  Tb2  1  0.173231  0.314755  0.500000  1
  Tb  Tb3  1  0.814755  0.673231  0.500000  1
  Cd  Cd4  1  0.998927  0.997428  0.000000  1
  Cd  Cd5  1  0.497428  0.498927  0.000000  1
  Cu  Cu6  1  0.118740  0.618740  0.000000  1
  Ni  Ni7  1  0.882213  0.382213  0.000000  1
  Ni  Ni8  1  0.620631  0.883250  0.000000  1
  Ni  Ni9  1  0.383250  0.120631  0.000000  1
