# generated using pymatgen
data_MnNbSbF12
_symmetry_space_group_name_H-M   'P 1'
_cell_length_a   5.36277939
_cell_length_b   5.66097827
_cell_length_c   9.37062299
_cell_angle_alpha   74.07296713
_cell_angle_beta   88.92260019
_cell_angle_gamma   62.27058439
_symmetry_Int_Tables_number   1
_chemical_formula_structural   MnNbSbF12
_chemical_formula_sum   'Mn1 Nb1 Sb1 F12'
_cell_volume   240.15212814
_cell_formula_units_Z   1
loop_
 _symmetry_equiv_pos_site_id
 _symmetry_equiv_pos_as_xyz
  1  'x, y, z'
loop_
 _atom_site_type_symbol
 _atom_site_label
 _atom_site_symmetry_multiplicity
 _atom_site_fract_x
 _atom_site_fract_y
 _atom_site_fract_z
 _atom_site_occupancy
  Mn  Mn0  1  0.495693  0.500410  0.500265  1
  Nb  Nb1  1  0.771299  0.007408  0.235489  1
  Sb  Sb2  1  0.226194  0.996321  0.758322  1
  F  F3  1  0.947150  0.234189  0.204924  1
  F  F4  1  0.052384  0.765474  0.793958  1
  F  F5  1  0.019804  0.757505  0.137895  1
  F  F6  1  0.461479  0.778222  0.629729  1
  F  F7  1  0.543137  0.227812  0.372378  1
  F  F8  1  0.947841  0.239109  0.576682  1
  F  F9  1  0.060674  0.756612  0.422229  1
  F  F10  1  0.402823  0.235573  0.686133  1
  F  F11  1  0.596303  0.762559  0.323172  1
  F  F12  1  0.513907  0.776626  0.922658  1
  F  F13  1  0.481295  0.222057  0.074613  1
  F  F14  1  0.980019  0.240125  0.861549  1
