# generated using pymatgen
data_Na2HoIO6
_symmetry_space_group_name_H-M   'P 1'
_cell_length_a   5.61990326
_cell_length_b   5.75503200
_cell_length_c   8.03074349
_cell_angle_alpha   90.00000000
_cell_angle_beta   90.00383242
_cell_angle_gamma   90.00000000
_symmetry_Int_Tables_number   1
_chemical_formula_structural   Na2HoIO6
_chemical_formula_sum   'Na4 Ho2 I2 O12'
_cell_volume   259.73611234
_cell_formula_units_Z   2
loop_
 _symmetry_equiv_pos_site_id
 _symmetry_equiv_pos_as_xyz
  1  'x, y, z'
loop_
 _atom_site_type_symbol
 _atom_site_label
 _atom_site_symmetry_multiplicity
 _atom_site_fract_x
 _atom_site_fract_y
 _atom_site_fract_z
 _atom_site_occupancy
  Na  Na0  1  0.489000  0.961481  0.755388  1
  Na  Na1  1  0.011000  0.461481  0.744612  1
  Na  Na2  1  0.511000  0.038519  0.244612  1
  Na  Na3  1  0.989000  0.538519  0.255388  1
  Ho  Ho4  1  0.500000  0.500000  0.000000  1
  Ho  Ho5  1  0.000000  0.000000  0.500000  1
  I  I6  1  0.500000  0.500000  0.500000  1
  I  I7  1  0.000000  0.000000  0.000000  1
  O  O8  1  0.313861  0.233085  0.552175  1
  O  O9  1  0.186139  0.733085  0.947825  1
  O  O10  1  0.686139  0.766915  0.447825  1
  O  O11  1  0.813861  0.266915  0.052175  1
  O  O12  1  0.586657  0.532487  0.727627  1
  O  O13  1  0.913343  0.032487  0.772373  1
  O  O14  1  0.413343  0.467513  0.272373  1
  O  O15  1  0.086657  0.967513  0.227627  1
  O  O16  1  0.229799  0.690983  0.538948  1
  O  O17  1  0.270201  0.190983  0.961052  1
  O  O18  1  0.770201  0.309017  0.461052  1
  O  O19  1  0.729799  0.809017  0.038948  1
