# generated using pymatgen
data_TaTi2Re2Si3W
_symmetry_space_group_name_H-M   'P 1'
_cell_length_a   6.85574783
_cell_length_b   6.85574696
_cell_length_c   3.27544300
_cell_angle_alpha   90.00000000
_cell_angle_beta   90.00000000
_cell_angle_gamma   119.49970568
_symmetry_Int_Tables_number   1
_chemical_formula_structural   TaTi2Re2Si3W
_chemical_formula_sum   'Ta1 Ti2 Re2 Si3 W1'
_cell_volume   133.99163867
_cell_formula_units_Z   1
loop_
 _symmetry_equiv_pos_site_id
 _symmetry_equiv_pos_as_xyz
  1  'x, y, z'
loop_
 _atom_site_type_symbol
 _atom_site_label
 _atom_site_symmetry_multiplicity
 _atom_site_fract_x
 _atom_site_fract_y
 _atom_site_fract_z
 _atom_site_occupancy
  Ta  Ta0  1  0.404001  0.404001  0.500000  1
  Ti  Ti1  1  0.595692  0.996731  0.500000  1
  Ti  Ti2  1  0.996731  0.595692  0.500000  1
  Re  Re3  1  0.261909  0.001968  0.000000  1
  Re  Re4  1  0.001968  0.261909  0.000000  1
  Si  Si5  1  0.670613  0.330121  0.000000  1
  Si  Si6  1  0.330121  0.670613  0.000000  1
  Si  Si7  1  0.001135  0.001135  0.500000  1
  W  W8  1  0.737829  0.737829  0.000000  1
