# generated using pymatgen
data_Ce8Hf11Si16Tc
_symmetry_space_group_name_H-M   'P 1'
_cell_length_a   7.29460603
_cell_length_b   7.29460603
_cell_length_c   13.42098004
_cell_angle_alpha   89.81237554
_cell_angle_beta   89.81237554
_cell_angle_gamma   89.96874278
_symmetry_Int_Tables_number   1
_chemical_formula_structural   Ce8Hf11Si16Tc
_chemical_formula_sum   'Ce8 Hf11 Si16 Tc1'
_cell_volume   714.13972710
_cell_formula_units_Z   1
loop_
 _symmetry_equiv_pos_site_id
 _symmetry_equiv_pos_as_xyz
  1  'x, y, z'
loop_
 _atom_site_type_symbol
 _atom_site_label
 _atom_site_symmetry_multiplicity
 _atom_site_fract_x
 _atom_site_fract_y
 _atom_site_fract_z
 _atom_site_occupancy
  Ce  Ce0  1  0.496764  0.159717  0.536956  1
  Ce  Ce1  1  0.507585  0.841367  0.033276  1
  Ce  Ce2  1  0.659415  0.007644  0.284708  1
  Ce  Ce3  1  0.342247  0.995576  0.784630  1
  Ce  Ce4  1  0.840283  0.503236  0.963044  1
  Ce  Ce5  1  0.158633  0.492415  0.466724  1
  Ce  Ce6  1  0.004424  0.657753  0.715370  1
  Ce  Ce7  1  0.992356  0.340585  0.215292  1
  Hf  Hf8  1  0.326588  0.673412  0.250000  1
  Hf  Hf9  1  0.825005  0.826484  0.501625  1
  Hf  Hf10  1  0.173516  0.174995  0.998375  1
  Hf  Hf11  1  0.498443  0.349472  0.122825  1
  Hf  Hf12  1  0.502056  0.649549  0.627372  1
  Hf  Hf13  1  0.849409  0.004553  0.871497  1
  Hf  Hf14  1  0.151268  0.997873  0.375014  1
  Hf  Hf15  1  0.650528  0.501557  0.377175  1
  Hf  Hf16  1  0.350451  0.497944  0.872628  1
  Hf  Hf17  1  0.002127  0.848732  0.124986  1
  Hf  Hf18  1  0.995447  0.150591  0.628503  1
  Si  Si19  1  0.797482  0.136930  0.063256  1
  Si  Si20  1  0.203307  0.863739  0.564735  1
  Si  Si21  1  0.636497  0.701189  0.815306  1
  Si  Si22  1  0.362864  0.296838  0.314842  1
  Si  Si23  1  0.863070  0.202518  0.436744  1
  Si  Si24  1  0.136261  0.796693  0.935265  1
  Si  Si25  1  0.703162  0.637136  0.185158  1
  Si  Si26  1  0.298811  0.363503  0.684694  1
  Si  Si27  1  0.550818  0.207744  0.931019  1
  Si  Si28  1  0.452841  0.795276  0.435320  1
  Si  Si29  1  0.705571  0.953873  0.685363  1
  Si  Si30  1  0.294610  0.047484  0.184273  1
  Si  Si31  1  0.792256  0.449182  0.568981  1
  Si  Si32  1  0.204724  0.547159  0.064680  1
  Si  Si33  1  0.952516  0.705390  0.315727  1
  Si  Si34  1  0.046127  0.294429  0.814637  1
  Tc  Tc35  1  0.672537  0.327463  0.750000  1
