# generated using pymatgen
data_Ti3Mn(Pd3Pt)3
_symmetry_space_group_name_H-M   'P 1'
_cell_length_a   6.81165912
_cell_length_b   6.81167956
_cell_length_c   6.81081280
_cell_angle_alpha   109.70703904
_cell_angle_beta   109.70536938
_cell_angle_gamma   109.00731781
_symmetry_Int_Tables_number   1
_chemical_formula_structural   Ti3Mn(Pd3Pt)3
_chemical_formula_sum   'Ti3 Mn1 Pd9 Pt3'
_cell_volume   243.24030385
_cell_formula_units_Z   1
loop_
 _symmetry_equiv_pos_site_id
 _symmetry_equiv_pos_as_xyz
  1  'x, y, z'
loop_
 _atom_site_type_symbol
 _atom_site_label
 _atom_site_symmetry_multiplicity
 _atom_site_fract_x
 _atom_site_fract_y
 _atom_site_fract_z
 _atom_site_occupancy
  Ti  Ti0  1  0.251367  0.251452  0.502816  1
  Ti  Ti1  1  0.748550  0.748635  0.497185  1
  Ti  Ti2  1  0.251896  0.748104  0.999998  1
  Mn  Mn3  1  0.749331  0.250674  0.000010  1
  Pd  Pd4  1  0.498286  0.249952  0.251426  1
  Pd  Pd5  1  0.499287  0.747450  0.747961  1
  Pd  Pd6  1  0.000511  0.248673  0.747963  1
  Pd  Pd7  1  0.246877  0.998540  0.748569  1
  Pd  Pd8  1  0.001476  0.753142  0.251427  1
  Pd  Pd9  1  0.751346  0.999506  0.252034  1
  Pd  Pd10  1  0.252530  0.500691  0.252037  1
  Pd  Pd11  1  0.750030  0.501695  0.748574  1
  Pd  Pd12  1  0.001466  0.998554  0.000019  1
  Pt  Pt13  1  0.497312  0.997573  0.494895  1
  Pt  Pt14  1  0.002434  0.502673  0.505096  1
  Pt  Pt15  1  0.497302  0.502686  0.999990  1
