# generated using pymatgen
data_TiMn4In3Rh8
_symmetry_space_group_name_H-M   'P 1'
_cell_length_a   6.28215500
_cell_length_b   4.42812600
_cell_length_c   8.84924700
_cell_angle_alpha   90.00000000
_cell_angle_beta   89.99992467
_cell_angle_gamma   90.00000000
_symmetry_Int_Tables_number   1
_chemical_formula_structural   TiMn4In3Rh8
_chemical_formula_sum   'Ti1 Mn4 In3 Rh8'
_cell_volume   246.16989185
_cell_formula_units_Z   1
loop_
 _symmetry_equiv_pos_site_id
 _symmetry_equiv_pos_as_xyz
  1  'x, y, z'
loop_
 _atom_site_type_symbol
 _atom_site_label
 _atom_site_symmetry_multiplicity
 _atom_site_fract_x
 _atom_site_fract_y
 _atom_site_fract_z
 _atom_site_occupancy
  Ti  Ti0  1  0.250009  0.749999  0.874928  1
  Mn  Mn1  1  0.249987  0.249999  0.126649  1
  Mn  Mn2  1  0.749983  0.749999  0.374927  1
  Mn  Mn3  1  0.250008  0.249999  0.623435  1
  Mn  Mn4  1  0.750008  0.749999  0.874906  1
  In  In5  1  0.750002  0.249999  0.122281  1
  In  In6  1  0.250015  0.749999  0.375115  1
  In  In7  1  0.750005  0.249999  0.627864  1
  Rh  Rh8  1  0.490515  0.749999  0.114033  1
  Rh  Rh9  1  0.009454  0.749999  0.114038  1
  Rh  Rh10  1  0.500251  0.249999  0.375054  1
  Rh  Rh11  1  0.999725  0.249999  0.375048  1
  Rh  Rh12  1  0.009475  0.749999  0.635829  1
  Rh  Rh13  1  0.490544  0.749999  0.635825  1
  Rh  Rh14  1  0.014643  0.249999  0.875037  1
  Rh  Rh15  1  0.485374  0.249999  0.875031  1
