# generated using pymatgen
data_CsDy10(C2Br9)2
_symmetry_space_group_name_H-M   'P 1'
_cell_length_a   10.68900368
_cell_length_b   10.77560028
_cell_length_c   10.90595344
_cell_angle_alpha   113.33897562
_cell_angle_beta   87.50089321
_cell_angle_gamma   118.78987161
_symmetry_Int_Tables_number   1
_chemical_formula_structural   CsDy10(C2Br9)2
_chemical_formula_sum   'Cs1 Dy10 C4 Br18'
_cell_volume   993.75019679
_cell_formula_units_Z   1
loop_
 _symmetry_equiv_pos_site_id
 _symmetry_equiv_pos_as_xyz
  1  'x, y, z'
loop_
 _atom_site_type_symbol
 _atom_site_label
 _atom_site_symmetry_multiplicity
 _atom_site_fract_x
 _atom_site_fract_y
 _atom_site_fract_z
 _atom_site_occupancy
  Cs  Cs0  1  0.500000  0.000000  0.500000  1
  Dy  Dy1  1  0.663224  0.718130  0.703248  1
  Dy  Dy2  1  0.282027  0.363057  0.011759  1
  Dy  Dy3  1  0.092323  0.405121  0.299697  1
  Dy  Dy4  1  0.959857  0.035986  0.332092  1
  Dy  Dy5  1  0.907677  0.594879  0.700303  1
  Dy  Dy6  1  0.111427  0.941868  0.000987  1
  Dy  Dy7  1  0.040143  0.964014  0.667908  1
  Dy  Dy8  1  0.336776  0.281870  0.296752  1
  Dy  Dy9  1  0.717973  0.636943  0.988241  1
  Dy  Dy10  1  0.888573  0.058132  0.999013  1
  C  C11  1  0.157003  0.227483  0.123273  1
  C  C12  1  0.842997  0.772517  0.876727  1
  C  C13  1  0.921976  0.851809  0.796287  1
  C  C14  1  0.078024  0.148191  0.203713  1
  Br  Br15  1  0.451702  0.531005  0.833240  1
  Br  Br16  1  0.383867  0.039648  0.159452  1
  Br  Br17  1  0.778283  0.857433  0.502278  1
  Br  Br18  1  0.837629  0.311178  0.154080  1
  Br  Br19  1  0.548298  0.468995  0.166760  1
  Br  Br20  1  0.221717  0.142567  0.497722  1
  Br  Br21  1  0.315000  0.098735  0.829023  1
  Br  Br22  1  0.685000  0.901265  0.170977  1
  Br  Br23  1  0.974477  0.760229  0.172100  1
  Br  Br24  1  0.933441  0.301540  0.500280  1
  Br  Br25  1  0.025523  0.239771  0.827900  1
  Br  Br26  1  0.066559  0.698460  0.499720  1
  Br  Br27  1  0.259924  0.621653  0.186027  1
  Br  Br28  1  0.740076  0.378347  0.813973  1
  Br  Br29  1  0.640055  0.434865  0.500995  1
  Br  Br30  1  0.162371  0.688822  0.845920  1
  Br  Br31  1  0.616133  0.960352  0.840548  1
  Br  Br32  1  0.359945  0.565135  0.499005  1
