# generated using pymatgen
data_Eu3HoCdPt
_symmetry_space_group_name_H-M   'P 1'
_cell_length_a   10.11737099
_cell_length_b   10.11737126
_cell_length_c   10.11737000
_cell_angle_alpha   59.99999759
_cell_angle_beta   59.99999668
_cell_angle_gamma   60.00000059
_symmetry_Int_Tables_number   1
_chemical_formula_structural   Eu3HoCdPt
_chemical_formula_sum   'Eu12 Ho4 Cd4 Pt4'
_cell_volume   732.29822278
_cell_formula_units_Z   4
loop_
 _symmetry_equiv_pos_site_id
 _symmetry_equiv_pos_as_xyz
  1  'x, y, z'
loop_
 _atom_site_type_symbol
 _atom_site_label
 _atom_site_symmetry_multiplicity
 _atom_site_fract_x
 _atom_site_fract_y
 _atom_site_fract_z
 _atom_site_occupancy
  Eu  Eu0  1  0.803598  0.196402  0.196402  1
  Eu  Eu1  1  0.196402  0.803598  0.803598  1
  Eu  Eu2  1  0.196402  0.803598  0.196402  1
  Eu  Eu3  1  0.803598  0.196402  0.803598  1
  Eu  Eu4  1  0.196402  0.196402  0.803598  1
  Eu  Eu5  1  0.803598  0.803598  0.196402  1
  Eu  Eu6  1  0.940990  0.559010  0.559010  1
  Eu  Eu7  1  0.559010  0.940990  0.940990  1
  Eu  Eu8  1  0.559010  0.940990  0.559010  1
  Eu  Eu9  1  0.940990  0.559010  0.940990  1
  Eu  Eu10  1  0.559010  0.559010  0.940990  1
  Eu  Eu11  1  0.940990  0.940990  0.559010  1
  Ho  Ho12  1  0.343458  0.343458  0.343458  1
  Ho  Ho13  1  0.343458  0.343458  0.969626  1
  Ho  Ho14  1  0.343458  0.969626  0.343458  1
  Ho  Ho15  1  0.969626  0.343458  0.343458  1
  Cd  Cd16  1  0.577950  0.577950  0.577950  1
  Cd  Cd17  1  0.577950  0.577950  0.266152  1
  Cd  Cd18  1  0.577950  0.266152  0.577950  1
  Cd  Cd19  1  0.266152  0.577950  0.577950  1
  Pt  Pt20  1  0.146183  0.146183  0.146183  1
  Pt  Pt21  1  0.146183  0.146183  0.561449  1
  Pt  Pt22  1  0.146183  0.561449  0.146183  1
  Pt  Pt23  1  0.561449  0.146183  0.146183  1
