# generated using pymatgen
data_Ca5TaN5
_symmetry_space_group_name_H-M   'P 1'
_cell_length_a   6.96311122
_cell_length_b   6.96311076
_cell_length_c   8.84548279
_cell_angle_alpha   80.92667061
_cell_angle_beta   80.92666943
_cell_angle_gamma   60.17597810
_symmetry_Int_Tables_number   1
_chemical_formula_structural   Ca5TaN5
_chemical_formula_sum   'Ca10 Ta2 N10'
_cell_volume   365.83952758
_cell_formula_units_Z   2
loop_
 _symmetry_equiv_pos_site_id
 _symmetry_equiv_pos_as_xyz
  1  'x, y, z'
loop_
 _atom_site_type_symbol
 _atom_site_label
 _atom_site_symmetry_multiplicity
 _atom_site_fract_x
 _atom_site_fract_y
 _atom_site_fract_z
 _atom_site_occupancy
  Ca  Ca0  1  0.874351  0.358956  0.839452  1
  Ca  Ca1  1  0.872465  0.872465  0.826534  1
  Ca  Ca2  1  0.734462  0.734462  0.534036  1
  Ca  Ca3  1  0.748483  0.257342  0.507431  1
  Ca  Ca4  1  0.618815  0.142623  0.149072  1
  Ca  Ca5  1  0.358956  0.874351  0.839452  1
  Ca  Ca6  1  0.257342  0.748483  0.507431  1
  Ca  Ca7  1  0.240339  0.240339  0.491197  1
  Ca  Ca8  1  0.145298  0.145298  0.163656  1
  Ca  Ca9  1  0.142623  0.618815  0.149072  1
  Ta  Ta10  1  0.633523  0.633523  0.220374  1
  Ta  Ta11  1  0.369563  0.369563  0.770244  1
  N  N12  1  0.916348  0.469520  0.322586  1
  N  N13  1  0.994452  0.994452  0.031259  1
  N  N14  1  0.681312  0.681312  0.998533  1
  N  N15  1  0.536426  0.536426  0.692014  1
  N  N16  1  0.469520  0.916348  0.322586  1
  N  N17  1  0.538279  0.086974  0.672843  1
  N  N18  1  0.467681  0.467681  0.298488  1
  N  N19  1  0.318121  0.318121  0.991283  1
  N  N20  1  0.056954  0.056954  0.645416  1
  N  N21  1  0.086974  0.538279  0.672843  1
