# generated using pymatgen
data_Tb8DyLu(In2Pt)4
_symmetry_space_group_name_H-M   'P 1'
_cell_length_a   3.64788000
_cell_length_b   8.17838077
_cell_length_c   18.28046006
_cell_angle_alpha   89.90162717
_cell_angle_beta   90.00000000
_cell_angle_gamma   90.00000000
_symmetry_Int_Tables_number   1
_chemical_formula_structural   Tb8DyLu(In2Pt)4
_chemical_formula_sum   'Tb8 Dy1 Lu1 In8 Pt4'
_cell_volume   545.37390128
_cell_formula_units_Z   1
loop_
 _symmetry_equiv_pos_site_id
 _symmetry_equiv_pos_as_xyz
  1  'x, y, z'
loop_
 _atom_site_type_symbol
 _atom_site_label
 _atom_site_symmetry_multiplicity
 _atom_site_fract_x
 _atom_site_fract_y
 _atom_site_fract_z
 _atom_site_occupancy
  Tb  Tb0  1  0.000000  0.383065  0.915165  1
  Tb  Tb1  1  0.000000  0.617182  0.085359  1
  Tb  Tb2  1  0.000000  0.242361  0.220417  1
  Tb  Tb3  1  0.000000  0.757885  0.779626  1
  Tb  Tb4  1  0.000000  0.257670  0.719209  1
  Tb  Tb5  1  0.000000  0.741064  0.281480  1
  Tb  Tb6  1  0.000000  0.999658  0.000328  1
  Tb  Tb7  1  0.000000  0.500534  0.499155  1
  Dy  Dy8  1  0.000000  0.883333  0.584315  1
  Lu  Lu9  1  0.000000  0.116212  0.413513  1
  In  In10  1  0.500000  0.418560  0.351631  1
  In  In11  1  0.500000  0.576990  0.648586  1
  In  In12  1  0.500000  0.077057  0.850520  1
  In  In13  1  0.500000  0.923700  0.150567  1
  In  In14  1  0.500000  0.292065  0.067156  1
  In  In15  1  0.500000  0.707936  0.933002  1
  In  In16  1  0.500000  0.205994  0.564632  1
  In  In17  1  0.500000  0.797323  0.433604  1
  Pt  Pt18  1  0.500000  0.025361  0.306103  1
  Pt  Pt19  1  0.500000  0.976200  0.695456  1
  Pt  Pt20  1  0.500000  0.475234  0.803076  1
  Pt  Pt21  1  0.500000  0.524616  0.197102  1
