# generated using pymatgen
data_Er15TmIn4IrPt3
_symmetry_space_group_name_H-M   'P 1'
_cell_length_a   9.62904661
_cell_length_b   9.62904782
_cell_length_c   9.62793718
_cell_angle_alpha   59.97064857
_cell_angle_beta   59.97064955
_cell_angle_gamma   59.95839228
_symmetry_Int_Tables_number   1
_chemical_formula_structural   Er15TmIn4IrPt3
_chemical_formula_sum   'Er15 Tm1 In4 Ir1 Pt3'
_cell_volume   630.74735912
_cell_formula_units_Z   1
loop_
 _symmetry_equiv_pos_site_id
 _symmetry_equiv_pos_as_xyz
  1  'x, y, z'
loop_
 _atom_site_type_symbol
 _atom_site_label
 _atom_site_symmetry_multiplicity
 _atom_site_fract_x
 _atom_site_fract_y
 _atom_site_fract_z
 _atom_site_occupancy
  Er  Er0  1  0.439842  0.061488  0.061165  1
  Er  Er1  1  0.436722  0.064495  0.437218  1
  Er  Er2  1  0.061488  0.439842  0.061165  1
  Er  Er3  1  0.650339  0.052433  0.650723  1
  Er  Er4  1  0.186420  0.810471  0.810179  1
  Er  Er5  1  0.061336  0.061336  0.440046  1
  Er  Er6  1  0.808638  0.190623  0.190524  1
  Er  Er7  1  0.810275  0.810275  0.186459  1
  Er  Er8  1  0.650592  0.650592  0.052216  1
  Er  Er9  1  0.649323  0.649323  0.649360  1
  Er  Er10  1  0.064495  0.436722  0.437218  1
  Er  Er11  1  0.052433  0.650339  0.650723  1
  Er  Er12  1  0.810471  0.186420  0.810179  1
  Er  Er13  1  0.436871  0.436871  0.064422  1
  Er  Er14  1  0.190623  0.808638  0.190524  1
  Tm  Tm15  1  0.190681  0.190681  0.808335  1
  In  In16  1  0.416608  0.749783  0.416640  1
  In  In17  1  0.416586  0.416586  0.749731  1
  In  In18  1  0.749783  0.416608  0.416640  1
  In  In19  1  0.415911  0.415911  0.416079  1
  Ir  Ir20  1  0.857339  0.857339  0.857554  1
  Pt  Pt21  1  0.858398  0.427153  0.857577  1
  Pt  Pt22  1  0.857675  0.857675  0.427749  1
  Pt  Pt23  1  0.427153  0.858398  0.857577  1
