# generated using pymatgen
data_Dy6InOsPd
_symmetry_space_group_name_H-M   'P 1'
_cell_length_a   8.58881928
_cell_length_b   8.58881875
_cell_length_c   8.58882000
_cell_angle_alpha   113.56393863
_cell_angle_beta   110.99921004
_cell_angle_gamma   103.99709650
_symmetry_Int_Tables_number   1
_chemical_formula_structural   Dy6InOsPd
_chemical_formula_sum   'Dy12 In2 Os2 Pd2'
_cell_volume   484.16333120
_cell_formula_units_Z   2
loop_
 _symmetry_equiv_pos_site_id
 _symmetry_equiv_pos_as_xyz
  1  'x, y, z'
loop_
 _atom_site_type_symbol
 _atom_site_label
 _atom_site_symmetry_multiplicity
 _atom_site_fract_x
 _atom_site_fract_y
 _atom_site_fract_z
 _atom_site_occupancy
  Dy  Dy0  1  0.435631  0.236163  0.199469  1
  Dy  Dy1  1  0.564369  0.763837  0.800531  1
  Dy  Dy2  1  0.036694  0.236163  0.800533  1
  Dy  Dy3  1  0.963306  0.763837  0.199467  1
  Dy  Dy4  1  0.185399  0.278933  0.464333  1
  Dy  Dy5  1  0.814601  0.721067  0.535667  1
  Dy  Dy6  1  0.185400  0.721067  0.906465  1
  Dy  Dy7  1  0.814600  0.278933  0.093535  1
  Dy  Dy8  1  0.337171  0.648266  0.311096  1
  Dy  Dy9  1  0.662829  0.351734  0.688904  1
  Dy  Dy10  1  0.337169  0.026073  0.688903  1
  Dy  Dy11  1  0.662831  0.973927  0.311097  1
  In  In12  1  0.500000  0.500000  0.000000  1
  In  In13  1  0.000000  0.000000  0.000000  1
  Os  Os14  1  0.330363  0.000000  0.330363  1
  Os  Os15  1  0.669637  0.000000  0.669637  1
  Pd  Pd16  1  0.128613  0.628611  0.499999  1
  Pd  Pd17  1  0.871387  0.371389  0.500001  1
