# generated using pymatgen
data_Ho15Tm5Fe3CoBi8
_symmetry_space_group_name_H-M   'P 1'
_cell_length_a   7.89871243
_cell_length_b   8.89119637
_cell_length_c   12.35344557
_cell_angle_alpha   89.92174739
_cell_angle_beta   89.95714151
_cell_angle_gamma   90.02823833
_symmetry_Int_Tables_number   1
_chemical_formula_structural   Ho15Tm5Fe3CoBi8
_chemical_formula_sum   'Ho15 Tm5 Fe3 Co1 Bi8'
_cell_volume   867.56901153
_cell_formula_units_Z   1
loop_
 _symmetry_equiv_pos_site_id
 _symmetry_equiv_pos_as_xyz
  1  'x, y, z'
loop_
 _atom_site_type_symbol
 _atom_site_label
 _atom_site_symmetry_multiplicity
 _atom_site_fract_x
 _atom_site_fract_y
 _atom_site_fract_z
 _atom_site_occupancy
  Ho  Ho0  1  0.348103  0.749603  0.701253  1
  Ho  Ho1  1  0.652375  0.249845  0.300179  1
  Ho  Ho2  1  0.847777  0.250541  0.798079  1
  Ho  Ho3  1  0.150489  0.749382  0.198917  1
  Ho  Ho4  1  0.884475  0.748501  0.813575  1
  Ho  Ho5  1  0.114256  0.251523  0.186973  1
  Ho  Ho6  1  0.383443  0.250290  0.686498  1
  Ho  Ho7  1  0.614889  0.749624  0.314425  1
  Ho  Ho8  1  0.673681  0.968315  0.563012  1
  Ho  Ho9  1  0.824576  0.964214  0.063010  1
  Ho  Ho10  1  0.173844  0.035889  0.936901  1
  Ho  Ho11  1  0.058621  0.749491  0.494959  1
  Ho  Ho12  1  0.947502  0.250765  0.503944  1
  Ho  Ho13  1  0.557820  0.251461  0.004949  1
  Ho  Ho14  1  0.445000  0.748507  0.995370  1
  Tm  Tm15  1  0.671465  0.532466  0.563005  1
  Tm  Tm16  1  0.326551  0.457277  0.435723  1
  Tm  Tm17  1  0.171470  0.462375  0.937026  1
  Tm  Tm18  1  0.325899  0.041807  0.435964  1
  Tm  Tm19  1  0.826999  0.538305  0.063029  1
  Fe  Fe20  1  0.070078  0.749493  0.990954  1
  Fe  Fe21  1  0.929294  0.251173  0.008206  1
  Fe  Fe22  1  0.568285  0.249677  0.508300  1
  Co  Co23  1  0.434327  0.749569  0.493932  1
  Bi  Bi24  1  0.569468  0.506704  0.826846  1
  Bi  Bi25  1  0.429777  0.492782  0.173839  1
  Bi  Bi26  1  0.069889  0.493787  0.672744  1
  Bi  Bi27  1  0.428273  0.007194  0.173326  1
  Bi  Bi28  1  0.929800  0.508262  0.327286  1
  Bi  Bi29  1  0.570836  0.993016  0.827635  1
  Bi  Bi30  1  0.930514  0.992145  0.327301  1
  Bi  Bi31  1  0.070221  0.006015  0.672838  1
