# generated using pymatgen
data_HoEr3Th6(Ge5Rh2)4
_symmetry_space_group_name_H-M   'P 1'
_cell_length_a   13.12380001
_cell_length_b   13.12380001
_cell_length_c   4.38062800
_cell_angle_alpha   90.00000000
_cell_angle_beta   90.00000000
_cell_angle_gamma   90.00345771
_symmetry_Int_Tables_number   1
_chemical_formula_structural   HoEr3Th6(Ge5Rh2)4
_chemical_formula_sum   'Ho1 Er3 Th6 Ge20 Rh8'
_cell_volume   754.49363615
_cell_formula_units_Z   1
loop_
 _symmetry_equiv_pos_site_id
 _symmetry_equiv_pos_as_xyz
  1  'x, y, z'
loop_
 _atom_site_type_symbol
 _atom_site_label
 _atom_site_symmetry_multiplicity
 _atom_site_fract_x
 _atom_site_fract_y
 _atom_site_fract_z
 _atom_site_occupancy
  Ho  Ho0  1  0.674918  0.174918  0.500000  1
  Er  Er1  1  0.325116  0.825116  0.500000  1
  Er  Er2  1  0.825151  0.674889  0.500000  1
  Er  Er3  1  0.174889  0.325151  0.500000  1
  Th  Th4  1  0.499989  0.500006  0.000000  1
  Th  Th5  1  0.000006  0.999989  0.000000  1
  Th  Th6  1  0.887576  0.387576  0.500000  1
  Th  Th7  1  0.387524  0.112427  0.500000  1
  Th  Th8  1  0.612427  0.887524  0.500000  1
  Th  Th9  1  0.112446  0.612446  0.500000  1
  Ge  Ge10  1  0.433014  0.933014  0.000000  1
  Ge  Ge11  1  0.933020  0.566975  0.000000  1
  Ge  Ge12  1  0.066975  0.433020  0.000000  1
  Ge  Ge13  1  0.566886  0.066886  0.000000  1
  Ge  Ge14  1  0.337406  0.300607  0.000000  1
  Ge  Ge15  1  0.662588  0.699390  0.000000  1
  Ge  Ge16  1  0.699430  0.337507  0.000000  1
  Ge  Ge17  1  0.300603  0.662585  0.000000  1
  Ge  Ge18  1  0.800607  0.837406  0.000000  1
  Ge  Ge19  1  0.837507  0.199430  0.000000  1
  Ge  Ge20  1  0.162585  0.800603  0.000000  1
  Ge  Ge21  1  0.199390  0.162588  0.000000  1
  Ge  Ge22  1  0.337795  0.497011  0.500000  1
  Ge  Ge23  1  0.662206  0.502977  0.500000  1
  Ge  Ge24  1  0.502936  0.337832  0.500000  1
  Ge  Ge25  1  0.497006  0.662207  0.500000  1
  Ge  Ge26  1  0.997011  0.837795  0.500000  1
  Ge  Ge27  1  0.837832  0.002936  0.500000  1
  Ge  Ge28  1  0.002977  0.162206  0.500000  1
  Ge  Ge29  1  0.162207  0.997006  0.500000  1
  Rh  Rh30  1  0.255718  0.477350  0.000000  1
  Rh  Rh31  1  0.744294  0.522661  0.000000  1
  Rh  Rh32  1  0.522538  0.255795  0.000000  1
  Rh  Rh33  1  0.477354  0.744266  0.000000  1
  Rh  Rh34  1  0.977350  0.755718  0.000000  1
  Rh  Rh35  1  0.755795  0.022538  0.000000  1
  Rh  Rh36  1  0.244266  0.977354  0.000000  1
  Rh  Rh37  1  0.022661  0.244294  0.000000  1
