# generated using pymatgen
data_CaAc7(SiN3)4
_symmetry_space_group_name_H-M   'P 1'
_cell_length_a   6.31678736
_cell_length_b   6.31678755
_cell_length_c   12.27266061
_cell_angle_alpha   90.80575481
_cell_angle_beta   89.19424534
_cell_angle_gamma   127.40690338
_symmetry_Int_Tables_number   1
_chemical_formula_structural   CaAc7(SiN3)4
_chemical_formula_sum   'Ca1 Ac7 Si4 N12'
_cell_volume   388.94217131
_cell_formula_units_Z   1
loop_
 _symmetry_equiv_pos_site_id
 _symmetry_equiv_pos_as_xyz
  1  'x, y, z'
loop_
 _atom_site_type_symbol
 _atom_site_label
 _atom_site_symmetry_multiplicity
 _atom_site_fract_x
 _atom_site_fract_y
 _atom_site_fract_z
 _atom_site_occupancy
  Ca  Ca0  1  0.061424  0.938576  0.857002  1
  Ac  Ac1  1  0.942228  0.057772  0.141008  1
  Ac  Ac2  1  0.439422  0.560578  0.360484  1
  Ac  Ac3  1  0.555755  0.444245  0.644329  1
  Ac  Ac4  1  0.640704  0.359296  0.073812  1
  Ac  Ac5  1  0.360917  0.639083  0.920264  1
  Ac  Ac6  1  0.859646  0.140354  0.572765  1
  Ac  Ac7  1  0.138536  0.861464  0.429861  1
  Si  Si8  1  0.742497  0.257503  0.832613  1
  Si  Si9  1  0.259188  0.740812  0.165417  1
  Si  Si10  1  0.757974  0.242026  0.330908  1
  Si  Si11  1  0.238407  0.761593  0.671941  1
  N  N12  1  0.586971  0.413029  0.864239  1
  N  N13  1  0.414810  0.585190  0.133290  1
  N  N14  1  0.912732  0.087268  0.357030  1
  N  N15  1  0.084700  0.915300  0.647289  1
  N  N16  1  0.522509  0.975981  0.752102  1
  N  N17  1  0.978296  0.519526  0.247102  1
  N  N18  1  0.480474  0.021704  0.247102  1
  N  N19  1  0.024019  0.477491  0.752102  1
  N  N20  1  0.839684  0.160316  0.944720  1
  N  N21  1  0.163199  0.836801  0.052549  1
  N  N22  1  0.660910  0.339090  0.444830  1
  N  N23  1  0.334997  0.665003  0.557244  1
