# generated using pymatgen
data_Cs2W3AuO12
_symmetry_space_group_name_H-M   'P 1'
_cell_length_a   7.45429219
_cell_length_b   7.44662046
_cell_length_c   7.45927723
_cell_angle_alpha   90.00000094
_cell_angle_beta   59.76994360
_cell_angle_gamma   119.96595495
_symmetry_Int_Tables_number   1
_chemical_formula_structural   Cs2W3AuO12
_chemical_formula_sum   'Cs2 W3 Au1 O12'
_cell_volume   291.91289954
_cell_formula_units_Z   1
loop_
 _symmetry_equiv_pos_site_id
 _symmetry_equiv_pos_as_xyz
  1  'x, y, z'
loop_
 _atom_site_type_symbol
 _atom_site_label
 _atom_site_symmetry_multiplicity
 _atom_site_fract_x
 _atom_site_fract_y
 _atom_site_fract_z
 _atom_site_occupancy
  Cs  Cs0  1  0.254408  0.131167  0.118258  1
  Cs  Cs1  1  0.745592  0.876759  0.881742  1
  W  W2  1  0.500029  0.003749  0.499996  1
  W  W3  1  0.499971  0.503721  0.500004  1
  W  W4  1  0.000000  0.503685  0.500000  1
  Au  Au5  1  0.000000  0.503734  0.000000  1
  O  O6  1  0.616363  0.811944  0.443470  1
  O  O7  1  0.859751  0.433614  0.806452  1
  O  O8  1  0.261883  0.834902  0.807742  1
  O  O9  1  0.248239  0.443677  0.444720  1
  O  O10  1  0.261846  0.434466  0.807716  1
  O  O11  1  0.248141  0.812102  0.444784  1
  O  O12  1  0.383637  0.195582  0.556530  1
  O  O13  1  0.140249  0.573863  0.193548  1
  O  O14  1  0.738154  0.172619  0.192284  1
  O  O15  1  0.751859  0.563960  0.555216  1
  O  O16  1  0.738117  0.573019  0.192258  1
  O  O17  1  0.751761  0.195437  0.555280  1
