# generated using pymatgen
data_CsNb8O14
_symmetry_space_group_name_H-M   'P 1'
_cell_length_a   13.13520000
_cell_length_b   13.13519973
_cell_length_c   9.58439000
_cell_angle_alpha   90.00000000
_cell_angle_beta   90.00000000
_cell_angle_gamma   132.80108059
_symmetry_Int_Tables_number   1
_chemical_formula_structural   CsNb8O14
_chemical_formula_sum   'Cs4 Nb32 O56'
_cell_volume   1213.29514431
_cell_formula_units_Z   4
loop_
 _symmetry_equiv_pos_site_id
 _symmetry_equiv_pos_as_xyz
  1  'x, y, z'
loop_
 _atom_site_type_symbol
 _atom_site_label
 _atom_site_symmetry_multiplicity
 _atom_site_fract_x
 _atom_site_fract_y
 _atom_site_fract_z
 _atom_site_occupancy
  Cs  Cs0  1  0.373735  0.106639  0.494326  1
  Cs  Cs1  1  0.893361  0.626265  0.994326  1
  Cs  Cs2  1  0.626265  0.893361  0.994326  1
  Cs  Cs3  1  0.106639  0.373735  0.494326  1
  Nb  Nb4  1  0.734164  0.605064  0.628864  1
  Nb  Nb5  1  0.394936  0.265836  0.128864  1
  Nb  Nb6  1  0.890683  0.761703  0.370038  1
  Nb  Nb7  1  0.238297  0.109317  0.870038  1
  Nb  Nb8  1  0.031971  0.791292  0.620562  1
  Nb  Nb9  1  0.208708  0.968029  0.120562  1
  Nb  Nb10  1  0.538201  0.291042  0.880926  1
  Nb  Nb11  1  0.708958  0.461799  0.380926  1
  Nb  Nb12  1  0.860743  0.497796  0.623102  1
  Nb  Nb13  1  0.359068  0.993501  0.873933  1
  Nb  Nb14  1  0.006499  0.640932  0.373933  1
  Nb  Nb15  1  0.502204  0.139257  0.123102  1
  Nb  Nb16  1  0.682987  0.190886  0.633478  1
  Nb  Nb17  1  0.809114  0.317013  0.133478  1
  Nb  Nb18  1  0.190886  0.682987  0.633478  1
  Nb  Nb19  1  0.317013  0.809114  0.133478  1
  Nb  Nb20  1  0.640932  0.006499  0.373933  1
  Nb  Nb21  1  0.497796  0.860743  0.623102  1
  Nb  Nb22  1  0.993501  0.359068  0.873933  1
  Nb  Nb23  1  0.139257  0.502204  0.123102  1
  Nb  Nb24  1  0.291042  0.538201  0.880926  1
  Nb  Nb25  1  0.968029  0.208708  0.120562  1
  Nb  Nb26  1  0.461799  0.708958  0.380926  1
  Nb  Nb27  1  0.791292  0.031971  0.620562  1
  Nb  Nb28  1  0.265836  0.394936  0.128864  1
  Nb  Nb29  1  0.761703  0.890683  0.370038  1
  Nb  Nb30  1  0.605064  0.734164  0.628864  1
  Nb  Nb31  1  0.109317  0.238297  0.870038  1
  Nb  Nb32  1  0.408743  0.408743  0.611476  1
  Nb  Nb33  1  0.912785  0.912785  0.887359  1
  Nb  Nb34  1  0.087215  0.087215  0.387359  1
  Nb  Nb35  1  0.591257  0.591257  0.111476  1
  O  O36  1  0.721005  0.599065  0.249060  1
  O  O37  1  0.895647  0.777331  0.752579  1
  O  O38  1  0.400935  0.278995  0.749060  1
  O  O39  1  0.222669  0.104353  0.252579  1
  O  O40  1  0.560726  0.438182  0.505441  1
  O  O41  1  0.060905  0.939401  0.994517  1
  O  O42  1  0.060599  0.939095  0.494517  1
  O  O43  1  0.561818  0.439274  0.005441  1
  O  O44  1  0.535266  0.288395  0.249764  1
  O  O45  1  0.711605  0.464734  0.749764  1
  O  O46  1  0.037592  0.791504  0.254565  1
  O  O47  1  0.208496  0.962408  0.754565  1
  O  O48  1  0.692786  0.318600  0.507270  1
  O  O49  1  0.681400  0.307214  0.007270  1
  O  O50  1  0.173316  0.796283  0.505953  1
  O  O51  1  0.203717  0.826684  0.005953  1
  O  O52  1  0.846788  0.467118  0.254617  1
  O  O53  1  0.341200  0.964254  0.236703  1
  O  O54  1  0.035746  0.658800  0.736703  1
  O  O55  1  0.532882  0.153212  0.754617  1
  O  O56  1  0.013640  0.524075  0.511392  1
  O  O57  1  0.475925  0.986360  0.011392  1
  O  O58  1  0.158565  0.661530  0.241815  1
  O  O59  1  0.661530  0.158565  0.241815  1
  O  O60  1  0.841435  0.338470  0.741815  1
  O  O61  1  0.338470  0.841435  0.741815  1
  O  O62  1  0.986360  0.475925  0.011392  1
  O  O63  1  0.524075  0.013640  0.511392  1
  O  O64  1  0.964254  0.341200  0.236703  1
  O  O65  1  0.153212  0.532882  0.754617  1
  O  O66  1  0.658800  0.035746  0.736703  1
  O  O67  1  0.467118  0.846788  0.254617  1
  O  O68  1  0.796283  0.173316  0.505953  1
  O  O69  1  0.826684  0.203717  0.005953  1
  O  O70  1  0.318600  0.692786  0.507270  1
  O  O71  1  0.307214  0.681400  0.007270  1
  O  O72  1  0.464734  0.711605  0.749764  1
  O  O73  1  0.288395  0.535266  0.249764  1
  O  O74  1  0.791504  0.037592  0.254565  1
  O  O75  1  0.962408  0.208496  0.754565  1
  O  O76  1  0.438182  0.560726  0.505441  1
  O  O77  1  0.939401  0.060905  0.994517  1
  O  O78  1  0.439274  0.561818  0.005441  1
  O  O79  1  0.939095  0.060599  0.494517  1
  O  O80  1  0.599065  0.721005  0.249060  1
  O  O81  1  0.104353  0.222669  0.252579  1
  O  O82  1  0.278995  0.400935  0.749060  1
  O  O83  1  0.777331  0.895647  0.752579  1
  O  O84  1  0.929655  0.929654  0.264366  1
  O  O85  1  0.748921  0.748921  0.499661  1
  O  O86  1  0.251079  0.251079  0.999661  1
  O  O87  1  0.750410  0.750410  0.002340  1
  O  O88  1  0.070346  0.070345  0.764366  1
  O  O89  1  0.568501  0.568501  0.734825  1
  O  O90  1  0.249590  0.249590  0.502340  1
  O  O91  1  0.431499  0.431499  0.234825  1
