# generated using pymatgen
data_Sr(AcS2)2
_symmetry_space_group_name_H-M   'P 1'
_cell_length_a   7.82399373
_cell_length_b   7.82399910
_cell_length_c   7.82399328
_cell_angle_alpha   109.45466553
_cell_angle_beta   109.45468376
_cell_angle_gamma   109.50429240
_symmetry_Int_Tables_number   1
_chemical_formula_structural   Sr(AcS2)2
_chemical_formula_sum   'Sr2 Ac4 S8'
_cell_volume   368.69214966
_cell_formula_units_Z   2
loop_
 _symmetry_equiv_pos_site_id
 _symmetry_equiv_pos_as_xyz
  1  'x, y, z'
loop_
 _atom_site_type_symbol
 _atom_site_label
 _atom_site_symmetry_multiplicity
 _atom_site_fract_x
 _atom_site_fract_y
 _atom_site_fract_z
 _atom_site_occupancy
  Sr  Sr0  1  0.000000  0.000000  0.999999  1
  Sr  Sr1  1  0.249999  0.750000  0.500000  1
  Ac  Ac2  1  0.125001  0.504854  0.879854  1
  Ac  Ac3  1  0.625000  0.245146  0.120147  1
  Ac  Ac4  1  0.495145  0.375000  0.620145  1
  Ac  Ac5  1  0.754855  0.875000  0.379855  1
  S  S6  1  0.378217  0.479146  0.250794  1
  S  S7  1  0.021649  0.270854  0.399072  1
  S  S8  1  0.228351  0.127423  0.749205  1
  S  S9  1  0.377423  0.978352  0.249206  1
  S  S10  1  0.520853  0.771648  0.899072  1
  S  S11  1  0.872577  0.621781  0.100928  1
  S  S12  1  0.729148  0.128219  0.750796  1
  S  S13  1  0.871782  0.622577  0.600928  1
