# generated using pymatgen
data_Y2Ta3Co9GeAs6
_symmetry_space_group_name_H-M   'P 1'
_cell_length_a   3.79390400
_cell_length_b   9.56471187
_cell_length_c   9.56471100
_cell_angle_alpha   119.99999353
_cell_angle_beta   90.00000000
_cell_angle_gamma   90.00000000
_symmetry_Int_Tables_number   1
_chemical_formula_structural   Y2Ta3Co9GeAs6
_chemical_formula_sum   'Y2 Ta3 Co9 Ge1 As6'
_cell_volume   300.58045773
_cell_formula_units_Z   1
loop_
 _symmetry_equiv_pos_site_id
 _symmetry_equiv_pos_as_xyz
  1  'x, y, z'
loop_
 _atom_site_type_symbol
 _atom_site_label
 _atom_site_symmetry_multiplicity
 _atom_site_fract_x
 _atom_site_fract_y
 _atom_site_fract_z
 _atom_site_occupancy
  Y  Y0  1  0.000000  0.666667  0.333333  1
  Y  Y1  1  0.500000  0.333333  0.666667  1
  Ta  Ta2  1  0.500000  0.776150  0.895830  1
  Ta  Ta3  1  0.500000  0.119679  0.223850  1
  Ta  Ta4  1  0.500000  0.104170  0.880321  1
  Co  Co5  1  0.000000  0.571945  0.937212  1
  Co  Co6  1  0.000000  0.365267  0.428055  1
  Co  Co7  1  0.000000  0.062788  0.634733  1
  Co  Co8  1  0.000000  0.877782  0.160236  1
  Co  Co9  1  0.000000  0.282455  0.122218  1
  Co  Co10  1  0.000000  0.839764  0.717545  1
  Co  Co11  1  0.500000  0.948503  0.384514  1
  Co  Co12  1  0.500000  0.436010  0.051497  1
  Co  Co13  1  0.500000  0.615486  0.563990  1
  Ge  Ge14  1  0.000000  0.000000  0.000000  1
  As  As15  1  0.500000  0.707888  0.125123  1
  As  As16  1  0.500000  0.417236  0.292112  1
  As  As17  1  0.500000  0.874877  0.582764  1
  As  As18  1  0.000000  0.580059  0.691252  1
  As  As19  1  0.000000  0.111193  0.419941  1
  As  As20  1  0.000000  0.308748  0.888807  1
