# generated using pymatgen
data_NdEu3(ErSe2)8
_symmetry_space_group_name_H-M   'P 1'
_cell_length_a   4.06824800
_cell_length_b   13.51245883
_cell_length_c   13.81960816
_cell_angle_alpha   90.06722872
_cell_angle_beta   90.00000000
_cell_angle_gamma   90.00000000
_symmetry_Int_Tables_number   1
_chemical_formula_structural   NdEu3(ErSe2)8
_chemical_formula_sum   'Nd1 Eu3 Er8 Se16'
_cell_volume   759.69144092
_cell_formula_units_Z   1
loop_
 _symmetry_equiv_pos_site_id
 _symmetry_equiv_pos_as_xyz
  1  'x, y, z'
loop_
 _atom_site_type_symbol
 _atom_site_label
 _atom_site_symmetry_multiplicity
 _atom_site_fract_x
 _atom_site_fract_y
 _atom_site_fract_z
 _atom_site_occupancy
  Nd  Nd0  1  0.750000  0.131292  0.085284  1
  Eu  Eu1  1  0.250000  0.367726  0.584807  1
  Eu  Eu2  1  0.250000  0.865445  0.913199  1
  Eu  Eu3  1  0.750000  0.633361  0.413287  1
  Er  Er4  1  0.250000  0.103434  0.419095  1
  Er  Er5  1  0.250000  0.605253  0.082263  1
  Er  Er6  1  0.750000  0.894474  0.581798  1
  Er  Er7  1  0.750000  0.394927  0.920763  1
  Er  Er8  1  0.250000  0.150215  0.798937  1
  Er  Er9  1  0.250000  0.649490  0.699283  1
  Er  Er10  1  0.750000  0.851701  0.199111  1
  Er  Er11  1  0.750000  0.350489  0.299978  1
  Se  Se12  1  0.250000  0.213015  0.236659  1
  Se  Se13  1  0.250000  0.716244  0.260238  1
  Se  Se14  1  0.750000  0.785800  0.760176  1
  Se  Se15  1  0.750000  0.285177  0.741164  1
  Se  Se16  1  0.250000  0.258377  0.976273  1
  Se  Se17  1  0.250000  0.761242  0.525613  1
  Se  Se18  1  0.750000  0.740149  0.025952  1
  Se  Se19  1  0.750000  0.238229  0.472964  1
  Se  Se20  1  0.250000  0.466479  0.380354  1
  Se  Se21  1  0.250000  0.970224  0.117437  1
  Se  Se22  1  0.750000  0.533099  0.617464  1
  Se  Se23  1  0.750000  0.034728  0.886463  1
  Se  Se24  1  0.250000  0.036955  0.620262  1
  Se  Se25  1  0.250000  0.536605  0.881429  1
  Se  Se26  1  0.750000  0.962862  0.380157  1
  Se  Se27  1  0.750000  0.463008  0.119587  1
