# generated using pymatgen
data_Hf3Sc3Al8Si8Rh7
_symmetry_space_group_name_H-M   'P 1'
_cell_length_a   8.58508755
_cell_length_b   8.57413320
_cell_length_c   8.56544003
_cell_angle_alpha   60.11812444
_cell_angle_beta   59.99115172
_cell_angle_gamma   59.89072423
_symmetry_Int_Tables_number   1
_chemical_formula_structural   Hf3Sc3Al8Si8Rh7
_chemical_formula_sum   'Hf3 Sc3 Al8 Si8 Rh7'
_cell_volume   445.82682894
_cell_formula_units_Z   1
loop_
 _symmetry_equiv_pos_site_id
 _symmetry_equiv_pos_as_xyz
  1  'x, y, z'
loop_
 _atom_site_type_symbol
 _atom_site_label
 _atom_site_symmetry_multiplicity
 _atom_site_fract_x
 _atom_site_fract_y
 _atom_site_fract_z
 _atom_site_occupancy
  Hf  Hf0  1  0.307093  0.307254  0.692745  1
  Hf  Hf1  1  0.690789  0.309210  0.690789  1
  Hf  Hf2  1  0.692745  0.692906  0.307093  1
  Sc  Sc3  1  0.691464  0.308535  0.307925  1
  Sc  Sc4  1  0.307925  0.692074  0.691464  1
  Sc  Sc5  1  0.306769  0.693230  0.306769  1
  Al  Al6  1  0.122141  0.121134  0.121369  1
  Al  Al7  1  0.121504  0.122117  0.634960  1
  Al  Al8  1  0.634960  0.121418  0.121504  1
  Al  Al9  1  0.121369  0.635356  0.122141  1
  Al  Al10  1  0.877882  0.878495  0.878581  1
  Al  Al11  1  0.878865  0.877858  0.364647  1
  Al  Al12  1  0.878581  0.365043  0.877882  1
  Al  Al13  1  0.364647  0.878630  0.878865  1
  Si  Si14  1  0.345228  0.345246  0.345474  1
  Si  Si15  1  0.344661  0.344978  0.965656  1
  Si  Si16  1  0.965656  0.344703  0.344661  1
  Si  Si17  1  0.345474  0.964050  0.345228  1
  Si  Si18  1  0.655022  0.655339  0.655297  1
  Si  Si19  1  0.654754  0.654772  0.035950  1
  Si  Si20  1  0.655297  0.034344  0.655022  1
  Si  Si21  1  0.035950  0.654526  0.654754  1
  Rh  Rh22  1  0.999516  0.000484  0.999516  1
  Rh  Rh23  1  0.500995  0.001223  0.998777  1
  Rh  Rh24  1  0.998777  0.499005  0.500995  1
  Rh  Rh25  1  0.000938  0.499062  0.000938  1
  Rh  Rh26  1  0.999117  0.000883  0.500944  1
  Rh  Rh27  1  0.500938  0.999062  0.500938  1
  Rh  Rh28  1  0.500944  0.499056  0.999117  1
