# generated using pymatgen
data_Tb2Dy4Al24GaOs7
_symmetry_space_group_name_H-M   'P 1'
_cell_length_a   8.86096770
_cell_length_b   8.86002702
_cell_length_c   9.55001223
_cell_angle_alpha   90.14322147
_cell_angle_beta   89.83784507
_cell_angle_gamma   119.86072253
_symmetry_Int_Tables_number   1
_chemical_formula_structural   Tb2Dy4Al24GaOs7
_chemical_formula_sum   'Tb2 Dy4 Al24 Ga1 Os7'
_cell_volume   650.21424355
_cell_formula_units_Z   1
loop_
 _symmetry_equiv_pos_site_id
 _symmetry_equiv_pos_as_xyz
  1  'x, y, z'
loop_
 _atom_site_type_symbol
 _atom_site_label
 _atom_site_symmetry_multiplicity
 _atom_site_fract_x
 _atom_site_fract_y
 _atom_site_fract_z
 _atom_site_occupancy
  Tb  Tb0  1  0.191815  0.384788  0.245396  1
  Tb  Tb1  1  0.808185  0.615212  0.754604  1
  Dy  Dy2  1  0.614970  0.808242  0.245482  1
  Dy  Dy3  1  0.385030  0.191758  0.754518  1
  Dy  Dy4  1  0.194361  0.805705  0.255992  1
  Dy  Dy5  1  0.805639  0.194295  0.744008  1
  Al  Al6  1  0.327265  0.672976  0.022076  1
  Al  Al7  1  0.672735  0.327024  0.977924  1
  Al  Al8  1  0.665843  0.333954  0.518530  1
  Al  Al9  1  0.334157  0.666046  0.481470  1
  Al  Al10  1  0.162563  0.325617  0.571656  1
  Al  Al11  1  0.837437  0.674383  0.428344  1
  Al  Al12  1  0.674363  0.837478  0.571551  1
  Al  Al13  1  0.852946  0.678853  0.082084  1
  Al  Al14  1  0.325637  0.162522  0.428449  1
  Al  Al15  1  0.147054  0.321147  0.917916  1
  Al  Al16  1  0.163027  0.837094  0.576282  1
  Al  Al17  1  0.321169  0.146972  0.081974  1
  Al  Al18  1  0.836973  0.162906  0.423718  1
  Al  Al19  1  0.678831  0.853028  0.918026  1
  Al  Al20  1  0.836680  0.163118  0.076972  1
  Al  Al21  1  0.163320  0.836882  0.923028  1
  Al  Al22  1  0.561980  0.120992  0.249503  1
  Al  Al23  1  0.438020  0.879008  0.750497  1
  Al  Al24  1  0.878830  0.438057  0.249526  1
  Al  Al25  1  0.121170  0.561943  0.750474  1
  Al  Al26  1  0.565845  0.434337  0.258137  1
  Al  Al27  1  0.434155  0.565663  0.741863  1
  Al  Al28  1  0.998717  0.001093  0.250866  1
  Al  Al29  1  0.001283  0.998907  0.749134  1
  Ga  Ga30  1  0.500000  0.500000  0.000000  1
  Os  Os31  1  0.500000  0.000000  0.000000  1
  Os  Os32  1  0.000000  0.500000  0.000000  1
  Os  Os33  1  0.500000  0.000000  0.500000  1
  Os  Os34  1  0.000000  0.500000  0.500000  1
  Os  Os35  1  0.500000  0.500000  0.500000  1
  Os  Os36  1  0.000000  0.000000  0.000000  1
  Os  Os37  1  0.000000  0.000000  0.500000  1
