# generated using pymatgen
data_Tb3Zn2Cd3Pt
_symmetry_space_group_name_H-M   'P 1'
_cell_length_a   7.82712600
_cell_length_b   7.82712604
_cell_length_c   3.80340500
_cell_angle_alpha   90.00000000
_cell_angle_beta   90.00000000
_cell_angle_gamma   119.99999983
_symmetry_Int_Tables_number   1
_chemical_formula_structural   Tb3Zn2Cd3Pt
_chemical_formula_sum   'Tb3 Zn2 Cd3 Pt1'
_cell_volume   201.79381822
_cell_formula_units_Z   1
loop_
 _symmetry_equiv_pos_site_id
 _symmetry_equiv_pos_as_xyz
  1  'x, y, z'
loop_
 _atom_site_type_symbol
 _atom_site_label
 _atom_site_symmetry_multiplicity
 _atom_site_fract_x
 _atom_site_fract_y
 _atom_site_fract_z
 _atom_site_occupancy
  Tb  Tb0  1  0.400848  0.979503  0.000000  1
  Tb  Tb1  1  0.020497  0.421347  0.000000  1
  Tb  Tb2  1  0.578653  0.599152  0.000000  1
  Zn  Zn3  1  0.000000  0.000000  0.000000  1
  Zn  Zn4  1  0.666667  0.333333  0.500000  1
  Cd  Cd5  1  0.265559  0.252626  0.500000  1
  Cd  Cd6  1  0.987067  0.734441  0.500000  1
  Cd  Cd7  1  0.747374  0.012933  0.500000  1
  Pt  Pt8  1  0.333333  0.666667  0.500000  1
