# generated using pymatgen
data_CeNdTm6(Si3Rh)4
_symmetry_space_group_name_H-M   'P 1'
_cell_length_a   8.15851900
_cell_length_b   8.15851863
_cell_length_c   7.90875000
_cell_angle_alpha   90.00000000
_cell_angle_beta   90.00000000
_cell_angle_gamma   120.00000554
_symmetry_Int_Tables_number   1
_chemical_formula_structural   CeNdTm6(Si3Rh)4
_chemical_formula_sum   'Ce1 Nd1 Tm6 Si12 Rh4'
_cell_volume   455.89107912
_cell_formula_units_Z   1
loop_
 _symmetry_equiv_pos_site_id
 _symmetry_equiv_pos_as_xyz
  1  'x, y, z'
loop_
 _atom_site_type_symbol
 _atom_site_label
 _atom_site_symmetry_multiplicity
 _atom_site_fract_x
 _atom_site_fract_y
 _atom_site_fract_z
 _atom_site_occupancy
  Ce  Ce0  1  0.000000  0.000000  0.750000  1
  Nd  Nd1  1  0.000000  0.000000  0.250000  1
  Tm  Tm2  1  0.492341  0.507659  0.750000  1
  Tm  Tm3  1  0.492341  0.984684  0.750000  1
  Tm  Tm4  1  0.015316  0.507659  0.750000  1
  Tm  Tm5  1  0.509396  0.490604  0.250000  1
  Tm  Tm6  1  0.981211  0.490604  0.250000  1
  Tm  Tm7  1  0.509396  0.018789  0.250000  1
  Si  Si8  1  0.832207  0.167793  0.999826  1
  Si  Si9  1  0.832207  0.664414  0.999826  1
  Si  Si10  1  0.335586  0.167793  0.999826  1
  Si  Si11  1  0.832207  0.167793  0.500174  1
  Si  Si12  1  0.832207  0.664414  0.500174  1
  Si  Si13  1  0.335586  0.167793  0.500174  1
  Si  Si14  1  0.168657  0.831343  0.504217  1
  Si  Si15  1  0.662684  0.831343  0.504217  1
  Si  Si16  1  0.168657  0.337316  0.504217  1
  Si  Si17  1  0.168657  0.831343  0.995783  1
  Si  Si18  1  0.662684  0.831343  0.995783  1
  Si  Si19  1  0.168657  0.337316  0.995783  1
  Rh  Rh20  1  0.666667  0.333333  0.966519  1
  Rh  Rh21  1  0.666667  0.333333  0.533481  1
  Rh  Rh22  1  0.333333  0.666667  0.462322  1
  Rh  Rh23  1  0.333333  0.666667  0.037678  1
