# generated using pymatgen
data_ErPu3(B6Os)2
_symmetry_space_group_name_H-M   'P 1'
_cell_length_a   3.62793300
_cell_length_b   9.25217211
_cell_length_c   11.49699929
_cell_angle_alpha   90.59260265
_cell_angle_beta   90.00000000
_cell_angle_gamma   90.00000000
_symmetry_Int_Tables_number   1
_chemical_formula_structural   ErPu3(B6Os)2
_chemical_formula_sum   'Er2 Pu6 B24 Os4'
_cell_volume   385.89063201
_cell_formula_units_Z   2
loop_
 _symmetry_equiv_pos_site_id
 _symmetry_equiv_pos_as_xyz
  1  'x, y, z'
loop_
 _atom_site_type_symbol
 _atom_site_label
 _atom_site_symmetry_multiplicity
 _atom_site_fract_x
 _atom_site_fract_y
 _atom_site_fract_z
 _atom_site_occupancy
  Er  Er0  1  0.000000  0.446430  0.124577  1
  Er  Er1  1  0.000000  0.553570  0.875423  1
  Pu  Pu2  1  0.000000  0.332780  0.410247  1
  Pu  Pu3  1  0.000000  0.667220  0.589753  1
  Pu  Pu4  1  0.000000  0.827057  0.089971  1
  Pu  Pu5  1  0.000000  0.172943  0.910029  1
  Pu  Pu6  1  0.000000  0.952779  0.389981  1
  Pu  Pu7  1  0.000000  0.047221  0.610019  1
  B  B8  1  0.500000  0.551772  0.432111  1
  B  B9  1  0.500000  0.448228  0.567889  1
  B  B10  1  0.500000  0.053777  0.067547  1
  B  B11  1  0.500000  0.946223  0.932453  1
  B  B12  1  0.500000  0.744130  0.421521  1
  B  B13  1  0.500000  0.255870  0.578479  1
  B  B14  1  0.500000  0.248399  0.078235  1
  B  B15  1  0.500000  0.751601  0.921765  1
  B  B16  1  0.500000  0.798112  0.269568  1
  B  B17  1  0.500000  0.201888  0.730432  1
  B  B18  1  0.500000  0.297646  0.230163  1
  B  B19  1  0.500000  0.702354  0.769837  1
  B  B20  1  0.500000  0.636865  0.185495  1
  B  B21  1  0.500000  0.363135  0.814505  1
  B  B22  1  0.500000  0.140303  0.312959  1
  B  B23  1  0.500000  0.859697  0.687041  1
  B  B24  1  0.500000  0.984727  0.217110  1
  B  B25  1  0.500000  0.015273  0.782890  1
  B  B26  1  0.500000  0.485945  0.284640  1
  B  B27  1  0.500000  0.514055  0.715360  1
  B  B28  1  0.500000  0.615776  0.032191  1
  B  B29  1  0.500000  0.384224  0.967809  1
  B  B30  1  0.500000  0.138516  0.462043  1
  B  B31  1  0.500000  0.861484  0.537957  1
  Os  Os32  1  0.000000  0.643817  0.321455  1
  Os  Os33  1  0.000000  0.356183  0.678545  1
  Os  Os34  1  0.000000  0.140504  0.181906  1
  Os  Os35  1  0.000000  0.859496  0.818094  1
