# generated using pymatgen
data_SmLuFe14(SiC)3
_symmetry_space_group_name_H-M   'P 1'
_cell_length_a   6.44363034
_cell_length_b   6.44362989
_cell_length_c   6.44362807
_cell_angle_alpha   83.59207006
_cell_angle_beta   83.59207171
_cell_angle_gamma   83.59206539
_symmetry_Int_Tables_number   1
_chemical_formula_structural   SmLuFe14(SiC)3
_chemical_formula_sum   'Sm1 Lu1 Fe14 Si3 C3'
_cell_volume   262.87427503
_cell_formula_units_Z   1
loop_
 _symmetry_equiv_pos_site_id
 _symmetry_equiv_pos_as_xyz
  1  'x, y, z'
loop_
 _atom_site_type_symbol
 _atom_site_label
 _atom_site_symmetry_multiplicity
 _atom_site_fract_x
 _atom_site_fract_y
 _atom_site_fract_z
 _atom_site_occupancy
  Sm  Sm0  1  0.348544  0.348544  0.348544  1
  Lu  Lu1  1  0.654233  0.654233  0.654233  1
  Fe  Fe2  1  0.096107  0.096107  0.096107  1
  Fe  Fe3  1  0.902196  0.902196  0.902196  1
  Fe  Fe4  1  0.715855  0.285293  0.998545  1
  Fe  Fe5  1  0.285293  0.998545  0.715855  1
  Fe  Fe6  1  0.998545  0.715855  0.285293  1
  Fe  Fe7  1  0.285293  0.715855  0.998545  1
  Fe  Fe8  1  0.715855  0.998545  0.285293  1
  Fe  Fe9  1  0.998545  0.285293  0.715855  1
  Fe  Fe10  1  0.135308  0.660584  0.660584  1
  Fe  Fe11  1  0.660584  0.660584  0.135308  1
  Fe  Fe12  1  0.660584  0.135308  0.660584  1
  Fe  Fe13  1  0.341260  0.860664  0.341260  1
  Fe  Fe14  1  0.341260  0.341260  0.860664  1
  Fe  Fe15  1  0.860664  0.341260  0.341260  1
  Si  Si16  1  0.000641  0.000641  0.500049  1
  Si  Si17  1  0.000641  0.500049  0.000641  1
  Si  Si18  1  0.500049  0.000641  0.000641  1
  C  C19  1  0.503345  0.503345  0.991854  1
  C  C20  1  0.503345  0.991854  0.503345  1
  C  C21  1  0.991854  0.503345  0.503345  1
