# generated using pymatgen
data_Sm2Re7Si4Tc
_symmetry_space_group_name_H-M   'P 1'
_cell_length_a   7.44998487
_cell_length_b   7.46218385
_cell_length_c   4.14055800
_cell_angle_alpha   90.00000000
_cell_angle_beta   90.00000000
_cell_angle_gamma   90.10032043
_symmetry_Int_Tables_number   1
_chemical_formula_structural   Sm2Re7Si4Tc
_chemical_formula_sum   'Sm2 Re7 Si4 Tc1'
_cell_volume   230.18633704
_cell_formula_units_Z   1
loop_
 _symmetry_equiv_pos_site_id
 _symmetry_equiv_pos_as_xyz
  1  'x, y, z'
loop_
 _atom_site_type_symbol
 _atom_site_label
 _atom_site_symmetry_multiplicity
 _atom_site_fract_x
 _atom_site_fract_y
 _atom_site_fract_z
 _atom_site_occupancy
  Sm  Sm0  1  0.500000  0.500528  0.000000  1
  Sm  Sm1  1  0.999991  0.000181  0.500000  1
  Re  Re2  1  0.591486  0.157708  0.500000  1
  Re  Re3  1  0.406393  0.842815  0.500000  1
  Re  Re4  1  0.092661  0.341927  0.000000  1
  Re  Re5  1  0.908514  0.655763  0.000000  1
  Re  Re6  1  0.157417  0.593000  0.500000  1
  Re  Re7  1  0.842084  0.407587  0.500000  1
  Re  Re8  1  0.343778  0.092478  0.000000  1
  Si  Si9  1  0.709051  0.710682  0.500000  1
  Si  Si10  1  0.290178  0.291075  0.500000  1
  Si  Si11  1  0.209677  0.791201  0.000000  1
  Si  Si12  1  0.789618  0.208476  0.000000  1
  Tc  Tc13  1  0.659154  0.906579  0.000000  1
