# generated using pymatgen
data_Dy7Er9InAg2HgIr4
_symmetry_space_group_name_H-M   'P 1'
_cell_length_a   9.54563962
_cell_length_b   9.54564060
_cell_length_c   9.55772500
_cell_angle_alpha   59.95811700
_cell_angle_beta   59.95811360
_cell_angle_gamma   60.02404039
_symmetry_Int_Tables_number   1
_chemical_formula_structural   Dy7Er9InAg2HgIr4
_chemical_formula_sum   'Dy7 Er9 In1 Ag2 Hg1 Ir4'
_cell_volume   615.53556622
_cell_formula_units_Z   1
loop_
 _symmetry_equiv_pos_site_id
 _symmetry_equiv_pos_as_xyz
  1  'x, y, z'
loop_
 _atom_site_type_symbol
 _atom_site_label
 _atom_site_symmetry_multiplicity
 _atom_site_fract_x
 _atom_site_fract_y
 _atom_site_fract_z
 _atom_site_occupancy
  Dy  Dy0  1  0.061487  0.061063  0.438725  1
  Dy  Dy1  1  0.185260  0.810489  0.812962  1
  Dy  Dy2  1  0.809411  0.187064  0.190347  1
  Dy  Dy3  1  0.809411  0.187064  0.813176  1
  Dy  Dy4  1  0.185260  0.810489  0.191287  1
  Dy  Dy5  1  0.809305  0.810196  0.190250  1
  Dy  Dy6  1  0.185035  0.189210  0.812878  1
  Er  Er7  1  0.599909  0.600083  0.599984  1
  Er  Er8  1  0.599909  0.600083  0.200023  1
  Er  Er9  1  0.599216  0.201129  0.599827  1
  Er  Er10  1  0.200268  0.599659  0.600037  1
  Er  Er11  1  0.060604  0.438798  0.440429  1
  Er  Er12  1  0.439401  0.059657  0.059581  1
  Er  Er13  1  0.439401  0.059657  0.441361  1
  Er  Er14  1  0.060604  0.438798  0.060170  1
  Er  Er15  1  0.440410  0.441313  0.059139  1
  In  In16  1  0.509359  0.832937  0.828852  1
  Ag  Ag17  1  0.833339  0.833645  0.831584  1
  Ag  Ag18  1  0.833339  0.833645  0.501433  1
  Hg  Hg19  1  0.836413  0.501015  0.831286  1
  Ir  Ir20  1  0.392411  0.392594  0.390088  1
  Ir  Ir21  1  0.392411  0.392594  0.824908  1
  Ir  Ir22  1  0.393627  0.824598  0.390888  1
  Ir  Ir23  1  0.824211  0.394217  0.390787  1
