# generated using pymatgen
data_ReTc(BMo)4
_symmetry_space_group_name_H-M   'P 1'
_cell_length_a   3.11570400
_cell_length_b   7.56090534
_cell_length_c   9.66649569
_cell_angle_alpha   90.06803573
_cell_angle_beta   90.00000000
_cell_angle_gamma   90.00000000
_symmetry_Int_Tables_number   1
_chemical_formula_structural   ReTc(BMo)4
_chemical_formula_sum   'Re2 Tc2 B8 Mo8'
_cell_volume   227.71872754
_cell_formula_units_Z   2
loop_
 _symmetry_equiv_pos_site_id
 _symmetry_equiv_pos_as_xyz
  1  'x, y, z'
loop_
 _atom_site_type_symbol
 _atom_site_label
 _atom_site_symmetry_multiplicity
 _atom_site_fract_x
 _atom_site_fract_y
 _atom_site_fract_z
 _atom_site_occupancy
  Re  Re0  1  0.500000  0.621931  0.396326  1
  Re  Re1  1  0.500000  0.378069  0.603674  1
  Tc  Tc2  1  0.000000  0.877717  0.895686  1
  Tc  Tc3  1  0.000000  0.122283  0.104314  1
  B  B4  1  0.500000  0.114897  0.459530  1
  B  B5  1  0.500000  0.885103  0.540470  1
  B  B6  1  0.000000  0.385729  0.959207  1
  B  B7  1  0.000000  0.614271  0.040793  1
  B  B8  1  0.500000  0.120561  0.265469  1
  B  B9  1  0.500000  0.879439  0.734531  1
  B  B10  1  0.000000  0.378926  0.766825  1
  B  B11  1  0.000000  0.621074  0.233175  1
  Mo  Mo12  1  0.500000  0.808721  0.129828  1
  Mo  Mo13  1  0.500000  0.191279  0.870172  1
  Mo  Mo14  1  0.000000  0.691401  0.630278  1
  Mo  Mo15  1  0.000000  0.308599  0.369722  1
  Mo  Mo16  1  0.500000  0.578700  0.862826  1
  Mo  Mo17  1  0.500000  0.421300  0.137174  1
  Mo  Mo18  1  0.000000  0.921650  0.362204  1
  Mo  Mo19  1  0.000000  0.078350  0.637796  1
