# generated using pymatgen
data_Cr2Cd(Sb6Pt)2
_symmetry_space_group_name_H-M   'P 1'
_cell_length_a   8.20666180
_cell_length_b   8.29128433
_cell_length_c   8.29128408
_cell_angle_alpha   109.94940896
_cell_angle_beta   109.51216689
_cell_angle_gamma   109.36567259
_symmetry_Int_Tables_number   1
_chemical_formula_structural   Cr2Cd(Sb6Pt)2
_chemical_formula_sum   'Cr2 Cd1 Sb12 Pt2'
_cell_volume   432.05835552
_cell_formula_units_Z   1
loop_
 _symmetry_equiv_pos_site_id
 _symmetry_equiv_pos_as_xyz
  1  'x, y, z'
loop_
 _atom_site_type_symbol
 _atom_site_label
 _atom_site_symmetry_multiplicity
 _atom_site_fract_x
 _atom_site_fract_y
 _atom_site_fract_z
 _atom_site_occupancy
  Cr  Cr0  1  0.500000  0.000000  0.000000  1
  Cr  Cr1  1  0.500000  0.500000  0.500000  1
  Cd  Cd2  1  0.000000  0.000000  0.000000  1
  Sb  Sb3  1  0.343279  0.187771  0.849481  1
  Sb  Sb4  1  0.656721  0.812229  0.150519  1
  Sb  Sb5  1  0.656721  0.506203  0.844491  1
  Sb  Sb6  1  0.343279  0.493797  0.155509  1
  Sb  Sb7  1  0.193928  0.848996  0.344932  1
  Sb  Sb8  1  0.806072  0.151004  0.655068  1
  Sb  Sb9  1  0.505747  0.843847  0.661899  1
  Sb  Sb10  1  0.494253  0.156153  0.338101  1
  Sb  Sb11  1  0.845768  0.339985  0.187847  1
  Sb  Sb12  1  0.154232  0.660015  0.812153  1
  Sb  Sb13  1  0.845768  0.657922  0.505784  1
  Sb  Sb14  1  0.154232  0.342078  0.494216  1
  Pt  Pt15  1  0.000000  0.000000  0.500000  1
  Pt  Pt16  1  0.000000  0.500000  0.000000  1
