# generated using pymatgen
data_Ho10In5SbSe2
_symmetry_space_group_name_H-M   'P 1'
_cell_length_a   9.13479700
_cell_length_b   9.16239522
_cell_length_c   6.73945600
_cell_angle_alpha   90.00000000
_cell_angle_beta   90.00000000
_cell_angle_gamma   120.10000302
_symmetry_Int_Tables_number   1
_chemical_formula_structural   Ho10In5SbSe2
_chemical_formula_sum   'Ho10 In5 Sb1 Se2'
_cell_volume   488.00567908
_cell_formula_units_Z   1
loop_
 _symmetry_equiv_pos_site_id
 _symmetry_equiv_pos_as_xyz
  1  'x, y, z'
loop_
 _atom_site_type_symbol
 _atom_site_label
 _atom_site_symmetry_multiplicity
 _atom_site_fract_x
 _atom_site_fract_y
 _atom_site_fract_z
 _atom_site_occupancy
  Ho  Ho0  1  0.669311  0.335312  0.996863  1
  Ho  Ho1  1  0.330689  0.666000  0.996863  1
  Ho  Ho2  1  0.330689  0.666000  0.503137  1
  Ho  Ho3  1  0.669311  0.335312  0.503137  1
  Ho  Ho4  1  0.749976  0.746779  0.750000  1
  Ho  Ho5  1  0.250024  0.996802  0.750000  1
  Ho  Ho6  1  0.000000  0.252439  0.750000  1
  Ho  Ho7  1  0.249396  0.250118  0.250000  1
  Ho  Ho8  1  0.750604  0.000722  0.250000  1
  Ho  Ho9  1  0.000000  0.746711  0.250000  1
  In  In10  1  0.401395  0.402252  0.750000  1
  In  In11  1  0.598605  0.000858  0.750000  1
  In  In12  1  0.000000  0.601949  0.750000  1
  In  In13  1  0.599018  0.599711  0.250000  1
  In  In14  1  0.400982  0.000693  0.250000  1
  Sb  Sb15  1  0.000000  0.396607  0.250000  1
  Se  Se16  1  0.000000  0.000867  0.001354  1
  Se  Se17  1  0.000000  0.000867  0.498646  1
