# generated using pymatgen
data_Na6YRhF12
_symmetry_space_group_name_H-M   'P 1'
_cell_length_a   6.74254159
_cell_length_b   6.74254103
_cell_length_c   6.74254100
_cell_angle_alpha   91.94575886
_cell_angle_beta   91.94575020
_cell_angle_gamma   91.94576280
_symmetry_Int_Tables_number   1
_chemical_formula_structural   Na6YRhF12
_chemical_formula_sum   'Na6 Y1 Rh1 F12'
_cell_volume   305.98593649
_cell_formula_units_Z   1
loop_
 _symmetry_equiv_pos_site_id
 _symmetry_equiv_pos_as_xyz
  1  'x, y, z'
loop_
 _atom_site_type_symbol
 _atom_site_label
 _atom_site_symmetry_multiplicity
 _atom_site_fract_x
 _atom_site_fract_y
 _atom_site_fract_z
 _atom_site_occupancy
  Na  Na0  1  0.932777  0.439720  0.742916  1
  Na  Na1  1  0.742916  0.932777  0.439720  1
  Na  Na2  1  0.560280  0.257084  0.067223  1
  Na  Na3  1  0.439720  0.742916  0.932777  1
  Na  Na4  1  0.257084  0.067223  0.560280  1
  Na  Na5  1  0.067223  0.560280  0.257084  1
  Y  Y6  1  0.000000  0.000000  0.000000  1
  Rh  Rh7  1  0.500000  0.500000  0.500000  1
  F  F8  1  0.922811  0.307414  0.066813  1
  F  F9  1  0.933187  0.077189  0.692586  1
  F  F10  1  0.787065  0.582923  0.459013  1
  F  F11  1  0.692586  0.933187  0.077189  1
  F  F12  1  0.582923  0.459013  0.787065  1
  F  F13  1  0.540987  0.212935  0.417077  1
  F  F14  1  0.459013  0.787065  0.582923  1
  F  F15  1  0.417077  0.540987  0.212935  1
  F  F16  1  0.307414  0.066813  0.922811  1
  F  F17  1  0.212935  0.417077  0.540987  1
  F  F18  1  0.066813  0.922811  0.307414  1
  F  F19  1  0.077189  0.692586  0.933187  1
