# generated using pymatgen
data_SmSi2Ni8Rh
_symmetry_space_group_name_H-M   'P 1'
_cell_length_a   7.66906187
_cell_length_b   7.66971890
_cell_length_c   7.66906432
_cell_angle_alpha   99.47380330
_cell_angle_beta   99.45573169
_cell_angle_gamma   132.14787566
_symmetry_Int_Tables_number   1
_chemical_formula_structural   SmSi2Ni8Rh
_chemical_formula_sum   'Sm2 Si4 Ni16 Rh2'
_cell_volume   305.71973629
_cell_formula_units_Z   2
loop_
 _symmetry_equiv_pos_site_id
 _symmetry_equiv_pos_as_xyz
  1  'x, y, z'
loop_
 _atom_site_type_symbol
 _atom_site_label
 _atom_site_symmetry_multiplicity
 _atom_site_fract_x
 _atom_site_fract_y
 _atom_site_fract_z
 _atom_site_occupancy
  Sm  Sm0  1  0.500006  0.499972  0.999967  1
  Sm  Sm1  1  0.749994  0.250028  0.500033  1
  Si  Si2  1  0.625000  0.875000  0.750000  1
  Si  Si3  1  0.125000  0.375000  0.250000  1
  Si  Si4  1  0.125000  0.875000  0.750000  1
  Si  Si5  1  0.125000  0.875000  0.250000  1
  Ni  Ni6  1  0.686676  0.018208  0.082190  1
  Ni  Ni7  1  0.686650  0.604481  0.668471  1
  Ni  Ni8  1  0.268213  0.436667  0.582150  1
  Ni  Ni9  1  0.268187  0.686003  0.831540  1
  Ni  Ni10  1  0.936018  0.018208  0.331532  1
  Ni  Ni11  1  0.936010  0.604481  0.917832  1
  Ni  Ni12  1  0.854515  0.436667  0.168454  1
  Ni  Ni13  1  0.854464  0.686003  0.417818  1
  Ni  Ni14  1  0.563324  0.731792  0.417810  1
  Ni  Ni15  1  0.563350  0.145519  0.831529  1
  Ni  Ni16  1  0.981787  0.313333  0.917850  1
  Ni  Ni17  1  0.981813  0.063997  0.668460  1
  Ni  Ni18  1  0.313982  0.731792  0.168468  1
  Ni  Ni19  1  0.313990  0.145519  0.582168  1
  Ni  Ni20  1  0.395485  0.313333  0.331546  1
  Ni  Ni21  1  0.395536  0.063997  0.082182  1
  Rh  Rh22  1  0.250004  0.750021  0.500017  1
  Rh  Rh23  1  0.999996  0.999979  0.999983  1
