# generated using pymatgen
data_Rb7Ta(SeO4)6
_symmetry_space_group_name_H-M   'P 1'
_cell_length_a   10.11753964
_cell_length_b   10.11753921
_cell_length_c   10.11753905
_cell_angle_alpha   109.48025921
_cell_angle_beta   109.48025317
_cell_angle_gamma   109.48024754
_symmetry_Int_Tables_number   1
_chemical_formula_structural   Rb7Ta(SeO4)6
_chemical_formula_sum   'Rb7 Ta1 Se6 O24'
_cell_volume   796.99846523
_cell_formula_units_Z   1
loop_
 _symmetry_equiv_pos_site_id
 _symmetry_equiv_pos_as_xyz
  1  'x, y, z'
loop_
 _atom_site_type_symbol
 _atom_site_label
 _atom_site_symmetry_multiplicity
 _atom_site_fract_x
 _atom_site_fract_y
 _atom_site_fract_z
 _atom_site_occupancy
  Rb  Rb0  1  0.500000  0.500000  0.500000  1
  Rb  Rb1  1  0.667202  0.165820  0.327217  1
  Rb  Rb2  1  0.327217  0.667202  0.165820  1
  Rb  Rb3  1  0.165820  0.327217  0.667202  1
  Rb  Rb4  1  0.332798  0.834180  0.672783  1
  Rb  Rb5  1  0.672783  0.332798  0.834180  1
  Rb  Rb6  1  0.834180  0.672783  0.332798  1
  Ta  Ta7  1  0.000000  0.000000  0.000000  1
  Se  Se8  1  0.249730  0.030106  0.373798  1
  Se  Se9  1  0.373798  0.249730  0.030106  1
  Se  Se10  1  0.030106  0.373798  0.249730  1
  Se  Se11  1  0.750270  0.969894  0.626202  1
  Se  Se12  1  0.626202  0.750270  0.969894  1
  Se  Se13  1  0.969894  0.626202  0.750270  1
  O  O14  1  0.099985  0.580946  0.846007  1
  O  O15  1  0.846007  0.099985  0.580946  1
  O  O16  1  0.580946  0.846007  0.099985  1
  O  O17  1  0.900015  0.419054  0.153993  1
  O  O18  1  0.153993  0.900015  0.419054  1
  O  O19  1  0.419054  0.153993  0.900015  1
  O  O20  1  0.017335  0.694345  0.635799  1
  O  O21  1  0.635799  0.017335  0.694345  1
  O  O22  1  0.694345  0.635799  0.017335  1
  O  O23  1  0.982665  0.305655  0.364201  1
  O  O24  1  0.364201  0.982665  0.305655  1
  O  O25  1  0.305655  0.364201  0.982665  1
  O  O26  1  0.021849  0.218134  0.096753  1
  O  O27  1  0.096753  0.021849  0.218134  1
  O  O28  1  0.524594  0.350801  0.219952  1
  O  O29  1  0.350801  0.219952  0.524594  1
  O  O30  1  0.219952  0.524594  0.350801  1
  O  O31  1  0.475406  0.649199  0.780048  1
  O  O32  1  0.649199  0.780048  0.475406  1
  O  O33  1  0.780048  0.475406  0.649199  1
  O  O34  1  0.781866  0.903247  0.978151  1
  O  O35  1  0.903247  0.978151  0.781866  1
  O  O36  1  0.978151  0.781866  0.903247  1
  O  O37  1  0.218134  0.096753  0.021849  1
