# generated using pymatgen
data_Pa2Co4Ge3As
_symmetry_space_group_name_H-M   'P 1'
_cell_length_a   4.06386600
_cell_length_b   4.06386600
_cell_length_c   9.43557200
_cell_angle_alpha   90.00000000
_cell_angle_beta   90.00000000
_cell_angle_gamma   90.00000000
_symmetry_Int_Tables_number   1
_chemical_formula_structural   Pa2Co4Ge3As
_chemical_formula_sum   'Pa2 Co4 Ge3 As1'
_cell_volume   155.82853636
_cell_formula_units_Z   1
loop_
 _symmetry_equiv_pos_site_id
 _symmetry_equiv_pos_as_xyz
  1  'x, y, z'
loop_
 _atom_site_type_symbol
 _atom_site_label
 _atom_site_symmetry_multiplicity
 _atom_site_fract_x
 _atom_site_fract_y
 _atom_site_fract_z
 _atom_site_occupancy
  Pa  Pa0  1  0.750000  0.750000  0.245586  1
  Pa  Pa1  1  0.250000  0.250000  0.755435  1
  Co  Co2  1  0.750000  0.250000  0.997446  1
  Co  Co3  1  0.250000  0.750000  0.997446  1
  Co  Co4  1  0.750000  0.750000  0.629166  1
  Co  Co5  1  0.250000  0.250000  0.373377  1
  Ge  Ge6  1  0.750000  0.250000  0.500677  1
  Ge  Ge7  1  0.250000  0.750000  0.500677  1
  Ge  Ge8  1  0.250000  0.250000  0.131085  1
  As  As9  1  0.750000  0.750000  0.869107  1
