# generated using pymatgen
data_NdHo3(MoN3)4
_symmetry_space_group_name_H-M   'P 1'
_cell_length_a   7.32967557
_cell_length_b   7.32967432
_cell_length_c   6.27965229
_cell_angle_alpha   74.10597136
_cell_angle_beta   74.10596110
_cell_angle_gamma   82.15520322
_symmetry_Int_Tables_number   1
_chemical_formula_structural   NdHo3(MoN3)4
_chemical_formula_sum   'Nd1 Ho3 Mo4 N12'
_cell_volume   311.37632186
_cell_formula_units_Z   1
loop_
 _symmetry_equiv_pos_site_id
 _symmetry_equiv_pos_as_xyz
  1  'x, y, z'
loop_
 _atom_site_type_symbol
 _atom_site_label
 _atom_site_symmetry_multiplicity
 _atom_site_fract_x
 _atom_site_fract_y
 _atom_site_fract_z
 _atom_site_occupancy
  Nd  Nd0  1  0.298630  0.701370  0.750000  1
  Ho  Ho1  1  0.910080  0.089920  0.750000  1
  Ho  Ho2  1  0.705835  0.294165  0.250000  1
  Ho  Ho3  1  0.084609  0.915391  0.250000  1
  Mo  Mo4  1  0.801221  0.618922  0.766994  1
  Mo  Mo5  1  0.198730  0.378551  0.237610  1
  Mo  Mo6  1  0.621449  0.801270  0.262390  1
  Mo  Mo7  1  0.381078  0.198779  0.733006  1
  N  N8  1  0.212981  0.005494  0.850568  1
  N  N9  1  0.365502  0.350544  0.441049  1
  N  N10  1  0.643891  0.650029  0.552118  1
  N  N11  1  0.623070  0.108860  0.660921  1
  N  N12  1  0.994506  0.787019  0.649432  1
  N  N13  1  0.780662  0.003480  0.150169  1
  N  N14  1  0.112165  0.621499  0.170521  1
  N  N15  1  0.891140  0.376930  0.839079  1
  N  N16  1  0.996520  0.219338  0.349831  1
  N  N17  1  0.349971  0.356109  0.947882  1
  N  N18  1  0.649456  0.634498  0.058951  1
  N  N19  1  0.378501  0.887835  0.329479  1
