# generated using pymatgen
data_Tb20Si12S
_symmetry_space_group_name_H-M   'P 1'
_cell_length_a   14.83568900
_cell_length_b   6.42488940
_cell_length_c   8.51535014
_cell_angle_alpha   89.92948417
_cell_angle_beta   90.00000000
_cell_angle_gamma   90.00000000
_symmetry_Int_Tables_number   1
_chemical_formula_structural   Tb20Si12S
_chemical_formula_sum   'Tb20 Si12 S1'
_cell_volume   811.66264281
_cell_formula_units_Z   1
loop_
 _symmetry_equiv_pos_site_id
 _symmetry_equiv_pos_as_xyz
  1  'x, y, z'
loop_
 _atom_site_type_symbol
 _atom_site_label
 _atom_site_symmetry_multiplicity
 _atom_site_fract_x
 _atom_site_fract_y
 _atom_site_fract_z
 _atom_site_occupancy
  Tb  Tb0  1  0.666462  0.500000  0.500000  1
  Tb  Tb1  1  0.168224  0.500000  0.000000  1
  Tb  Tb2  1  0.831776  0.500000  0.000000  1
  Tb  Tb3  1  0.333538  0.500000  0.500000  1
  Tb  Tb4  1  0.832093  0.000000  0.000000  1
  Tb  Tb5  1  0.335282  0.000000  0.500000  1
  Tb  Tb6  1  0.664718  0.000000  0.500000  1
  Tb  Tb7  1  0.167907  0.000000  0.000000  1
  Tb  Tb8  1  0.500000  0.251770  0.755688  1
  Tb  Tb9  1  0.000000  0.247041  0.248281  1
  Tb  Tb10  1  0.620032  0.250224  0.122519  1
  Tb  Tb11  1  0.125645  0.243423  0.626698  1
  Tb  Tb12  1  0.874355  0.243423  0.626698  1
  Tb  Tb13  1  0.379968  0.250224  0.122519  1
  Tb  Tb14  1  0.000000  0.752959  0.751719  1
  Tb  Tb15  1  0.500000  0.748230  0.244312  1
  Tb  Tb16  1  0.874355  0.756577  0.373302  1
  Tb  Tb17  1  0.379968  0.749776  0.877481  1
  Tb  Tb18  1  0.620032  0.749776  0.877481  1
  Tb  Tb19  1  0.125645  0.756577  0.373302  1
  Si  Si20  1  0.000000  0.247810  0.895680  1
  Si  Si21  1  0.500000  0.252352  0.394918  1
  Si  Si22  1  0.800938  0.246201  0.301867  1
  Si  Si23  1  0.303730  0.248561  0.803095  1
  Si  Si24  1  0.696270  0.248561  0.803095  1
  Si  Si25  1  0.199062  0.246201  0.301867  1
  Si  Si26  1  0.500000  0.747648  0.605082  1
  Si  Si27  1  0.000000  0.752190  0.104320  1
  Si  Si28  1  0.696270  0.751439  0.196905  1
  Si  Si29  1  0.199062  0.753799  0.698133  1
  Si  Si30  1  0.800938  0.753799  0.698133  1
  Si  Si31  1  0.303730  0.751439  0.196905  1
  S  S32  1  0.000000  0.500000  0.500000  1
