# generated using pymatgen
data_YbPr3(Al3Os)2
_symmetry_space_group_name_H-M   'P 1'
_cell_length_a   5.66429600
_cell_length_b   5.66429667
_cell_length_c   8.84970600
_cell_angle_alpha   90.00000000
_cell_angle_beta   90.00000000
_cell_angle_gamma   119.99999611
_symmetry_Int_Tables_number   1
_chemical_formula_structural   YbPr3(Al3Os)2
_chemical_formula_sum   'Yb1 Pr3 Al6 Os2'
_cell_volume   245.89597695
_cell_formula_units_Z   1
loop_
 _symmetry_equiv_pos_site_id
 _symmetry_equiv_pos_as_xyz
  1  'x, y, z'
loop_
 _atom_site_type_symbol
 _atom_site_label
 _atom_site_symmetry_multiplicity
 _atom_site_fract_x
 _atom_site_fract_y
 _atom_site_fract_z
 _atom_site_occupancy
  Yb  Yb0  1  0.333334  0.666667  0.947407  1
  Pr  Pr1  1  0.666666  0.333333  0.048039  1
  Pr  Pr2  1  0.666666  0.333333  0.450226  1
  Pr  Pr3  1  0.333334  0.666667  0.552826  1
  Al  Al4  1  0.158295  0.316589  0.249988  1
  Al  Al5  1  0.158295  0.841705  0.249988  1
  Al  Al6  1  0.683410  0.841705  0.249988  1
  Al  Al7  1  0.316126  0.158063  0.750412  1
  Al  Al8  1  0.841937  0.158063  0.750412  1
  Al  Al9  1  0.841937  0.683874  0.750412  1
  Os  Os10  1  0.000000  0.000000  0.998975  1
  Os  Os11  1  0.000000  0.000000  0.501329  1
