# generated using pymatgen
data_DyPa2Fe2Si7
_symmetry_space_group_name_H-M   'P 1'
_cell_length_a   12.38477183
_cell_length_b   12.38477199
_cell_length_c   4.06125000
_cell_angle_alpha   90.00000000
_cell_angle_beta   90.00000000
_cell_angle_gamma   161.20451064
_symmetry_Int_Tables_number   1
_chemical_formula_structural   DyPa2Fe2Si7
_chemical_formula_sum   'Dy1 Pa2 Fe2 Si7'
_cell_volume   200.70092856
_cell_formula_units_Z   1
loop_
 _symmetry_equiv_pos_site_id
 _symmetry_equiv_pos_as_xyz
  1  'x, y, z'
loop_
 _atom_site_type_symbol
 _atom_site_label
 _atom_site_symmetry_multiplicity
 _atom_site_fract_x
 _atom_site_fract_y
 _atom_site_fract_z
 _atom_site_occupancy
  Dy  Dy0  1  0.467243  0.532757  0.500000  1
  Pa  Pa1  1  0.099806  0.900194  0.500000  1
  Pa  Pa2  1  0.783839  0.216161  0.000000  1
  Fe  Fe3  1  0.654255  0.345745  0.000000  1
  Fe  Fe4  1  0.909468  0.090532  0.000000  1
  Si  Si5  1  0.371066  0.628934  0.000000  1
  Si  Si6  1  0.560867  0.439133  0.000000  1
  Si  Si7  1  0.871168  0.128832  0.500000  1
  Si  Si8  1  0.003323  0.996677  0.000000  1
  Si  Si9  1  0.196027  0.803973  0.000000  1
  Si  Si10  1  0.283773  0.716227  0.500000  1
  Si  Si11  1  0.695864  0.304136  0.500000  1
