# generated using pymatgen
data_HfThF36
_symmetry_space_group_name_H-M   'P 1'
_cell_length_a   6.24303320
_cell_length_b   10.78699813
_cell_length_c   10.86422290
_cell_angle_alpha   92.78559596
_cell_angle_beta   100.42271590
_cell_angle_gamma   75.94116017
_symmetry_Int_Tables_number   1
_chemical_formula_structural   HfThF36
_chemical_formula_sum   'Hf1 Th1 F36'
_cell_volume   698.00207338
_cell_formula_units_Z   1
loop_
 _symmetry_equiv_pos_site_id
 _symmetry_equiv_pos_as_xyz
  1  'x, y, z'
loop_
 _atom_site_type_symbol
 _atom_site_label
 _atom_site_symmetry_multiplicity
 _atom_site_fract_x
 _atom_site_fract_y
 _atom_site_fract_z
 _atom_site_occupancy
  Hf  Hf0  1  0.278441  0.150834  0.134827  1
  Th  Th1  1  0.752060  0.839319  0.877872  1
  F  F2  1  0.376533  0.362639  0.884854  1
  F  F3  1  0.612749  0.630401  0.119276  1
  F  F4  1  0.335149  0.277727  0.588154  1
  F  F5  1  0.671098  0.743471  0.424992  1
  F  F6  1  0.871071  0.228152  0.814209  1
  F  F7  1  0.141760  0.766029  0.191364  1
  F  F8  1  0.658855  0.844697  0.055658  1
  F  F9  1  0.359766  0.128216  0.972797  1
  F  F10  1  0.788349  0.616767  0.867777  1
  F  F11  1  0.189377  0.347967  0.097370  1
  F  F12  1  0.410503  0.477192  0.840424  1
  F  F13  1  0.591337  0.508956  0.155848  1
  F  F14  1  0.726149  0.704542  0.702921  1
  F  F15  1  0.246497  0.287346  0.277487  1
  F  F16  1  0.750024  0.970441  0.555365  1
  F  F17  1  0.248136  0.016683  0.454554  1
  F  F18  1  0.297304  0.181156  0.661246  1
  F  F19  1  0.687484  0.815715  0.321813  1
  F  F20  1  0.813942  0.087734  0.587495  1
  F  F21  1  0.167602  0.911829  0.395285  1
  F  F22  1  0.835549  0.013549  0.855344  1
  F  F23  1  0.127685  0.018477  0.139759  1
  F  F24  1  0.890112  0.356693  0.802023  1
  F  F25  1  0.118938  0.638165  0.198483  1
  F  F26  1  0.153490  0.757961  0.910944  1
  F  F27  1  0.868964  0.261811  0.104735  1
  F  F28  1  0.400453  0.940621  0.753326  1
  F  F29  1  0.564139  0.072676  0.233885  1
  F  F30  1  0.126326  0.749000  0.577590  1
  F  F31  1  0.895176  0.249952  0.424453  1
  F  F32  1  0.185903  0.632513  0.646224  1
  F  F33  1  0.820290  0.372414  0.366470  1
  F  F34  1  0.281528  0.848600  0.832391  1
  F  F35  1  0.736254  0.186018  0.158272  1
  F  F36  1  0.535132  0.450244  0.550012  1
  F  F37  1  0.485870  0.553495  0.464506  1
