# generated using pymatgen
data_Tm3Sc7(Hg2Pt)4
_symmetry_space_group_name_H-M   'P 1'
_cell_length_a   3.45460800
_cell_length_b   7.80456722
_cell_length_c   17.57785689
_cell_angle_alpha   89.83064788
_cell_angle_beta   90.00000000
_cell_angle_gamma   90.00000000
_symmetry_Int_Tables_number   1
_chemical_formula_structural   Tm3Sc7(Hg2Pt)4
_chemical_formula_sum   'Tm3 Sc7 Hg8 Pt4'
_cell_volume   473.92719169
_cell_formula_units_Z   1
loop_
 _symmetry_equiv_pos_site_id
 _symmetry_equiv_pos_as_xyz
  1  'x, y, z'
loop_
 _atom_site_type_symbol
 _atom_site_label
 _atom_site_symmetry_multiplicity
 _atom_site_fract_x
 _atom_site_fract_y
 _atom_site_fract_z
 _atom_site_occupancy
  Tm  Tm0  1  0.000000  0.759554  0.785173  1
  Tm  Tm1  1  0.000000  0.260596  0.714576  1
  Tm  Tm2  1  0.000000  0.741862  0.284002  1
  Sc  Sc3  1  0.000000  0.114511  0.415911  1
  Sc  Sc4  1  0.000000  0.885875  0.581750  1
  Sc  Sc5  1  0.000000  0.384962  0.918888  1
  Sc  Sc6  1  0.000000  0.612543  0.084089  1
  Sc  Sc7  1  0.000000  0.241947  0.216103  1
  Sc  Sc8  1  0.000000  0.999940  0.000394  1
  Sc  Sc9  1  0.000000  0.500066  0.499420  1
  Hg  Hg10  1  0.500000  0.417934  0.356935  1
  Hg  Hg11  1  0.500000  0.580459  0.641750  1
  Hg  Hg12  1  0.500000  0.080464  0.857925  1
  Hg  Hg13  1  0.500000  0.923114  0.142826  1
  Hg  Hg14  1  0.500000  0.286646  0.060564  1
  Hg  Hg15  1  0.500000  0.711024  0.943039  1
  Hg  Hg16  1  0.500000  0.210904  0.557061  1
  Hg  Hg17  1  0.500000  0.789926  0.441041  1
  Pt  Pt18  1  0.500000  0.037527  0.304329  1
  Pt  Pt19  1  0.500000  0.968805  0.692578  1
  Pt  Pt20  1  0.500000  0.467961  0.807735  1
  Pt  Pt21  1  0.500000  0.523379  0.193915  1
