# generated using pymatgen
data_La4Sm6Co2Br15
_symmetry_space_group_name_H-M   'P 1'
_cell_length_a   9.59561970
_cell_length_b   10.43581252
_cell_length_c   11.22784200
_cell_angle_alpha   92.22125792
_cell_angle_beta   114.07676245
_cell_angle_gamma   110.65993725
_symmetry_Int_Tables_number   1
_chemical_formula_structural   La4Sm6Co2Br15
_chemical_formula_sum   'La4 Sm6 Co2 Br15'
_cell_volume   938.28150553
_cell_formula_units_Z   1
loop_
 _symmetry_equiv_pos_site_id
 _symmetry_equiv_pos_as_xyz
  1  'x, y, z'
loop_
 _atom_site_type_symbol
 _atom_site_label
 _atom_site_symmetry_multiplicity
 _atom_site_fract_x
 _atom_site_fract_y
 _atom_site_fract_z
 _atom_site_occupancy
  La  La0  1  0.804798  0.405883  0.272060  1
  La  La1  1  0.195202  0.594117  0.727940  1
  La  La2  1  0.670967  0.750783  0.820815  1
  La  La3  1  0.329033  0.249217  0.179185  1
  Sm  Sm4  1  0.528716  0.707439  0.102930  1
  Sm  Sm5  1  0.471284  0.292561  0.897070  1
  Sm  Sm6  1  0.592728  0.043683  0.335858  1
  Sm  Sm7  1  0.407272  0.956317  0.664142  1
  Sm  Sm8  1  0.724664  0.076668  0.047804  1
  Sm  Sm9  1  0.275336  0.923332  0.952196  1
  Co  Co10  1  0.466306  0.825663  0.879964  1
  Co  Co11  1  0.533694  0.174337  0.120036  1
  Br  Br12  1  0.000000  0.000000  0.000000  1
  Br  Br13  1  0.633447  0.891004  0.583006  1
  Br  Br14  1  0.366553  0.108996  0.416994  1
  Br  Br15  1  0.882644  0.297328  0.526349  1
  Br  Br16  1  0.117356  0.702672  0.473651  1
  Br  Br17  1  0.303898  0.768094  0.186763  1
  Br  Br18  1  0.696102  0.231906  0.813237  1
  Br  Br19  1  0.057545  0.334826  0.219390  1
  Br  Br20  1  0.172521  0.057951  0.701782  1
  Br  Br21  1  0.827479  0.942049  0.298218  1
  Br  Br22  1  0.252508  0.416720  0.949794  1
  Br  Br23  1  0.747492  0.583280  0.050206  1
  Br  Br24  1  0.405432  0.461405  0.668992  1
  Br  Br25  1  0.594568  0.538595  0.331008  1
  Br  Br26  1  0.942455  0.665174  0.780610  1
