# generated using pymatgen
data_La5Nd5Ru4
_symmetry_space_group_name_H-M   'P 1'
_cell_length_a   9.07923736
_cell_length_b   9.08443446
_cell_length_c   7.35253244
_cell_angle_alpha   84.57671239
_cell_angle_beta   84.63978362
_cell_angle_gamma   43.17775183
_symmetry_Int_Tables_number   1
_chemical_formula_structural   La5Nd5Ru4
_chemical_formula_sum   'La5 Nd5 Ru4'
_cell_volume   412.83691253
_cell_formula_units_Z   1
loop_
 _symmetry_equiv_pos_site_id
 _symmetry_equiv_pos_as_xyz
  1  'x, y, z'
loop_
 _atom_site_type_symbol
 _atom_site_label
 _atom_site_symmetry_multiplicity
 _atom_site_fract_x
 _atom_site_fract_y
 _atom_site_fract_z
 _atom_site_occupancy
  La  La0  1  0.016556  0.797280  0.906638  1
  La  La1  1  0.205033  0.982581  0.594592  1
  La  La2  1  0.981372  0.205886  0.095292  1
  La  La3  1  0.797795  0.015433  0.405492  1
  La  La4  1  0.362192  0.210497  0.817794  1
  Nd  Nd5  1  0.791508  0.637811  0.683866  1
  Nd  Nd6  1  0.638973  0.790817  0.184541  1
  Nd  Nd7  1  0.207035  0.362258  0.317004  1
  Nd  Nd8  1  0.575186  0.426879  0.749193  1
  Nd  Nd9  1  0.424007  0.575247  0.249305  1
  Ru  Ru10  1  0.168225  0.606838  0.587813  1
  Ru  Ru11  1  0.390567  0.832246  0.913848  1
  Ru  Ru12  1  0.834097  0.388502  0.413912  1
  Ru  Ru13  1  0.607455  0.167726  0.080712  1
