# generated using pymatgen
data_Dy8Sc11Si16Os
_symmetry_space_group_name_H-M   'P 1'
_cell_length_a   7.00791085
_cell_length_b   7.34551995
_cell_length_c   13.87390700
_cell_angle_alpha   90.00000000
_cell_angle_beta   90.00000000
_cell_angle_gamma   90.08339402
_symmetry_Int_Tables_number   1
_chemical_formula_structural   Dy8Sc11Si16Os
_chemical_formula_sum   'Dy8 Sc11 Si16 Os1'
_cell_volume   714.18287131
_cell_formula_units_Z   1
loop_
 _symmetry_equiv_pos_site_id
 _symmetry_equiv_pos_as_xyz
  1  'x, y, z'
loop_
 _atom_site_type_symbol
 _atom_site_label
 _atom_site_symmetry_multiplicity
 _atom_site_fract_x
 _atom_site_fract_y
 _atom_site_fract_z
 _atom_site_occupancy
  Dy  Dy0  1  0.011509  0.177500  0.093066  1
  Dy  Dy1  1  0.993921  0.819632  0.900471  1
  Dy  Dy2  1  0.489562  0.672089  0.901817  1
  Dy  Dy3  1  0.993921  0.819632  0.599529  1
  Dy  Dy4  1  0.511266  0.324127  0.094815  1
  Dy  Dy5  1  0.011509  0.177500  0.406934  1
  Dy  Dy6  1  0.511266  0.324127  0.405185  1
  Dy  Dy7  1  0.489562  0.672089  0.598183  1
  Sc  Sc8  1  0.841660  0.496417  0.250000  1
  Sc  Sc9  1  0.341492  0.003095  0.250000  1
  Sc  Sc10  1  0.658479  0.996171  0.750000  1
  Sc  Sc11  1  0.325883  0.176646  0.627274  1
  Sc  Sc12  1  0.671635  0.824481  0.374665  1
  Sc  Sc13  1  0.171477  0.674340  0.376856  1
  Sc  Sc14  1  0.671635  0.824481  0.125335  1
  Sc  Sc15  1  0.826198  0.331612  0.628184  1
  Sc  Sc16  1  0.325883  0.176646  0.872726  1
  Sc  Sc17  1  0.826198  0.331612  0.871816  1
  Sc  Sc18  1  0.171477  0.674340  0.123144  1
  Si  Si19  1  0.029172  0.121197  0.750000  1
  Si  Si20  1  0.971557  0.885088  0.250000  1
  Si  Si21  1  0.468299  0.616268  0.250000  1
  Si  Si22  1  0.516002  0.393267  0.750000  1
  Si  Si23  1  0.287185  0.863249  0.750000  1
  Si  Si24  1  0.716034  0.128501  0.250000  1
  Si  Si25  1  0.214705  0.372223  0.250000  1
  Si  Si26  1  0.796483  0.629467  0.750000  1
  Si  Si27  1  0.156540  0.465555  0.548721  1
  Si  Si28  1  0.842890  0.536322  0.463578  1
  Si  Si29  1  0.345444  0.964610  0.463090  1
  Si  Si30  1  0.842890  0.536322  0.036422  1
  Si  Si31  1  0.658435  0.034219  0.540005  1
  Si  Si32  1  0.156540  0.465555  0.951279  1
  Si  Si33  1  0.658435  0.034219  0.959995  1
  Si  Si34  1  0.345444  0.964610  0.036910  1
  Os  Os35  1  0.149409  0.492793  0.750000  1
