# generated using pymatgen
data_Nd8Si12RuPt3
_symmetry_space_group_name_H-M   'P 1'
_cell_length_a   8.26031300
_cell_length_b   8.26031284
_cell_length_c   8.52169500
_cell_angle_alpha   90.00000000
_cell_angle_beta   90.00000000
_cell_angle_gamma   119.99999665
_symmetry_Int_Tables_number   1
_chemical_formula_structural   Nd8Si12RuPt3
_chemical_formula_sum   'Nd8 Si12 Ru1 Pt3'
_cell_volume   503.55815292
_cell_formula_units_Z   1
loop_
 _symmetry_equiv_pos_site_id
 _symmetry_equiv_pos_as_xyz
  1  'x, y, z'
loop_
 _atom_site_type_symbol
 _atom_site_label
 _atom_site_symmetry_multiplicity
 _atom_site_fract_x
 _atom_site_fract_y
 _atom_site_fract_z
 _atom_site_occupancy
  Nd  Nd0  1  0.000000  0.000000  0.750541  1
  Nd  Nd1  1  0.000000  0.000000  0.249449  1
  Nd  Nd2  1  0.497657  0.502343  0.754442  1
  Nd  Nd3  1  0.497657  0.995313  0.754442  1
  Nd  Nd4  1  0.004687  0.502343  0.754442  1
  Nd  Nd5  1  0.498734  0.501266  0.245517  1
  Nd  Nd6  1  0.002533  0.501266  0.245517  1
  Nd  Nd7  1  0.498734  0.997467  0.245517  1
  Si  Si8  1  0.835170  0.164830  0.999589  1
  Si  Si9  1  0.835170  0.670341  0.999589  1
  Si  Si10  1  0.329659  0.164830  0.999589  1
  Si  Si11  1  0.834345  0.165655  0.500498  1
  Si  Si12  1  0.834345  0.668689  0.500498  1
  Si  Si13  1  0.331311  0.165655  0.500498  1
  Si  Si14  1  0.165470  0.834530  0.499608  1
  Si  Si15  1  0.669060  0.834530  0.499608  1
  Si  Si16  1  0.165470  0.330940  0.499608  1
  Si  Si17  1  0.167956  0.832044  0.000361  1
  Si  Si18  1  0.664088  0.832044  0.000361  1
  Si  Si19  1  0.167956  0.335912  0.000361  1
  Ru  Ru20  1  0.333333  0.666667  0.001673  1
  Pt  Pt21  1  0.666667  0.333333  0.998545  1
  Pt  Pt22  1  0.666667  0.333333  0.501144  1
  Pt  Pt23  1  0.333333  0.666667  0.498602  1
