# generated using pymatgen
data_Sm2Ga(PRh2)6
_symmetry_space_group_name_H-M   'P 1'
_cell_length_a   9.69559100
_cell_length_b   9.69559115
_cell_length_c   3.89878800
_cell_angle_alpha   90.00000000
_cell_angle_beta   90.00000000
_cell_angle_gamma   120.00000289
_symmetry_Int_Tables_number   1
_chemical_formula_structural   Sm2Ga(PRh2)6
_chemical_formula_sum   'Sm2 Ga1 P6 Rh12'
_cell_volume   317.40138713
_cell_formula_units_Z   1
loop_
 _symmetry_equiv_pos_site_id
 _symmetry_equiv_pos_as_xyz
  1  'x, y, z'
loop_
 _atom_site_type_symbol
 _atom_site_label
 _atom_site_symmetry_multiplicity
 _atom_site_fract_x
 _atom_site_fract_y
 _atom_site_fract_z
 _atom_site_occupancy
  Sm  Sm0  1  0.333333  0.666667  0.750588  1
  Sm  Sm1  1  0.666667  0.333333  0.249412  1
  Ga  Ga2  1  0.000000  0.000000  0.500000  1
  P  P3  1  0.401346  0.285795  0.749964  1
  P  P4  1  0.714205  0.115551  0.749964  1
  P  P5  1  0.884449  0.598654  0.749964  1
  P  P6  1  0.598654  0.714205  0.250036  1
  P  P7  1  0.285795  0.884449  0.250036  1
  P  P8  1  0.115551  0.401346  0.250036  1
  Rh  Rh9  1  0.449632  0.064369  0.750476  1
  Rh  Rh10  1  0.935631  0.385265  0.750476  1
  Rh  Rh11  1  0.614735  0.550368  0.750476  1
  Rh  Rh12  1  0.550368  0.935631  0.249524  1
  Rh  Rh13  1  0.064369  0.614735  0.249524  1
  Rh  Rh14  1  0.385265  0.449632  0.249524  1
  Rh  Rh15  1  0.156666  0.279200  0.751643  1
  Rh  Rh16  1  0.720800  0.877466  0.751643  1
  Rh  Rh17  1  0.122534  0.843334  0.751643  1
  Rh  Rh18  1  0.843334  0.720800  0.248357  1
  Rh  Rh19  1  0.279200  0.122534  0.248357  1
  Rh  Rh20  1  0.877466  0.156666  0.248357  1
