# generated using pymatgen
data_Ho8ZnInRh2
_symmetry_space_group_name_H-M   'P 1'
_cell_length_a   9.54289567
_cell_length_b   9.54289591
_cell_length_c   9.55389000
_cell_angle_alpha   59.96188250
_cell_angle_beta   59.96188167
_cell_angle_gamma   59.91195498
_symmetry_Int_Tables_number   1
_chemical_formula_structural   Ho8ZnInRh2
_chemical_formula_sum   'Ho16 Zn2 In2 Rh4'
_cell_volume   614.44874506
_cell_formula_units_Z   2
loop_
 _symmetry_equiv_pos_site_id
 _symmetry_equiv_pos_as_xyz
  1  'x, y, z'
loop_
 _atom_site_type_symbol
 _atom_site_label
 _atom_site_symmetry_multiplicity
 _atom_site_fract_x
 _atom_site_fract_y
 _atom_site_fract_z
 _atom_site_occupancy
  Ho  Ho0  1  0.186817  0.186817  0.813183  1
  Ho  Ho1  1  0.601477  0.601477  0.197350  1
  Ho  Ho2  1  0.440421  0.059326  0.440529  1
  Ho  Ho3  1  0.441122  0.441122  0.058878  1
  Ho  Ho4  1  0.813126  0.181874  0.814234  1
  Ho  Ho5  1  0.181874  0.813126  0.190766  1
  Ho  Ho6  1  0.440421  0.059326  0.059724  1
  Ho  Ho7  1  0.181874  0.813126  0.814234  1
  Ho  Ho8  1  0.059326  0.440421  0.059724  1
  Ho  Ho9  1  0.814060  0.814060  0.185940  1
  Ho  Ho10  1  0.194095  0.603370  0.601268  1
  Ho  Ho11  1  0.059326  0.440421  0.440529  1
  Ho  Ho12  1  0.059708  0.059708  0.440292  1
  Ho  Ho13  1  0.813126  0.181874  0.190766  1
  Ho  Ho14  1  0.603370  0.194095  0.601268  1
  Ho  Ho15  1  0.601477  0.601477  0.599696  1
  Zn  Zn16  1  0.833069  0.833069  0.831079  1
  Zn  Zn17  1  0.833069  0.833069  0.502783  1
  In  In18  1  0.508942  0.833027  0.829016  1
  In  In19  1  0.833027  0.508942  0.829016  1
  Rh  Rh20  1  0.392264  0.822373  0.392682  1
  Rh  Rh21  1  0.392818  0.392818  0.393439  1
  Rh  Rh22  1  0.822373  0.392264  0.392682  1
  Rh  Rh23  1  0.392818  0.392818  0.820925  1
