# generated using pymatgen
data_Dy2BeNiBr
_symmetry_space_group_name_H-M   'P 1'
_cell_length_a   3.89563500
_cell_length_b   3.89563573
_cell_length_c   16.20243700
_cell_angle_alpha   90.00000000
_cell_angle_beta   90.00000000
_cell_angle_gamma   119.99998535
_symmetry_Int_Tables_number   1
_chemical_formula_structural   Dy2BeNiBr
_chemical_formula_sum   'Dy4 Be2 Ni2 Br2'
_cell_volume   212.94509270
_cell_formula_units_Z   2
loop_
 _symmetry_equiv_pos_site_id
 _symmetry_equiv_pos_as_xyz
  1  'x, y, z'
loop_
 _atom_site_type_symbol
 _atom_site_label
 _atom_site_symmetry_multiplicity
 _atom_site_fract_x
 _atom_site_fract_y
 _atom_site_fract_z
 _atom_site_occupancy
  Dy  Dy0  1  0.000000  0.000000  0.606228  1
  Dy  Dy1  1  0.000000  0.000000  0.394317  1
  Dy  Dy2  1  0.000000  0.000000  0.106228  1
  Dy  Dy3  1  0.000000  0.000000  0.894317  1
  Be  Be4  1  0.666667  0.333333  0.501327  1
  Be  Be5  1  0.333333  0.666667  0.001327  1
  Ni  Ni6  1  0.666667  0.333333  0.998329  1
  Ni  Ni7  1  0.333333  0.666667  0.498329  1
  Br  Br8  1  0.666667  0.333333  0.249799  1
  Br  Br9  1  0.333333  0.666667  0.749799  1
