# generated using pymatgen
data_Ca3Sc(Al3Ni)6
_symmetry_space_group_name_H-M   'P 1'
_cell_length_a   7.42230532
_cell_length_b   7.41112906
_cell_length_c   9.26132100
_cell_angle_alpha   90.00000000
_cell_angle_beta   90.00000000
_cell_angle_gamma   119.35433119
_symmetry_Int_Tables_number   1
_chemical_formula_structural   Ca3Sc(Al3Ni)6
_chemical_formula_sum   'Ca3 Sc1 Al18 Ni6'
_cell_volume   444.03351572
_cell_formula_units_Z   1
loop_
 _symmetry_equiv_pos_site_id
 _symmetry_equiv_pos_as_xyz
  1  'x, y, z'
loop_
 _atom_site_type_symbol
 _atom_site_label
 _atom_site_symmetry_multiplicity
 _atom_site_fract_x
 _atom_site_fract_y
 _atom_site_fract_z
 _atom_site_occupancy
  Ca  Ca0  1  0.006106  0.327604  0.750000  1
  Ca  Ca1  1  0.670750  0.994224  0.250000  1
  Ca  Ca2  1  0.328557  0.007025  0.750000  1
  Sc  Sc3  1  0.995318  0.671017  0.250000  1
  Al  Al4  1  0.122874  0.118944  0.250000  1
  Al  Al5  1  0.872208  0.870571  0.750000  1
  Al  Al6  1  0.996398  0.337962  0.077173  1
  Al  Al7  1  0.002715  0.665430  0.932702  1
  Al  Al8  1  0.002715  0.665430  0.567298  1
  Al  Al9  1  0.331849  0.993840  0.422930  1
  Al  Al10  1  0.996398  0.337962  0.422827  1
  Al  Al11  1  0.664840  0.001373  0.570621  1
  Al  Al12  1  0.664840  0.001373  0.929379  1
  Al  Al13  1  0.331849  0.993840  0.077070  1
  Al  Al14  1  0.332694  0.332689  0.541506  1
  Al  Al15  1  0.672467  0.669435  0.445558  1
  Al  Al16  1  0.672467  0.669435  0.054442  1
  Al  Al17  1  0.332694  0.332689  0.958494  1
  Al  Al18  1  0.334194  0.552519  0.250000  1
  Al  Al19  1  0.660471  0.450031  0.750000  1
  Al  Al20  1  0.558808  0.346737  0.250000  1
  Al  Al21  1  0.447279  0.659029  0.750000  1
  Ni  Ni22  1  0.671069  0.331158  0.001691  1
  Ni  Ni23  1  0.330290  0.670274  0.001846  1
  Ni  Ni24  1  0.330290  0.670274  0.498154  1
  Ni  Ni25  1  0.671069  0.331158  0.498309  1
  Ni  Ni26  1  0.999394  0.998989  0.002016  1
  Ni  Ni27  1  0.999394  0.998989  0.497984  1
