# generated using pymatgen
data_Li3Sm8Si12Rh
_symmetry_space_group_name_H-M   'P 1'
_cell_length_a   8.22780300
_cell_length_b   8.22780289
_cell_length_c   8.25738800
_cell_angle_alpha   90.00000000
_cell_angle_beta   90.00000000
_cell_angle_gamma   120.00000446
_symmetry_Int_Tables_number   1
_chemical_formula_structural   Li3Sm8Si12Rh
_chemical_formula_sum   'Li3 Sm8 Si12 Rh1'
_cell_volume   484.10667145
_cell_formula_units_Z   1
loop_
 _symmetry_equiv_pos_site_id
 _symmetry_equiv_pos_as_xyz
  1  'x, y, z'
loop_
 _atom_site_type_symbol
 _atom_site_label
 _atom_site_symmetry_multiplicity
 _atom_site_fract_x
 _atom_site_fract_y
 _atom_site_fract_z
 _atom_site_occupancy
  Li  Li0  1  0.333333  0.666667  0.495998  1
  Li  Li1  1  0.666667  0.333333  0.503838  1
  Li  Li2  1  0.666667  0.333333  0.996363  1
  Sm  Sm3  1  0.000000  0.000000  0.251017  1
  Sm  Sm4  1  0.000000  0.000000  0.749161  1
  Sm  Sm5  1  0.498924  0.501076  0.247649  1
  Sm  Sm6  1  0.498924  0.997849  0.247649  1
  Sm  Sm7  1  0.002151  0.501076  0.247649  1
  Sm  Sm8  1  0.497216  0.502784  0.752359  1
  Sm  Sm9  1  0.497216  0.994431  0.752359  1
  Sm  Sm10  1  0.005569  0.502784  0.752359  1
  Si  Si11  1  0.166245  0.833755  0.500536  1
  Si  Si12  1  0.166245  0.332490  0.500536  1
  Si  Si13  1  0.667510  0.833755  0.500536  1
  Si  Si14  1  0.833534  0.166466  0.499608  1
  Si  Si15  1  0.833534  0.667068  0.499608  1
  Si  Si16  1  0.332932  0.166466  0.499608  1
  Si  Si17  1  0.835111  0.164889  0.000231  1
  Si  Si18  1  0.835111  0.670223  0.000231  1
  Si  Si19  1  0.329777  0.164889  0.000231  1
  Si  Si20  1  0.168516  0.831484  0.000100  1
  Si  Si21  1  0.168516  0.337033  0.000100  1
  Si  Si22  1  0.662967  0.831484  0.000100  1
  Rh  Rh23  1  0.333333  0.666667  0.002174  1
