# generated using pymatgen
data_Tb3Nd17Si15Rh
_symmetry_space_group_name_H-M   'P 1'
_cell_length_a   7.72111382
_cell_length_b   7.92599358
_cell_length_c   15.17627100
_cell_angle_alpha   90.30591895
_cell_angle_beta   90.77417675
_cell_angle_gamma   90.23248187
_symmetry_Int_Tables_number   1
_chemical_formula_structural   Tb3Nd17Si15Rh
_chemical_formula_sum   'Tb3 Nd17 Si15 Rh1'
_cell_volume   928.64388406
_cell_formula_units_Z   1
loop_
 _symmetry_equiv_pos_site_id
 _symmetry_equiv_pos_as_xyz
  1  'x, y, z'
loop_
 _atom_site_type_symbol
 _atom_site_label
 _atom_site_symmetry_multiplicity
 _atom_site_fract_x
 _atom_site_fract_y
 _atom_site_fract_z
 _atom_site_occupancy
  Tb  Tb0  1  0.358397  0.988749  0.748345  1
  Tb  Tb1  1  0.141690  0.491029  0.253441  1
  Tb  Tb2  1  0.647997  0.014394  0.256377  1
  Nd  Nd3  1  0.685497  0.166018  0.615502  1
  Nd  Nd4  1  0.188881  0.321146  0.878338  1
  Nd  Nd5  1  0.315952  0.819145  0.122042  1
  Nd  Nd6  1  0.810577  0.691680  0.382575  1
  Nd  Nd7  1  0.320364  0.824632  0.379246  1
  Nd  Nd8  1  0.811264  0.681729  0.122190  1
  Nd  Nd9  1  0.686800  0.181545  0.878390  1
  Nd  Nd10  1  0.183090  0.318776  0.621797  1
  Nd  Nd11  1  0.529172  0.683382  0.599407  1
  Nd  Nd12  1  0.037057  0.813086  0.899112  1
  Nd  Nd13  1  0.461991  0.313963  0.102247  1
  Nd  Nd14  1  0.967037  0.183131  0.397287  1
  Nd  Nd15  1  0.466770  0.312158  0.400517  1
  Nd  Nd16  1  0.961547  0.186879  0.102459  1
  Nd  Nd17  1  0.538924  0.686125  0.898551  1
  Nd  Nd18  1  0.035227  0.812150  0.602104  1
  Nd  Nd19  1  0.855917  0.507159  0.746844  1
  Si  Si20  1  0.136001  0.524758  0.042850  1
  Si  Si21  1  0.363510  0.025607  0.958398  1
  Si  Si22  1  0.861950  0.472644  0.539041  1
  Si  Si23  1  0.351407  0.022417  0.543939  1
  Si  Si24  1  0.865487  0.473408  0.960164  1
  Si  Si25  1  0.635726  0.974829  0.040220  1
  Si  Si26  1  0.139138  0.528785  0.459713  1
  Si  Si27  1  0.479446  0.394548  0.749218  1
  Si  Si28  1  0.981745  0.096054  0.751796  1
  Si  Si29  1  0.519244  0.597759  0.248953  1
  Si  Si30  1  0.022656  0.899109  0.247064  1
  Si  Si31  1  0.743236  0.877764  0.751080  1
  Si  Si32  1  0.248859  0.625757  0.751151  1
  Si  Si33  1  0.255617  0.126569  0.247633  1
  Si  Si34  1  0.757879  0.378655  0.248959  1
  Rh  Rh35  1  0.633945  0.984462  0.453043  1
