# generated using pymatgen
data_La3TmBi5
_symmetry_space_group_name_H-M   'P 1'
_cell_length_a   9.90299125
_cell_length_b   9.90299068
_cell_length_c   6.72452400
_cell_angle_alpha   89.99993066
_cell_angle_beta   89.99993119
_cell_angle_gamma   119.97466207
_symmetry_Int_Tables_number   1
_chemical_formula_structural   La3TmBi5
_chemical_formula_sum   'La6 Tm2 Bi10'
_cell_volume   571.26257540
_cell_formula_units_Z   2
loop_
 _symmetry_equiv_pos_site_id
 _symmetry_equiv_pos_as_xyz
  1  'x, y, z'
loop_
 _atom_site_type_symbol
 _atom_site_label
 _atom_site_symmetry_multiplicity
 _atom_site_fract_x
 _atom_site_fract_y
 _atom_site_fract_z
 _atom_site_occupancy
  La  La0  1  0.617232  0.000038  0.250020  1
  La  La1  1  0.000039  0.617232  0.250020  1
  La  La2  1  0.382737  0.382737  0.249994  1
  La  La3  1  0.382767  0.999959  0.749978  1
  La  La4  1  0.999960  0.382766  0.749978  1
  La  La5  1  0.617273  0.617272  0.750021  1
  Tm  Tm6  1  0.000002  0.000002  0.000006  1
  Tm  Tm7  1  0.000002  0.000002  0.499994  1
  Bi  Bi8  1  0.666636  0.333337  0.000000  1
  Bi  Bi9  1  0.333337  0.666636  0.000000  1
  Bi  Bi10  1  0.266650  0.000001  0.250010  1
  Bi  Bi11  1  0.000002  0.266650  0.250010  1
  Bi  Bi12  1  0.733323  0.733323  0.250011  1
  Bi  Bi13  1  0.666660  0.333358  0.500000  1
  Bi  Bi14  1  0.333358  0.666661  0.500000  1
  Bi  Bi15  1  0.733353  0.999998  0.749985  1
  Bi  Bi16  1  0.266675  0.266674  0.749991  1
  Bi  Bi17  1  0.999999  0.733353  0.749985  1
