# generated using pymatgen
data_YbSm3Lu4(B6Os)4
_symmetry_space_group_name_H-M   'P 1'
_cell_length_a   3.64081800
_cell_length_b   9.12273721
_cell_length_c   11.53813900
_cell_angle_alpha   89.94615008
_cell_angle_beta   90.00000000
_cell_angle_gamma   90.00000000
_symmetry_Int_Tables_number   1
_chemical_formula_structural   YbSm3Lu4(B6Os)4
_chemical_formula_sum   'Yb1 Sm3 Lu4 B24 Os4'
_cell_volume   383.23018549
_cell_formula_units_Z   1
loop_
 _symmetry_equiv_pos_site_id
 _symmetry_equiv_pos_as_xyz
  1  'x, y, z'
loop_
 _atom_site_type_symbol
 _atom_site_label
 _atom_site_symmetry_multiplicity
 _atom_site_fract_x
 _atom_site_fract_y
 _atom_site_fract_z
 _atom_site_occupancy
  Yb  Yb0  1  0.000000  0.322374  0.414051  1
  Sm  Sm1  1  0.000000  0.676605  0.584668  1
  Sm  Sm2  1  0.000000  0.821878  0.086457  1
  Sm  Sm3  1  0.000000  0.178688  0.914677  1
  Lu  Lu4  1  0.000000  0.944972  0.372205  1
  Lu  Lu5  1  0.000000  0.057591  0.626537  1
  Lu  Lu6  1  0.000000  0.443454  0.129263  1
  Lu  Lu7  1  0.000000  0.555395  0.872187  1
  B  B8  1  0.500000  0.553596  0.431193  1
  B  B9  1  0.500000  0.443973  0.567457  1
  B  B10  1  0.500000  0.055270  0.068897  1
  B  B11  1  0.500000  0.944504  0.931002  1
  B  B12  1  0.500000  0.749801  0.417445  1
  B  B13  1  0.500000  0.250337  0.580875  1
  B  B14  1  0.500000  0.250196  0.083196  1
  B  B15  1  0.500000  0.749298  0.917664  1
  B  B16  1  0.500000  0.791702  0.266505  1
  B  B17  1  0.500000  0.209041  0.733253  1
  B  B18  1  0.500000  0.291684  0.235391  1
  B  B19  1  0.500000  0.708448  0.765951  1
  B  B20  1  0.500000  0.629708  0.185887  1
  B  B21  1  0.500000  0.369912  0.815122  1
  B  B22  1  0.500000  0.131290  0.315895  1
  B  B23  1  0.500000  0.870031  0.684291  1
  B  B24  1  0.500000  0.984406  0.214150  1
  B  B25  1  0.500000  0.016407  0.785378  1
  B  B26  1  0.500000  0.482397  0.287270  1
  B  B27  1  0.500000  0.515718  0.713457  1
  B  B28  1  0.500000  0.601122  0.027948  1
  B  B29  1  0.500000  0.398753  0.972784  1
  B  B30  1  0.500000  0.101903  0.472055  1
  B  B31  1  0.500000  0.899236  0.527359  1
  Os  Os32  1  0.000000  0.639560  0.319444  1
  Os  Os33  1  0.000000  0.360703  0.680551  1
  Os  Os34  1  0.000000  0.139183  0.180474  1
  Os  Os35  1  0.000000  0.860863  0.819063  1
