# generated using pymatgen
data_Tb6Al24Fe2(RuPt)3
_symmetry_space_group_name_H-M   'P 1'
_cell_length_a   8.81321977
_cell_length_b   8.80619747
_cell_length_c   9.47850288
_cell_angle_alpha   90.13382386
_cell_angle_beta   90.03607366
_cell_angle_gamma   119.76209206
_symmetry_Int_Tables_number   1
_chemical_formula_structural   Tb6Al24Fe2(RuPt)3
_chemical_formula_sum   'Tb6 Al24 Fe2 Ru3 Pt3'
_cell_volume   638.59784636
_cell_formula_units_Z   1
loop_
 _symmetry_equiv_pos_site_id
 _symmetry_equiv_pos_as_xyz
  1  'x, y, z'
loop_
 _atom_site_type_symbol
 _atom_site_label
 _atom_site_symmetry_multiplicity
 _atom_site_fract_x
 _atom_site_fract_y
 _atom_site_fract_z
 _atom_site_occupancy
  Tb  Tb0  1  0.383942  0.190351  0.250639  1
  Tb  Tb1  1  0.809104  0.193581  0.250919  1
  Tb  Tb2  1  0.810753  0.615574  0.249966  1
  Tb  Tb3  1  0.616058  0.809649  0.749361  1
  Tb  Tb4  1  0.190896  0.806419  0.749081  1
  Tb  Tb5  1  0.189247  0.384426  0.750034  1
  Al  Al6  1  0.436978  0.873520  0.246541  1
  Al  Al7  1  0.120771  0.559740  0.254996  1
  Al  Al8  1  0.435236  0.563639  0.250479  1
  Al  Al9  1  0.563022  0.126480  0.753459  1
  Al  Al10  1  0.879229  0.440260  0.745004  1
  Al  Al11  1  0.564764  0.436361  0.749521  1
  Al  Al12  1  0.156494  0.829859  0.423530  1
  Al  Al13  1  0.156373  0.325670  0.424169  1
  Al  Al14  1  0.677506  0.838201  0.421956  1
  Al  Al15  1  0.843506  0.170141  0.576470  1
  Al  Al16  1  0.843627  0.674330  0.575831  1
  Al  Al17  1  0.322494  0.161799  0.578044  1
  Al  Al18  1  0.839518  0.161220  0.924556  1
  Al  Al19  1  0.844366  0.680411  0.924531  1
  Al  Al20  1  0.318902  0.155263  0.924338  1
  Al  Al21  1  0.160482  0.838780  0.075444  1
  Al  Al22  1  0.155634  0.319589  0.075469  1
  Al  Al23  1  0.681098  0.844737  0.075662  1
  Al  Al24  1  0.321451  0.660556  0.525284  1
  Al  Al25  1  0.678549  0.339444  0.474716  1
  Al  Al26  1  0.669547  0.330491  0.021746  1
  Al  Al27  1  0.330453  0.669509  0.978254  1
  Al  Al28  1  0.001728  0.999404  0.243890  1
  Al  Al29  1  0.998272  0.000596  0.756110  1
  Fe  Fe30  1  0.000000  0.000000  0.000000  1
  Fe  Fe31  1  0.000000  0.500000  0.500000  1
  Ru  Ru32  1  0.000000  0.000000  0.500000  1
  Ru  Ru33  1  0.500000  0.000000  0.000000  1
  Ru  Ru34  1  0.000000  0.500000  0.000000  1
  Pt  Pt35  1  0.500000  0.000000  0.500000  1
  Pt  Pt36  1  0.500000  0.500000  0.500000  1
  Pt  Pt37  1  0.500000  0.500000  0.000000  1
