# generated using pymatgen
data_Na4H6Os
_symmetry_space_group_name_H-M   'P 1'
_cell_length_a   6.50765712
_cell_length_b   6.50765773
_cell_length_c   6.50765737
_cell_angle_alpha   89.05654857
_cell_angle_beta   89.05655005
_cell_angle_gamma   89.05653815
_symmetry_Int_Tables_number   1
_chemical_formula_structural   Na4H6Os
_chemical_formula_sum   'Na8 H12 Os2'
_cell_volume   275.48584962
_cell_formula_units_Z   2
loop_
 _symmetry_equiv_pos_site_id
 _symmetry_equiv_pos_as_xyz
  1  'x, y, z'
loop_
 _atom_site_type_symbol
 _atom_site_label
 _atom_site_symmetry_multiplicity
 _atom_site_fract_x
 _atom_site_fract_y
 _atom_site_fract_z
 _atom_site_occupancy
  Na  Na0  1  0.250000  0.250000  0.250000  1
  Na  Na1  1  0.750000  0.750000  0.750000  1
  Na  Na2  1  0.864307  0.635693  0.250000  1
  Na  Na3  1  0.250000  0.864307  0.635693  1
  Na  Na4  1  0.635693  0.250000  0.864307  1
  Na  Na5  1  0.750000  0.135693  0.364307  1
  Na  Na6  1  0.364307  0.750000  0.135693  1
  Na  Na7  1  0.135693  0.364307  0.750000  1
  H  H8  1  0.241176  0.550433  0.445510  1
  H  H9  1  0.445510  0.241176  0.550433  1
  H  H10  1  0.550433  0.445510  0.241176  1
  H  H11  1  0.945510  0.050433  0.741176  1
  H  H12  1  0.741176  0.945510  0.050433  1
  H  H13  1  0.050433  0.741176  0.945510  1
  H  H14  1  0.758824  0.449567  0.554490  1
  H  H15  1  0.554490  0.758824  0.449567  1
  H  H16  1  0.449567  0.554490  0.758824  1
  H  H17  1  0.054490  0.949567  0.258824  1
  H  H18  1  0.258824  0.054490  0.949567  1
  H  H19  1  0.949567  0.258824  0.054490  1
  Os  Os20  1  0.500000  0.500000  0.500000  1
  Os  Os21  1  0.000000  0.000000  0.000000  1
