# generated using pymatgen
data_HoTm5NiI10
_symmetry_space_group_name_H-M   'P 1'
_cell_length_a   7.63161583
_cell_length_b   9.58576102
_cell_length_c   9.62396155
_cell_angle_alpha   107.02117559
_cell_angle_beta   96.91763007
_cell_angle_gamma   104.56378870
_symmetry_Int_Tables_number   1
_chemical_formula_structural   HoTm5NiI10
_chemical_formula_sum   'Ho1 Tm5 Ni1 I10'
_cell_volume   637.08512953
_cell_formula_units_Z   1
loop_
 _symmetry_equiv_pos_site_id
 _symmetry_equiv_pos_as_xyz
  1  'x, y, z'
loop_
 _atom_site_type_symbol
 _atom_site_label
 _atom_site_symmetry_multiplicity
 _atom_site_fract_x
 _atom_site_fract_y
 _atom_site_fract_z
 _atom_site_occupancy
  Ho  Ho0  1  0.111448  0.040278  0.764741  1
  Tm  Tm1  1  0.335870  0.119014  0.159410  1
  Tm  Tm2  1  0.663897  0.880862  0.840917  1
  Tm  Tm3  1  0.969920  0.276649  0.083121  1
  Tm  Tm4  1  0.029937  0.723620  0.917869  1
  Tm  Tm5  1  0.889433  0.960112  0.232935  1
  Ni  Ni6  1  0.999907  0.000054  0.000069  1
  I  I7  1  0.351744  0.450068  0.272082  1
  I  I8  1  0.648476  0.549898  0.728142  1
  I  I9  1  0.771307  0.255071  0.342601  1
  I  I10  1  0.228932  0.743257  0.657804  1
  I  I11  1  0.546494  0.184927  0.907566  1
  I  I12  1  0.454303  0.815527  0.093318  1
  I  I13  1  0.740439  0.911926  0.535778  1
  I  I14  1  0.258129  0.087398  0.462451  1
  I  I15  1  0.915351  0.626041  0.179492  1
  I  I16  1  0.084414  0.375295  0.821702  1
