# generated using pymatgen
data_LiHf7(Si4Mo3)4
_symmetry_space_group_name_H-M   'P 1'
_cell_length_a   6.55191969
_cell_length_b   6.75453032
_cell_length_c   12.63985167
_cell_angle_alpha   90.00144640
_cell_angle_beta   89.92496694
_cell_angle_gamma   90.07131091
_symmetry_Int_Tables_number   1
_chemical_formula_structural   LiHf7(Si4Mo3)4
_chemical_formula_sum   'Li1 Hf7 Si16 Mo12'
_cell_volume   559.37749411
_cell_formula_units_Z   1
loop_
 _symmetry_equiv_pos_site_id
 _symmetry_equiv_pos_as_xyz
  1  'x, y, z'
loop_
 _atom_site_type_symbol
 _atom_site_label
 _atom_site_symmetry_multiplicity
 _atom_site_fract_x
 _atom_site_fract_y
 _atom_site_fract_z
 _atom_site_occupancy
  Li  Li0  1  0.977685  0.164155  0.086614  1
  Hf  Hf1  1  0.007261  0.826427  0.908089  1
  Hf  Hf2  1  0.504182  0.671198  0.909639  1
  Hf  Hf3  1  0.005394  0.831101  0.593183  1
  Hf  Hf4  1  0.499229  0.329391  0.094724  1
  Hf  Hf5  1  0.997569  0.170576  0.408127  1
  Hf  Hf6  1  0.493889  0.329250  0.405420  1
  Hf  Hf7  1  0.507376  0.669904  0.591547  1
  Si  Si8  1  0.033393  0.126087  0.751983  1
  Si  Si9  1  0.969966  0.881118  0.246874  1
  Si  Si10  1  0.465154  0.622720  0.250500  1
  Si  Si11  1  0.532791  0.378063  0.749929  1
  Si  Si12  1  0.302509  0.861873  0.750051  1
  Si  Si13  1  0.708224  0.138852  0.246016  1
  Si  Si14  1  0.188723  0.353611  0.243042  1
  Si  Si15  1  0.801086  0.639333  0.751873  1
  Si  Si16  1  0.168347  0.459523  0.542876  1
  Si  Si17  1  0.833314  0.540949  0.457497  1
  Si  Si18  1  0.333638  0.958671  0.456839  1
  Si  Si19  1  0.838293  0.531960  0.046813  1
  Si  Si20  1  0.669042  0.041794  0.542328  1
  Si  Si21  1  0.165786  0.454822  0.958339  1
  Si  Si22  1  0.666316  0.039702  0.958559  1
  Si  Si23  1  0.322746  0.970298  0.045918  1
  Mo  Mo24  1  0.169210  0.515609  0.752490  1
  Mo  Mo25  1  0.831202  0.492696  0.251690  1
  Mo  Mo26  1  0.336710  0.012123  0.251032  1
  Mo  Mo27  1  0.670033  0.988400  0.750353  1
  Mo  Mo28  1  0.332903  0.163191  0.622306  1
  Mo  Mo29  1  0.669493  0.836401  0.376505  1
  Mo  Mo30  1  0.168591  0.663120  0.376053  1
  Mo  Mo31  1  0.664268  0.831480  0.122901  1
  Mo  Mo32  1  0.831608  0.338517  0.623896  1
  Mo  Mo33  1  0.335215  0.162601  0.875367  1
  Mo  Mo34  1  0.827318  0.337623  0.877055  1
  Mo  Mo35  1  0.171537  0.666860  0.123572  1
