# generated using pymatgen
data_La16In4TcIr3
_symmetry_space_group_name_H-M   'P 1'
_cell_length_a   10.07712763
_cell_length_b   10.14520597
_cell_length_c   10.07712900
_cell_angle_alpha   60.22173623
_cell_angle_beta   60.00000536
_cell_angle_gamma   60.22173634
_symmetry_Int_Tables_number   1
_chemical_formula_structural   La16In4TcIr3
_chemical_formula_sum   'La16 In4 Tc1 Ir3'
_cell_volume   730.91507750
_cell_formula_units_Z   1
loop_
 _symmetry_equiv_pos_site_id
 _symmetry_equiv_pos_as_xyz
  1  'x, y, z'
loop_
 _atom_site_type_symbol
 _atom_site_label
 _atom_site_symmetry_multiplicity
 _atom_site_fract_x
 _atom_site_fract_y
 _atom_site_fract_z
 _atom_site_occupancy
  La  La0  1  0.188199  0.190608  0.810596  1
  La  La1  1  0.596950  0.595350  0.210747  1
  La  La2  1  0.439660  0.057151  0.439660  1
  La  La3  1  0.441378  0.443888  0.057368  1
  La  La4  1  0.810596  0.190608  0.810596  1
  La  La5  1  0.190868  0.815354  0.190868  1
  La  La6  1  0.439660  0.057151  0.063528  1
  La  La7  1  0.190868  0.815354  0.802910  1
  La  La8  1  0.057368  0.443888  0.057368  1
  La  La9  1  0.802910  0.815354  0.190868  1
  La  La10  1  0.210747  0.595350  0.596950  1
  La  La11  1  0.057368  0.443888  0.441378  1
  La  La12  1  0.063528  0.057151  0.439660  1
  La  La13  1  0.810596  0.190608  0.188199  1
  La  La14  1  0.598597  0.204207  0.598597  1
  La  La15  1  0.596950  0.595350  0.596950  1
  In  In16  1  0.830054  0.828575  0.830054  1
  In  In17  1  0.830054  0.828575  0.511319  1
  In  In18  1  0.511319  0.828575  0.830054  1
  In  In19  1  0.829579  0.511263  0.829579  1
  Tc  Tc20  1  0.387761  0.836716  0.387761  1
  Ir  Ir21  1  0.391915  0.385012  0.391915  1
  Ir  Ir22  1  0.831157  0.385012  0.391915  1
  Ir  Ir23  1  0.391915  0.385012  0.831157  1
