# generated using pymatgen
data_Ho3Tm7Si5Pb
_symmetry_space_group_name_H-M   'P 1'
_cell_length_a   8.45833668
_cell_length_b   8.46457384
_cell_length_c   6.31078000
_cell_angle_alpha   90.00000000
_cell_angle_beta   90.00000000
_cell_angle_gamma   120.28095832
_symmetry_Int_Tables_number   1
_chemical_formula_structural   Ho3Tm7Si5Pb
_chemical_formula_sum   'Ho3 Tm7 Si5 Pb1'
_cell_volume   390.18199259
_cell_formula_units_Z   1
loop_
 _symmetry_equiv_pos_site_id
 _symmetry_equiv_pos_as_xyz
  1  'x, y, z'
loop_
 _atom_site_type_symbol
 _atom_site_label
 _atom_site_symmetry_multiplicity
 _atom_site_fract_x
 _atom_site_fract_y
 _atom_site_fract_z
 _atom_site_occupancy
  Ho  Ho0  1  0.767774  0.767557  0.250000  1
  Ho  Ho1  1  0.239650  0.239495  0.750000  1
  Ho  Ho2  1  0.756130  0.998390  0.750000  1
  Tm  Tm3  1  0.675374  0.331241  0.503692  1
  Tm  Tm4  1  0.330895  0.675278  0.503672  1
  Tm  Tm5  1  0.330895  0.675278  0.996328  1
  Tm  Tm6  1  0.675374  0.331241  0.996308  1
  Tm  Tm7  1  0.239808  0.987277  0.250000  1
  Tm  Tm8  1  0.987457  0.240319  0.250000  1
  Tm  Tm9  1  0.998578  0.755881  0.750000  1
  Si  Si10  1  0.603557  0.998711  0.250000  1
  Si  Si11  1  0.998775  0.603453  0.250000  1
  Si  Si12  1  0.606000  0.605579  0.750000  1
  Si  Si13  1  0.393695  0.001230  0.750000  1
  Si  Si14  1  0.001683  0.394770  0.750000  1
  Pb  Pb15  1  0.394354  0.394298  0.250000  1
