# generated using pymatgen
data_Na3P4(IrRh)2
_symmetry_space_group_name_H-M   'P 1'
_cell_length_a   6.33622623
_cell_length_b   6.31483623
_cell_length_c   6.31483597
_cell_angle_alpha   109.40769406
_cell_angle_beta   109.43452369
_cell_angle_gamma   109.43449747
_symmetry_Int_Tables_number   1
_chemical_formula_structural   Na3P4(IrRh)2
_chemical_formula_sum   'Na3 P4 Ir2 Rh2'
_cell_volume   194.83400845
_cell_formula_units_Z   1
loop_
 _symmetry_equiv_pos_site_id
 _symmetry_equiv_pos_as_xyz
  1  'x, y, z'
loop_
 _atom_site_type_symbol
 _atom_site_label
 _atom_site_symmetry_multiplicity
 _atom_site_fract_x
 _atom_site_fract_y
 _atom_site_fract_z
 _atom_site_occupancy
  Na  Na0  1  0.500000  0.998982  0.498982  1
  Na  Na1  1  0.500000  0.498982  0.998982  1
  Na  Na2  1  0.000000  0.501295  0.501295  1
  P  P3  1  0.000000  0.362833  0.001986  1
  P  P4  1  0.633554  0.635304  0.635304  1
  P  P5  1  0.000000  0.001986  0.362833  1
  P  P6  1  0.366446  0.001750  0.001750  1
  Ir  Ir7  1  0.283094  0.282216  0.282216  1
  Ir  Ir8  1  0.716906  0.999122  0.999122  1
  Rh  Rh9  1  0.000000  0.718441  0.999089  1
  Rh  Rh10  1  0.000000  0.999089  0.718441  1
