# generated using pymatgen
data_Rb2Ca2Cr3O12
_symmetry_space_group_name_H-M   'P 1'
_cell_length_a   11.24752600
_cell_length_b   11.24752600
_cell_length_c   11.24752600
_cell_angle_alpha   90.00000000
_cell_angle_beta   90.00000000
_cell_angle_gamma   90.00000000
_symmetry_Int_Tables_number   1
_chemical_formula_structural   Rb2Ca2Cr3O12
_chemical_formula_sum   'Rb8 Ca8 Cr12 O48'
_cell_volume   1422.88898468
_cell_formula_units_Z   4
loop_
 _symmetry_equiv_pos_site_id
 _symmetry_equiv_pos_as_xyz
  1  'x, y, z'
loop_
 _atom_site_type_symbol
 _atom_site_label
 _atom_site_symmetry_multiplicity
 _atom_site_fract_x
 _atom_site_fract_y
 _atom_site_fract_z
 _atom_site_occupancy
  Rb  Rb0  1  0.054079  0.054079  0.054079  1
  Rb  Rb1  1  0.445921  0.945921  0.554079  1
  Rb  Rb2  1  0.945921  0.554079  0.445921  1
  Rb  Rb3  1  0.554079  0.445921  0.945921  1
  Rb  Rb4  1  0.818078  0.818078  0.818078  1
  Rb  Rb5  1  0.681922  0.181922  0.318078  1
  Rb  Rb6  1  0.181922  0.318078  0.681922  1
  Rb  Rb7  1  0.318078  0.681922  0.181922  1
  Ca  Ca8  1  0.332863  0.332863  0.332863  1
  Ca  Ca9  1  0.167137  0.667137  0.832863  1
  Ca  Ca10  1  0.667137  0.832863  0.167137  1
  Ca  Ca11  1  0.832863  0.167137  0.667137  1
  Ca  Ca12  1  0.596558  0.596558  0.596558  1
  Ca  Ca13  1  0.903442  0.403442  0.096558  1
  Ca  Ca14  1  0.403442  0.096558  0.903442  1
  Ca  Ca15  1  0.096558  0.903442  0.403442  1
  Cr  Cr16  1  0.015783  0.218314  0.375908  1
  Cr  Cr17  1  0.484217  0.781686  0.875908  1
  Cr  Cr18  1  0.984217  0.718314  0.124092  1
  Cr  Cr19  1  0.375908  0.015783  0.218314  1
  Cr  Cr20  1  0.515783  0.281686  0.624092  1
  Cr  Cr21  1  0.875908  0.484217  0.781686  1
  Cr  Cr22  1  0.124092  0.984217  0.718314  1
  Cr  Cr23  1  0.624092  0.515783  0.281686  1
  Cr  Cr24  1  0.218314  0.375908  0.015783  1
  Cr  Cr25  1  0.718314  0.124092  0.984217  1
  Cr  Cr26  1  0.281686  0.624092  0.515783  1
  Cr  Cr27  1  0.781686  0.875908  0.484217  1
  O  O28  1  0.011043  0.078876  0.325555  1
  O  O29  1  0.488957  0.921124  0.825555  1
  O  O30  1  0.988957  0.578876  0.174445  1
  O  O31  1  0.325555  0.011043  0.078876  1
  O  O32  1  0.511043  0.421124  0.674445  1
  O  O33  1  0.825555  0.488957  0.921124  1
  O  O34  1  0.174445  0.988957  0.578876  1
  O  O35  1  0.674445  0.511043  0.421124  1
  O  O36  1  0.078876  0.325555  0.011043  1
  O  O37  1  0.578876  0.174445  0.988957  1
  O  O38  1  0.421124  0.674445  0.511043  1
  O  O39  1  0.921124  0.825555  0.488957  1
  O  O40  1  0.268410  0.500150  0.436462  1
  O  O41  1  0.231590  0.499850  0.936462  1
  O  O42  1  0.731590  0.000150  0.063538  1
  O  O43  1  0.436462  0.268410  0.500150  1
  O  O44  1  0.768410  0.999850  0.563538  1
  O  O45  1  0.936462  0.231590  0.499850  1
  O  O46  1  0.063538  0.731590  0.000150  1
  O  O47  1  0.563538  0.768410  0.999850  1
  O  O48  1  0.500150  0.436462  0.268410  1
  O  O49  1  0.000150  0.063538  0.731590  1
  O  O50  1  0.999850  0.563538  0.768410  1
  O  O51  1  0.499850  0.936462  0.231590  1
  O  O52  1  0.043405  0.808806  0.225213  1
  O  O53  1  0.456595  0.191194  0.725213  1
  O  O54  1  0.956595  0.308806  0.274787  1
  O  O55  1  0.225213  0.043405  0.808806  1
  O  O56  1  0.543405  0.691194  0.774787  1
  O  O57  1  0.725213  0.456595  0.191194  1
  O  O58  1  0.274787  0.956595  0.308806  1
  O  O59  1  0.774787  0.543405  0.691194  1
  O  O60  1  0.808806  0.225213  0.043405  1
  O  O61  1  0.308806  0.274787  0.956595  1
  O  O62  1  0.691194  0.774787  0.543405  1
  O  O63  1  0.191194  0.725213  0.456595  1
  O  O64  1  0.155214  0.256712  0.405911  1
  O  O65  1  0.344786  0.743288  0.905911  1
  O  O66  1  0.844786  0.756712  0.094089  1
  O  O67  1  0.405911  0.155214  0.256712  1
  O  O68  1  0.655214  0.243288  0.594089  1
  O  O69  1  0.905911  0.344786  0.743288  1
  O  O70  1  0.094089  0.844786  0.756712  1
  O  O71  1  0.594089  0.655214  0.243288  1
  O  O72  1  0.256712  0.405911  0.155214  1
  O  O73  1  0.756712  0.094089  0.844786  1
  O  O74  1  0.243288  0.594089  0.655214  1
  O  O75  1  0.743288  0.905911  0.344786  1
