# generated using pymatgen
data_Sr15La(ThPt4)4
_symmetry_space_group_name_H-M   'P 1'
_cell_length_a   7.97370885
_cell_length_b   8.09381542
_cell_length_c   15.53189625
_cell_angle_alpha   90.05034394
_cell_angle_beta   90.37696728
_cell_angle_gamma   90.19330012
_symmetry_Int_Tables_number   1
_chemical_formula_structural   Sr15La(ThPt4)4
_chemical_formula_sum   'Sr15 La1 Th4 Pt16'
_cell_volume   1002.36548369
_cell_formula_units_Z   1
loop_
 _symmetry_equiv_pos_site_id
 _symmetry_equiv_pos_as_xyz
  1  'x, y, z'
loop_
 _atom_site_type_symbol
 _atom_site_label
 _atom_site_symmetry_multiplicity
 _atom_site_fract_x
 _atom_site_fract_y
 _atom_site_fract_z
 _atom_site_occupancy
  Sr  Sr0  1  0.159477  0.331878  0.380361  1
  Sr  Sr1  1  0.341147  0.832707  0.618929  1
  Sr  Sr2  1  0.842130  0.667024  0.884089  1
  Sr  Sr3  1  0.495405  0.325159  0.903652  1
  Sr  Sr4  1  0.992104  0.177953  0.597894  1
  Sr  Sr5  1  0.506677  0.678126  0.402728  1
  Sr  Sr6  1  0.007898  0.821361  0.094098  1
  Sr  Sr7  1  0.506037  0.677905  0.094382  1
  Sr  Sr8  1  0.007738  0.819226  0.409447  1
  Sr  Sr9  1  0.492748  0.319523  0.594090  1
  Sr  Sr10  1  0.995336  0.180835  0.905276  1
  Sr  Sr11  1  0.181569  0.485638  0.751591  1
  Sr  Sr12  1  0.679549  0.016859  0.751322  1
  Sr  Sr13  1  0.822606  0.521897  0.251652  1
  Sr  Sr14  1  0.310193  0.980160  0.249695  1
  La  La15  1  0.341810  0.839904  0.878717  1
  Th  Th16  1  0.837958  0.664445  0.624852  1
  Th  Th17  1  0.661618  0.161026  0.375646  1
  Th  Th18  1  0.158411  0.339532  0.121138  1
  Th  Th19  1  0.657910  0.163531  0.121789  1
  Pt  Pt20  1  0.325013  0.060774  0.042366  1
  Pt  Pt21  1  0.802812  0.447513  0.464451  1
  Pt  Pt22  1  0.698001  0.947918  0.533000  1
  Pt  Pt23  1  0.192776  0.543737  0.968192  1
  Pt  Pt24  1  0.660571  0.977286  0.965228  1
  Pt  Pt25  1  0.132647  0.537900  0.547288  1
  Pt  Pt26  1  0.364657  0.038272  0.452334  1
  Pt  Pt27  1  0.835810  0.438444  0.047936  1
  Pt  Pt28  1  0.551197  0.635029  0.751720  1
  Pt  Pt29  1  0.041070  0.868468  0.744801  1
  Pt  Pt30  1  0.462475  0.357081  0.242900  1
  Pt  Pt31  1  0.945623  0.138600  0.240163  1
  Pt  Pt32  1  0.288813  0.116244  0.757364  1
  Pt  Pt33  1  0.791925  0.388113  0.739849  1
  Pt  Pt34  1  0.696081  0.893804  0.250922  1
  Pt  Pt35  1  0.212210  0.606123  0.240138  1
