# generated using pymatgen
data_Dy13Ho2Th(CdCo)4
_symmetry_space_group_name_H-M   'P 1'
_cell_length_a   9.50311975
_cell_length_b   9.52259464
_cell_length_c   9.49789100
_cell_angle_alpha   60.08578229
_cell_angle_beta   60.01820275
_cell_angle_gamma   60.05577118
_symmetry_Int_Tables_number   1
_chemical_formula_structural   Dy13Ho2Th(CdCo)4
_chemical_formula_sum   'Dy13 Ho2 Th1 Cd4 Co4'
_cell_volume   608.49531141
_cell_formula_units_Z   1
loop_
 _symmetry_equiv_pos_site_id
 _symmetry_equiv_pos_as_xyz
  1  'x, y, z'
loop_
 _atom_site_type_symbol
 _atom_site_label
 _atom_site_symmetry_multiplicity
 _atom_site_fract_x
 _atom_site_fract_y
 _atom_site_fract_z
 _atom_site_occupancy
  Dy  Dy0  1  0.938045  0.562522  0.562406  1
  Dy  Dy1  1  0.543366  0.150543  0.153046  1
  Dy  Dy2  1  0.151948  0.151199  0.542103  1
  Dy  Dy3  1  0.937597  0.938588  0.561908  1
  Dy  Dy4  1  0.313899  0.689282  0.310259  1
  Dy  Dy5  1  0.560436  0.940157  0.937830  1
  Dy  Dy6  1  0.560436  0.940157  0.561578  1
  Dy  Dy7  1  0.686969  0.688547  0.312242  1
  Dy  Dy8  1  0.562322  0.562733  0.937473  1
  Dy  Dy9  1  0.938045  0.562522  0.937028  1
  Dy  Dy10  1  0.313899  0.689282  0.686560  1
  Dy  Dy11  1  0.151948  0.151199  0.154750  1
  Dy  Dy12  1  0.312636  0.311615  0.687875  1
  Ho  Ho13  1  0.688995  0.312735  0.687916  1
  Ho  Ho14  1  0.688995  0.312735  0.310355  1
  Th  Th15  1  0.156398  0.528677  0.157462  1
  Cd  Cd16  1  0.919078  0.243109  0.918907  1
  Cd  Cd17  1  0.919059  0.920396  0.918317  1
  Cd  Cd18  1  0.919059  0.920396  0.242229  1
  Cd  Cd19  1  0.243542  0.919808  0.918326  1
  Co  Co20  1  0.355057  0.359998  0.927987  1
  Co  Co21  1  0.357059  0.923180  0.359881  1
  Co  Co22  1  0.926161  0.360624  0.356608  1
  Co  Co23  1  0.355057  0.359998  0.356959  1
