# generated using pymatgen
data_Nd10Bi5PbCl2
_symmetry_space_group_name_H-M   'P 1'
_cell_length_a   9.59828100
_cell_length_b   9.57956063
_cell_length_c   6.66817600
_cell_angle_alpha   90.00000000
_cell_angle_beta   90.00000000
_cell_angle_gamma   120.06466202
_symmetry_Int_Tables_number   1
_chemical_formula_structural   Nd10Bi5PbCl2
_chemical_formula_sum   'Nd10 Bi5 Pb1 Cl2'
_cell_volume   530.63194409
_cell_formula_units_Z   1
loop_
 _symmetry_equiv_pos_site_id
 _symmetry_equiv_pos_as_xyz
  1  'x, y, z'
loop_
 _atom_site_type_symbol
 _atom_site_label
 _atom_site_symmetry_multiplicity
 _atom_site_fract_x
 _atom_site_fract_y
 _atom_site_fract_z
 _atom_site_occupancy
  Nd  Nd0  1  0.267151  0.000000  0.750000  1
  Nd  Nd1  1  0.733526  0.000000  0.250000  1
  Nd  Nd2  1  0.997653  0.264408  0.750000  1
  Nd  Nd3  1  0.000342  0.734345  0.250000  1
  Nd  Nd4  1  0.733244  0.735592  0.750000  1
  Nd  Nd5  1  0.265996  0.265655  0.250000  1
  Nd  Nd6  1  0.333355  0.666692  0.500012  1
  Nd  Nd7  1  0.666664  0.333308  0.500012  1
  Nd  Nd8  1  0.666664  0.333308  0.999988  1
  Nd  Nd9  1  0.333355  0.666692  0.999988  1
  Bi  Bi10  1  0.387809  0.000000  0.250000  1
  Bi  Bi11  1  0.999353  0.613400  0.750000  1
  Bi  Bi12  1  0.999559  0.386191  0.250000  1
  Bi  Bi13  1  0.385953  0.386600  0.750000  1
  Bi  Bi14  1  0.613368  0.613809  0.250000  1
  Pb  Pb15  1  0.613462  0.000000  0.750000  1
  Cl  Cl16  1  0.001271  0.000000  0.499467  1
  Cl  Cl17  1  0.001271  0.000000  0.000533  1
