# generated using pymatgen
data_Y3Tl3CuAgIr
_symmetry_space_group_name_H-M   'P 1'
_cell_length_a   7.91278500
_cell_length_b   7.91278713
_cell_length_c   3.81142300
_cell_angle_alpha   90.00000000
_cell_angle_beta   90.00000000
_cell_angle_gamma   119.99999526
_symmetry_Int_Tables_number   1
_chemical_formula_structural   Y3Tl3CuAgIr
_chemical_formula_sum   'Y3 Tl3 Cu1 Ag1 Ir1'
_cell_volume   206.66962484
_cell_formula_units_Z   1
loop_
 _symmetry_equiv_pos_site_id
 _symmetry_equiv_pos_as_xyz
  1  'x, y, z'
loop_
 _atom_site_type_symbol
 _atom_site_label
 _atom_site_symmetry_multiplicity
 _atom_site_fract_x
 _atom_site_fract_y
 _atom_site_fract_z
 _atom_site_occupancy
  Y  Y0  1  0.388579  0.967203  0.500000  1
  Y  Y1  1  0.032797  0.421376  0.500000  1
  Y  Y2  1  0.578624  0.611421  0.500000  1
  Tl  Tl3  1  0.748088  0.011527  0.000000  1
  Tl  Tl4  1  0.988473  0.736560  0.000000  1
  Tl  Tl5  1  0.263440  0.251912  0.000000  1
  Cu  Cu6  1  0.000000  0.000000  0.500000  1
  Ag  Ag7  1  0.666667  0.333333  0.000000  1
  Ir  Ir8  1  0.333333  0.666667  0.000000  1
