# generated using pymatgen
data_Th3Al2ZnCo3
_symmetry_space_group_name_H-M   'P 1'
_cell_length_a   7.13834300
_cell_length_b   7.08360632
_cell_length_c   3.89979600
_cell_angle_alpha   90.00000000
_cell_angle_beta   90.00000000
_cell_angle_gamma   120.25595042
_symmetry_Int_Tables_number   1
_chemical_formula_structural   Th3Al2ZnCo3
_chemical_formula_sum   'Th3 Al2 Zn1 Co3'
_cell_volume   170.33286914
_cell_formula_units_Z   1
loop_
 _symmetry_equiv_pos_site_id
 _symmetry_equiv_pos_as_xyz
  1  'x, y, z'
loop_
 _atom_site_type_symbol
 _atom_site_label
 _atom_site_symmetry_multiplicity
 _atom_site_fract_x
 _atom_site_fract_y
 _atom_site_fract_z
 _atom_site_occupancy
  Th  Th0  1  0.579202  0.000000  0.000000  1
  Th  Th1  1  0.002856  0.583357  0.000000  1
  Th  Th2  1  0.419499  0.416643  0.000000  1
  Al  Al3  1  0.999209  0.228889  0.500000  1
  Al  Al4  1  0.770320  0.771111  0.500000  1
  Zn  Zn5  1  0.229437  0.000000  0.500000  1
  Co  Co6  1  0.336434  0.656587  0.500000  1
  Co  Co7  1  0.679849  0.343413  0.500000  1
  Co  Co8  1  0.983195  0.000000  0.000000  1
