# generated using pymatgen
data_Tb5Nd3Cd2CoPd
_symmetry_space_group_name_H-M   'P 1'
_cell_length_a   9.74968391
_cell_length_b   9.74968414
_cell_length_c   9.74792700
_cell_angle_alpha   60.00597180
_cell_angle_beta   60.00597103
_cell_angle_gamma   60.22479468
_symmetry_Int_Tables_number   1
_chemical_formula_structural   Tb5Nd3Cd2CoPd
_chemical_formula_sum   'Tb10 Nd6 Cd4 Co2 Pd2'
_cell_volume   656.37203178
_cell_formula_units_Z   2
loop_
 _symmetry_equiv_pos_site_id
 _symmetry_equiv_pos_as_xyz
  1  'x, y, z'
loop_
 _atom_site_type_symbol
 _atom_site_label
 _atom_site_symmetry_multiplicity
 _atom_site_fract_x
 _atom_site_fract_y
 _atom_site_fract_z
 _atom_site_occupancy
  Tb  Tb0  1  0.344413  0.344413  0.359558  1
  Tb  Tb1  1  0.344413  0.344413  0.951616  1
  Tb  Tb2  1  0.338979  0.959242  0.350889  1
  Tb  Tb3  1  0.959242  0.338979  0.350889  1
  Tb  Tb4  1  0.822695  0.186735  0.188333  1
  Tb  Tb5  1  0.186735  0.822695  0.802238  1
  Tb  Tb6  1  0.186735  0.822695  0.188333  1
  Tb  Tb7  1  0.822695  0.186735  0.802238  1
  Tb  Tb8  1  0.186803  0.186803  0.813197  1
  Tb  Tb9  1  0.811006  0.811006  0.188994  1
  Nd  Nd10  1  0.937812  0.559837  0.562973  1
  Nd  Nd11  1  0.559837  0.937812  0.939378  1
  Nd  Nd12  1  0.559837  0.937812  0.562973  1
  Nd  Nd13  1  0.937812  0.559837  0.939378  1
  Nd  Nd14  1  0.559828  0.559828  0.940172  1
  Nd  Nd15  1  0.937170  0.937170  0.562830  1
  Cd  Cd16  1  0.579663  0.579663  0.578929  1
  Cd  Cd17  1  0.579663  0.579663  0.261746  1
  Cd  Cd18  1  0.580984  0.259612  0.579703  1
  Cd  Cd19  1  0.259612  0.580984  0.579703  1
  Co  Co20  1  0.142868  0.142868  0.141150  1
  Co  Co21  1  0.142868  0.142868  0.573113  1
  Pd  Pd22  1  0.145258  0.573072  0.140834  1
  Pd  Pd23  1  0.573072  0.145258  0.140834  1
