# generated using pymatgen
data_Tb9Y7(TmPb4)4
_symmetry_space_group_name_H-M   'P 1'
_cell_length_a   8.22043516
_cell_length_b   8.30714805
_cell_length_c   15.70437300
_cell_angle_alpha   90.00104147
_cell_angle_beta   90.01132612
_cell_angle_gamma   90.04021027
_symmetry_Int_Tables_number   1
_chemical_formula_structural   Tb9Y7(TmPb4)4
_chemical_formula_sum   'Tb9 Y7 Tm4 Pb16'
_cell_volume   1072.42577851
_cell_formula_units_Z   1
loop_
 _symmetry_equiv_pos_site_id
 _symmetry_equiv_pos_as_xyz
  1  'x, y, z'
loop_
 _atom_site_type_symbol
 _atom_site_label
 _atom_site_symmetry_multiplicity
 _atom_site_fract_x
 _atom_site_fract_y
 _atom_site_fract_z
 _atom_site_occupancy
  Tb  Tb0  1  0.876701  0.659177  0.879403  1
  Tb  Tb1  1  0.534191  0.323111  0.900195  1
  Tb  Tb2  1  0.034249  0.176710  0.599702  1
  Tb  Tb3  1  0.465796  0.676704  0.400113  1
  Tb  Tb4  1  0.965577  0.823596  0.100204  1
  Tb  Tb5  1  0.465941  0.676557  0.099938  1
  Tb  Tb6  1  0.965696  0.823365  0.400064  1
  Tb  Tb7  1  0.534068  0.323242  0.599778  1
  Tb  Tb8  1  0.034300  0.176453  0.900063  1
  Y  Y9  1  0.376240  0.841081  0.878903  1
  Y  Y10  1  0.876299  0.658748  0.620930  1
  Y  Y11  1  0.623661  0.158765  0.379033  1
  Y  Y12  1  0.123592  0.341383  0.120884  1
  Y  Y13  1  0.623383  0.158772  0.121259  1
  Y  Y14  1  0.123644  0.341175  0.379043  1
  Y  Y15  1  0.376519  0.841216  0.620840  1
  Tm  Tm16  1  0.208474  0.504055  0.749929  1
  Tm  Tm17  1  0.708395  0.995967  0.749839  1
  Tm  Tm18  1  0.791625  0.495722  0.250126  1
  Tm  Tm19  1  0.291552  0.004189  0.249971  1
  Pb  Pb20  1  0.282093  0.033615  0.043190  1
  Pb  Pb21  1  0.782255  0.466386  0.456757  1
  Pb  Pb22  1  0.717833  0.966359  0.543050  1
  Pb  Pb23  1  0.218527  0.533229  0.956775  1
  Pb  Pb24  1  0.717330  0.966844  0.956834  1
  Pb  Pb25  1  0.217653  0.533598  0.543121  1
  Pb  Pb26  1  0.282188  0.033646  0.456691  1
  Pb  Pb27  1  0.782182  0.466270  0.043528  1
  Pb  Pb28  1  0.571209  0.625994  0.749860  1
  Pb  Pb29  1  0.071263  0.874277  0.749867  1
  Pb  Pb30  1  0.428795  0.374019  0.250076  1
  Pb  Pb31  1  0.928893  0.126082  0.250018  1
  Pb  Pb32  1  0.345830  0.153595  0.749926  1
  Pb  Pb33  1  0.845878  0.346180  0.749958  1
  Pb  Pb34  1  0.654075  0.846193  0.250064  1
  Pb  Pb35  1  0.154089  0.653727  0.250071  1
