# generated using pymatgen
data_Er12Cd12PC3
_symmetry_space_group_name_H-M   'P 1'
_cell_length_a   9.56773402
_cell_length_b   9.56292127
_cell_length_c   9.62160786
_cell_angle_alpha   119.79973880
_cell_angle_beta   90.05037639
_cell_angle_gamma   119.98793755
_symmetry_Int_Tables_number   1
_chemical_formula_structural   Er12Cd12PC3
_chemical_formula_sum   'Er12 Cd12 P1 C3'
_cell_volume   624.20907990
_cell_formula_units_Z   1
loop_
 _symmetry_equiv_pos_site_id
 _symmetry_equiv_pos_as_xyz
  1  'x, y, z'
loop_
 _atom_site_type_symbol
 _atom_site_label
 _atom_site_symmetry_multiplicity
 _atom_site_fract_x
 _atom_site_fract_y
 _atom_site_fract_z
 _atom_site_occupancy
  Er  Er0  1  0.931750  0.363452  0.199563  1
  Er  Er1  1  0.931747  0.767878  0.199546  1
  Er  Er2  1  0.336318  0.768042  0.199762  1
  Er  Er3  1  0.687857  0.252964  0.440756  1
  Er  Er4  1  0.687857  0.875632  0.440764  1
  Er  Er5  1  0.065083  0.252989  0.440868  1
  Er  Er6  1  0.312140  0.124377  0.559248  1
  Er  Er7  1  0.312142  0.747018  0.559257  1
  Er  Er8  1  0.934899  0.747011  0.559138  1
  Er  Er9  1  0.663695  0.231961  0.800238  1
  Er  Er10  1  0.068255  0.636542  0.800431  1
  Er  Er11  1  0.068281  0.232156  0.800471  1
  Cd  Cd12  1  0.000012  0.999978  0.999956  1
  Cd  Cd13  1  0.500017  0.000023  0.999990  1
  Cd  Cd14  1  0.499975  0.499975  0.999974  1
  Cd  Cd15  1  0.709349  0.918475  0.127672  1
  Cd  Cd16  1  0.290527  0.080995  0.208704  1
  Cd  Cd17  1  0.290521  0.418222  0.208680  1
  Cd  Cd18  1  0.627858  0.418392  0.208876  1
  Cd  Cd19  1  0.500021  0.500037  0.500022  1
  Cd  Cd20  1  0.372127  0.581616  0.791137  1
  Cd  Cd21  1  0.709500  0.581762  0.791318  1
  Cd  Cd22  1  0.709466  0.919007  0.791303  1
  Cd  Cd23  1  0.290630  0.081512  0.872318  1
  P  P24  1  0.000002  0.500005  0.000003  1
  C  C25  1  0.999994  0.999996  0.500005  1
  C  C26  1  0.500000  0.000002  0.500007  1
  C  C27  1  0.999987  0.499992  0.500000  1
