# generated using pymatgen
data_Dy3Y2Si3Pt
_symmetry_space_group_name_H-M   'P 1'
_cell_length_a   7.32307700
_cell_length_b   7.83868400
_cell_length_c   14.40678900
_cell_angle_alpha   90.00000000
_cell_angle_beta   90.00000000
_cell_angle_gamma   90.00000000
_symmetry_Int_Tables_number   1
_chemical_formula_structural   Dy3Y2Si3Pt
_chemical_formula_sum   'Dy12 Y8 Si12 Pt4'
_cell_volume   826.99703667
_cell_formula_units_Z   4
loop_
 _symmetry_equiv_pos_site_id
 _symmetry_equiv_pos_as_xyz
  1  'x, y, z'
loop_
 _atom_site_type_symbol
 _atom_site_label
 _atom_site_symmetry_multiplicity
 _atom_site_fract_x
 _atom_site_fract_y
 _atom_site_fract_z
 _atom_site_occupancy
  Dy  Dy0  1  0.665347  0.980608  0.250000  1
  Dy  Dy1  1  0.165347  0.519392  0.250000  1
  Dy  Dy2  1  0.834653  0.480608  0.750000  1
  Dy  Dy3  1  0.334653  0.019392  0.750000  1
  Dy  Dy4  1  0.682472  0.824287  0.626269  1
  Dy  Dy5  1  0.182472  0.675713  0.873731  1
  Dy  Dy6  1  0.817528  0.324287  0.373731  1
  Dy  Dy7  1  0.317528  0.175713  0.126269  1
  Dy  Dy8  1  0.317528  0.175713  0.373731  1
  Dy  Dy9  1  0.817528  0.324287  0.126269  1
  Dy  Dy10  1  0.182472  0.675713  0.626269  1
  Dy  Dy11  1  0.682472  0.824287  0.873731  1
  Y  Y12  1  0.986255  0.818579  0.408917  1
  Y  Y13  1  0.486255  0.681421  0.091083  1
  Y  Y14  1  0.513745  0.318579  0.591083  1
  Y  Y15  1  0.013745  0.181421  0.908917  1
  Y  Y16  1  0.013745  0.181421  0.591083  1
  Y  Y17  1  0.513745  0.318579  0.908917  1
  Y  Y18  1  0.486255  0.681421  0.408917  1
  Y  Y19  1  0.986255  0.818579  0.091083  1
  Si  Si20  1  0.776232  0.631678  0.250000  1
  Si  Si21  1  0.276232  0.868322  0.250000  1
  Si  Si22  1  0.723768  0.131678  0.750000  1
  Si  Si23  1  0.223768  0.368322  0.750000  1
  Si  Si24  1  0.849842  0.527897  0.538943  1
  Si  Si25  1  0.349842  0.972103  0.961057  1
  Si  Si26  1  0.650158  0.027897  0.461057  1
  Si  Si27  1  0.150158  0.472103  0.038943  1
  Si  Si28  1  0.150158  0.472103  0.461057  1
  Si  Si29  1  0.650158  0.027897  0.038943  1
  Si  Si30  1  0.349842  0.972103  0.538943  1
  Si  Si31  1  0.849842  0.527897  0.961057  1
  Pt  Pt32  1  0.522750  0.409304  0.250000  1
  Pt  Pt33  1  0.022750  0.090696  0.250000  1
  Pt  Pt34  1  0.977250  0.909304  0.750000  1
  Pt  Pt35  1  0.477250  0.590696  0.750000  1
