# generated using pymatgen
data_Dy2MnSi14Ir5
_symmetry_space_group_name_H-M   'P 1'
_cell_length_a   7.97139054
_cell_length_b   7.97139065
_cell_length_c   8.00507714
_cell_angle_alpha   56.80551017
_cell_angle_beta   56.80549912
_cell_angle_gamma   57.04932588
_symmetry_Int_Tables_number   1
_chemical_formula_structural   Dy2MnSi14Ir5
_chemical_formula_sum   'Dy2 Mn1 Si14 Ir5'
_cell_volume   333.84383223
_cell_formula_units_Z   1
loop_
 _symmetry_equiv_pos_site_id
 _symmetry_equiv_pos_as_xyz
  1  'x, y, z'
loop_
 _atom_site_type_symbol
 _atom_site_label
 _atom_site_symmetry_multiplicity
 _atom_site_fract_x
 _atom_site_fract_y
 _atom_site_fract_z
 _atom_site_occupancy
  Dy  Dy0  1  0.001781  0.004620  0.994842  1
  Dy  Dy1  1  0.495380  0.498219  0.505158  1
  Mn  Mn2  1  0.075692  0.424308  0.750000  1
  Si  Si3  1  0.762274  0.737726  0.750000  1
  Si  Si4  1  0.248905  0.251095  0.250000  1
  Si  Si5  1  0.849800  0.065338  0.672326  1
  Si  Si6  1  0.671277  0.852645  0.063319  1
  Si  Si7  1  0.063773  0.663640  0.847862  1
  Si  Si8  1  0.647355  0.828723  0.436681  1
  Si  Si9  1  0.434662  0.650200  0.827674  1
  Si  Si10  1  0.836360  0.436227  0.652138  1
  Si  Si11  1  0.168985  0.561320  0.363814  1
  Si  Si12  1  0.566686  0.351468  0.171466  1
  Si  Si13  1  0.343633  0.179380  0.571290  1
  Si  Si14  1  0.938680  0.331015  0.136186  1
  Si  Si15  1  0.320620  0.156367  0.928710  1
  Si  Si16  1  0.148532  0.933314  0.328534  1
  Ir  Ir17  1  0.249202  0.928375  0.572098  1
  Ir  Ir18  1  0.571625  0.250798  0.927902  1
  Ir  Ir19  1  0.926265  0.573735  0.250000  1
  Ir  Ir20  1  0.428472  0.749960  0.071073  1
  Ir  Ir21  1  0.750040  0.071528  0.428927  1
