# generated using pymatgen
data_HoTa(NiSn)2
_symmetry_space_group_name_H-M   'P 1'
_cell_length_a   6.17900100
_cell_length_b   4.33385000
_cell_length_c   8.75645400
_cell_angle_alpha   90.00000000
_cell_angle_beta   90.00000000
_cell_angle_gamma   90.00000000
_symmetry_Int_Tables_number   1
_chemical_formula_structural   HoTa(NiSn)2
_chemical_formula_sum   'Ho2 Ta2 Ni4 Sn4'
_cell_volume   234.48788627
_cell_formula_units_Z   2
loop_
 _symmetry_equiv_pos_site_id
 _symmetry_equiv_pos_as_xyz
  1  'x, y, z'
loop_
 _atom_site_type_symbol
 _atom_site_label
 _atom_site_symmetry_multiplicity
 _atom_site_fract_x
 _atom_site_fract_y
 _atom_site_fract_z
 _atom_site_occupancy
  Ho  Ho0  1  0.004349  0.500000  0.378162  1
  Ho  Ho1  1  0.504349  0.000000  0.621838  1
  Ta  Ta2  1  0.495216  0.000000  0.124251  1
  Ta  Ta3  1  0.995217  0.500000  0.875751  1
  Ni  Ni4  1  0.737343  0.500000  0.111081  1
  Ni  Ni5  1  0.266211  0.000000  0.353965  1
  Ni  Ni6  1  0.766212  0.500000  0.646034  1
  Ni  Ni7  1  0.237344  0.000000  0.888918  1
  Sn  Sn8  1  0.988530  0.000000  0.120154  1
  Sn  Sn9  1  0.508351  0.500000  0.365830  1
  Sn  Sn10  1  0.008350  0.000000  0.634171  1
  Sn  Sn11  1  0.488529  0.500000  0.879846  1
