# generated using pymatgen
data_Y4TmZr3Rh4
_symmetry_space_group_name_H-M   'P 1'
_cell_length_a   4.62411200
_cell_length_b   7.11898024
_cell_length_c   8.40362796
_cell_angle_alpha   89.52349470
_cell_angle_beta   90.00000000
_cell_angle_gamma   90.00000000
_symmetry_Int_Tables_number   1
_chemical_formula_structural   Y4TmZr3Rh4
_chemical_formula_sum   'Y4 Tm1 Zr3 Rh4'
_cell_volume   276.62914236
_cell_formula_units_Z   1
loop_
 _symmetry_equiv_pos_site_id
 _symmetry_equiv_pos_as_xyz
  1  'x, y, z'
loop_
 _atom_site_type_symbol
 _atom_site_label
 _atom_site_symmetry_multiplicity
 _atom_site_fract_x
 _atom_site_fract_y
 _atom_site_fract_z
 _atom_site_occupancy
  Y  Y0  1  0.750000  0.983969  0.317980  1
  Y  Y1  1  0.250000  0.010518  0.674192  1
  Y  Y2  1  0.250000  0.518858  0.830042  1
  Y  Y3  1  0.750000  0.481561  0.178123  1
  Tm  Tm4  1  0.750000  0.357501  0.579148  1
  Zr  Zr5  1  0.750000  0.853985  0.923609  1
  Zr  Zr6  1  0.250000  0.137958  0.074326  1
  Zr  Zr7  1  0.250000  0.646134  0.426122  1
  Rh  Rh8  1  0.750000  0.744163  0.588801  1
  Rh  Rh9  1  0.250000  0.270093  0.397568  1
  Rh  Rh10  1  0.250000  0.768711  0.089872  1
  Rh  Rh11  1  0.750000  0.226548  0.920216  1
