# generated using pymatgen
data_Th4Al5ZnTc2
_symmetry_space_group_name_H-M   'P 1'
_cell_length_a   5.61372300
_cell_length_b   5.70547353
_cell_length_c   9.16174200
_cell_angle_alpha   90.00000000
_cell_angle_beta   90.00000000
_cell_angle_gamma   120.54214534
_symmetry_Int_Tables_number   1
_chemical_formula_structural   Th4Al5ZnTc2
_chemical_formula_sum   'Th4 Al5 Zn1 Tc2'
_cell_volume   252.72766683
_cell_formula_units_Z   1
loop_
 _symmetry_equiv_pos_site_id
 _symmetry_equiv_pos_as_xyz
  1  'x, y, z'
loop_
 _atom_site_type_symbol
 _atom_site_label
 _atom_site_symmetry_multiplicity
 _atom_site_fract_x
 _atom_site_fract_y
 _atom_site_fract_z
 _atom_site_occupancy
  Th  Th0  1  0.337198  0.668599  0.455353  1
  Th  Th1  1  0.666178  0.333089  0.548737  1
  Th  Th2  1  0.666178  0.333089  0.951263  1
  Th  Th3  1  0.337198  0.668599  0.044647  1
  Al  Al4  1  0.840919  0.162006  0.250000  1
  Al  Al5  1  0.840919  0.678914  0.250000  1
  Al  Al6  1  0.326507  0.163254  0.250000  1
  Al  Al7  1  0.150489  0.837759  0.750000  1
  Al  Al8  1  0.150489  0.312729  0.750000  1
  Zn  Zn9  1  0.664923  0.832463  0.750000  1
  Tc  Tc10  1  0.009499  0.004750  0.497242  1
  Tc  Tc11  1  0.009499  0.004750  0.002758  1
