# generated using pymatgen
data_La7Pr(Ho3In4)4
_symmetry_space_group_name_H-M   'P 1'
_cell_length_a   8.13167287
_cell_length_b   8.43411746
_cell_length_c   16.02120300
_cell_angle_alpha   90.03221399
_cell_angle_beta   90.02649297
_cell_angle_gamma   89.99011439
_symmetry_Int_Tables_number   1
_chemical_formula_structural   La7Pr(Ho3In4)4
_chemical_formula_sum   'La7 Pr1 Ho12 In16'
_cell_volume   1098.78961396
_cell_formula_units_Z   1
loop_
 _symmetry_equiv_pos_site_id
 _symmetry_equiv_pos_as_xyz
  1  'x, y, z'
loop_
 _atom_site_type_symbol
 _atom_site_label
 _atom_site_symmetry_multiplicity
 _atom_site_fract_x
 _atom_site_fract_y
 _atom_site_fract_z
 _atom_site_occupancy
  La  La0  1  0.485979  0.680040  0.407213  1
  La  La1  1  0.514322  0.319903  0.906874  1
  La  La2  1  0.014182  0.180145  0.592531  1
  La  La3  1  0.014018  0.179507  0.907384  1
  La  La4  1  0.513986  0.319731  0.592658  1
  La  La5  1  0.486364  0.680077  0.093251  1
  La  La6  1  0.986127  0.820118  0.407420  1
  Pr  Pr7  1  0.985630  0.818456  0.094152  1
  Ho  Ho8  1  0.652661  0.998862  0.250060  1
  Ho  Ho9  1  0.152926  0.501573  0.250064  1
  Ho  Ho10  1  0.846737  0.499252  0.749906  1
  Ho  Ho11  1  0.346754  0.000838  0.749800  1
  Ho  Ho12  1  0.676419  0.831974  0.875659  1
  Ho  Ho13  1  0.176055  0.667856  0.623967  1
  Ho  Ho14  1  0.824598  0.332326  0.124510  1
  Ho  Ho15  1  0.323901  0.168096  0.375677  1
  Ho  Ho16  1  0.322777  0.167727  0.124057  1
  Ho  Ho17  1  0.824198  0.331838  0.375579  1
  Ho  Ho18  1  0.175338  0.668470  0.876017  1
  Ho  Ho19  1  0.675911  0.832097  0.624034  1
  In  In20  1  0.780349  0.632893  0.250180  1
  In  In21  1  0.279404  0.867649  0.249586  1
  In  In22  1  0.720288  0.132379  0.749790  1
  In  In23  1  0.220143  0.367687  0.749821  1
  In  In24  1  0.020248  0.115544  0.249814  1
  In  In25  1  0.520538  0.383831  0.250036  1
  In  In26  1  0.479138  0.616353  0.749653  1
  In  In27  1  0.979390  0.883742  0.749416  1
  In  In28  1  0.837988  0.536019  0.958268  1
  In  In29  1  0.337828  0.965221  0.542233  1
  In  In30  1  0.664207  0.033607  0.042891  1
  In  In31  1  0.161912  0.464856  0.457360  1
  In  In32  1  0.161786  0.466699  0.042841  1
  In  In33  1  0.661994  0.034741  0.457309  1
  In  In34  1  0.338085  0.965193  0.957661  1
  In  In35  1  0.837817  0.534698  0.542328  1
