# generated using pymatgen
data_Sr2Ca3Ag4
_symmetry_space_group_name_H-M   'P 1'
_cell_length_a   8.24279900
_cell_length_b   8.21998900
_cell_length_c   16.08409900
_cell_angle_alpha   90.00000000
_cell_angle_beta   90.00000000
_cell_angle_gamma   90.00000000
_symmetry_Int_Tables_number   1
_chemical_formula_structural   Sr2Ca3Ag4
_chemical_formula_sum   'Sr8 Ca12 Ag16'
_cell_volume   1089.78966180
_cell_formula_units_Z   4
loop_
 _symmetry_equiv_pos_site_id
 _symmetry_equiv_pos_as_xyz
  1  'x, y, z'
loop_
 _atom_site_type_symbol
 _atom_site_label
 _atom_site_symmetry_multiplicity
 _atom_site_fract_x
 _atom_site_fract_y
 _atom_site_fract_z
 _atom_site_occupancy
  Sr  Sr0  1  0.492738  0.325110  0.904306  1
  Sr  Sr1  1  0.992738  0.174890  0.595694  1
  Sr  Sr2  1  0.507262  0.674890  0.404306  1
  Sr  Sr3  1  0.007262  0.825110  0.095694  1
  Sr  Sr4  1  0.507262  0.674890  0.095694  1
  Sr  Sr5  1  0.007262  0.825110  0.404306  1
  Sr  Sr6  1  0.492738  0.325110  0.595694  1
  Sr  Sr7  1  0.992738  0.174890  0.904306  1
  Ca  Ca8  1  0.334277  0.828907  0.877208  1
  Ca  Ca9  1  0.834277  0.671093  0.622792  1
  Ca  Ca10  1  0.665723  0.171093  0.377209  1
  Ca  Ca11  1  0.165723  0.328907  0.122791  1
  Ca  Ca12  1  0.665723  0.171093  0.122791  1
  Ca  Ca13  1  0.165723  0.328907  0.377209  1
  Ca  Ca14  1  0.334277  0.828907  0.622792  1
  Ca  Ca15  1  0.834277  0.671093  0.877208  1
  Ca  Ca16  1  0.164972  0.496007  0.750000  1
  Ca  Ca17  1  0.664972  0.003993  0.750000  1
  Ca  Ca18  1  0.835028  0.503993  0.250000  1
  Ca  Ca19  1  0.335028  0.996007  0.250000  1
  Ag  Ag20  1  0.342534  0.034755  0.041796  1
  Ag  Ag21  1  0.842534  0.465245  0.458204  1
  Ag  Ag22  1  0.657466  0.965245  0.541796  1
  Ag  Ag23  1  0.157466  0.534755  0.958204  1
  Ag  Ag24  1  0.657466  0.965245  0.958204  1
  Ag  Ag25  1  0.157466  0.534755  0.541796  1
  Ag  Ag26  1  0.342534  0.034755  0.458204  1
  Ag  Ag27  1  0.842534  0.465245  0.041796  1
  Ag  Ag28  1  0.536492  0.615152  0.750000  1
  Ag  Ag29  1  0.036492  0.884848  0.750000  1
  Ag  Ag30  1  0.463508  0.384848  0.250000  1
  Ag  Ag31  1  0.963508  0.115152  0.250000  1
  Ag  Ag32  1  0.286788  0.127940  0.750000  1
  Ag  Ag33  1  0.786788  0.372060  0.750000  1
  Ag  Ag34  1  0.713212  0.872060  0.250000  1
  Ag  Ag35  1  0.213212  0.627940  0.250000  1
