# generated using pymatgen
data_Y7ErTi12Si15Sn
_symmetry_space_group_name_H-M   'P 1'
_cell_length_a   7.11978920
_cell_length_b   7.08127094
_cell_length_c   13.04371130
_cell_angle_alpha   90.00667638
_cell_angle_beta   89.73083615
_cell_angle_gamma   89.94176393
_symmetry_Int_Tables_number   1
_chemical_formula_structural   Y7ErTi12Si15Sn
_chemical_formula_sum   'Y7 Er1 Ti12 Si15 Sn1'
_cell_volume   657.61923121
_cell_formula_units_Z   1
loop_
 _symmetry_equiv_pos_site_id
 _symmetry_equiv_pos_as_xyz
  1  'x, y, z'
loop_
 _atom_site_type_symbol
 _atom_site_label
 _atom_site_symmetry_multiplicity
 _atom_site_fract_x
 _atom_site_fract_y
 _atom_site_fract_z
 _atom_site_occupancy
  Y  Y0  1  0.342580  0.999165  0.461385  1
  Y  Y1  1  0.505646  0.835038  0.718178  1
  Y  Y2  1  0.502511  0.160066  0.216642  1
  Y  Y3  1  0.840781  0.496885  0.282069  1
  Y  Y4  1  0.159454  0.510048  0.786136  1
  Y  Y5  1  0.662197  0.996254  0.968858  1
  Y  Y6  1  0.992500  0.348139  0.527670  1
  Er  Er7  1  0.000094  0.659110  0.034226  1
  Ti  Ti8  1  0.326338  0.326754  0.001245  1
  Ti  Ti9  1  0.173917  0.825693  0.249464  1
  Ti  Ti10  1  0.816519  0.175452  0.752086  1
  Ti  Ti11  1  0.672087  0.673299  0.499423  1
  Ti  Ti12  1  0.152712  0.008252  0.883768  1
  Ti  Ti13  1  0.492211  0.649994  0.126891  1
  Ti  Ti14  1  0.515191  0.354019  0.626581  1
  Ti  Ti15  1  0.654620  0.493069  0.875871  1
  Ti  Ti16  1  0.346888  0.509902  0.372517  1
  Ti  Ti17  1  0.846598  0.991834  0.375620  1
  Ti  Ti18  1  0.010533  0.150902  0.123175  1
  Ti  Ti19  1  0.978458  0.835603  0.618479  1
  Si  Si20  1  0.371014  0.702574  0.936571  1
  Si  Si21  1  0.627060  0.297603  0.433102  1
  Si  Si22  1  0.705160  0.370471  0.066400  1
  Si  Si23  1  0.296303  0.630337  0.565224  1
  Si  Si24  1  0.798388  0.869282  0.184004  1
  Si  Si25  1  0.129348  0.202550  0.314371  1
  Si  Si26  1  0.871403  0.800059  0.816028  1
  Si  Si27  1  0.292210  0.951040  0.066832  1
  Si  Si28  1  0.549629  0.788862  0.313377  1
  Si  Si29  1  0.459424  0.211046  0.820084  1
  Si  Si30  1  0.793212  0.545041  0.687137  1
  Si  Si31  1  0.209389  0.452873  0.184863  1
  Si  Si32  1  0.706448  0.048771  0.564232  1
  Si  Si33  1  0.952997  0.291996  0.935744  1
  Si  Si34  1  0.047428  0.711430  0.432674  1
  Sn  Sn35  1  0.198752  0.126587  0.679072  1
