# generated using pymatgen
data_Li6Dy6Te3WO24
_symmetry_space_group_name_H-M   'P 1'
_cell_length_a   10.70531449
_cell_length_b   10.72740009
_cell_length_c   10.72739984
_cell_angle_alpha   109.51288423
_cell_angle_beta   109.42952765
_cell_angle_gamma   109.42951195
_symmetry_Int_Tables_number   1
_chemical_formula_structural   Li6Dy6Te3WO24
_chemical_formula_sum   'Li12 Dy12 Te6 W2 O48'
_cell_volume   948.83295785
_cell_formula_units_Z   2
loop_
 _symmetry_equiv_pos_site_id
 _symmetry_equiv_pos_as_xyz
  1  'x, y, z'
loop_
 _atom_site_type_symbol
 _atom_site_label
 _atom_site_symmetry_multiplicity
 _atom_site_fract_x
 _atom_site_fract_y
 _atom_site_fract_z
 _atom_site_occupancy
  Li  Li0  1  0.251476  0.375640  0.125458  1
  Li  Li1  1  0.373985  0.749818  0.125459  1
  Li  Li2  1  0.126016  0.874541  0.250182  1
  Li  Li3  1  0.624166  0.375641  0.250182  1
  Li  Li4  1  0.124166  0.250181  0.375639  1
  Li  Li5  1  0.751476  0.125460  0.375640  1
  Li  Li6  1  0.248526  0.874542  0.624359  1
  Li  Li7  1  0.875835  0.749818  0.624362  1
  Li  Li8  1  0.873983  0.125458  0.749817  1
  Li  Li9  1  0.375833  0.624360  0.749817  1
  Li  Li10  1  0.748525  0.624360  0.874539  1
  Li  Li11  1  0.626017  0.250182  0.874542  1
  Dy  Dy12  1  0.750000  0.875864  0.124136  1
  Dy  Dy13  1  0.874137  0.248272  0.124137  1
  Dy  Dy14  1  0.874903  0.624903  0.249807  1
  Dy  Dy15  1  0.374135  0.124134  0.248271  1
  Dy  Dy16  1  0.625096  0.750193  0.375096  1
  Dy  Dy17  1  0.250002  0.624905  0.375096  1
  Dy  Dy18  1  0.750001  0.375097  0.624903  1
  Dy  Dy19  1  0.374905  0.249809  0.624906  1
  Dy  Dy20  1  0.125095  0.375096  0.750191  1
  Dy  Dy21  1  0.625865  0.875865  0.751730  1
  Dy  Dy22  1  0.249999  0.124136  0.875863  1
  Dy  Dy23  1  0.125865  0.751729  0.875865  1
  Te  Te24  1  0.500000  0.500000  0.000000  1
  Te  Te25  1  0.000000  0.500001  0.000000  1
  Te  Te26  1  0.000000  0.000000  0.499998  1
  Te  Te27  1  0.500000  0.000000  0.499999  1
  Te  Te28  1  0.000000  0.500000  0.500000  1
  Te  Te29  1  0.500002  0.500002  0.500001  1
  W  W30  1  0.000000  0.000000  0.000000  1
  W  W31  1  0.499999  0.000000  0.000000  1
  O  O32  1  0.700413  0.620574  0.028035  1
  O  O33  1  0.827623  0.407461  0.028036  1
  O  O34  1  0.200073  0.173151  0.080287  1
  O  O35  1  0.380214  0.907137  0.080287  1
  O  O36  1  0.473078  0.173150  0.092863  1
  O  O37  1  0.119785  0.919712  0.092864  1
  O  O38  1  0.527590  0.700258  0.119972  1
  O  O39  1  0.092382  0.419714  0.119972  1
  O  O40  1  0.700073  0.080288  0.173151  1
  O  O41  1  0.973080  0.092863  0.173152  1
  O  O42  1  0.620260  0.527704  0.199862  1
  O  O43  1  0.079603  0.672158  0.199862  1
  O  O44  1  0.827332  0.419713  0.299742  1
  O  O45  1  0.972410  0.880029  0.299742  1
  O  O46  1  0.420398  0.800138  0.327842  1
  O  O47  1  0.407445  0.527705  0.327842  1
  O  O48  1  0.799587  0.971964  0.379425  1
  O  O49  1  0.079840  0.407463  0.379426  1
  O  O50  1  0.579839  0.379427  0.407463  1
  O  O51  1  0.327623  0.028037  0.407463  1
  O  O52  1  0.327331  0.299742  0.419713  1
  O  O53  1  0.592382  0.119972  0.419713  1
  O  O54  1  0.879740  0.800137  0.472295  1
  O  O55  1  0.092555  0.672158  0.472296  1
  O  O56  1  0.120259  0.199861  0.527703  1
  O  O57  1  0.907446  0.327843  0.527704  1
  O  O58  1  0.407618  0.880029  0.580286  1
  O  O59  1  0.672668  0.700259  0.580288  1
  O  O60  1  0.672377  0.971963  0.592538  1
  O  O61  1  0.420162  0.620576  0.592539  1
  O  O62  1  0.920161  0.592538  0.620574  1
  O  O63  1  0.200412  0.028036  0.620574  1
  O  O64  1  0.592555  0.472296  0.672158  1
  O  O65  1  0.579604  0.199863  0.672158  1
  O  O66  1  0.027591  0.119973  0.700258  1
  O  O67  1  0.172669  0.580288  0.700260  1
  O  O68  1  0.920397  0.327843  0.800137  1
  O  O69  1  0.379741  0.472297  0.800137  1
  O  O70  1  0.026921  0.907136  0.826847  1
  O  O71  1  0.299928  0.919712  0.826848  1
  O  O72  1  0.907618  0.580286  0.880027  1
  O  O73  1  0.472410  0.299741  0.880029  1
  O  O74  1  0.880215  0.080289  0.907137  1
  O  O75  1  0.526921  0.826849  0.907137  1
  O  O76  1  0.799925  0.826847  0.919711  1
  O  O77  1  0.619786  0.092864  0.919712  1
  O  O78  1  0.299587  0.379426  0.971964  1
  O  O79  1  0.172377  0.592539  0.971964  1
