# generated using pymatgen
data_CaDyY4(Si3Ru)8
_symmetry_space_group_name_H-M   'P 1'
_cell_length_a   10.14909797
_cell_length_b   10.14891829
_cell_length_c   8.14920805
_cell_angle_alpha   89.88634224
_cell_angle_beta   90.11606275
_cell_angle_gamma   132.64768190
_symmetry_Int_Tables_number   1
_chemical_formula_structural   CaDyY4(Si3Ru)8
_chemical_formula_sum   'Ca1 Dy1 Y4 Si24 Ru8'
_cell_volume   617.39632773
_cell_formula_units_Z   1
loop_
 _symmetry_equiv_pos_site_id
 _symmetry_equiv_pos_as_xyz
  1  'x, y, z'
loop_
 _atom_site_type_symbol
 _atom_site_label
 _atom_site_symmetry_multiplicity
 _atom_site_fract_x
 _atom_site_fract_y
 _atom_site_fract_z
 _atom_site_occupancy
  Ca  Ca0  1  0.001938  0.501940  0.250004  1
  Dy  Dy1  1  0.000269  0.000355  0.000539  1
  Y  Y2  1  0.500356  0.500269  0.499464  1
  Y  Y3  1  0.498381  0.998385  0.749991  1
  Y  Y4  1  0.997087  0.497079  0.749995  1
  Y  Y5  1  0.502784  0.002784  0.250008  1
  Si  Si6  1  0.293732  0.704378  0.000241  1
  Si  Si7  1  0.795335  0.206211  0.498797  1
  Si  Si8  1  0.706214  0.295339  0.001201  1
  Si  Si9  1  0.204380  0.793733  0.499763  1
  Si  Si10  1  0.832769  0.834185  0.333172  1
  Si  Si11  1  0.166824  0.168238  0.666775  1
  Si  Si12  1  0.668255  0.666843  0.833275  1
  Si  Si13  1  0.334169  0.332748  0.166777  1
  Si  Si14  1  0.620544  0.386457  0.227982  1
  Si  Si15  1  0.611090  0.377793  0.772442  1
  Si  Si16  1  0.111408  0.878216  0.728315  1
  Si  Si17  1  0.123576  0.889824  0.272007  1
  Si  Si18  1  0.378208  0.611412  0.771702  1
  Si  Si19  1  0.389819  0.623589  0.227975  1
  Si  Si20  1  0.886466  0.120539  0.271996  1
  Si  Si21  1  0.877810  0.111089  0.727577  1
  Si  Si22  1  0.844370  0.611381  0.002806  1
  Si  Si23  1  0.388510  0.155736  0.994563  1
  Si  Si24  1  0.888275  0.654836  0.506179  1
  Si  Si25  1  0.344060  0.111634  0.494918  1
  Si  Si26  1  0.154838  0.388255  0.993808  1
  Si  Si27  1  0.611650  0.844059  0.005094  1
  Si  Si28  1  0.111361  0.344370  0.497208  1
  Si  Si29  1  0.655732  0.888531  0.505433  1
  Ru  Ru30  1  0.170588  0.831688  0.999319  1
  Ru  Ru31  1  0.667274  0.328992  0.501967  1
  Ru  Ru32  1  0.829003  0.167263  0.998033  1
  Ru  Ru33  1  0.331687  0.670606  0.500682  1
  Ru  Ru34  1  0.626902  0.626802  0.127147  1
  Ru  Ru35  1  0.373402  0.374148  0.873069  1
  Ru  Ru36  1  0.874236  0.873486  0.626968  1
  Ru  Ru37  1  0.126698  0.126808  0.372809  1
