# generated using pymatgen
data_Y7ErTc3B24Os
_symmetry_space_group_name_H-M   'P 1'
_cell_length_a   3.68016300
_cell_length_b   9.17346993
_cell_length_c   11.56272306
_cell_angle_alpha   89.96014829
_cell_angle_beta   90.00000000
_cell_angle_gamma   90.00000000
_symmetry_Int_Tables_number   1
_chemical_formula_structural   Y7ErTc3B24Os
_chemical_formula_sum   'Y7 Er1 Tc3 B24 Os1'
_cell_volume   390.35587074
_cell_formula_units_Z   1
loop_
 _symmetry_equiv_pos_site_id
 _symmetry_equiv_pos_as_xyz
  1  'x, y, z'
loop_
 _atom_site_type_symbol
 _atom_site_label
 _atom_site_symmetry_multiplicity
 _atom_site_fract_x
 _atom_site_fract_y
 _atom_site_fract_z
 _atom_site_occupancy
  Y  Y0  1  0.000000  0.323802  0.413886  1
  Y  Y1  1  0.000000  0.675346  0.584566  1
  Y  Y2  1  0.000000  0.822819  0.087090  1
  Y  Y3  1  0.000000  0.178194  0.914448  1
  Y  Y4  1  0.000000  0.942669  0.370144  1
  Y  Y5  1  0.000000  0.058115  0.630078  1
  Y  Y6  1  0.000000  0.443142  0.129737  1
  Er  Er7  1  0.000000  0.557022  0.869189  1
  Tc  Tc8  1  0.000000  0.638327  0.320480  1
  Tc  Tc9  1  0.000000  0.362191  0.680428  1
  Tc  Tc10  1  0.000000  0.137916  0.178118  1
  B  B11  1  0.500000  0.553155  0.432893  1
  B  B12  1  0.500000  0.446838  0.567111  1
  B  B13  1  0.500000  0.053029  0.066909  1
  B  B14  1  0.500000  0.945962  0.932793  1
  B  B15  1  0.500000  0.748296  0.418648  1
  B  B16  1  0.500000  0.251503  0.581493  1
  B  B17  1  0.500000  0.248948  0.081382  1
  B  B18  1  0.500000  0.750695  0.918193  1
  B  B19  1  0.500000  0.791626  0.265546  1
  B  B20  1  0.500000  0.208855  0.735019  1
  B  B21  1  0.500000  0.291636  0.234684  1
  B  B22  1  0.500000  0.708510  0.765614  1
  B  B23  1  0.500000  0.630986  0.185697  1
  B  B24  1  0.500000  0.369595  0.815017  1
  B  B25  1  0.500000  0.130624  0.313909  1
  B  B26  1  0.500000  0.868756  0.686036  1
  B  B27  1  0.500000  0.982084  0.211676  1
  B  B28  1  0.500000  0.016518  0.788419  1
  B  B29  1  0.500000  0.482335  0.288181  1
  B  B30  1  0.500000  0.517726  0.712172  1
  B  B31  1  0.500000  0.601787  0.027413  1
  B  B32  1  0.500000  0.399892  0.971182  1
  B  B33  1  0.500000  0.102081  0.471729  1
  B  B34  1  0.500000  0.897995  0.528810  1
  Os  Os35  1  0.000000  0.861028  0.821309  1
