# generated using pymatgen
data_Cs2UBr5
_symmetry_space_group_name_H-M   'P 1'
_cell_length_a   9.06277500
_cell_length_b   9.59663600
_cell_length_c   14.72505400
_cell_angle_alpha   90.00000000
_cell_angle_beta   90.00000000
_cell_angle_gamma   90.00000000
_symmetry_Int_Tables_number   1
_chemical_formula_structural   Cs2UBr5
_chemical_formula_sum   'Cs8 U4 Br20'
_cell_volume   1280.66964684
_cell_formula_units_Z   4
loop_
 _symmetry_equiv_pos_site_id
 _symmetry_equiv_pos_as_xyz
  1  'x, y, z'
loop_
 _atom_site_type_symbol
 _atom_site_label
 _atom_site_symmetry_multiplicity
 _atom_site_fract_x
 _atom_site_fract_y
 _atom_site_fract_z
 _atom_site_occupancy
  Cs  Cs0  1  0.945252  0.005253  0.827981  1
  Cs  Cs1  1  0.054748  0.994747  0.172019  1
  Cs  Cs2  1  0.445252  0.994747  0.672019  1
  Cs  Cs3  1  0.054748  0.505253  0.172019  1
  Cs  Cs4  1  0.554748  0.005253  0.327981  1
  Cs  Cs5  1  0.945252  0.494747  0.827981  1
  Cs  Cs6  1  0.554748  0.494747  0.327981  1
  Cs  Cs7  1  0.445252  0.505253  0.672019  1
  U  U8  1  0.933093  0.750000  0.501915  1
  U  U9  1  0.066907  0.250000  0.498085  1
  U  U10  1  0.433093  0.250000  0.998085  1
  U  U11  1  0.566907  0.750000  0.001915  1
  Br  Br12  1  0.112238  0.750000  0.669151  1
  Br  Br13  1  0.887762  0.250000  0.330849  1
  Br  Br14  1  0.612238  0.250000  0.830849  1
  Br  Br15  1  0.387762  0.750000  0.169151  1
  Br  Br16  1  0.845247  0.042177  0.570331  1
  Br  Br17  1  0.154753  0.957823  0.429669  1
  Br  Br18  1  0.345247  0.957823  0.929669  1
  Br  Br19  1  0.154753  0.542177  0.429669  1
  Br  Br20  1  0.654753  0.042177  0.070331  1
  Br  Br21  1  0.845247  0.457823  0.570331  1
  Br  Br22  1  0.654753  0.457823  0.070331  1
  Br  Br23  1  0.345247  0.542177  0.929669  1
  Br  Br24  1  0.604928  0.750000  0.512102  1
  Br  Br25  1  0.395072  0.250000  0.487898  1
  Br  Br26  1  0.104928  0.250000  0.987898  1
  Br  Br27  1  0.895072  0.750000  0.012102  1
  Br  Br28  1  0.651542  0.750000  0.809671  1
  Br  Br29  1  0.348458  0.250000  0.190329  1
  Br  Br30  1  0.151542  0.250000  0.690329  1
  Br  Br31  1  0.848458  0.750000  0.309671  1
