# generated using pymatgen
data_Sm2P7Ru11Rh
_symmetry_space_group_name_H-M   'P 1'
_cell_length_a   9.42996433
_cell_length_b   9.47371855
_cell_length_c   3.96643700
_cell_angle_alpha   90.00000000
_cell_angle_beta   90.00000000
_cell_angle_gamma   119.74624418
_symmetry_Int_Tables_number   1
_chemical_formula_structural   Sm2P7Ru11Rh
_chemical_formula_sum   'Sm2 P7 Ru11 Rh1'
_cell_volume   307.65682048
_cell_formula_units_Z   1
loop_
 _symmetry_equiv_pos_site_id
 _symmetry_equiv_pos_as_xyz
  1  'x, y, z'
loop_
 _atom_site_type_symbol
 _atom_site_label
 _atom_site_symmetry_multiplicity
 _atom_site_fract_x
 _atom_site_fract_y
 _atom_site_fract_z
 _atom_site_occupancy
  Sm  Sm0  1  0.668383  0.334497  0.500000  1
  Sm  Sm1  1  0.331630  0.663112  0.000000  1
  P  P2  1  0.601749  0.711719  0.500000  1
  P  P3  1  0.997475  0.999339  0.000000  1
  P  P4  1  0.280119  0.884398  0.500000  1
  P  P5  1  0.114417  0.398194  0.500000  1
  P  P6  1  0.888648  0.578542  0.000000  1
  P  P7  1  0.424084  0.309951  0.000000  1
  P  P8  1  0.695699  0.117941  0.000000  1
  Ru  Ru9  1  0.390053  0.439486  0.500000  1
  Ru  Ru10  1  0.912354  0.123827  0.500000  1
  Ru  Ru11  1  0.209498  0.086739  0.500000  1
  Ru  Ru12  1  0.878325  0.794448  0.500000  1
  Ru  Ru13  1  0.725924  0.891477  0.000000  1
  Ru  Ru14  1  0.109166  0.839150  0.000000  1
  Ru  Ru15  1  0.162057  0.268644  0.000000  1
  Ru  Ru16  1  0.427210  0.065711  0.000000  1
  Ru  Ru17  1  0.937241  0.361376  0.000000  1
  Ru  Ru18  1  0.641516  0.576217  0.000000  1
  Ru  Ru19  1  0.050868  0.609730  0.500000  1
  Rh  Rh20  1  0.553588  0.945502  0.500000  1
