# generated using pymatgen
data_Tm5TcRuC7
_symmetry_space_group_name_H-M   'P 1'
_cell_length_a   8.13802553
_cell_length_b   8.13802587
_cell_length_c   3.42649200
_cell_angle_alpha   90.00000000
_cell_angle_beta   90.00000000
_cell_angle_gamma   121.74695520
_symmetry_Int_Tables_number   1
_chemical_formula_structural   Tm5TcRuC7
_chemical_formula_sum   'Tm5 Tc1 Ru1 C7'
_cell_volume   192.97496427
_cell_formula_units_Z   1
loop_
 _symmetry_equiv_pos_site_id
 _symmetry_equiv_pos_as_xyz
  1  'x, y, z'
loop_
 _atom_site_type_symbol
 _atom_site_label
 _atom_site_symmetry_multiplicity
 _atom_site_fract_x
 _atom_site_fract_y
 _atom_site_fract_z
 _atom_site_occupancy
  Tm  Tm0  1  0.500532  0.499468  0.000000  1
  Tm  Tm1  1  0.077356  0.338037  0.500000  1
  Tm  Tm2  1  0.920708  0.659987  0.500000  1
  Tm  Tm3  1  0.661963  0.922644  0.500000  1
  Tm  Tm4  1  0.340013  0.079292  0.500000  1
  Tc  Tc5  1  0.285323  0.714677  0.000000  1
  Ru  Ru6  1  0.713234  0.286766  0.000000  1
  C  C7  1  0.626605  0.373395  0.500000  1
  C  C8  1  0.376286  0.623714  0.500000  1
  C  C9  1  0.999418  0.000582  0.000000  1
  C  C10  1  0.171377  0.171534  0.000000  1
  C  C11  1  0.828466  0.828623  0.000000  1
  C  C12  1  0.000408  0.501690  0.000000  1
  C  C13  1  0.498310  0.999592  0.000000  1
