# generated using pymatgen
data_LiPr2In(AsO)2
_symmetry_space_group_name_H-M   'P 1'
_cell_length_a   4.15667200
_cell_length_b   4.15585400
_cell_length_c   9.32152502
_cell_angle_alpha   89.99801659
_cell_angle_beta   89.99594520
_cell_angle_gamma   89.99986216
_symmetry_Int_Tables_number   1
_chemical_formula_structural   LiPr2In(AsO)2
_chemical_formula_sum   'Li1 Pr2 In1 As2 O2'
_cell_volume   161.02488815
_cell_formula_units_Z   1
loop_
 _symmetry_equiv_pos_site_id
 _symmetry_equiv_pos_as_xyz
  1  'x, y, z'
loop_
 _atom_site_type_symbol
 _atom_site_label
 _atom_site_symmetry_multiplicity
 _atom_site_fract_x
 _atom_site_fract_y
 _atom_site_fract_z
 _atom_site_occupancy
  Li  Li0  1  0.749975  0.250036  0.500030  1
  Pr  Pr1  1  0.250012  0.249996  0.125166  1
  Pr  Pr2  1  0.749981  0.750009  0.874840  1
  In  In3  1  0.250007  0.750008  0.499898  1
  As  As4  1  0.750201  0.749994  0.315740  1
  As  As5  1  0.249842  0.249999  0.684241  1
  O  O6  1  0.750002  0.249974  0.000034  1
  O  O7  1  0.249991  0.749996  0.000051  1
