# generated using pymatgen
data_Er4Lu6Ru3Rh
_symmetry_space_group_name_H-M   'P 1'
_cell_length_a   6.23432061
_cell_length_b   7.24291647
_cell_length_c   8.31374656
_cell_angle_alpha   96.88589759
_cell_angle_beta   112.09545126
_cell_angle_gamma   90.14076086
_symmetry_Int_Tables_number   1
_chemical_formula_structural   Er4Lu6Ru3Rh
_chemical_formula_sum   'Er4 Lu6 Ru3 Rh1'
_cell_volume   344.86343767
_cell_formula_units_Z   1
loop_
 _symmetry_equiv_pos_site_id
 _symmetry_equiv_pos_as_xyz
  1  'x, y, z'
loop_
 _atom_site_type_symbol
 _atom_site_label
 _atom_site_symmetry_multiplicity
 _atom_site_fract_x
 _atom_site_fract_y
 _atom_site_fract_z
 _atom_site_occupancy
  Er  Er0  1  0.524981  0.083822  0.813653  1
  Er  Er1  1  0.475690  0.918232  0.184876  1
  Er  Er2  1  0.711574  0.415926  0.185146  1
  Er  Er3  1  0.287744  0.582956  0.809359  1
  Lu  Lu4  1  0.293342  0.313613  0.436383  1
  Lu  Lu5  1  0.708148  0.683998  0.566766  1
  Lu  Lu6  1  0.855999  0.182841  0.564135  1
  Lu  Lu7  1  0.140804  0.819648  0.437219  1
  Lu  Lu8  1  0.080305  0.248189  0.998321  1
  Lu  Lu9  1  0.918578  0.750954  0.999935  1
  Ru  Ru10  1  0.678195  0.424714  0.780104  1
  Ru  Ru11  1  0.104216  0.922431  0.780882  1
  Ru  Ru12  1  0.898849  0.076659  0.220030  1
  Rh  Rh13  1  0.321572  0.576019  0.223194  1
