# generated using pymatgen
data_Yb7Th(Si3Pd)4
_symmetry_space_group_name_H-M   'P 1'
_cell_length_a   8.25625200
_cell_length_b   8.25625239
_cell_length_c   8.33135300
_cell_angle_alpha   90.00000000
_cell_angle_beta   90.00000000
_cell_angle_gamma   119.99999042
_symmetry_Int_Tables_number   1
_chemical_formula_structural   Yb7Th(Si3Pd)4
_chemical_formula_sum   'Yb7 Th1 Si12 Pd4'
_cell_volume   491.82670978
_cell_formula_units_Z   1
loop_
 _symmetry_equiv_pos_site_id
 _symmetry_equiv_pos_as_xyz
  1  'x, y, z'
loop_
 _atom_site_type_symbol
 _atom_site_label
 _atom_site_symmetry_multiplicity
 _atom_site_fract_x
 _atom_site_fract_y
 _atom_site_fract_z
 _atom_site_occupancy
  Yb  Yb0  1  0.499743  0.500257  0.750000  1
  Yb  Yb1  1  0.500279  0.499721  0.250000  1
  Yb  Yb2  1  0.000513  0.500257  0.750000  1
  Yb  Yb3  1  0.999443  0.499721  0.250000  1
  Yb  Yb4  1  0.499743  0.999487  0.750000  1
  Yb  Yb5  1  0.500279  0.000557  0.250000  1
  Yb  Yb6  1  0.000000  0.000000  0.750000  1
  Th  Th7  1  0.000000  0.000000  0.250000  1
  Si  Si8  1  0.835189  0.164811  0.000355  1
  Si  Si9  1  0.164822  0.835178  0.000904  1
  Si  Si10  1  0.329623  0.164811  0.000355  1
  Si  Si11  1  0.164822  0.835178  0.499096  1
  Si  Si12  1  0.670355  0.835178  0.000904  1
  Si  Si13  1  0.835189  0.164811  0.499645  1
  Si  Si14  1  0.835189  0.670377  0.000355  1
  Si  Si15  1  0.670355  0.835178  0.499096  1
  Si  Si16  1  0.164822  0.329645  0.000904  1
  Si  Si17  1  0.329623  0.164811  0.499645  1
  Si  Si18  1  0.164822  0.329645  0.499096  1
  Si  Si19  1  0.835189  0.670377  0.499645  1
  Pd  Pd20  1  0.666667  0.333333  0.997407  1
  Pd  Pd21  1  0.333333  0.666667  0.997870  1
  Pd  Pd22  1  0.333333  0.666667  0.502130  1
  Pd  Pd23  1  0.666667  0.333333  0.502593  1
