# generated using pymatgen
data_GdH2Cl
_symmetry_space_group_name_H-M   'P 1'
_cell_length_a   3.75859789
_cell_length_b   3.75859768
_cell_length_c   10.33992520
_cell_angle_alpha   79.52819648
_cell_angle_beta   100.47180206
_cell_angle_gamma   120.00000177
_symmetry_Int_Tables_number   1
_chemical_formula_structural   GdH2Cl
_chemical_formula_sum   'Gd2 H4 Cl2'
_cell_volume   123.68541324
_cell_formula_units_Z   2
loop_
 _symmetry_equiv_pos_site_id
 _symmetry_equiv_pos_as_xyz
  1  'x, y, z'
loop_
 _atom_site_type_symbol
 _atom_site_label
 _atom_site_symmetry_multiplicity
 _atom_site_fract_x
 _atom_site_fract_y
 _atom_site_fract_z
 _atom_site_occupancy
  Gd  Gd0  1  0.112734  0.887265  0.338203  1
  Gd  Gd1  1  0.887266  0.112735  0.661797  1
  H  H2  1  0.454269  0.545731  0.362805  1
  H  H3  1  0.812945  0.187055  0.438835  1
  H  H4  1  0.187055  0.812945  0.561166  1
  H  H5  1  0.545731  0.454269  0.637194  1
  Cl  Cl6  1  0.720591  0.279409  0.161771  1
  Cl  Cl7  1  0.279409  0.720590  0.838230  1
