# generated using pymatgen
data_Al3V12Ga4NiN4
_symmetry_space_group_name_H-M   'P 1'
_cell_length_a   6.58770900
_cell_length_b   6.58770900
_cell_length_c   6.58770900
_cell_angle_alpha   89.99876497
_cell_angle_beta   89.99876497
_cell_angle_gamma   89.99876497
_symmetry_Int_Tables_number   1
_chemical_formula_structural   Al3V12Ga4NiN4
_chemical_formula_sum   'Al3 V12 Ga4 Ni1 N4'
_cell_volume   285.89280132
_cell_formula_units_Z   1
loop_
 _symmetry_equiv_pos_site_id
 _symmetry_equiv_pos_as_xyz
  1  'x, y, z'
loop_
 _atom_site_type_symbol
 _atom_site_label
 _atom_site_symmetry_multiplicity
 _atom_site_fract_x
 _atom_site_fract_y
 _atom_site_fract_z
 _atom_site_occupancy
  Al  Al0  1  0.179651  0.819809  0.323437  1
  Al  Al1  1  0.323437  0.179651  0.819809  1
  Al  Al2  1  0.819809  0.323437  0.179651  1
  V  V3  1  0.793055  0.958212  0.372376  1
  V  V4  1  0.707084  0.038988  0.876888  1
  V  V5  1  0.209987  0.459572  0.122046  1
  V  V6  1  0.291543  0.541003  0.625990  1
  V  V7  1  0.958212  0.372376  0.793055  1
  V  V8  1  0.038988  0.876888  0.707084  1
  V  V9  1  0.459572  0.122046  0.209987  1
  V  V10  1  0.541003  0.625990  0.291543  1
  V  V11  1  0.372376  0.793055  0.958212  1
  V  V12  1  0.876888  0.707084  0.038988  1
  V  V13  1  0.122046  0.209987  0.459572  1
  V  V14  1  0.625990  0.291543  0.541003  1
  Ga  Ga15  1  0.574715  0.441062  0.919752  1
  Ga  Ga16  1  0.441062  0.919752  0.574715  1
  Ga  Ga17  1  0.919752  0.574715  0.441062  1
  Ga  Ga18  1  0.069482  0.069482  0.069482  1
  Ni  Ni19  1  0.681984  0.681984  0.681984  1
  N  N20  1  0.871191  0.122593  0.624674  1
  N  N21  1  0.624674  0.871191  0.122593  1
  N  N22  1  0.122593  0.624674  0.871191  1
  N  N23  1  0.374904  0.374904  0.374904  1
