# generated using pymatgen
data_Dy5BiPPb2
_symmetry_space_group_name_H-M   'P 1'
_cell_length_a   9.17189502
_cell_length_b   9.18478613
_cell_length_c   6.77400500
_cell_angle_alpha   90.00000000
_cell_angle_beta   90.00000000
_cell_angle_gamma   120.04651576
_symmetry_Int_Tables_number   1
_chemical_formula_structural   Dy5BiPPb2
_chemical_formula_sum   'Dy10 Bi2 P2 Pb4'
_cell_volume   493.96993062
_cell_formula_units_Z   2
loop_
 _symmetry_equiv_pos_site_id
 _symmetry_equiv_pos_as_xyz
  1  'x, y, z'
loop_
 _atom_site_type_symbol
 _atom_site_label
 _atom_site_symmetry_multiplicity
 _atom_site_fract_x
 _atom_site_fract_y
 _atom_site_fract_z
 _atom_site_occupancy
  Dy  Dy0  1  0.764381  0.762477  0.750000  1
  Dy  Dy1  1  0.235619  0.998097  0.750000  1
  Dy  Dy2  1  0.000000  0.236855  0.750000  1
  Dy  Dy3  1  0.236947  0.236707  0.250000  1
  Dy  Dy4  1  0.763053  0.999760  0.250000  1
  Dy  Dy5  1  0.000000  0.762781  0.250000  1
  Dy  Dy6  1  0.667875  0.334367  0.002128  1
  Dy  Dy7  1  0.332125  0.666493  0.002128  1
  Dy  Dy8  1  0.332125  0.666493  0.497872  1
  Dy  Dy9  1  0.667875  0.334367  0.497872  1
  Bi  Bi10  1  0.399747  0.399871  0.750000  1
  Bi  Bi11  1  0.600253  0.000124  0.750000  1
  P  P12  1  0.000000  0.000501  0.999250  1
  P  P13  1  0.000000  0.000501  0.500750  1
  Pb  Pb14  1  0.000000  0.599314  0.750000  1
  Pb  Pb15  1  0.600573  0.600909  0.250000  1
  Pb  Pb16  1  0.399427  0.000336  0.250000  1
  Pb  Pb17  1  0.000000  0.400048  0.250000  1
