# generated using pymatgen
data_Nd2ThMn(Co4P3)2
_symmetry_space_group_name_H-M   'P 1'
_cell_length_a   3.78699800
_cell_length_b   10.72479800
_cell_length_c   12.44124100
_cell_angle_alpha   90.00000000
_cell_angle_beta   90.00000000
_cell_angle_gamma   90.00000000
_symmetry_Int_Tables_number   1
_chemical_formula_structural   Nd2ThMn(Co4P3)2
_chemical_formula_sum   'Nd4 Th2 Mn2 Co16 P12'
_cell_volume   505.29837284
_cell_formula_units_Z   2
loop_
 _symmetry_equiv_pos_site_id
 _symmetry_equiv_pos_as_xyz
  1  'x, y, z'
loop_
 _atom_site_type_symbol
 _atom_site_label
 _atom_site_symmetry_multiplicity
 _atom_site_fract_x
 _atom_site_fract_y
 _atom_site_fract_z
 _atom_site_occupancy
  Nd  Nd0  1  0.500000  0.816837  0.204354  1
  Nd  Nd1  1  0.500000  0.183163  0.204354  1
  Nd  Nd2  1  0.000000  0.683163  0.795646  1
  Nd  Nd3  1  0.000000  0.316837  0.795646  1
  Th  Th4  1  0.000000  0.500000  0.524720  1
  Th  Th5  1  0.500000  0.000000  0.475280  1
  Mn  Mn6  1  0.500000  0.500000  0.151821  1
  Mn  Mn7  1  0.000000  0.000000  0.848179  1
  Co  Co8  1  0.500000  0.500000  0.698978  1
  Co  Co9  1  0.000000  0.000000  0.301022  1
  Co  Co10  1  0.000000  0.500000  0.986982  1
  Co  Co11  1  0.500000  0.000000  0.013018  1
  Co  Co12  1  0.500000  0.333442  0.995881  1
  Co  Co13  1  0.500000  0.666558  0.995881  1
  Co  Co14  1  0.000000  0.166558  0.004119  1
  Co  Co15  1  0.000000  0.833442  0.004119  1
  Co  Co16  1  0.500000  0.298948  0.430973  1
  Co  Co17  1  0.500000  0.701052  0.430973  1
  Co  Co18  1  0.000000  0.201052  0.569027  1
  Co  Co19  1  0.000000  0.798948  0.569027  1
  Co  Co20  1  0.500000  0.881181  0.710209  1
  Co  Co21  1  0.500000  0.118819  0.710209  1
  Co  Co22  1  0.000000  0.618819  0.289791  1
  Co  Co23  1  0.000000  0.381181  0.289791  1
  P  P24  1  0.500000  0.500000  0.885451  1
  P  P25  1  0.000000  0.000000  0.114549  1
  P  P26  1  0.500000  0.500000  0.341377  1
  P  P27  1  0.000000  0.000000  0.658623  1
  P  P28  1  0.500000  0.303803  0.614811  1
  P  P29  1  0.500000  0.696197  0.614811  1
  P  P30  1  0.000000  0.196197  0.385189  1
  P  P31  1  0.000000  0.803803  0.385189  1
  P  P32  1  0.500000  0.846908  0.896376  1
  P  P33  1  0.500000  0.153092  0.896376  1
  P  P34  1  0.000000  0.653092  0.103624  1
  P  P35  1  0.000000  0.346908  0.103624  1
