# generated using pymatgen
data_Hf7Sc3(In2Rh)4
_symmetry_space_group_name_H-M   'P 1'
_cell_length_a   17.51241846
_cell_length_b   7.69112585
_cell_length_c   3.36796600
_cell_angle_alpha   90.00000000
_cell_angle_beta   90.00000000
_cell_angle_gamma   89.81655483
_symmetry_Int_Tables_number   1
_chemical_formula_structural   Hf7Sc3(In2Rh)4
_chemical_formula_sum   'Hf7 Sc3 In8 Rh4'
_cell_volume   453.62973704
_cell_formula_units_Z   1
loop_
 _symmetry_equiv_pos_site_id
 _symmetry_equiv_pos_as_xyz
  1  'x, y, z'
loop_
 _atom_site_type_symbol
 _atom_site_label
 _atom_site_symmetry_multiplicity
 _atom_site_fract_x
 _atom_site_fract_y
 _atom_site_fract_z
 _atom_site_occupancy
  Hf  Hf0  1  0.417746  0.129837  0.000000  1
  Hf  Hf1  1  0.582446  0.869863  0.000000  1
  Hf  Hf2  1  0.917772  0.368601  0.000000  1
  Hf  Hf3  1  0.082034  0.630617  0.000000  1
  Hf  Hf4  1  0.222142  0.257956  0.000000  1
  Hf  Hf5  1  0.777655  0.743097  0.000000  1
  Hf  Hf6  1  0.722122  0.244198  0.000000  1
  Sc  Sc7  1  0.000293  0.000548  0.000000  1
  Sc  Sc8  1  0.499832  0.500557  0.000000  1
  Sc  Sc9  1  0.278963  0.756364  0.000000  1
  In  In10  1  0.565656  0.202318  0.499999  1
  In  In11  1  0.433851  0.798650  0.499999  1
  In  In12  1  0.065578  0.296956  0.499999  1
  In  In13  1  0.934181  0.701922  0.499999  1
  In  In14  1  0.851213  0.064351  0.499999  1
  In  In15  1  0.150117  0.933461  0.499999  1
  In  In16  1  0.350734  0.436423  0.499999  1
  In  In17  1  0.648583  0.564529  0.499999  1
  Rh  Rh18  1  0.307259  0.049383  0.499999  1
  Rh  Rh19  1  0.693641  0.955979  0.499999  1
  Rh  Rh20  1  0.806541  0.455462  0.499999  1
  Rh  Rh21  1  0.191642  0.538931  0.499999  1
