# generated using pymatgen
data_Dy6Ho4(SnBi)3
_symmetry_space_group_name_H-M   'P 1'
_cell_length_a   9.06809100
_cell_length_b   9.06689068
_cell_length_c   6.44354000
_cell_angle_alpha   90.00000000
_cell_angle_beta   90.00000000
_cell_angle_gamma   120.00436840
_symmetry_Int_Tables_number   1
_chemical_formula_structural   Dy6Ho4(SnBi)3
_chemical_formula_sum   'Dy6 Ho4 Sn3 Bi3'
_cell_volume   458.78614185
_cell_formula_units_Z   1
loop_
 _symmetry_equiv_pos_site_id
 _symmetry_equiv_pos_as_xyz
  1  'x, y, z'
loop_
 _atom_site_type_symbol
 _atom_site_label
 _atom_site_symmetry_multiplicity
 _atom_site_fract_x
 _atom_site_fract_y
 _atom_site_fract_z
 _atom_site_occupancy
  Dy  Dy0  1  0.995137  0.756744  0.750000  1
  Dy  Dy1  1  0.995124  0.235297  0.250000  1
  Dy  Dy2  1  0.759827  0.764703  0.250000  1
  Dy  Dy3  1  0.763218  0.000000  0.750000  1
  Dy  Dy4  1  0.238391  0.243256  0.750000  1
  Dy  Dy5  1  0.242095  0.000000  0.250000  1
  Ho  Ho6  1  0.335164  0.666544  0.501765  1
  Ho  Ho7  1  0.668622  0.333456  0.998235  1
  Ho  Ho8  1  0.668622  0.333456  0.501765  1
  Ho  Ho9  1  0.335164  0.666544  0.998235  1
  Sn  Sn10  1  0.000694  0.394391  0.750000  1
  Sn  Sn11  1  0.606303  0.605609  0.750000  1
  Sn  Sn12  1  0.605044  0.000000  0.250000  1
  Bi  Bi13  1  0.392255  0.000000  0.750000  1
  Bi  Bi14  1  0.393641  0.392943  0.250000  1
  Bi  Bi15  1  0.000698  0.607057  0.250000  1
