# generated using pymatgen
data_ErHf7Ta10(TiSi8)2
_symmetry_space_group_name_H-M   'P 1'
_cell_length_a   6.85715502
_cell_length_b   6.84932197
_cell_length_c   12.67129312
_cell_angle_alpha   89.98551267
_cell_angle_beta   89.99617300
_cell_angle_gamma   89.94689199
_symmetry_Int_Tables_number   1
_chemical_formula_structural   ErHf7Ta10(TiSi8)2
_chemical_formula_sum   'Er1 Hf7 Ta10 Ti2 Si16'
_cell_volume   595.13060607
_cell_formula_units_Z   1
loop_
 _symmetry_equiv_pos_site_id
 _symmetry_equiv_pos_as_xyz
  1  'x, y, z'
loop_
 _atom_site_type_symbol
 _atom_site_label
 _atom_site_symmetry_multiplicity
 _atom_site_fract_x
 _atom_site_fract_y
 _atom_site_fract_z
 _atom_site_occupancy
  Er  Er0  1  0.996856  0.661502  0.030338  1
  Hf  Hf1  1  0.341648  0.998748  0.469644  1
  Hf  Hf2  1  0.501793  0.840346  0.719020  1
  Hf  Hf3  1  0.497195  0.160219  0.220760  1
  Hf  Hf4  1  0.841252  0.502458  0.281935  1
  Hf  Hf5  1  0.160620  0.497005  0.780611  1
  Hf  Hf6  1  0.654973  0.002069  0.968507  1
  Hf  Hf7  1  0.998545  0.339903  0.529831  1
  Ta  Ta8  1  0.332799  0.327789  0.999624  1
  Ta  Ta9  1  0.170464  0.830816  0.251837  1
  Ta  Ta10  1  0.830745  0.170465  0.749294  1
  Ta  Ta11  1  0.669478  0.670814  0.499900  1
  Ta  Ta12  1  0.155894  0.003256  0.870894  1
  Ta  Ta13  1  0.497138  0.652019  0.124790  1
  Ta  Ta14  1  0.502694  0.348434  0.622913  1
  Ta  Ta15  1  0.652552  0.493042  0.874451  1
  Ta  Ta16  1  0.347897  0.503895  0.377595  1
  Ta  Ta17  1  0.847797  0.996762  0.374619  1
  Ti  Ti18  1  0.005014  0.152614  0.127388  1
  Ti  Ti19  1  0.994925  0.848126  0.625629  1
  Si  Si20  1  0.205169  0.133301  0.675036  1
  Si  Si21  1  0.366130  0.706485  0.926377  1
  Si  Si22  1  0.637475  0.293353  0.427018  1
  Si  Si23  1  0.707178  0.357287  0.074010  1
  Si  Si24  1  0.290072  0.640172  0.574768  1
  Si  Si25  1  0.792060  0.870560  0.178342  1
  Si  Si26  1  0.136054  0.206577  0.322000  1
  Si  Si27  1  0.862861  0.795478  0.819339  1
  Si  Si28  1  0.297117  0.958236  0.064950  1
  Si  Si29  1  0.542966  0.800438  0.313936  1
  Si  Si30  1  0.455852  0.200458  0.812151  1
  Si  Si31  1  0.802597  0.545719  0.684936  1
  Si  Si32  1  0.199785  0.452899  0.186594  1
  Si  Si33  1  0.703332  0.043006  0.564725  1
  Si  Si34  1  0.956797  0.293743  0.937728  1
  Si  Si35  1  0.044275  0.702010  0.438512  1
