# generated using pymatgen
data_La12CdNi5Ru
_symmetry_space_group_name_H-M   'P 1'
_cell_length_a   8.91850837
_cell_length_b   8.91850780
_cell_length_c   8.91850800
_cell_angle_alpha   110.21897197
_cell_angle_beta   109.02426297
_cell_angle_gamma   109.17305808
_symmetry_Int_Tables_number   1
_chemical_formula_structural   La12CdNi5Ru
_chemical_formula_sum   'La12 Cd1 Ni5 Ru1'
_cell_volume   546.00730034
_cell_formula_units_Z   1
loop_
 _symmetry_equiv_pos_site_id
 _symmetry_equiv_pos_as_xyz
  1  'x, y, z'
loop_
 _atom_site_type_symbol
 _atom_site_label
 _atom_site_symmetry_multiplicity
 _atom_site_fract_x
 _atom_site_fract_y
 _atom_site_fract_z
 _atom_site_occupancy
  La  La0  1  0.818775  0.686319  0.506108  1
  La  La1  1  0.180210  0.312665  0.493892  1
  La  La2  1  0.180210  0.686319  0.867546  1
  La  La3  1  0.818775  0.312665  0.132454  1
  La  La4  1  0.693675  0.508040  0.814365  1
  La  La5  1  0.312609  0.497310  0.184701  1
  La  La6  1  0.693675  0.879310  0.185635  1
  La  La7  1  0.312609  0.127908  0.815299  1
  La  La8  1  0.506676  0.817859  0.688817  1
  La  La9  1  0.489631  0.183086  0.306544  1
  La  La10  1  0.129041  0.817859  0.311183  1
  La  La11  1  0.876542  0.183086  0.693456  1
  Cd  Cd12  1  0.999076  0.999076  0.000000  1
  Ni  Ni13  1  0.129227  0.629227  0.500000  1
  Ni  Ni14  1  0.381793  0.504651  0.877142  1
  Ni  Ni15  1  0.627508  0.504651  0.122858  1
  Ni  Ni16  1  0.498555  0.872205  0.373650  1
  Ni  Ni17  1  0.498555  0.124905  0.626350  1
  Ru  Ru18  1  0.852856  0.352856  0.500000  1
