# generated using pymatgen
data_Y9TmCo4
_symmetry_space_group_name_H-M   'P 1'
_cell_length_a   6.32598161
_cell_length_b   6.92357832
_cell_length_c   8.57247000
_cell_angle_alpha   96.23337620
_cell_angle_beta   111.65215871
_cell_angle_gamma   90.00000147
_symmetry_Int_Tables_number   1
_chemical_formula_structural   Y9TmCo4
_chemical_formula_sum   'Y9 Tm1 Co4'
_cell_volume   346.57917693
_cell_formula_units_Z   1
loop_
 _symmetry_equiv_pos_site_id
 _symmetry_equiv_pos_as_xyz
  1  'x, y, z'
loop_
 _atom_site_type_symbol
 _atom_site_label
 _atom_site_symmetry_multiplicity
 _atom_site_fract_x
 _atom_site_fract_y
 _atom_site_fract_z
 _atom_site_occupancy
  Y  Y0  1  0.794563  0.086863  0.812261  1
  Y  Y1  1  0.982302  0.413137  0.187739  1
  Y  Y2  1  0.204277  0.911021  0.187721  1
  Y  Y3  1  0.016554  0.588979  0.812279  1
  Y  Y4  1  0.216113  0.183796  0.567363  1
  Y  Y5  1  0.648750  0.316204  0.432637  1
  Y  Y6  1  0.783771  0.815823  0.430924  1
  Y  Y7  1  0.352847  0.684177  0.569076  1
  Y  Y8  1  0.428728  0.250000  0.000000  1
  Tm  Tm9  1  0.569189  0.750000  0.000000  1
  Co  Co10  1  0.602244  0.430487  0.782208  1
  Co  Co11  1  0.820035  0.069513  0.217792  1
  Co  Co12  1  0.399485  0.571966  0.218342  1
  Co  Co13  1  0.181143  0.928034  0.781658  1
