# generated using pymatgen
data_LuNi4
_symmetry_space_group_name_H-M   'P 1'
_cell_length_a   4.80718623
_cell_length_b   4.81130153
_cell_length_c   10.10718955
_cell_angle_alpha   85.37041706
_cell_angle_beta   80.70204490
_cell_angle_gamma   60.02376949
_symmetry_Int_Tables_number   1
_chemical_formula_structural   LuNi4
_chemical_formula_sum   'Lu3 Ni12'
_cell_volume   199.83646342
_cell_formula_units_Z   3
loop_
 _symmetry_equiv_pos_site_id
 _symmetry_equiv_pos_as_xyz
  1  'x, y, z'
loop_
 _atom_site_type_symbol
 _atom_site_label
 _atom_site_symmetry_multiplicity
 _atom_site_fract_x
 _atom_site_fract_y
 _atom_site_fract_z
 _atom_site_occupancy
  Lu  Lu0  1  0.125975  0.000003  0.644438  1
  Lu  Lu1  1  0.000000  0.000000  0.000000  1
  Lu  Lu2  1  0.874025  0.999997  0.355562  1
  Ni  Ni3  1  0.568183  0.499316  0.801289  1
  Ni  Ni4  1  0.067497  0.500683  0.801288  1
  Ni  Ni5  1  0.431817  0.500684  0.198711  1
  Ni  Ni6  1  0.430455  0.000002  0.201090  1
  Ni  Ni7  1  0.932503  0.499317  0.198712  1
  Ni  Ni8  1  0.665138  0.669721  0.000000  1
  Ni  Ni9  1  0.569545  0.999998  0.798910  1
  Ni  Ni10  1  0.193782  0.340585  0.405811  1
  Ni  Ni11  1  0.806218  0.659415  0.594189  1
  Ni  Ni12  1  0.465630  0.340587  0.594190  1
  Ni  Ni13  1  0.534370  0.659413  0.405810  1
  Ni  Ni14  1  0.334862  0.330279  0.000000  1
