# generated using pymatgen
data_Ti11NbAl8(AuC)4
_symmetry_space_group_name_H-M   'P 1'
_cell_length_a   8.31935714
_cell_length_b   8.31929996
_cell_length_c   8.32025801
_cell_angle_alpha   59.99675994
_cell_angle_beta   59.99714550
_cell_angle_gamma   60.12829364
_symmetry_Int_Tables_number   1
_chemical_formula_structural   Ti11NbAl8(AuC)4
_chemical_formula_sum   'Ti11 Nb1 Al8 Au4 C4'
_cell_volume   407.56569155
_cell_formula_units_Z   1
loop_
 _symmetry_equiv_pos_site_id
 _symmetry_equiv_pos_as_xyz
  1  'x, y, z'
loop_
 _atom_site_type_symbol
 _atom_site_label
 _atom_site_symmetry_multiplicity
 _atom_site_fract_x
 _atom_site_fract_y
 _atom_site_fract_z
 _atom_site_occupancy
  Ti  Ti0  1  0.681314  0.318863  0.318122  1
  Ti  Ti1  1  0.318911  0.681321  0.681679  1
  Ti  Ti2  1  0.681430  0.681447  0.318581  1
  Ti  Ti3  1  0.681280  0.318925  0.681652  1
  Ti  Ti4  1  0.318895  0.681303  0.318128  1
  Ti  Ti5  1  0.569660  0.930458  0.567800  1
  Ti  Ti6  1  0.569630  0.930522  0.932095  1
  Ti  Ti7  1  0.930486  0.569613  0.567771  1
  Ti  Ti8  1  0.930486  0.569643  0.932092  1
  Ti  Ti9  1  0.318490  0.318464  0.681516  1
  Ti  Ti10  1  0.568236  0.568217  0.931753  1
  Nb  Nb11  1  0.931638  0.931652  0.568360  1
  Al  Al12  1  0.912866  0.260436  0.913349  1
  Al  Al13  1  0.336812  0.336808  0.990236  1
  Al  Al14  1  0.989822  0.336358  0.336913  1
  Al  Al15  1  0.336808  0.336801  0.336146  1
  Al  Al16  1  0.260432  0.912870  0.913345  1
  Al  Al17  1  0.913257  0.913263  0.915101  1
  Al  Al18  1  0.913248  0.913253  0.258406  1
  Al  Al19  1  0.336344  0.989857  0.336905  1
  Au  Au20  1  0.125039  0.624820  0.125065  1
  Au  Au21  1  0.125608  0.125603  0.625415  1
  Au  Au22  1  0.624816  0.125038  0.125072  1
  Au  Au23  1  0.125611  0.125605  0.123371  1
  C  C24  1  0.619637  0.128542  0.625909  1
  C  C25  1  0.625349  0.625346  0.124123  1
  C  C26  1  0.128543  0.619637  0.625913  1
  C  C27  1  0.625351  0.625336  0.625181  1
