# generated using pymatgen
data_Hf4Al2VRe5
_symmetry_space_group_name_H-M   'P 1'
_cell_length_a   5.25704400
_cell_length_b   5.22533696
_cell_length_c   8.55225500
_cell_angle_alpha   90.00000000
_cell_angle_beta   90.00000000
_cell_angle_gamma   120.20091701
_symmetry_Int_Tables_number   1
_chemical_formula_structural   Hf4Al2VRe5
_chemical_formula_sum   'Hf4 Al2 V1 Re5'
_cell_volume   203.04128861
_cell_formula_units_Z   1
loop_
 _symmetry_equiv_pos_site_id
 _symmetry_equiv_pos_as_xyz
  1  'x, y, z'
loop_
 _atom_site_type_symbol
 _atom_site_label
 _atom_site_symmetry_multiplicity
 _atom_site_fract_x
 _atom_site_fract_y
 _atom_site_fract_z
 _atom_site_occupancy
  Hf  Hf0  1  0.333978  0.667956  0.434410  1
  Hf  Hf1  1  0.667303  0.334604  0.935216  1
  Hf  Hf2  1  0.667303  0.334604  0.564784  1
  Hf  Hf3  1  0.333978  0.667956  0.065590  1
  Al  Al4  1  0.001979  0.003958  0.997182  1
  Al  Al5  1  0.001979  0.003958  0.502818  1
  V  V6  1  0.169972  0.339948  0.750000  1
  Re  Re7  1  0.829464  0.169435  0.250000  1
  Re  Re8  1  0.339973  0.169435  0.250000  1
  Re  Re9  1  0.655742  0.824538  0.750000  1
  Re  Re10  1  0.829536  0.659069  0.250000  1
  Re  Re11  1  0.168793  0.824538  0.750000  1
