# generated using pymatgen
data_Dy3LuAl18Ir5Au
_symmetry_space_group_name_H-M   'P 1'
_cell_length_a   7.58140883
_cell_length_b   7.58280902
_cell_length_c   9.45505423
_cell_angle_alpha   89.95207045
_cell_angle_beta   89.99592989
_cell_angle_gamma   119.55618165
_symmetry_Int_Tables_number   1
_chemical_formula_structural   Dy3LuAl18Ir5Au
_chemical_formula_sum   'Dy3 Lu1 Al18 Ir5 Au1'
_cell_volume   472.82388370
_cell_formula_units_Z   1
loop_
 _symmetry_equiv_pos_site_id
 _symmetry_equiv_pos_as_xyz
  1  'x, y, z'
loop_
 _atom_site_type_symbol
 _atom_site_label
 _atom_site_symmetry_multiplicity
 _atom_site_fract_x
 _atom_site_fract_y
 _atom_site_fract_z
 _atom_site_occupancy
  Dy  Dy0  1  0.996057  0.674195  0.250985  1
  Dy  Dy1  1  0.004227  0.325845  0.749100  1
  Dy  Dy2  1  0.673712  0.995925  0.250922  1
  Lu  Lu3  1  0.325839  0.003956  0.748085  1
  Al  Al4  1  0.136004  0.135723  0.256346  1
  Al  Al5  1  0.865148  0.864486  0.744009  1
  Al  Al6  1  0.002023  0.344479  0.078752  1
  Al  Al7  1  0.999094  0.656900  0.920093  1
  Al  Al8  1  0.000772  0.665376  0.574986  1
  Al  Al9  1  0.335687  0.000355  0.427366  1
  Al  Al10  1  0.000326  0.335637  0.426289  1
  Al  Al11  1  0.663333  0.999643  0.574935  1
  Al  Al12  1  0.654385  0.998133  0.919903  1
  Al  Al13  1  0.344147  0.002005  0.077641  1
  Al  Al14  1  0.333553  0.332660  0.553602  1
  Al  Al15  1  0.666558  0.666508  0.448012  1
  Al  Al16  1  0.657424  0.657421  0.058656  1
  Al  Al17  1  0.342300  0.341307  0.939758  1
  Al  Al18  1  0.339195  0.550050  0.251246  1
  Al  Al19  1  0.659847  0.448676  0.748787  1
  Al  Al20  1  0.549918  0.338912  0.251217  1
  Al  Al21  1  0.449775  0.661607  0.748849  1
  Ir  Ir22  1  0.671834  0.327878  0.999441  1
  Ir  Ir23  1  0.327991  0.672087  0.999418  1
  Ir  Ir24  1  0.328043  0.671870  0.500471  1
  Ir  Ir25  1  0.671706  0.327929  0.500686  1
  Ir  Ir26  1  0.000851  0.000324  0.500812  1
  Au  Au27  1  0.000251  0.000112  0.999633  1
