# generated using pymatgen
data_Tb10AlZnCo10
_symmetry_space_group_name_H-M   'P 1'
_cell_length_a   5.47740010
_cell_length_b   5.47740022
_cell_length_c   20.63506823
_cell_angle_alpha   89.71157904
_cell_angle_beta   90.28842028
_cell_angle_gamma   136.74954718
_symmetry_Int_Tables_number   1
_chemical_formula_structural   Tb10AlZnCo10
_chemical_formula_sum   'Tb10 Al1 Zn1 Co10'
_cell_volume   424.18831786
_cell_formula_units_Z   1
loop_
 _symmetry_equiv_pos_site_id
 _symmetry_equiv_pos_as_xyz
  1  'x, y, z'
loop_
 _atom_site_type_symbol
 _atom_site_label
 _atom_site_symmetry_multiplicity
 _atom_site_fract_x
 _atom_site_fract_y
 _atom_site_fract_z
 _atom_site_occupancy
  Tb  Tb0  1  0.289180  0.710820  0.250689  1
  Tb  Tb1  1  0.291429  0.708571  0.066162  1
  Tb  Tb2  1  0.997298  0.002702  0.842459  1
  Tb  Tb3  1  0.710820  0.289180  0.749311  1
  Tb  Tb4  1  0.707282  0.292718  0.565106  1
  Tb  Tb5  1  0.002953  0.997047  0.344037  1
  Tb  Tb6  1  0.997047  0.002953  0.655963  1
  Tb  Tb7  1  0.708571  0.291429  0.933838  1
  Tb  Tb8  1  0.002702  0.997298  0.157541  1
  Tb  Tb9  1  0.292718  0.707282  0.434894  1
  Al  Al10  1  0.000000  0.000000  0.000000  1
  Zn  Zn11  1  0.000000  0.000000  0.500000  1
  Co  Co12  1  0.293788  0.706212  0.654450  1
  Co  Co13  1  0.584584  0.415416  0.440269  1
  Co  Co14  1  0.412216  0.587784  0.749981  1
  Co  Co15  1  0.419297  0.580703  0.941852  1
  Co  Co16  1  0.587784  0.412216  0.250019  1
  Co  Co17  1  0.415416  0.584584  0.559731  1
  Co  Co18  1  0.706212  0.293788  0.345550  1
  Co  Co19  1  0.704989  0.295011  0.154284  1
  Co  Co20  1  0.580703  0.419297  0.058148  1
  Co  Co21  1  0.295011  0.704989  0.845716  1
