# generated using pymatgen
data_ZrNi4Rh
_symmetry_space_group_name_H-M   'P 1'
_cell_length_a   4.77986621
_cell_length_b   4.77954519
_cell_length_c   4.77954500
_cell_angle_alpha   59.99999436
_cell_angle_beta   60.00221606
_cell_angle_gamma   60.00221455
_symmetry_Int_Tables_number   1
_chemical_formula_structural   ZrNi4Rh
_chemical_formula_sum   'Zr1 Ni4 Rh1'
_cell_volume   77.21263839
_cell_formula_units_Z   1
loop_
 _symmetry_equiv_pos_site_id
 _symmetry_equiv_pos_as_xyz
  1  'x, y, z'
loop_
 _atom_site_type_symbol
 _atom_site_label
 _atom_site_symmetry_multiplicity
 _atom_site_fract_x
 _atom_site_fract_y
 _atom_site_fract_z
 _atom_site_occupancy
  Zr  Zr0  1  0.000001  0.000000  0.000000  1
  Ni  Ni1  1  0.376002  0.376002  0.376002  1
  Ni  Ni2  1  0.872003  0.375999  0.375999  1
  Ni  Ni3  1  0.376002  0.871994  0.376002  1
  Ni  Ni4  1  0.376002  0.376002  0.871994  1
  Rh  Rh5  1  0.749989  0.750004  0.750004  1
