# generated using pymatgen
data_DyYAl8Co3Si
_symmetry_space_group_name_H-M   'P 1'
_cell_length_a   7.35560708
_cell_length_b   7.35486296
_cell_length_c   9.19068500
_cell_angle_alpha   90.00000000
_cell_angle_beta   90.00000000
_cell_angle_gamma   119.25661472
_symmetry_Int_Tables_number   1
_chemical_formula_structural   DyYAl8Co3Si
_chemical_formula_sum   'Dy2 Y2 Al16 Co6 Si2'
_cell_volume   433.78682143
_cell_formula_units_Z   2
loop_
 _symmetry_equiv_pos_site_id
 _symmetry_equiv_pos_as_xyz
  1  'x, y, z'
loop_
 _atom_site_type_symbol
 _atom_site_label
 _atom_site_symmetry_multiplicity
 _atom_site_fract_x
 _atom_site_fract_y
 _atom_site_fract_z
 _atom_site_occupancy
  Dy  Dy0  1  0.993648  0.677112  0.250000  1
  Dy  Dy1  1  0.006352  0.322888  0.750000  1
  Y  Y2  1  0.677014  0.993554  0.250000  1
  Y  Y3  1  0.322986  0.006446  0.750000  1
  Al  Al4  1  0.334381  0.334483  0.546125  1
  Al  Al5  1  0.665619  0.665517  0.046125  1
  Al  Al6  1  0.334381  0.334483  0.953875  1
  Al  Al7  1  0.665619  0.665517  0.453875  1
  Al  Al8  1  0.336238  0.554892  0.250000  1
  Al  Al9  1  0.663762  0.445108  0.750000  1
  Al  Al10  1  0.555129  0.336693  0.250000  1
  Al  Al11  1  0.444871  0.663307  0.750000  1
  Al  Al12  1  0.999198  0.336632  0.073024  1
  Al  Al13  1  0.000802  0.663368  0.573024  1
  Al  Al14  1  0.336404  0.999067  0.426863  1
  Al  Al15  1  0.663596  0.000933  0.926863  1
  Al  Al16  1  0.000802  0.663368  0.926976  1
  Al  Al17  1  0.999198  0.336632  0.426976  1
  Al  Al18  1  0.663596  0.000933  0.573137  1
  Al  Al19  1  0.336404  0.999067  0.073137  1
  Co  Co20  1  0.000000  0.000000  0.000000  1
  Co  Co21  1  0.000000  0.000000  0.500000  1
  Co  Co22  1  0.671076  0.329074  0.000004  1
  Co  Co23  1  0.328924  0.670926  0.500004  1
  Co  Co24  1  0.328924  0.670926  0.999996  1
  Co  Co25  1  0.671076  0.329074  0.499996  1
  Si  Si26  1  0.124598  0.124343  0.250000  1
  Si  Si27  1  0.875402  0.875657  0.750000  1
