# generated using pymatgen
data_YErMgB2Rh5
_symmetry_space_group_name_H-M   'P 1'
_cell_length_a   9.64147065
_cell_length_b   9.64147065
_cell_length_c   3.18665600
_cell_angle_alpha   90.00000000
_cell_angle_beta   90.00000000
_cell_angle_gamma   89.75160938
_symmetry_Int_Tables_number   1
_chemical_formula_structural   YErMgB2Rh5
_chemical_formula_sum   'Y2 Er2 Mg2 B4 Rh10'
_cell_volume   296.22224555
_cell_formula_units_Z   2
loop_
 _symmetry_equiv_pos_site_id
 _symmetry_equiv_pos_as_xyz
  1  'x, y, z'
loop_
 _atom_site_type_symbol
 _atom_site_label
 _atom_site_symmetry_multiplicity
 _atom_site_fract_x
 _atom_site_fract_y
 _atom_site_fract_z
 _atom_site_occupancy
  Y  Y0  1  0.675665  0.175665  0.000000  1
  Y  Y1  1  0.324335  0.824335  0.000000  1
  Er  Er2  1  0.175471  0.324529  0.000000  1
  Er  Er3  1  0.824529  0.675471  0.000000  1
  Mg  Mg4  1  0.000000  0.000000  0.000000  1
  Mg  Mg5  1  0.500000  0.500000  0.000000  1
  B  B6  1  0.122578  0.622578  0.000000  1
  B  B7  1  0.877422  0.377422  0.000000  1
  B  B8  1  0.622994  0.877006  0.000000  1
  B  B9  1  0.377006  0.122994  0.000000  1
  Rh  Rh10  1  0.500000  0.000000  0.500000  1
  Rh  Rh11  1  0.000000  0.500000  0.500000  1
  Rh  Rh12  1  0.223419  0.072064  0.500000  1
  Rh  Rh13  1  0.776581  0.927936  0.500000  1
  Rh  Rh14  1  0.069051  0.775324  0.500000  1
  Rh  Rh15  1  0.724676  0.430949  0.500000  1
  Rh  Rh16  1  0.930949  0.224676  0.500000  1
  Rh  Rh17  1  0.275324  0.569051  0.500000  1
  Rh  Rh18  1  0.572064  0.723419  0.500000  1
  Rh  Rh19  1  0.427936  0.276581  0.500000  1
