# generated using pymatgen
data_TbHo3InPt11
_symmetry_space_group_name_H-M   'P 1'
_cell_length_a   4.18498800
_cell_length_b   5.86375693
_cell_length_c   11.66173021
_cell_angle_alpha   88.06468442
_cell_angle_beta   90.00000000
_cell_angle_gamma   90.00000000
_symmetry_Int_Tables_number   1
_chemical_formula_structural   TbHo3InPt11
_chemical_formula_sum   'Tb1 Ho3 In1 Pt11'
_cell_volume   286.01273428
_cell_formula_units_Z   1
loop_
 _symmetry_equiv_pos_site_id
 _symmetry_equiv_pos_as_xyz
  1  'x, y, z'
loop_
 _atom_site_type_symbol
 _atom_site_label
 _atom_site_symmetry_multiplicity
 _atom_site_fract_x
 _atom_site_fract_y
 _atom_site_fract_z
 _atom_site_occupancy
  Tb  Tb0  1  0.500000  0.754681  0.375986  1
  Ho  Ho1  1  0.500000  0.719133  0.862128  1
  Ho  Ho2  1  0.500000  0.280678  0.137703  1
  Ho  Ho3  1  0.500000  0.245263  0.624277  1
  In  In4  1  0.000000  0.000587  0.999620  1
  Pt  Pt5  1  0.000000  0.013541  0.248762  1
  Pt  Pt6  1  0.000000  0.987048  0.750711  1
  Pt  Pt7  1  0.000000  0.499743  0.999876  1
  Pt  Pt8  1  0.000000  0.499260  0.500675  1
  Pt  Pt9  1  0.000000  0.514643  0.249428  1
  Pt  Pt10  1  0.000000  0.484485  0.750232  1
  Pt  Pt11  1  0.500000  0.252996  0.377850  1
  Pt  Pt12  1  0.500000  0.230258  0.880932  1
  Pt  Pt13  1  0.500000  0.770064  0.118229  1
  Pt  Pt14  1  0.500000  0.747046  0.622945  1
  Pt  Pt15  1  0.000000  0.000575  0.500646  1
