# generated using pymatgen
data_DyLu3Cd3Ni2
_symmetry_space_group_name_H-M   'P 1'
_cell_length_a   3.55357100
_cell_length_b   7.31438467
_cell_length_c   7.99618613
_cell_angle_alpha   71.80271809
_cell_angle_beta   90.00000000
_cell_angle_gamma   90.00000000
_symmetry_Int_Tables_number   1
_chemical_formula_structural   DyLu3Cd3Ni2
_chemical_formula_sum   'Dy1 Lu3 Cd3 Ni2'
_cell_volume   197.44370416
_cell_formula_units_Z   1
loop_
 _symmetry_equiv_pos_site_id
 _symmetry_equiv_pos_as_xyz
  1  'x, y, z'
loop_
 _atom_site_type_symbol
 _atom_site_label
 _atom_site_symmetry_multiplicity
 _atom_site_fract_x
 _atom_site_fract_y
 _atom_site_fract_z
 _atom_site_occupancy
  Dy  Dy0  1  0.500000  0.606691  0.683932  1
  Lu  Lu1  1  0.500000  0.916279  0.218313  1
  Lu  Lu2  1  0.500000  0.083707  0.779859  1
  Lu  Lu3  1  0.500000  0.395432  0.319600  1
  Cd  Cd4  1  0.000000  0.703627  0.006856  1
  Cd  Cd5  1  0.000000  0.291517  0.000039  1
  Cd  Cd6  1  0.000000  0.003815  0.495960  1
  Ni  Ni7  1  0.000000  0.658364  0.387176  1
  Ni  Ni8  1  0.000000  0.340567  0.608264  1
