# generated using pymatgen
data_Tb3SmCo6(Ni4B3)2
_symmetry_space_group_name_H-M   'P 1'
_cell_length_a   5.02573201
_cell_length_b   5.02368292
_cell_length_c   12.96263602
_cell_angle_alpha   90.00407297
_cell_angle_beta   89.99318874
_cell_angle_gamma   119.98675609
_symmetry_Int_Tables_number   1
_chemical_formula_structural   Tb3SmCo6(Ni4B3)2
_chemical_formula_sum   'Tb3 Sm1 Co6 Ni8 B6'
_cell_volume   283.46761230
_cell_formula_units_Z   1
loop_
 _symmetry_equiv_pos_site_id
 _symmetry_equiv_pos_as_xyz
  1  'x, y, z'
loop_
 _atom_site_type_symbol
 _atom_site_label
 _atom_site_symmetry_multiplicity
 _atom_site_fract_x
 _atom_site_fract_y
 _atom_site_fract_z
 _atom_site_occupancy
  Tb  Tb0  1  0.999921  0.999944  0.499969  1
  Tb  Tb1  1  0.000250  0.000046  0.263595  1
  Tb  Tb2  1  0.000159  0.000013  0.736390  1
  Sm  Sm3  1  0.999951  0.999945  0.999980  1
  Co  Co4  1  0.500007  0.000053  0.383941  1
  Co  Co5  1  0.499985  0.499912  0.383927  1
  Co  Co6  1  0.999811  0.499882  0.384002  1
  Co  Co7  1  0.500027  0.000101  0.615997  1
  Co  Co8  1  0.500011  0.499892  0.615999  1
  Co  Co9  1  0.999783  0.499869  0.615975  1
  Ni  Ni10  1  0.334355  0.666657  0.000226  1
  Ni  Ni11  1  0.665029  0.333026  0.000054  1
  Ni  Ni12  1  0.500631  0.999817  0.158570  1
  Ni  Ni13  1  0.500237  0.500482  0.158574  1
  Ni  Ni14  1  0.000179  0.500036  0.158467  1
  Ni  Ni15  1  0.500347  0.999832  0.841369  1
  Ni  Ni16  1  0.499854  0.500526  0.841527  1
  Ni  Ni17  1  0.000101  0.500104  0.841540  1
  B  B18  1  0.333369  0.666712  0.499971  1
  B  B19  1  0.666413  0.333175  0.499970  1
  B  B20  1  0.333269  0.666621  0.271448  1
  B  B21  1  0.666428  0.333315  0.271440  1
  B  B22  1  0.666321  0.333424  0.728566  1
  B  B23  1  0.333360  0.666616  0.728501  1
