# generated using pymatgen
data_Ho5P12Ir13Ru6
_symmetry_space_group_name_H-M   'P 1'
_cell_length_a   12.60847302
_cell_length_b   12.60156593
_cell_length_c   3.97443200
_cell_angle_alpha   90.00000000
_cell_angle_beta   90.00000000
_cell_angle_gamma   119.70575311
_symmetry_Int_Tables_number   1
_chemical_formula_structural   Ho5P12Ir13Ru6
_chemical_formula_sum   'Ho5 P12 Ir13 Ru6'
_cell_volume   548.49514268
_cell_formula_units_Z   1
loop_
 _symmetry_equiv_pos_site_id
 _symmetry_equiv_pos_as_xyz
  1  'x, y, z'
loop_
 _atom_site_type_symbol
 _atom_site_label
 _atom_site_symmetry_multiplicity
 _atom_site_fract_x
 _atom_site_fract_y
 _atom_site_fract_z
 _atom_site_occupancy
  Ho  Ho0  1  0.668018  0.333616  0.000000  1
  Ho  Ho1  1  0.332801  0.665309  0.000000  1
  Ho  Ho2  1  0.816731  0.001593  0.500000  1
  Ho  Ho3  1  0.183002  0.184209  0.500000  1
  Ho  Ho4  1  0.999352  0.815730  0.500000  1
  P  P5  1  0.644134  0.004454  0.000000  1
  P  P6  1  0.363377  0.363156  0.000000  1
  P  P7  1  0.999436  0.636448  0.000000  1
  P  P8  1  0.688411  0.519516  0.500000  1
  P  P9  1  0.829844  0.308441  0.500000  1
  P  P10  1  0.308926  0.828438  0.500000  1
  P  P11  1  0.519142  0.686958  0.500000  1
  P  P12  1  0.181251  0.000665  0.000000  1
  P  P13  1  0.819523  0.820306  0.000000  1
  P  P14  1  0.997479  0.180781  0.000000  1
  P  P15  1  0.480870  0.170763  0.500000  1
  P  P16  1  0.168277  0.480459  0.500000  1
  Ir  Ir17  1  0.624729  0.807710  0.000000  1
  Ir  Ir18  1  0.182254  0.375602  0.000000  1
  Ir  Ir19  1  0.377188  0.182121  0.000000  1
  Ir  Ir20  1  0.194302  0.817879  0.000000  1
  Ir  Ir21  1  0.805088  0.623864  0.000000  1
  Ir  Ir22  1  0.868215  0.506163  0.500000  1
  Ir  Ir23  1  0.492680  0.363016  0.500000  1
  Ir  Ir24  1  0.636815  0.129093  0.500000  1
  Ir  Ir25  1  0.128970  0.637690  0.500000  1
  Ir  Ir26  1  0.360595  0.491989  0.500000  1
  Ir  Ir27  1  0.504376  0.865327  0.500000  1
  Ir  Ir28  1  0.000367  0.000040  0.000000  1
  Ir  Ir29  1  0.457903  0.997730  0.000000  1
  Ru  Ru30  1  0.713505  0.713853  0.500000  1
  Ru  Ru31  1  0.001644  0.288220  0.500000  1
  Ru  Ru32  1  0.544339  0.546847  0.000000  1
  Ru  Ru33  1  0.000869  0.454373  0.000000  1
  Ru  Ru34  1  0.819233  0.197441  0.000000  1
  Ru  Ru35  1  0.286353  0.000199  0.500000  1
