# generated using pymatgen
data_MgAl5(Pd2Pt3)2
_symmetry_space_group_name_H-M   'P 1'
_cell_length_a   4.10244900
_cell_length_b   5.45660047
_cell_length_c   10.66545648
_cell_angle_alpha   89.63416353
_cell_angle_beta   90.00000000
_cell_angle_gamma   90.00000000
_symmetry_Int_Tables_number   1
_chemical_formula_structural   MgAl5(Pd2Pt3)2
_chemical_formula_sum   'Mg1 Al5 Pd4 Pt6'
_cell_volume   238.74591103
_cell_formula_units_Z   1
loop_
 _symmetry_equiv_pos_site_id
 _symmetry_equiv_pos_as_xyz
  1  'x, y, z'
loop_
 _atom_site_type_symbol
 _atom_site_label
 _atom_site_symmetry_multiplicity
 _atom_site_fract_x
 _atom_site_fract_y
 _atom_site_fract_z
 _atom_site_occupancy
  Mg  Mg0  1  0.500000  0.167349  0.359946  1
  Al  Al1  1  0.000000  0.998074  0.000593  1
  Al  Al2  1  0.000000  0.488177  0.497460  1
  Al  Al3  1  0.500000  0.837879  0.641611  1
  Al  Al4  1  0.500000  0.670232  0.145595  1
  Al  Al5  1  0.500000  0.332851  0.858767  1
  Pd  Pd6  1  0.000000  0.985269  0.507249  1
  Pd  Pd7  1  0.000000  0.501360  0.996367  1
  Pd  Pd8  1  0.000000  0.418212  0.258933  1
  Pd  Pd9  1  0.000000  0.595413  0.731220  1
  Pt  Pt10  1  0.500000  0.197092  0.101127  1
  Pt  Pt11  1  0.500000  0.806072  0.892372  1
  Pt  Pt12  1  0.500000  0.679828  0.395183  1
  Pt  Pt13  1  0.500000  0.313137  0.611116  1
  Pt  Pt14  1  0.000000  0.914392  0.232573  1
  Pt  Pt15  1  0.000000  0.094665  0.769887  1
