# generated using pymatgen
data_CaTm5(InRh2)6
_symmetry_space_group_name_H-M   'P 1'
_cell_length_a   4.66646900
_cell_length_b   6.51468300
_cell_length_c   13.91065100
_cell_angle_alpha   90.00000000
_cell_angle_beta   90.00105592
_cell_angle_gamma   90.00000000
_symmetry_Int_Tables_number   1
_chemical_formula_structural   CaTm5(InRh2)6
_chemical_formula_sum   'Ca1 Tm5 In6 Rh12'
_cell_volume   422.89166751
_cell_formula_units_Z   1
loop_
 _symmetry_equiv_pos_site_id
 _symmetry_equiv_pos_as_xyz
  1  'x, y, z'
loop_
 _atom_site_type_symbol
 _atom_site_label
 _atom_site_symmetry_multiplicity
 _atom_site_fract_x
 _atom_site_fract_y
 _atom_site_fract_z
 _atom_site_occupancy
  Ca  Ca0  1  0.499974  0.500014  0.833335  1
  Tm  Tm1  1  0.999956  0.000003  0.000198  1
  Tm  Tm2  1  0.500005  0.499994  0.166659  1
  Tm  Tm3  1  0.000079  0.999987  0.333346  1
  Tm  Tm4  1  0.500019  0.500002  0.499993  1
  Tm  Tm5  1  0.999977  0.000016  0.666480  1
  In  In6  1  0.999939  0.500004  0.998655  1
  In  In7  1  0.499941  0.999996  0.166850  1
  In  In8  1  0.000231  0.499984  0.333371  1
  In  In9  1  0.499964  0.999996  0.499787  1
  In  In10  1  0.999876  0.500022  0.667982  1
  In  In11  1  0.499995  0.999977  0.833374  1
  Rh  Rh12  1  0.499996  0.247667  0.002332  1
  Rh  Rh13  1  0.499981  0.752356  0.002334  1
  Rh  Rh14  1  0.000003  0.250401  0.167304  1
  Rh  Rh15  1  0.000000  0.749572  0.167324  1
  Rh  Rh16  1  0.500093  0.250032  0.333380  1
  Rh  Rh17  1  0.500091  0.749944  0.333379  1
  Rh  Rh18  1  0.000018  0.250423  0.499362  1
  Rh  Rh19  1  0.000025  0.749572  0.499338  1
  Rh  Rh20  1  0.500030  0.247724  0.664268  1
  Rh  Rh21  1  0.500029  0.752274  0.664314  1
  Rh  Rh22  1  0.999888  0.244286  0.833321  1
  Rh  Rh23  1  0.999901  0.755754  0.833313  1
