# generated using pymatgen
data_BaMgScMnH8
_symmetry_space_group_name_H-M   'P 1'
_cell_length_a   4.57828200
_cell_length_b   4.57828378
_cell_length_c   7.10178400
_cell_angle_alpha   90.00000000
_cell_angle_beta   90.00000000
_cell_angle_gamma   120.00000156
_symmetry_Int_Tables_number   1
_chemical_formula_structural   BaMgScMnH8
_chemical_formula_sum   'Ba1 Mg1 Sc1 Mn1 H8'
_cell_volume   128.91496422
_cell_formula_units_Z   1
loop_
 _symmetry_equiv_pos_site_id
 _symmetry_equiv_pos_as_xyz
  1  'x, y, z'
loop_
 _atom_site_type_symbol
 _atom_site_label
 _atom_site_symmetry_multiplicity
 _atom_site_fract_x
 _atom_site_fract_y
 _atom_site_fract_z
 _atom_site_occupancy
  Ba  Ba0  1  0.000000  0.000000  0.505929  1
  Mg  Mg1  1  0.666667  0.333333  0.880969  1
  Sc  Sc2  1  0.333333  0.666667  0.100013  1
  Mn  Mn3  1  0.000000  0.000000  0.003637  1
  H  H4  1  0.331479  0.165740  0.140908  1
  H  H5  1  0.834260  0.668521  0.140908  1
  H  H6  1  0.834260  0.165740  0.140908  1
  H  H7  1  0.670892  0.835446  0.863250  1
  H  H8  1  0.164554  0.329108  0.863250  1
  H  H9  1  0.164554  0.835446  0.863250  1
  H  H10  1  0.666667  0.333333  0.610936  1
  H  H11  1  0.333333  0.666667  0.386043  1
