# generated using pymatgen
data_Ce4VRe3B16
_symmetry_space_group_name_H-M   'P 1'
_cell_length_a   3.65487600
_cell_length_b   6.01773030
_cell_length_c   11.64383333
_cell_angle_alpha   89.84766791
_cell_angle_beta   90.00000000
_cell_angle_gamma   90.00000000
_symmetry_Int_Tables_number   1
_chemical_formula_structural   Ce4VRe3B16
_chemical_formula_sum   'Ce4 V1 Re3 B16'
_cell_volume   256.09424085
_cell_formula_units_Z   1
loop_
 _symmetry_equiv_pos_site_id
 _symmetry_equiv_pos_as_xyz
  1  'x, y, z'
loop_
 _atom_site_type_symbol
 _atom_site_label
 _atom_site_symmetry_multiplicity
 _atom_site_fract_x
 _atom_site_fract_y
 _atom_site_fract_z
 _atom_site_occupancy
  Ce  Ce0  1  0.000000  0.126697  0.150742  1
  Ce  Ce1  1  0.000000  0.873146  0.850901  1
  Ce  Ce2  1  0.000000  0.624632  0.348148  1
  Ce  Ce3  1  0.000000  0.374472  0.651042  1
  V  V4  1  0.000000  0.128472  0.415188  1
  Re  Re5  1  0.000000  0.873362  0.584567  1
  Re  Re6  1  0.000000  0.636667  0.090389  1
  Re  Re7  1  0.000000  0.362560  0.908378  1
  B  B8  1  0.500000  0.526112  0.808992  1
  B  B9  1  0.500000  0.474493  0.191086  1
  B  B10  1  0.500000  0.023127  0.690430  1
  B  B11  1  0.500000  0.976879  0.309626  1
  B  B12  1  0.500000  0.387584  0.046353  1
  B  B13  1  0.500000  0.612325  0.953904  1
  B  B14  1  0.500000  0.887262  0.453825  1
  B  B15  1  0.500000  0.112512  0.546168  1
  B  B16  1  0.500000  0.214458  0.814656  1
  B  B17  1  0.500000  0.785072  0.185437  1
  B  B18  1  0.500000  0.715936  0.683988  1
  B  B19  1  0.500000  0.284064  0.315801  1
  B  B20  1  0.500000  0.137887  0.968660  1
  B  B21  1  0.500000  0.862068  0.031799  1
  B  B22  1  0.500000  0.637658  0.532237  1
  B  B23  1  0.500000  0.362554  0.467683  1
