# generated using pymatgen
data_LiHf2AlRh4
_symmetry_space_group_name_H-M   'P 1'
_cell_length_a   4.45821500
_cell_length_b   6.27586900
_cell_length_c   13.23758000
_cell_angle_alpha   89.99988896
_cell_angle_beta   89.99951343
_cell_angle_gamma   89.99988096
_symmetry_Int_Tables_number   1
_chemical_formula_structural   LiHf2AlRh4
_chemical_formula_sum   'Li3 Hf6 Al3 Rh12'
_cell_volume   370.37654507
_cell_formula_units_Z   3
loop_
 _symmetry_equiv_pos_site_id
 _symmetry_equiv_pos_as_xyz
  1  'x, y, z'
loop_
 _atom_site_type_symbol
 _atom_site_label
 _atom_site_symmetry_multiplicity
 _atom_site_fract_x
 _atom_site_fract_y
 _atom_site_fract_z
 _atom_site_occupancy
  Li  Li0  1  0.499991  0.999998  0.500366  1
  Li  Li1  1  0.000132  0.500000  0.666672  1
  Li  Li2  1  0.500121  0.000000  0.833005  1
  Hf  Hf3  1  0.999990  0.999999  0.996258  1
  Hf  Hf4  1  0.499899  0.500000  0.166660  1
  Hf  Hf5  1  0.999884  0.999999  0.337090  1
  Hf  Hf6  1  0.499990  0.499999  0.503795  1
  Hf  Hf7  1  0.000114  0.000001  0.666645  1
  Hf  Hf8  1  0.500106  0.500001  0.829523  1
  Al  Al9  1  0.999995  0.500000  0.998325  1
  Al  Al10  1  0.499879  0.000000  0.166633  1
  Al  Al11  1  0.999902  0.500000  0.335055  1
  Rh  Rh12  1  0.499996  0.251052  0.001684  1
  Rh  Rh13  1  0.499994  0.748949  0.001684  1
  Rh  Rh14  1  0.999897  0.250294  0.166678  1
  Rh  Rh15  1  0.999896  0.749708  0.166679  1
  Rh  Rh16  1  0.499892  0.251067  0.331647  1
  Rh  Rh17  1  0.499895  0.748930  0.331647  1
  Rh  Rh18  1  0.999990  0.253397  0.499120  1
  Rh  Rh19  1  0.999994  0.746600  0.499121  1
  Rh  Rh20  1  0.500114  0.246872  0.666671  1
  Rh  Rh21  1  0.500115  0.753134  0.666671  1
  Rh  Rh22  1  0.000112  0.253382  0.834185  1
  Rh  Rh23  1  0.000108  0.746617  0.834185  1
