# generated using pymatgen
data_Mn4Nb6AlVN2
_symmetry_space_group_name_H-M   'P 1'
_cell_length_a   8.12803293
_cell_length_b   8.06765889
_cell_length_c   8.18950500
_cell_angle_alpha   90.00000000
_cell_angle_beta   59.74949795
_cell_angle_gamma   119.75458959
_symmetry_Int_Tables_number   1
_chemical_formula_structural   Mn4Nb6AlVN2
_chemical_formula_sum   'Mn8 Nb12 Al2 V2 N4'
_cell_volume   379.69429854
_cell_formula_units_Z   2
loop_
 _symmetry_equiv_pos_site_id
 _symmetry_equiv_pos_as_xyz
  1  'x, y, z'
loop_
 _atom_site_type_symbol
 _atom_site_label
 _atom_site_symmetry_multiplicity
 _atom_site_fract_x
 _atom_site_fract_y
 _atom_site_fract_z
 _atom_site_occupancy
  Mn  Mn0  1  0.103110  0.890704  0.198446  1
  Mn  Mn1  1  0.103110  0.212406  0.198446  1
  Mn  Mn2  1  0.416288  0.208145  0.884034  1
  Mn  Mn3  1  0.416288  0.208145  0.199678  1
  Mn  Mn4  1  0.896890  0.109296  0.801554  1
  Mn  Mn5  1  0.896890  0.787594  0.801554  1
  Mn  Mn6  1  0.583712  0.791855  0.115966  1
  Mn  Mn7  1  0.583712  0.791855  0.800322  1
  Nb  Nb8  1  0.645294  0.822647  0.427353  1
  Nb  Nb9  1  0.867367  0.433683  0.816317  1
  Nb  Nb10  1  0.248586  0.820482  0.819356  1
  Nb  Nb11  1  0.248586  0.428105  0.432059  1
  Nb  Nb12  1  0.248586  0.428105  0.819356  1
  Nb  Nb13  1  0.248586  0.820482  0.432059  1
  Nb  Nb14  1  0.354706  0.177353  0.572647  1
  Nb  Nb15  1  0.132633  0.566317  0.183683  1
  Nb  Nb16  1  0.751414  0.179518  0.180644  1
  Nb  Nb17  1  0.751414  0.571895  0.567941  1
  Nb  Nb18  1  0.751414  0.571895  0.180644  1
  Nb  Nb19  1  0.751414  0.179518  0.567941  1
  Al  Al20  1  0.000000  0.000000  0.500000  1
  Al  Al21  1  0.000000  0.000000  0.000000  1
  V  V22  1  0.500000  0.500000  0.000000  1
  V  V23  1  0.500000  0.000000  0.000000  1
  N  N24  1  0.500000  0.000000  0.500000  1
  N  N25  1  0.500000  0.500000  0.500000  1
  N  N26  1  0.000000  0.500000  0.000000  1
  N  N27  1  0.000000  0.500000  0.500000  1
