# generated using pymatgen
data_Nd3Dy2P12Ir9Ru10
_symmetry_space_group_name_H-M   'P 1'
_cell_length_a   12.66891813
_cell_length_b   12.63480801
_cell_length_c   3.99129200
_cell_angle_alpha   90.00000000
_cell_angle_beta   90.00000000
_cell_angle_gamma   119.84512909
_symmetry_Int_Tables_number   1
_chemical_formula_structural   Nd3Dy2P12Ir9Ru10
_chemical_formula_sum   'Nd3 Dy2 P12 Ir9 Ru10'
_cell_volume   554.15077981
_cell_formula_units_Z   1
loop_
 _symmetry_equiv_pos_site_id
 _symmetry_equiv_pos_as_xyz
  1  'x, y, z'
loop_
 _atom_site_type_symbol
 _atom_site_label
 _atom_site_symmetry_multiplicity
 _atom_site_fract_x
 _atom_site_fract_y
 _atom_site_fract_z
 _atom_site_occupancy
  Nd  Nd0  1  0.812530  0.000686  0.500000  1
  Nd  Nd1  1  0.185451  0.187661  0.500000  1
  Nd  Nd2  1  0.000417  0.813839  0.500000  1
  Dy  Dy3  1  0.667422  0.332478  0.000000  1
  Dy  Dy4  1  0.333484  0.666763  0.000000  1
  P  P5  1  0.629255  0.996945  0.000000  1
  P  P6  1  0.366379  0.372918  0.000000  1
  P  P7  1  0.006815  0.633747  0.000000  1
  P  P8  1  0.690351  0.518650  0.500000  1
  P  P9  1  0.828247  0.306071  0.500000  1
  P  P10  1  0.312322  0.828773  0.500000  1
  P  P11  1  0.516468  0.687468  0.500000  1
  P  P12  1  0.183704  0.001567  0.000000  1
  P  P13  1  0.816139  0.816086  0.000000  1
  P  P14  1  0.996644  0.184527  0.000000  1
  P  P15  1  0.480718  0.169271  0.500000  1
  P  P16  1  0.171680  0.484130  0.500000  1
  Ir  Ir17  1  0.620451  0.800531  0.000000  1
  Ir  Ir18  1  0.181083  0.380255  0.000000  1
  Ir  Ir19  1  0.378212  0.184811  0.000000  1
  Ir  Ir20  1  0.199124  0.820837  0.000000  1
  Ir  Ir21  1  0.806526  0.621548  0.000000  1
  Ir  Ir22  1  0.868669  0.504360  0.500000  1
  Ir  Ir23  1  0.494898  0.362110  0.500000  1
  Ir  Ir24  1  0.635573  0.128172  0.500000  1
  Ir  Ir25  1  0.999353  0.000265  0.000000  1
  Ru  Ru26  1  0.127178  0.638866  0.500000  1
  Ru  Ru27  1  0.362669  0.489069  0.500000  1
  Ru  Ru28  1  0.509709  0.871118  0.500000  1
  Ru  Ru29  1  0.712194  0.710539  0.500000  1
  Ru  Ru30  1  0.000755  0.289159  0.500000  1
  Ru  Ru31  1  0.450803  0.001602  0.000000  1
  Ru  Ru32  1  0.551439  0.546922  0.000000  1
  Ru  Ru33  1  0.998519  0.450149  0.000000  1
  Ru  Ru34  1  0.816044  0.196407  0.000000  1
  Ru  Ru35  1  0.288771  0.001700  0.500000  1
