# generated using pymatgen
data_TmU3As6Ru7
_symmetry_space_group_name_H-M   'P 1'
_cell_length_a   7.23768837
_cell_length_b   7.23768770
_cell_length_c   7.23768864
_cell_angle_alpha   109.60127575
_cell_angle_beta   109.60127369
_cell_angle_gamma   109.60126478
_symmetry_Int_Tables_number   1
_chemical_formula_structural   TmU3As6Ru7
_chemical_formula_sum   'Tm1 U3 As6 Ru7'
_cell_volume   290.44830004
_cell_formula_units_Z   1
loop_
 _symmetry_equiv_pos_site_id
 _symmetry_equiv_pos_as_xyz
  1  'x, y, z'
loop_
 _atom_site_type_symbol
 _atom_site_label
 _atom_site_symmetry_multiplicity
 _atom_site_fract_x
 _atom_site_fract_y
 _atom_site_fract_z
 _atom_site_occupancy
  Tm  Tm0  1  0.500000  0.500000  0.500000  1
  U  U1  1  0.000000  0.000000  0.500000  1
  U  U2  1  0.500000  0.000000  0.000000  1
  U  U3  1  0.000000  0.500000  0.000000  1
  As  As4  1  0.313251  0.004089  0.313251  1
  As  As5  1  0.004089  0.313251  0.313251  1
  As  As6  1  0.995911  0.686749  0.686749  1
  As  As7  1  0.313251  0.313251  0.004089  1
  As  As8  1  0.686749  0.686749  0.995911  1
  As  As9  1  0.686749  0.995911  0.686749  1
  Ru  Ru10  1  0.752408  0.500000  0.247592  1
  Ru  Ru11  1  0.500000  0.752408  0.247592  1
  Ru  Ru12  1  0.500000  0.247592  0.752408  1
  Ru  Ru13  1  0.752408  0.247592  0.500000  1
  Ru  Ru14  1  0.247592  0.752408  0.500000  1
  Ru  Ru15  1  0.247592  0.500000  0.752408  1
  Ru  Ru16  1  0.000000  0.000000  0.000000  1
