# generated using pymatgen
data_Li4CaSm2ThSi8
_symmetry_space_group_name_H-M   'P 1'
_cell_length_a   3.85305100
_cell_length_b   7.73716462
_cell_length_c   10.43112552
_cell_angle_alpha   89.84816165
_cell_angle_beta   90.00000000
_cell_angle_gamma   90.00000000
_symmetry_Int_Tables_number   1
_chemical_formula_structural   Li4CaSm2ThSi8
_chemical_formula_sum   'Li4 Ca1 Sm2 Th1 Si8'
_cell_volume   310.96838722
_cell_formula_units_Z   1
loop_
 _symmetry_equiv_pos_site_id
 _symmetry_equiv_pos_as_xyz
  1  'x, y, z'
loop_
 _atom_site_type_symbol
 _atom_site_label
 _atom_site_symmetry_multiplicity
 _atom_site_fract_x
 _atom_site_fract_y
 _atom_site_fract_z
 _atom_site_occupancy
  Li  Li0  1  0.250000  0.998224  0.392434  1
  Li  Li1  1  0.750000  0.011072  0.607949  1
  Li  Li2  1  0.250000  0.490306  0.110610  1
  Li  Li3  1  0.750000  0.506191  0.895794  1
  Ca  Ca4  1  0.750000  0.362789  0.364234  1
  Sm  Sm5  1  0.250000  0.132957  0.865032  1
  Sm  Sm6  1  0.750000  0.861376  0.133092  1
  Th  Th7  1  0.250000  0.638758  0.634063  1
  Si  Si8  1  0.750000  0.265069  0.068372  1
  Si  Si9  1  0.250000  0.728926  0.929023  1
  Si  Si10  1  0.750000  0.773798  0.429020  1
  Si  Si11  1  0.250000  0.234823  0.572059  1
  Si  Si12  1  0.750000  0.835531  0.817192  1
  Si  Si13  1  0.250000  0.156572  0.176109  1
  Si  Si14  1  0.750000  0.338210  0.684319  1
  Si  Si15  1  0.250000  0.665400  0.320697  1
