# generated using pymatgen
data_Th2Mn6P7Ir6
_symmetry_space_group_name_H-M   'P 1'
_cell_length_a   9.44172204
_cell_length_b   9.44656160
_cell_length_c   3.92728300
_cell_angle_alpha   90.00000000
_cell_angle_beta   90.00000000
_cell_angle_gamma   119.99357537
_symmetry_Int_Tables_number   1
_chemical_formula_structural   Th2Mn6P7Ir6
_chemical_formula_sum   'Th2 Mn6 P7 Ir6'
_cell_volume   303.37229226
_cell_formula_units_Z   1
loop_
 _symmetry_equiv_pos_site_id
 _symmetry_equiv_pos_as_xyz
  1  'x, y, z'
loop_
 _atom_site_type_symbol
 _atom_site_label
 _atom_site_symmetry_multiplicity
 _atom_site_fract_x
 _atom_site_fract_y
 _atom_site_fract_z
 _atom_site_occupancy
  Th  Th0  1  0.333271  0.666678  0.000000  1
  Th  Th1  1  0.999984  0.000023  0.500000  1
  Mn  Mn2  1  0.553397  0.064078  0.000000  1
  Mn  Mn3  1  0.935913  0.489457  0.000000  1
  Mn  Mn4  1  0.510888  0.446477  0.000000  1
  Mn  Mn5  1  0.788698  0.238901  0.500000  1
  Mn  Mn6  1  0.760865  0.549609  0.500000  1
  Mn  Mn7  1  0.450489  0.211142  0.500000  1
  P  P8  1  0.773471  0.038728  0.000000  1
  P  P9  1  0.961268  0.734824  0.000000  1
  P  P10  1  0.265212  0.226549  0.000000  1
  P  P11  1  0.387940  0.944507  0.500000  1
  P  P12  1  0.055484  0.443522  0.500000  1
  P  P13  1  0.556523  0.612043  0.500000  1
  P  P14  1  0.666750  0.333323  0.000000  1
  Ir  Ir15  1  0.031695  0.269357  0.000000  1
  Ir  Ir16  1  0.730590  0.762349  0.000000  1
  Ir  Ir17  1  0.237667  0.968367  0.000000  1
  Ir  Ir18  1  0.611686  0.894147  0.500000  1
  Ir  Ir19  1  0.105785  0.717666  0.500000  1
  Ir  Ir20  1  0.282423  0.388253  0.500000  1
