# generated using pymatgen
data_Dy31Ni64
_symmetry_space_group_name_H-M   'P 1'
_cell_length_a   10.11902000
_cell_length_b   10.11901971
_cell_length_c   17.57307800
_cell_angle_alpha   73.26697399
_cell_angle_beta   90.00000000
_cell_angle_gamma   120.00000096
_symmetry_Int_Tables_number   1
_chemical_formula_structural   Dy31Ni64
_chemical_formula_sum   'Dy31 Ni64'
_cell_volume   1469.67824408
_cell_formula_units_Z   1
loop_
 _symmetry_equiv_pos_site_id
 _symmetry_equiv_pos_as_xyz
  1  'x, y, z'
loop_
 _atom_site_type_symbol
 _atom_site_label
 _atom_site_symmetry_multiplicity
 _atom_site_fract_x
 _atom_site_fract_y
 _atom_site_fract_z
 _atom_site_occupancy
  Dy  Dy0  1  0.499548  0.999096  0.000080  1
  Dy  Dy1  1  0.993147  0.986292  0.493074  1
  Dy  Dy2  1  0.749997  0.991306  0.258697  1
  Dy  Dy3  1  0.257923  0.993248  0.748829  1
  Dy  Dy4  1  0.000824  0.500372  0.000080  1
  Dy  Dy5  1  0.520633  0.513779  0.493074  1
  Dy  Dy6  1  0.749997  0.499994  0.258697  1
  Dy  Dy7  1  0.257923  0.515847  0.748829  1
  Dy  Dy8  1  0.499548  0.500372  0.000080  1
  Dy  Dy9  1  0.993147  0.513779  0.493074  1
  Dy  Dy10  1  0.241309  0.991306  0.258697  1
  Dy  Dy11  1  0.735326  0.993248  0.748829  1
  Dy  Dy12  1  0.438510  0.373748  0.187742  1
  Dy  Dy13  1  0.940194  0.373480  0.686326  1
  Dy  Dy14  1  0.438510  0.877019  0.187742  1
  Dy  Dy15  1  0.940194  0.880388  0.686326  1
  Dy  Dy16  1  0.185980  0.371960  0.442060  1
  Dy  Dy17  1  0.687800  0.375601  0.936598  1
  Dy  Dy18  1  0.935238  0.373748  0.187742  1
  Dy  Dy19  1  0.433286  0.373480  0.686326  1
  Dy  Dy20  1  0.646185  0.901885  0.451929  1
  Dy  Dy21  1  0.187231  0.876227  0.936542  1
  Dy  Dy22  1  0.646185  0.292371  0.451929  1
  Dy  Dy23  1  0.187231  0.374461  0.936542  1
  Dy  Dy24  1  0.937466  0.874932  0.187602  1
  Dy  Dy25  1  0.451847  0.903694  0.644459  1
  Dy  Dy26  1  0.255700  0.901885  0.451929  1
  Dy  Dy27  1  0.688997  0.876227  0.936542  1
  Dy  Dy28  1  0.249317  0.498635  0.252048  1
  Dy  Dy29  1  0.750637  0.501274  0.748089  1
  Dy  Dy30  1  0.999801  0.999601  0.000597  1
  Ni  Ni31  1  0.968934  0.187701  0.343830  1
  Ni  Ni32  1  0.468623  0.187523  0.843659  1
  Ni  Ni33  1  0.468469  0.687236  0.343830  1
  Ni  Ni34  1  0.968818  0.687719  0.843659  1
  Ni  Ni35  1  0.218645  0.687427  0.093927  1
  Ni  Ni36  1  0.718856  0.687421  0.593722  1
  Ni  Ni37  1  0.968934  0.437402  0.343830  1
  Ni  Ni38  1  0.468623  0.437440  0.843659  1
  Ni  Ni39  1  0.218645  0.437291  0.093927  1
  Ni  Ni40  1  0.718856  0.437711  0.593722  1
  Ni  Ni41  1  0.468469  0.437402  0.343830  1
  Ni  Ni42  1  0.968818  0.437440  0.843659  1
  Ni  Ni43  1  0.594105  0.687742  0.218623  1
  Ni  Ni44  1  0.093884  0.687728  0.718428  1
  Ni  Ni45  1  0.093635  0.187271  0.218623  1
  Ni  Ni46  1  0.593844  0.187688  0.718428  1
  Ni  Ni47  1  0.093635  0.687742  0.218623  1
  Ni  Ni48  1  0.593844  0.687728  0.718428  1
  Ni  Ni49  1  0.468782  0.687427  0.093927  1
  Ni  Ni50  1  0.968565  0.687421  0.593722  1
  Ni  Ni51  1  0.218768  0.687236  0.343830  1
  Ni  Ni52  1  0.718901  0.687719  0.843659  1
  Ni  Ni53  1  0.218768  0.187701  0.343830  1
  Ni  Ni54  1  0.718901  0.187523  0.843659  1
  Ni  Ni55  1  0.967816  0.687996  0.344188  1
  Ni  Ni56  1  0.468310  0.688598  0.843093  1
  Ni  Ni57  1  0.967816  0.935632  0.344188  1
  Ni  Ni58  1  0.468310  0.936620  0.843093  1
  Ni  Ni59  1  0.844237  0.688475  0.467288  1
  Ni  Ni60  1  0.343770  0.687541  0.968689  1
  Ni  Ni61  1  0.720180  0.687996  0.344188  1
  Ni  Ni62  1  0.220288  0.688598  0.843093  1
  Ni  Ni63  1  0.719307  0.187056  0.093638  1
  Ni  Ni64  1  0.216784  0.188323  0.594893  1
  Ni  Ni65  1  0.719307  0.438612  0.093638  1
  Ni  Ni66  1  0.216784  0.433568  0.594893  1
  Ni  Ni67  1  0.594660  0.189320  0.216020  1
  Ni  Ni68  1  0.093114  0.186226  0.720660  1
  Ni  Ni69  1  0.467749  0.187056  0.093638  1
  Ni  Ni70  1  0.971540  0.188323  0.594893  1
  Ni  Ni71  1  0.719248  0.687267  0.094220  1
  Ni  Ni72  1  0.209778  0.673811  0.595623  1
  Ni  Ni73  1  0.218514  0.186532  0.094220  1
  Ni  Ni74  1  0.730566  0.194598  0.595623  1
  Ni  Ni75  1  0.470145  0.192402  0.337453  1
  Ni  Ni76  1  0.968850  0.187631  0.843520  1
  Ni  Ni77  1  0.719248  0.937763  0.094220  1
  Ni  Ni78  1  0.209778  0.940345  0.595623  1
  Ni  Ni79  1  0.470145  0.940291  0.337453  1
  Ni  Ni80  1  0.968850  0.937699  0.843520  1
  Ni  Ni81  1  0.218514  0.937763  0.094220  1
  Ni  Ni82  1  0.730566  0.940345  0.595623  1
  Ni  Ni83  1  0.856590  0.193052  0.470484  1
  Ni  Ni84  1  0.343348  0.187286  0.968777  1
  Ni  Ni85  1  0.336464  0.672926  0.470484  1
  Ni  Ni86  1  0.843937  0.687875  0.968777  1
  Ni  Ni87  1  0.336464  0.193052  0.470484  1
  Ni  Ni88  1  0.843937  0.187286  0.968777  1
  Ni  Ni89  1  0.722257  0.192402  0.337453  1
  Ni  Ni90  1  0.218781  0.187631  0.843520  1
  Ni  Ni91  1  0.968019  0.186532  0.094220  1
  Ni  Ni92  1  0.464032  0.194598  0.595623  1
  Ni  Ni93  1  0.968019  0.687267  0.094220  1
  Ni  Ni94  1  0.464032  0.673811  0.595623  1
