# generated using pymatgen
data_Tb8Zr8TaSi16Mo3
_symmetry_space_group_name_H-M   'P 1'
_cell_length_a   7.20694903
_cell_length_b   7.20694951
_cell_length_c   13.25534200
_cell_angle_alpha   89.99500735
_cell_angle_beta   90.00499265
_cell_angle_gamma   90.02106018
_symmetry_Int_Tables_number   1
_chemical_formula_structural   Tb8Zr8TaSi16Mo3
_chemical_formula_sum   'Tb8 Zr8 Ta1 Si16 Mo3'
_cell_volume   688.48397311
_cell_formula_units_Z   1
loop_
 _symmetry_equiv_pos_site_id
 _symmetry_equiv_pos_as_xyz
  1  'x, y, z'
loop_
 _atom_site_type_symbol
 _atom_site_label
 _atom_site_symmetry_multiplicity
 _atom_site_fract_x
 _atom_site_fract_y
 _atom_site_fract_z
 _atom_site_occupancy
  Tb  Tb0  1  0.346769  0.001286  0.464086  1
  Tb  Tb1  1  0.499049  0.847055  0.713760  1
  Tb  Tb2  1  0.501734  0.152364  0.215210  1
  Tb  Tb3  1  0.847055  0.499049  0.286240  1
  Tb  Tb4  1  0.152364  0.501734  0.784790  1
  Tb  Tb5  1  0.654096  0.997500  0.963929  1
  Tb  Tb6  1  0.001286  0.346769  0.535914  1
  Tb  Tb7  1  0.997500  0.654096  0.036071  1
  Zr  Zr8  1  0.145046  0.005745  0.875247  1
  Zr  Zr9  1  0.494019  0.646457  0.126623  1
  Zr  Zr10  1  0.506318  0.354219  0.625310  1
  Zr  Zr11  1  0.646457  0.494019  0.873377  1
  Zr  Zr12  1  0.354219  0.506318  0.374690  1
  Zr  Zr13  1  0.854686  0.993179  0.376357  1
  Zr  Zr14  1  0.005745  0.145046  0.124753  1
  Zr  Zr15  1  0.993179  0.854686  0.623643  1
  Ta  Ta16  1  0.322383  0.322383  0.000000  1
  Si  Si17  1  0.202005  0.141385  0.684698  1
  Si  Si18  1  0.358021  0.701425  0.934995  1
  Si  Si19  1  0.641566  0.298203  0.434682  1
  Si  Si20  1  0.701425  0.358021  0.065005  1
  Si  Si21  1  0.298203  0.641566  0.565318  1
  Si  Si22  1  0.797920  0.858752  0.185177  1
  Si  Si23  1  0.141385  0.202005  0.315302  1
  Si  Si24  1  0.858752  0.797920  0.814823  1
  Si  Si25  1  0.295903  0.947674  0.066203  1
  Si  Si26  1  0.553256  0.794952  0.316402  1
  Si  Si27  1  0.448046  0.204165  0.815606  1
  Si  Si28  1  0.794952  0.553256  0.683598  1
  Si  Si29  1  0.204165  0.448046  0.184394  1
  Si  Si30  1  0.704500  0.053410  0.566033  1
  Si  Si31  1  0.947674  0.295903  0.933797  1
  Si  Si32  1  0.053410  0.704500  0.433967  1
  Mo  Mo33  1  0.177346  0.822175  0.250667  1
  Mo  Mo34  1  0.822175  0.177346  0.749333  1
  Mo  Mo35  1  0.677389  0.677389  0.500000  1
