# generated using pymatgen
data_Ho8Zn7Si8Pd
_symmetry_space_group_name_H-M   'P 1'
_cell_length_a   4.16114800
_cell_length_b   7.20993531
_cell_length_c   15.38139100
_cell_angle_alpha   90.14879570
_cell_angle_beta   90.00000000
_cell_angle_gamma   90.00000000
_symmetry_Int_Tables_number   1
_chemical_formula_structural   Ho8Zn7Si8Pd
_chemical_formula_sum   'Ho8 Zn7 Si8 Pd1'
_cell_volume   461.46490572
_cell_formula_units_Z   1
loop_
 _symmetry_equiv_pos_site_id
 _symmetry_equiv_pos_as_xyz
  1  'x, y, z'
loop_
 _atom_site_type_symbol
 _atom_site_label
 _atom_site_symmetry_multiplicity
 _atom_site_fract_x
 _atom_site_fract_y
 _atom_site_fract_z
 _atom_site_occupancy
  Ho  Ho0  1  0.000000  0.254422  0.997797  1
  Ho  Ho1  1  0.500000  0.735814  0.504769  1
  Ho  Ho2  1  0.000000  0.264078  0.503364  1
  Ho  Ho3  1  0.500000  0.746379  0.997627  1
  Ho  Ho4  1  0.000000  0.245036  0.250609  1
  Ho  Ho5  1  0.500000  0.755641  0.248035  1
  Ho  Ho6  1  0.000000  0.245291  0.745712  1
  Ho  Ho7  1  0.500000  0.753335  0.746031  1
  Zn  Zn8  1  0.500000  0.083491  0.606898  1
  Zn  Zn9  1  0.000000  0.917182  0.889445  1
  Zn  Zn10  1  0.500000  0.080337  0.395137  1
  Zn  Zn11  1  0.000000  0.917084  0.109520  1
  Zn  Zn12  1  0.500000  0.417193  0.115761  1
  Zn  Zn13  1  0.000000  0.584560  0.373033  1
  Zn  Zn14  1  0.500000  0.416553  0.882507  1
  Si  Si15  1  0.000000  0.919498  0.631842  1
  Si  Si16  1  0.500000  0.082927  0.869596  1
  Si  Si17  1  0.000000  0.915326  0.370654  1
  Si  Si18  1  0.500000  0.083741  0.131553  1
  Si  Si19  1  0.000000  0.584204  0.132117  1
  Si  Si20  1  0.500000  0.416698  0.372073  1
  Si  Si21  1  0.000000  0.584175  0.867935  1
  Si  Si22  1  0.500000  0.412237  0.634925  1
  Pd  Pd23  1  0.000000  0.584796  0.623063  1
