# generated using pymatgen
data_DyY7(Si4W3)4
_symmetry_space_group_name_H-M   'P 1'
_cell_length_a   6.78313159
_cell_length_b   6.94956514
_cell_length_c   12.91735658
_cell_angle_alpha   89.99515411
_cell_angle_beta   90.00430075
_cell_angle_gamma   90.01387219
_symmetry_Int_Tables_number   1
_chemical_formula_structural   DyY7(Si4W3)4
_chemical_formula_sum   'Dy1 Y7 Si16 W12'
_cell_volume   608.92177642
_cell_formula_units_Z   1
loop_
 _symmetry_equiv_pos_site_id
 _symmetry_equiv_pos_as_xyz
  1  'x, y, z'
loop_
 _atom_site_type_symbol
 _atom_site_label
 _atom_site_symmetry_multiplicity
 _atom_site_fract_x
 _atom_site_fract_y
 _atom_site_fract_z
 _atom_site_occupancy
  Dy  Dy0  1  0.995520  0.832214  0.593426  1
  Y  Y1  1  0.495786  0.667511  0.593467  1
  Y  Y2  1  0.996066  0.832546  0.906519  1
  Y  Y3  1  0.504363  0.332421  0.093571  1
  Y  Y4  1  0.004116  0.167523  0.406698  1
  Y  Y5  1  0.503975  0.332492  0.406683  1
  Y  Y6  1  0.004062  0.167784  0.093535  1
  Y  Y7  1  0.495743  0.667536  0.906388  1
  Si  Si8  1  0.661137  0.957341  0.452977  1
  Si  Si9  1  0.161323  0.542727  0.047210  1
  Si  Si10  1  0.339169  0.042885  0.952667  1
  Si  Si11  1  0.838793  0.457194  0.547230  1
  Si  Si12  1  0.338475  0.042349  0.547180  1
  Si  Si13  1  0.838979  0.457421  0.952679  1
  Si  Si14  1  0.661135  0.957140  0.047258  1
  Si  Si15  1  0.161052  0.542964  0.452949  1
  Si  Si16  1  0.463813  0.369437  0.749969  1
  Si  Si17  1  0.964047  0.129893  0.749707  1
  Si  Si18  1  0.536193  0.630479  0.250003  1
  Si  Si19  1  0.036124  0.869930  0.250076  1
  Si  Si20  1  0.697088  0.867378  0.749913  1
  Si  Si21  1  0.196622  0.632417  0.749715  1
  Si  Si22  1  0.303040  0.132657  0.250087  1
  Si  Si23  1  0.803061  0.367772  0.250242  1
  W  W24  1  0.668071  0.163073  0.625741  1
  W  W25  1  0.167867  0.336486  0.874129  1
  W  W26  1  0.331860  0.836848  0.125628  1
  W  W27  1  0.831921  0.663616  0.374545  1
  W  W28  1  0.331898  0.836580  0.374312  1
  W  W29  1  0.832265  0.663442  0.125807  1
  W  W30  1  0.668442  0.163297  0.874296  1
  W  W31  1  0.168088  0.336554  0.625587  1
  W  W32  1  0.833918  0.498855  0.749779  1
  W  W33  1  0.333859  0.000962  0.749773  1
  W  W34  1  0.166094  0.501390  0.250097  1
  W  W35  1  0.666035  0.998883  0.250156  1
