# generated using pymatgen
data_DyEr2NiSn3Rh2
_symmetry_space_group_name_H-M   'P 1'
_cell_length_a   7.51790525
_cell_length_b   7.51790553
_cell_length_c   3.79141200
_cell_angle_alpha   90.00000000
_cell_angle_beta   90.00000000
_cell_angle_gamma   120.13543909
_symmetry_Int_Tables_number   1
_chemical_formula_structural   DyEr2NiSn3Rh2
_chemical_formula_sum   'Dy1 Er2 Ni1 Sn3 Rh2'
_cell_volume   185.32371228
_cell_formula_units_Z   1
loop_
 _symmetry_equiv_pos_site_id
 _symmetry_equiv_pos_as_xyz
  1  'x, y, z'
loop_
 _atom_site_type_symbol
 _atom_site_label
 _atom_site_symmetry_multiplicity
 _atom_site_fract_x
 _atom_site_fract_y
 _atom_site_fract_z
 _atom_site_occupancy
  Dy  Dy0  1  0.406713  0.406713  0.000000  1
  Er  Er1  1  0.000172  0.593534  0.000000  1
  Er  Er2  1  0.593534  0.000172  0.000000  1
  Ni  Ni3  1  0.998613  0.998613  0.000000  1
  Sn  Sn4  1  0.745721  0.745721  0.500000  1
  Sn  Sn5  1  0.999265  0.254144  0.500000  1
  Sn  Sn6  1  0.254144  0.999265  0.500000  1
  Rh  Rh7  1  0.668597  0.333242  0.500000  1
  Rh  Rh8  1  0.333242  0.668597  0.500000  1
