# generated using pymatgen
data_Y13Ho3Cd3AgIr4
_symmetry_space_group_name_H-M   'P 1'
_cell_length_a   9.66309100
_cell_length_b   9.66694552
_cell_length_c   9.66694601
_cell_angle_alpha   59.75312092
_cell_angle_beta   59.74220270
_cell_angle_gamma   59.74221131
_symmetry_Int_Tables_number   1
_chemical_formula_structural   Y13Ho3Cd3AgIr4
_chemical_formula_sum   'Y13 Ho3 Cd3 Ag1 Ir4'
_cell_volume   634.84228431
_cell_formula_units_Z   1
loop_
 _symmetry_equiv_pos_site_id
 _symmetry_equiv_pos_as_xyz
  1  'x, y, z'
loop_
 _atom_site_type_symbol
 _atom_site_label
 _atom_site_symmetry_multiplicity
 _atom_site_fract_x
 _atom_site_fract_y
 _atom_site_fract_z
 _atom_site_occupancy
  Y  Y0  1  0.952943  0.349725  0.349725  1
  Y  Y1  1  0.809945  0.189937  0.189937  1
  Y  Y2  1  0.187923  0.809290  0.809290  1
  Y  Y3  1  0.190026  0.809955  0.189992  1
  Y  Y4  1  0.809292  0.187815  0.809454  1
  Y  Y5  1  0.190026  0.189992  0.809955  1
  Y  Y6  1  0.809292  0.809454  0.187815  1
  Y  Y7  1  0.936694  0.561362  0.561362  1
  Y  Y8  1  0.561421  0.936852  0.936852  1
  Y  Y9  1  0.561150  0.936736  0.561228  1
  Y  Y10  1  0.936797  0.561622  0.936576  1
  Y  Y11  1  0.561150  0.561228  0.936736  1
  Y  Y12  1  0.936797  0.936576  0.561622  1
  Ho  Ho13  1  0.348964  0.348947  0.348947  1
  Ho  Ho14  1  0.349288  0.349250  0.954278  1
  Ho  Ho15  1  0.349288  0.954278  0.349250  1
  Cd  Cd16  1  0.581162  0.581265  0.258887  1
  Cd  Cd17  1  0.581162  0.258887  0.581265  1
  Cd  Cd18  1  0.258902  0.581228  0.581228  1
  Ag  Ag19  1  0.582649  0.582802  0.582802  1
  Ir  Ir20  1  0.143241  0.141942  0.141942  1
  Ir  Ir21  1  0.144008  0.142754  0.574662  1
  Ir  Ir22  1  0.144008  0.574662  0.142754  1
  Ir  Ir23  1  0.573876  0.143445  0.143445  1
