# generated using pymatgen
data_Er2LuMg(ZnPt)4
_symmetry_space_group_name_H-M   'P 1'
_cell_length_a   4.18521700
_cell_length_b   6.72416046
_cell_length_c   7.97270600
_cell_angle_alpha   91.35614834
_cell_angle_beta   90.00000000
_cell_angle_gamma   90.00000000
_symmetry_Int_Tables_number   1
_chemical_formula_structural   Er2LuMg(ZnPt)4
_chemical_formula_sum   'Er2 Lu1 Mg1 Zn4 Pt4'
_cell_volume   224.30560931
_cell_formula_units_Z   1
loop_
 _symmetry_equiv_pos_site_id
 _symmetry_equiv_pos_as_xyz
  1  'x, y, z'
loop_
 _atom_site_type_symbol
 _atom_site_label
 _atom_site_symmetry_multiplicity
 _atom_site_fract_x
 _atom_site_fract_y
 _atom_site_fract_z
 _atom_site_occupancy
  Er  Er0  1  0.750000  0.465453  0.824674  1
  Er  Er1  1  0.250000  0.034918  0.311152  1
  Lu  Lu2  1  0.750000  0.961098  0.680908  1
  Mg  Mg3  1  0.250000  0.535946  0.182672  1
  Zn  Zn4  1  0.250000  0.640792  0.556809  1
  Zn  Zn5  1  0.750000  0.359669  0.439113  1
  Zn  Zn6  1  0.750000  0.853718  0.062699  1
  Zn  Zn7  1  0.250000  0.147905  0.940409  1
  Pt  Pt8  1  0.250000  0.758340  0.877391  1
  Pt  Pt9  1  0.750000  0.249007  0.124540  1
  Pt  Pt10  1  0.750000  0.741066  0.374877  1
  Pt  Pt11  1  0.250000  0.252089  0.624756  1
