# generated using pymatgen
data_Hf2MnNb4Fe5Si12
_symmetry_space_group_name_H-M   'P 1'
_cell_length_a   9.53826373
_cell_length_b   9.55588680
_cell_length_c   9.54394913
_cell_angle_alpha   149.02776028
_cell_angle_beta   133.03610902
_cell_angle_gamma   57.35445397
_symmetry_Int_Tables_number   1
_chemical_formula_structural   Hf2MnNb4Fe5Si12
_chemical_formula_sum   'Hf2 Mn1 Nb4 Fe5 Si12'
_cell_volume   324.78700563
_cell_formula_units_Z   1
loop_
 _symmetry_equiv_pos_site_id
 _symmetry_equiv_pos_as_xyz
  1  'x, y, z'
loop_
 _atom_site_type_symbol
 _atom_site_label
 _atom_site_symmetry_multiplicity
 _atom_site_fract_x
 _atom_site_fract_y
 _atom_site_fract_z
 _atom_site_occupancy
  Hf  Hf0  1  0.141142  0.142508  0.000298  1
  Hf  Hf1  1  0.858858  0.857492  0.999702  1
  Mn  Mn2  1  0.500000  0.500000  0.500000  1
  Nb  Nb3  1  0.852330  0.592108  0.259394  1
  Nb  Nb4  1  0.147670  0.407892  0.740606  1
  Nb  Nb5  1  0.666133  0.408696  0.261166  1
  Nb  Nb6  1  0.333867  0.591304  0.738834  1
  Fe  Fe7  1  0.750158  0.000225  0.748698  1
  Fe  Fe8  1  0.000000  0.000000  0.500000  1
  Fe  Fe9  1  0.500000  0.000000  0.000000  1
  Fe  Fe10  1  0.249842  0.999775  0.251302  1
  Fe  Fe11  1  0.000000  0.500000  0.000000  1
  Si  Si12  1  0.483771  0.133019  0.347956  1
  Si  Si13  1  0.516229  0.866981  0.652044  1
  Si  Si14  1  0.210962  0.862474  0.348331  1
  Si  Si15  1  0.789038  0.137526  0.651669  1
  Si  Si16  1  0.702992  0.699656  0.006097  1
  Si  Si17  1  0.297008  0.300344  0.993903  1
  Si  Si18  1  0.499691  0.739384  0.239502  1
  Si  Si19  1  0.500309  0.260616  0.760498  1
  Si  Si20  1  0.999821  0.263032  0.262871  1
  Si  Si21  1  0.206525  0.712491  0.497364  1
  Si  Si22  1  0.000179  0.736968  0.737129  1
  Si  Si23  1  0.793475  0.287509  0.502636  1
