# generated using pymatgen
data_Zr10BeSn4GeBi2
_symmetry_space_group_name_H-M   'P 1'
_cell_length_a   8.73203569
_cell_length_b   8.73203393
_cell_length_c   5.88664761
_cell_angle_alpha   90.00641196
_cell_angle_beta   90.00641837
_cell_angle_gamma   120.10822819
_symmetry_Int_Tables_number   1
_chemical_formula_structural   Zr10BeSn4GeBi2
_chemical_formula_sum   'Zr10 Be1 Sn4 Ge1 Bi2'
_cell_volume   388.28884123
_cell_formula_units_Z   1
loop_
 _symmetry_equiv_pos_site_id
 _symmetry_equiv_pos_as_xyz
  1  'x, y, z'
loop_
 _atom_site_type_symbol
 _atom_site_label
 _atom_site_symmetry_multiplicity
 _atom_site_fract_x
 _atom_site_fract_y
 _atom_site_fract_z
 _atom_site_occupancy
  Zr  Zr0  1  0.665926  0.335666  0.996454  1
  Zr  Zr1  1  0.335666  0.665926  0.996454  1
  Zr  Zr2  1  0.335528  0.666092  0.503310  1
  Zr  Zr3  1  0.666092  0.335528  0.503310  1
  Zr  Zr4  1  0.740022  0.740022  0.761433  1
  Zr  Zr5  1  0.258620  0.000427  0.760625  1
  Zr  Zr6  1  0.000427  0.258620  0.760625  1
  Zr  Zr7  1  0.257134  0.257134  0.238822  1
  Zr  Zr8  1  0.744096  0.994932  0.238981  1
  Zr  Zr9  1  0.994932  0.744096  0.238981  1
  Be  Be10  1  0.000139  0.000139  0.993475  1
  Sn  Sn11  1  0.391008  0.391008  0.748711  1
  Sn  Sn12  1  0.610803  0.000551  0.749192  1
  Sn  Sn13  1  0.000551  0.610803  0.749192  1
  Sn  Sn14  1  0.605884  0.605884  0.251576  1
  Ge  Ge15  1  0.000243  0.000243  0.505110  1
  Bi  Bi16  1  0.393360  0.999566  0.251874  1
  Bi  Bi17  1  0.999566  0.393360  0.251874  1
