# generated using pymatgen
data_Ti6Si6Tc5Ru
_symmetry_space_group_name_H-M   'P 1'
_cell_length_a   7.52344855
_cell_length_b   7.52245187
_cell_length_c   7.52387963
_cell_angle_alpha   126.34657530
_cell_angle_beta   129.01058155
_cell_angle_gamma   77.17562640
_symmetry_Int_Tables_number   1
_chemical_formula_structural   Ti6Si6Tc5Ru
_chemical_formula_sum   'Ti6 Si6 Tc5 Ru1'
_cell_volume   258.61382514
_cell_formula_units_Z   1
loop_
 _symmetry_equiv_pos_site_id
 _symmetry_equiv_pos_as_xyz
  1  'x, y, z'
loop_
 _atom_site_type_symbol
 _atom_site_label
 _atom_site_symmetry_multiplicity
 _atom_site_fract_x
 _atom_site_fract_y
 _atom_site_fract_z
 _atom_site_occupancy
  Ti  Ti0  1  0.248277  0.899860  0.154434  1
  Ti  Ti1  1  0.951153  0.492705  0.039262  1
  Ti  Ti2  1  0.048552  0.097039  0.545113  1
  Ti  Ti3  1  0.452491  0.492212  0.541688  1
  Ti  Ti4  1  0.747088  0.901823  0.651542  1
  Ti  Ti5  1  0.552544  0.099114  0.049455  1
  Si  Si6  1  0.751565  0.499986  0.248260  1
  Si  Si7  1  0.166966  0.159495  0.994071  1
  Si  Si8  1  0.665377  0.161369  0.494160  1
  Si  Si9  1  0.332017  0.828548  0.498755  1
  Si  Si10  1  0.251285  0.499042  0.748249  1
  Si  Si11  1  0.831389  0.829634  0.995735  1
  Tc  Tc12  1  0.499525  0.235442  0.736289  1
  Tc  Tc13  1  0.000422  0.237226  0.236686  1
  Tc  Tc14  1  0.870120  0.496975  0.626665  1
  Tc  Tc15  1  0.630725  0.758591  0.127281  1
  Tc  Tc16  1  0.369727  0.496127  0.127025  1
  Ru  Ru17  1  0.130777  0.757022  0.627539  1
