# generated using pymatgen
data_Pr16Lu4(RuPt3)3
_symmetry_space_group_name_H-M   'P 1'
_cell_length_a   11.31316400
_cell_length_b   11.31316400
_cell_length_c   6.55503700
_cell_angle_alpha   90.00000000
_cell_angle_beta   90.00000000
_cell_angle_gamma   90.00000000
_symmetry_Int_Tables_number   1
_chemical_formula_structural   Pr16Lu4(RuPt3)3
_chemical_formula_sum   'Pr16 Lu4 Ru3 Pt9'
_cell_volume   838.96397592
_cell_formula_units_Z   1
loop_
 _symmetry_equiv_pos_site_id
 _symmetry_equiv_pos_as_xyz
  1  'x, y, z'
loop_
 _atom_site_type_symbol
 _atom_site_label
 _atom_site_symmetry_multiplicity
 _atom_site_fract_x
 _atom_site_fract_y
 _atom_site_fract_z
 _atom_site_occupancy
  Pr  Pr0  1  0.088003  0.289830  0.117513  1
  Pr  Pr1  1  0.789830  0.411997  0.117513  1
  Pr  Pr2  1  0.210170  0.588003  0.117513  1
  Pr  Pr3  1  0.911997  0.710170  0.117513  1
  Pr  Pr4  1  0.413484  0.792939  0.378487  1
  Pr  Pr5  1  0.586516  0.207061  0.378487  1
  Pr  Pr6  1  0.292939  0.086516  0.378487  1
  Pr  Pr7  1  0.707061  0.913484  0.378487  1
  Pr  Pr8  1  0.413823  0.206607  0.878842  1
  Pr  Pr9  1  0.706607  0.086177  0.878842  1
  Pr  Pr10  1  0.293393  0.913823  0.878842  1
  Pr  Pr11  1  0.586177  0.793393  0.878842  1
  Pr  Pr12  1  0.088394  0.711181  0.625376  1
  Pr  Pr13  1  0.911606  0.288819  0.625376  1
  Pr  Pr14  1  0.211181  0.411606  0.625376  1
  Pr  Pr15  1  0.788819  0.588394  0.625376  1
  Lu  Lu16  1  0.000000  0.000000  0.999411  1
  Lu  Lu17  1  0.500000  0.500000  0.999411  1
  Lu  Lu18  1  0.500000  0.500000  0.499207  1
  Lu  Lu19  1  0.000000  0.000000  0.499207  1
  Ru  Ru20  1  0.500000  0.000000  0.121672  1
  Ru  Ru21  1  0.500000  0.000000  0.622020  1
  Ru  Ru22  1  0.000000  0.500000  0.880488  1
  Pt  Pt23  1  0.143734  0.854960  0.250157  1
  Pt  Pt24  1  0.354960  0.356266  0.250157  1
  Pt  Pt25  1  0.645040  0.643734  0.250157  1
  Pt  Pt26  1  0.856266  0.145040  0.250157  1
  Pt  Pt27  1  0.355694  0.644206  0.749510  1
  Pt  Pt28  1  0.144206  0.144306  0.749510  1
  Pt  Pt29  1  0.855794  0.855694  0.749510  1
  Pt  Pt30  1  0.644306  0.355794  0.749510  1
  Pt  Pt31  1  0.000000  0.500000  0.379041  1
