# generated using pymatgen
data_HfSc3(NbP)4
_symmetry_space_group_name_H-M   'P 1'
_cell_length_a   3.57175700
_cell_length_b   6.92354068
_cell_length_c   8.32674108
_cell_angle_alpha   90.33124208
_cell_angle_beta   90.00000000
_cell_angle_gamma   90.00000000
_symmetry_Int_Tables_number   1
_chemical_formula_structural   HfSc3(NbP)4
_chemical_formula_sum   'Hf1 Sc3 Nb4 P4'
_cell_volume   205.91024522
_cell_formula_units_Z   1
loop_
 _symmetry_equiv_pos_site_id
 _symmetry_equiv_pos_as_xyz
  1  'x, y, z'
loop_
 _atom_site_type_symbol
 _atom_site_label
 _atom_site_symmetry_multiplicity
 _atom_site_fract_x
 _atom_site_fract_y
 _atom_site_fract_z
 _atom_site_occupancy
  Hf  Hf0  1  0.750000  0.965469  0.333609  1
  Sc  Sc1  1  0.250000  0.034087  0.664721  1
  Sc  Sc2  1  0.250000  0.535569  0.834049  1
  Sc  Sc3  1  0.750000  0.464733  0.166254  1
  Nb  Nb4  1  0.750000  0.864892  0.943370  1
  Nb  Nb5  1  0.250000  0.638479  0.441691  1
  Nb  Nb6  1  0.750000  0.362061  0.557430  1
  Nb  Nb7  1  0.250000  0.136236  0.058504  1
  P  P8  1  0.250000  0.260975  0.356934  1
  P  P9  1  0.250000  0.761008  0.143028  1
  P  P10  1  0.750000  0.737724  0.644126  1
  P  P11  1  0.750000  0.238767  0.856284  1
