# generated using pymatgen
data_Li4Ca3SmSi7Ge
_symmetry_space_group_name_H-M   'P 1'
_cell_length_a   3.82769900
_cell_length_b   7.89848491
_cell_length_c   10.58419920
_cell_angle_alpha   89.91524977
_cell_angle_beta   90.00000000
_cell_angle_gamma   90.00000000
_symmetry_Int_Tables_number   1
_chemical_formula_structural   Li4Ca3SmSi7Ge
_chemical_formula_sum   'Li4 Ca3 Sm1 Si7 Ge1'
_cell_volume   319.99198580
_cell_formula_units_Z   1
loop_
 _symmetry_equiv_pos_site_id
 _symmetry_equiv_pos_as_xyz
  1  'x, y, z'
loop_
 _atom_site_type_symbol
 _atom_site_label
 _atom_site_symmetry_multiplicity
 _atom_site_fract_x
 _atom_site_fract_y
 _atom_site_fract_z
 _atom_site_occupancy
  Li  Li0  1  0.250000  0.997676  0.388417  1
  Li  Li1  1  0.750000  0.000869  0.609645  1
  Li  Li2  1  0.250000  0.496733  0.111057  1
  Li  Li3  1  0.750000  0.505728  0.887902  1
  Ca  Ca4  1  0.750000  0.867621  0.135968  1
  Ca  Ca5  1  0.250000  0.634619  0.636078  1
  Ca  Ca6  1  0.750000  0.364491  0.365320  1
  Sm  Sm7  1  0.250000  0.131531  0.865202  1
  Si  Si8  1  0.750000  0.268588  0.064715  1
  Si  Si9  1  0.750000  0.767287  0.431766  1
  Si  Si10  1  0.250000  0.228135  0.571627  1
  Si  Si11  1  0.750000  0.841800  0.820616  1
  Si  Si12  1  0.250000  0.164923  0.171932  1
  Si  Si13  1  0.750000  0.331906  0.679242  1
  Si  Si14  1  0.250000  0.664893  0.324957  1
  Ge  Ge15  1  0.250000  0.733199  0.935556  1
