# generated using pymatgen
data_Dy3Lu(ScAu)4
_symmetry_space_group_name_H-M   'P 1'
_cell_length_a   4.75925600
_cell_length_b   6.97183913
_cell_length_c   8.59948817
_cell_angle_alpha   89.63179164
_cell_angle_beta   90.00000000
_cell_angle_gamma   90.00000000
_symmetry_Int_Tables_number   1
_chemical_formula_structural   Dy3Lu(ScAu)4
_chemical_formula_sum   'Dy3 Lu1 Sc4 Au4'
_cell_volume   285.33172302
_cell_formula_units_Z   1
loop_
 _symmetry_equiv_pos_site_id
 _symmetry_equiv_pos_as_xyz
  1  'x, y, z'
loop_
 _atom_site_type_symbol
 _atom_site_label
 _atom_site_symmetry_multiplicity
 _atom_site_fract_x
 _atom_site_fract_y
 _atom_site_fract_z
 _atom_site_occupancy
  Dy  Dy0  1  0.250000  0.983410  0.320378  1
  Dy  Dy1  1  0.750000  0.516633  0.821045  1
  Dy  Dy2  1  0.750000  0.016537  0.679180  1
  Lu  Lu3  1  0.250000  0.483006  0.178481  1
  Sc  Sc4  1  0.250000  0.854347  0.924483  1
  Sc  Sc5  1  0.250000  0.354668  0.575961  1
  Sc  Sc6  1  0.750000  0.146460  0.077567  1
  Sc  Sc7  1  0.750000  0.645050  0.420566  1
  Au  Au8  1  0.250000  0.248661  0.899563  1
  Au  Au9  1  0.250000  0.747097  0.603987  1
  Au  Au10  1  0.750000  0.750628  0.103010  1
  Au  Au11  1  0.750000  0.253503  0.395779  1
