# generated using pymatgen
data_Ce2DyY(B4Ru)4
_symmetry_space_group_name_H-M   'P 1'
_cell_length_a   3.59599700
_cell_length_b   5.98976703
_cell_length_c   11.60668807
_cell_angle_alpha   90.17180366
_cell_angle_beta   90.00000000
_cell_angle_gamma   90.00000000
_symmetry_Int_Tables_number   1
_chemical_formula_structural   Ce2DyY(B4Ru)4
_chemical_formula_sum   'Ce2 Dy1 Y1 B16 Ru4'
_cell_volume   249.99746926
_cell_formula_units_Z   1
loop_
 _symmetry_equiv_pos_site_id
 _symmetry_equiv_pos_as_xyz
  1  'x, y, z'
loop_
 _atom_site_type_symbol
 _atom_site_label
 _atom_site_symmetry_multiplicity
 _atom_site_fract_x
 _atom_site_fract_y
 _atom_site_fract_z
 _atom_site_occupancy
  Ce  Ce0  1  0.000000  0.129445  0.650942  1
  Ce  Ce1  1  0.000000  0.870593  0.349062  1
  Dy  Dy2  1  0.000000  0.371720  0.147888  1
  Y  Y3  1  0.000000  0.628302  0.852150  1
  B  B4  1  0.500000  0.476220  0.692164  1
  B  B5  1  0.500000  0.523623  0.307751  1
  B  B6  1  0.500000  0.973778  0.810211  1
  B  B7  1  0.500000  0.026439  0.189745  1
  B  B8  1  0.500000  0.288695  0.815550  1
  B  B9  1  0.500000  0.711062  0.184407  1
  B  B10  1  0.500000  0.785605  0.686788  1
  B  B11  1  0.500000  0.214524  0.313090  1
  B  B12  1  0.500000  0.363669  0.969235  1
  B  B13  1  0.500000  0.636153  0.030969  1
  B  B14  1  0.500000  0.862374  0.531006  1
  B  B15  1  0.500000  0.137648  0.468968  1
  B  B16  1  0.500000  0.389281  0.546588  1
  B  B17  1  0.500000  0.610690  0.453390  1
  B  B18  1  0.500000  0.887222  0.954251  1
  B  B19  1  0.500000  0.112914  0.045839  1
  Ru  Ru20  1  0.000000  0.138636  0.906772  1
  Ru  Ru21  1  0.000000  0.861386  0.093350  1
  Ru  Ru22  1  0.000000  0.639530  0.593381  1
  Ru  Ru23  1  0.000000  0.360492  0.406501  1
