# generated using pymatgen
data_Y3Tm5(LuIr3)2
_symmetry_space_group_name_H-M   'P 1'
_cell_length_a   10.79182407
_cell_length_b   10.79053700
_cell_length_c   6.31409304
_cell_angle_alpha   90.00000000
_cell_angle_beta   90.01277369
_cell_angle_gamma   90.00000000
_symmetry_Int_Tables_number   1
_chemical_formula_structural   Y3Tm5(LuIr3)2
_chemical_formula_sum   'Y6 Tm10 Lu4 Ir12'
_cell_volume   735.27344461
_cell_formula_units_Z   2
loop_
 _symmetry_equiv_pos_site_id
 _symmetry_equiv_pos_as_xyz
  1  'x, y, z'
loop_
 _atom_site_type_symbol
 _atom_site_label
 _atom_site_symmetry_multiplicity
 _atom_site_fract_x
 _atom_site_fract_y
 _atom_site_fract_z
 _atom_site_occupancy
  Y  Y0  1  0.289230  0.088419  0.376393  1
  Y  Y1  1  0.289230  0.911581  0.876393  1
  Y  Y2  1  0.710266  0.088595  0.876664  1
  Y  Y3  1  0.710266  0.911405  0.376664  1
  Y  Y4  1  0.588069  0.788914  0.876319  1
  Y  Y5  1  0.588069  0.211086  0.376319  1
  Tm  Tm6  1  0.412073  0.790622  0.377800  1
  Tm  Tm7  1  0.412073  0.209378  0.877800  1
  Tm  Tm8  1  0.208706  0.412944  0.622118  1
  Tm  Tm9  1  0.208706  0.587056  0.122118  1
  Tm  Tm10  1  0.791897  0.413492  0.121576  1
  Tm  Tm11  1  0.791897  0.586508  0.621576  1
  Tm  Tm12  1  0.913502  0.708111  0.121994  1
  Tm  Tm13  1  0.913502  0.291889  0.621994  1
  Tm  Tm14  1  0.086679  0.708033  0.621562  1
  Tm  Tm15  1  0.086679  0.291967  0.121562  1
  Lu  Lu16  1  0.000109  0.999991  0.501464  1
  Lu  Lu17  1  0.000109  0.000009  0.001464  1
  Lu  Lu18  1  0.499612  0.499478  0.000728  1
  Lu  Lu19  1  0.499612  0.500522  0.500728  1
  Ir  Ir20  1  0.850533  0.153850  0.251111  1
  Ir  Ir21  1  0.850533  0.846150  0.751111  1
  Ir  Ir22  1  0.151036  0.154064  0.752031  1
  Ir  Ir23  1  0.151036  0.845936  0.252031  1
  Ir  Ir24  1  0.652693  0.349960  0.751795  1
  Ir  Ir25  1  0.652693  0.650040  0.251795  1
  Ir  Ir26  1  0.346623  0.349667  0.248199  1
  Ir  Ir27  1  0.346623  0.650333  0.748199  1
  Ir  Ir28  1  0.498870  0.000069  0.123537  1
  Ir  Ir29  1  0.498870  0.999931  0.623537  1
  Ir  Ir30  1  0.000103  0.500012  0.876709  1
  Ir  Ir31  1  0.000103  0.499988  0.376709  1
