# generated using pymatgen
data_Zr7CrCo16(SiP)6
_symmetry_space_group_name_H-M   'P 1'
_cell_length_a   12.15192878
_cell_length_b   12.15669745
_cell_length_c   3.66157400
_cell_angle_alpha   90.00000000
_cell_angle_beta   90.00000000
_cell_angle_gamma   120.08353769
_symmetry_Int_Tables_number   1
_chemical_formula_structural   Zr7CrCo16(SiP)6
_chemical_formula_sum   'Zr7 Cr1 Co16 Si6 P6'
_cell_volume   468.05088898
_cell_formula_units_Z   1
loop_
 _symmetry_equiv_pos_site_id
 _symmetry_equiv_pos_as_xyz
  1  'x, y, z'
loop_
 _atom_site_type_symbol
 _atom_site_label
 _atom_site_symmetry_multiplicity
 _atom_site_fract_x
 _atom_site_fract_y
 _atom_site_fract_z
 _atom_site_occupancy
  Zr  Zr0  1  0.557914  0.999467  0.000000  1
  Zr  Zr1  1  0.000069  0.557869  0.000000  1
  Zr  Zr2  1  0.668015  0.333954  0.000000  1
  Zr  Zr3  1  0.333271  0.665771  0.000000  1
  Zr  Zr4  1  0.815450  0.814655  0.500000  1
  Zr  Zr5  1  0.180809  0.002072  0.500000  1
  Zr  Zr6  1  0.001222  0.180039  0.500000  1
  Cr  Cr7  1  0.440893  0.442061  0.000000  1
  Co  Co8  1  0.204855  0.376714  0.000000  1
  Co  Co9  1  0.179395  0.803820  0.000000  1
  Co  Co10  1  0.817897  0.622292  0.000000  1
  Co  Co11  1  0.804029  0.179015  0.000000  1
  Co  Co12  1  0.371919  0.202302  0.000000  1
  Co  Co13  1  0.132227  0.482585  0.500000  1
  Co  Co14  1  0.356048  0.873432  0.500000  1
  Co  Co15  1  0.513796  0.638436  0.500000  1
  Co  Co16  1  0.642464  0.520574  0.500000  1
  Co  Co17  1  0.875382  0.355731  0.500000  1
  Co  Co18  1  0.482017  0.128470  0.500000  1
  Co  Co19  1  0.005559  0.005765  0.000000  1
  Co  Co20  1  0.718329  0.997493  0.500000  1
  Co  Co21  1  0.998462  0.718375  0.500000  1
  Co  Co22  1  0.620731  0.815914  0.000000  1
  Co  Co23  1  0.279718  0.283371  0.500000  1
  Si  Si24  1  0.639586  0.639442  0.000000  1
  Si  Si25  1  0.349100  0.004629  0.000000  1
  Si  Si26  1  0.004662  0.348750  0.000000  1
  Si  Si27  1  0.481789  0.317152  0.500000  1
  Si  Si28  1  0.821685  0.997363  0.000000  1
  Si  Si29  1  0.998596  0.822504  0.000000  1
  P  P30  1  0.693192  0.175114  0.500000  1
  P  P31  1  0.823470  0.516935  0.500000  1
  P  P32  1  0.516297  0.822899  0.500000  1
  P  P33  1  0.175422  0.693058  0.500000  1
  P  P34  1  0.315556  0.480797  0.500000  1
  P  P35  1  0.180170  0.181176  0.000000  1
