# generated using pymatgen
data_La4Nd12MgHg3Rh4
_symmetry_space_group_name_H-M   'P 1'
_cell_length_a   9.95818597
_cell_length_b   9.99170290
_cell_length_c   9.99170300
_cell_angle_alpha   60.00000299
_cell_angle_beta   59.88860175
_cell_angle_gamma   59.88860229
_symmetry_Int_Tables_number   1
_chemical_formula_structural   La4Nd12MgHg3Rh4
_chemical_formula_sum   'La4 Nd12 Mg1 Hg3 Rh4'
_cell_volume   701.79611684
_cell_formula_units_Z   1
loop_
 _symmetry_equiv_pos_site_id
 _symmetry_equiv_pos_as_xyz
  1  'x, y, z'
loop_
 _atom_site_type_symbol
 _atom_site_label
 _atom_site_symmetry_multiplicity
 _atom_site_fract_x
 _atom_site_fract_y
 _atom_site_fract_z
 _atom_site_occupancy
  La  La0  1  0.598998  0.597762  0.597762  1
  La  La1  1  0.598998  0.597762  0.205479  1
  La  La2  1  0.598998  0.205479  0.597762  1
  La  La3  1  0.198127  0.600625  0.600625  1
  Nd  Nd4  1  0.058648  0.440623  0.440623  1
  Nd  Nd5  1  0.436211  0.062425  0.062425  1
  Nd  Nd6  1  0.436211  0.062425  0.438938  1
  Nd  Nd7  1  0.058648  0.440623  0.060106  1
  Nd  Nd8  1  0.436211  0.438938  0.062425  1
  Nd  Nd9  1  0.058648  0.060106  0.440623  1
  Nd  Nd10  1  0.186473  0.813651  0.813651  1
  Nd  Nd11  1  0.811970  0.187051  0.187051  1
  Nd  Nd12  1  0.811970  0.187051  0.813929  1
  Nd  Nd13  1  0.186473  0.813651  0.186225  1
  Nd  Nd14  1  0.811970  0.813929  0.187051  1
  Nd  Nd15  1  0.186473  0.186225  0.813651  1
  Mg  Mg16  1  0.537972  0.820676  0.820676  1
  Hg  Hg17  1  0.830194  0.835935  0.835935  1
  Hg  Hg18  1  0.830194  0.835935  0.497938  1
  Hg  Hg19  1  0.830194  0.497938  0.835935  1
  Rh  Rh20  1  0.391657  0.392723  0.392723  1
  Rh  Rh21  1  0.391657  0.392723  0.822895  1
  Rh  Rh22  1  0.391657  0.822895  0.392723  1
  Rh  Rh23  1  0.821452  0.392849  0.392849  1
