# generated using pymatgen
data_Tm8ReB24IrW2
_symmetry_space_group_name_H-M   'P 1'
_cell_length_a   3.61240400
_cell_length_b   9.16272876
_cell_length_c   11.53608000
_cell_angle_alpha   90.13121806
_cell_angle_beta   90.00000000
_cell_angle_gamma   90.00000000
_symmetry_Int_Tables_number   1
_chemical_formula_structural   Tm8ReB24IrW2
_chemical_formula_sum   'Tm8 Re1 B24 Ir1 W2'
_cell_volume   381.83722506
_cell_formula_units_Z   1
loop_
 _symmetry_equiv_pos_site_id
 _symmetry_equiv_pos_as_xyz
  1  'x, y, z'
loop_
 _atom_site_type_symbol
 _atom_site_label
 _atom_site_symmetry_multiplicity
 _atom_site_fract_x
 _atom_site_fract_y
 _atom_site_fract_z
 _atom_site_occupancy
  Tm  Tm0  1  0.000000  0.317370  0.415108  1
  Tm  Tm1  1  0.000000  0.680690  0.591092  1
  Tm  Tm2  1  0.000000  0.824376  0.080619  1
  Tm  Tm3  1  0.000000  0.176780  0.912607  1
  Tm  Tm4  1  0.000000  0.942536  0.371907  1
  Tm  Tm5  1  0.000000  0.053388  0.628791  1
  Tm  Tm6  1  0.000000  0.443912  0.128055  1
  Tm  Tm7  1  0.000000  0.558575  0.872720  1
  Re  Re8  1  0.000000  0.860795  0.820511  1
  B  B9  1  0.500000  0.554301  0.433359  1
  B  B10  1  0.500000  0.449611  0.563500  1
  B  B11  1  0.500000  0.051024  0.063994  1
  B  B12  1  0.500000  0.947050  0.932185  1
  B  B13  1  0.500000  0.749300  0.420243  1
  B  B14  1  0.500000  0.247105  0.578013  1
  B  B15  1  0.500000  0.252211  0.078436  1
  B  B16  1  0.500000  0.752009  0.919001  1
  B  B17  1  0.500000  0.791320  0.264925  1
  B  B18  1  0.500000  0.204777  0.736082  1
  B  B19  1  0.500000  0.295583  0.236970  1
  B  B20  1  0.500000  0.708413  0.766176  1
  B  B21  1  0.500000  0.631943  0.183918  1
  B  B22  1  0.500000  0.369253  0.817267  1
  B  B23  1  0.500000  0.130926  0.318001  1
  B  B24  1  0.500000  0.868684  0.685402  1
  B  B25  1  0.500000  0.977188  0.212314  1
  B  B26  1  0.500000  0.017250  0.787103  1
  B  B27  1  0.500000  0.483102  0.287820  1
  B  B28  1  0.500000  0.523502  0.712812  1
  B  B29  1  0.500000  0.603904  0.029804  1
  B  B30  1  0.500000  0.398783  0.972133  1
  B  B31  1  0.500000  0.099705  0.471644  1
  B  B32  1  0.500000  0.895272  0.528447  1
  Ir  Ir33  1  0.000000  0.638323  0.321231  1
  W  W34  1  0.000000  0.362624  0.677804  1
  W  W35  1  0.000000  0.138418  0.180006  1
