# generated using pymatgen
data_Rb2Co2RhS4
_symmetry_space_group_name_H-M   'P 1'
_cell_length_a   9.22552418
_cell_length_b   8.31290071
_cell_length_c   5.72301300
_cell_angle_alpha   79.86278941
_cell_angle_beta   62.49986695
_cell_angle_gamma   38.90437199
_symmetry_Int_Tables_number   1
_chemical_formula_structural   Rb2Co2RhS4
_chemical_formula_sum   'Rb2 Co2 Rh1 S4'
_cell_volume   230.87692584
_cell_formula_units_Z   1
loop_
 _symmetry_equiv_pos_site_id
 _symmetry_equiv_pos_as_xyz
  1  'x, y, z'
loop_
 _atom_site_type_symbol
 _atom_site_label
 _atom_site_symmetry_multiplicity
 _atom_site_fract_x
 _atom_site_fract_y
 _atom_site_fract_z
 _atom_site_occupancy
  Rb  Rb0  1  0.647298  0.647623  0.352618  1
  Rb  Rb1  1  0.352377  0.352702  0.647539  1
  Co  Co2  1  0.999991  0.000009  0.999920  1
  Co  Co3  1  0.999945  0.000055  0.500075  1
  Rh  Rh4  1  0.500172  0.499828  0.999978  1
  S  S5  1  0.249190  0.944321  0.077609  1
  S  S6  1  0.055679  0.750810  0.271121  1
  S  S7  1  0.944491  0.249146  0.728755  1
  S  S8  1  0.750854  0.055509  0.922391  1
