# generated using pymatgen
data_Dy(BIr)4
_symmetry_space_group_name_H-M   'P 1'
_cell_length_a   7.64133600
_cell_length_b   7.64133600
_cell_length_c   3.99069700
_cell_angle_alpha   90.00000000
_cell_angle_beta   90.00000000
_cell_angle_gamma   90.00000000
_symmetry_Int_Tables_number   1
_chemical_formula_structural   Dy(BIr)4
_chemical_formula_sum   'Dy2 B8 Ir8'
_cell_volume   233.01686114
_cell_formula_units_Z   2
loop_
 _symmetry_equiv_pos_site_id
 _symmetry_equiv_pos_as_xyz
  1  'x, y, z'
loop_
 _atom_site_type_symbol
 _atom_site_label
 _atom_site_symmetry_multiplicity
 _atom_site_fract_x
 _atom_site_fract_y
 _atom_site_fract_z
 _atom_site_occupancy
  Dy  Dy0  1  0.500000  0.500000  0.000000  1
  Dy  Dy1  1  0.000000  0.000000  0.500000  1
  B  B2  1  0.657800  0.778082  0.611357  1
  B  B3  1  0.157800  0.278082  0.888643  1
  B  B4  1  0.278082  0.842200  0.111357  1
  B  B5  1  0.721918  0.157800  0.111357  1
  B  B6  1  0.342200  0.221918  0.611357  1
  B  B7  1  0.842200  0.721918  0.888643  1
  B  B8  1  0.221918  0.657800  0.388643  1
  B  B9  1  0.778082  0.342200  0.388643  1
  Ir  Ir10  1  0.340059  0.109692  0.112598  1
  Ir  Ir11  1  0.659941  0.890308  0.112598  1
  Ir  Ir12  1  0.609692  0.159941  0.612598  1
  Ir  Ir13  1  0.109692  0.659941  0.887402  1
  Ir  Ir14  1  0.159941  0.390308  0.387402  1
  Ir  Ir15  1  0.840059  0.609692  0.387402  1
  Ir  Ir16  1  0.890308  0.340059  0.887402  1
  Ir  Ir17  1  0.390308  0.840059  0.612598  1
