# generated using pymatgen
data_La6TbPt3
_symmetry_space_group_name_H-M   'P 1'
_cell_length_a   10.31450700
_cell_length_b   10.31450804
_cell_length_c   6.55168300
_cell_angle_alpha   90.00000000
_cell_angle_beta   90.00000000
_cell_angle_gamma   119.99999988
_symmetry_Int_Tables_number   1
_chemical_formula_structural   La6TbPt3
_chemical_formula_sum   'La12 Tb2 Pt6'
_cell_volume   603.64346308
_cell_formula_units_Z   2
loop_
 _symmetry_equiv_pos_site_id
 _symmetry_equiv_pos_as_xyz
  1  'x, y, z'
loop_
 _atom_site_type_symbol
 _atom_site_label
 _atom_site_symmetry_multiplicity
 _atom_site_fract_x
 _atom_site_fract_y
 _atom_site_fract_z
 _atom_site_occupancy
  La  La0  1  0.871776  0.743551  0.749771  1
  La  La1  1  0.256449  0.128224  0.749771  1
  La  La2  1  0.871776  0.128224  0.749771  1
  La  La3  1  0.128224  0.256449  0.249771  1
  La  La4  1  0.743551  0.871776  0.249771  1
  La  La5  1  0.128224  0.871776  0.249771  1
  La  La6  1  0.462083  0.924166  0.560168  1
  La  La7  1  0.075834  0.537917  0.560168  1
  La  La8  1  0.462083  0.537917  0.560168  1
  La  La9  1  0.537917  0.075834  0.060168  1
  La  La10  1  0.924166  0.462083  0.060168  1
  La  La11  1  0.537917  0.462083  0.060168  1
  Tb  Tb12  1  0.666667  0.333333  0.536356  1
  Tb  Tb13  1  0.333333  0.666667  0.036356  1
  Pt  Pt14  1  0.190526  0.381053  0.813696  1
  Pt  Pt15  1  0.618947  0.809474  0.813696  1
  Pt  Pt16  1  0.190526  0.809474  0.813696  1
  Pt  Pt17  1  0.809474  0.618947  0.313696  1
  Pt  Pt18  1  0.381053  0.190526  0.313696  1
  Pt  Pt19  1  0.809474  0.190526  0.313696  1
