# generated using pymatgen
data_Tm12Th4Tl3CdIr4
_symmetry_space_group_name_H-M   'P 1'
_cell_length_a   9.69956627
_cell_length_b   9.71163175
_cell_length_c   9.71156300
_cell_angle_alpha   60.00255707
_cell_angle_beta   59.96003431
_cell_angle_gamma   60.00712091
_symmetry_Int_Tables_number   1
_chemical_formula_structural   Tm12Th4Tl3CdIr4
_chemical_formula_sum   'Tm12 Th4 Tl3 Cd1 Ir4'
_cell_volume   646.72410612
_cell_formula_units_Z   1
loop_
 _symmetry_equiv_pos_site_id
 _symmetry_equiv_pos_as_xyz
  1  'x, y, z'
loop_
 _atom_site_type_symbol
 _atom_site_label
 _atom_site_symmetry_multiplicity
 _atom_site_fract_x
 _atom_site_fract_y
 _atom_site_fract_z
 _atom_site_occupancy
  Tm  Tm0  1  0.062037  0.437827  0.437788  1
  Tm  Tm1  1  0.437242  0.062649  0.062101  1
  Tm  Tm2  1  0.437240  0.062637  0.438003  1
  Tm  Tm3  1  0.062062  0.437822  0.062330  1
  Tm  Tm4  1  0.437203  0.438239  0.062262  1
  Tm  Tm5  1  0.062103  0.062427  0.437728  1
  Tm  Tm6  1  0.188382  0.814117  0.814162  1
  Tm  Tm7  1  0.814435  0.186220  0.186721  1
  Tm  Tm8  1  0.814406  0.186247  0.812638  1
  Tm  Tm9  1  0.188359  0.814130  0.183352  1
  Tm  Tm10  1  0.814990  0.813422  0.185805  1
  Tm  Tm11  1  0.189418  0.184408  0.813092  1
  Th  Th12  1  0.599088  0.600177  0.599149  1
  Th  Th13  1  0.599101  0.600169  0.201589  1
  Th  Th14  1  0.599854  0.199878  0.600131  1
  Th  Th15  1  0.198765  0.600328  0.600449  1
  Tl  Tl16  1  0.835180  0.839121  0.839258  1
  Tl  Tl17  1  0.835184  0.839123  0.486441  1
  Tl  Tl18  1  0.833988  0.487839  0.839085  1
  Cd  Cd19  1  0.493432  0.834911  0.835832  1
  Ir  Ir20  1  0.391327  0.391648  0.392854  1
  Ir  Ir21  1  0.391337  0.391651  0.824167  1
  Ir  Ir22  1  0.391222  0.823761  0.392511  1
  Ir  Ir23  1  0.823643  0.391245  0.392551  1
