# generated using pymatgen
data_TmCoP3Ir3Rh
_symmetry_space_group_name_H-M   'P 1'
_cell_length_a   3.90572100
_cell_length_b   10.72299400
_cell_length_c   12.39158400
_cell_angle_alpha   90.00000000
_cell_angle_beta   90.00000000
_cell_angle_gamma   90.00000000
_symmetry_Int_Tables_number   1
_chemical_formula_structural   TmCoP3Ir3Rh
_chemical_formula_sum   'Tm4 Co4 P12 Ir12 Rh4'
_cell_volume   518.97221264
_cell_formula_units_Z   4
loop_
 _symmetry_equiv_pos_site_id
 _symmetry_equiv_pos_as_xyz
  1  'x, y, z'
loop_
 _atom_site_type_symbol
 _atom_site_label
 _atom_site_symmetry_multiplicity
 _atom_site_fract_x
 _atom_site_fract_y
 _atom_site_fract_z
 _atom_site_occupancy
  Tm  Tm0  1  0.250000  0.584819  0.709496  1
  Tm  Tm1  1  0.250000  0.915181  0.209496  1
  Tm  Tm2  1  0.750000  0.415181  0.290504  1
  Tm  Tm3  1  0.750000  0.084819  0.790504  1
  Co  Co4  1  0.250000  0.462782  0.933762  1
  Co  Co5  1  0.250000  0.037218  0.433762  1
  Co  Co6  1  0.750000  0.537218  0.066238  1
  Co  Co7  1  0.750000  0.962782  0.566238  1
  P  P8  1  0.250000  0.425677  0.105774  1
  P  P9  1  0.250000  0.074323  0.605774  1
  P  P10  1  0.750000  0.574323  0.894226  1
  P  P11  1  0.750000  0.925677  0.394226  1
  P  P12  1  0.250000  0.270387  0.871631  1
  P  P13  1  0.250000  0.229613  0.371631  1
  P  P14  1  0.750000  0.729613  0.128369  1
  P  P15  1  0.750000  0.770387  0.628369  1
  P  P16  1  0.250000  0.595747  0.385118  1
  P  P17  1  0.250000  0.904253  0.885118  1
  P  P18  1  0.750000  0.404253  0.614882  1
  P  P19  1  0.750000  0.095747  0.114882  1
  Ir  Ir20  1  0.250000  0.407850  0.477333  1
  Ir  Ir21  1  0.250000  0.092150  0.977333  1
  Ir  Ir22  1  0.750000  0.592150  0.522667  1
  Ir  Ir23  1  0.750000  0.907850  0.022667  1
  Ir  Ir24  1  0.250000  0.231858  0.180261  1
  Ir  Ir25  1  0.250000  0.268142  0.680261  1
  Ir  Ir26  1  0.750000  0.768142  0.819739  1
  Ir  Ir27  1  0.750000  0.731858  0.319739  1
  Ir  Ir28  1  0.250000  0.886692  0.698461  1
  Ir  Ir29  1  0.250000  0.613308  0.198461  1
  Ir  Ir30  1  0.750000  0.113308  0.301539  1
  Ir  Ir31  1  0.750000  0.386692  0.801539  1
  Rh  Rh32  1  0.250000  0.719833  0.981347  1
  Rh  Rh33  1  0.250000  0.780167  0.481347  1
  Rh  Rh34  1  0.750000  0.280167  0.018653  1
  Rh  Rh35  1  0.750000  0.219833  0.518653  1
