# generated using pymatgen
data_Sc7Ti(Si4Ru3)4
_symmetry_space_group_name_H-M   'P 1'
_cell_length_a   9.87527813
_cell_length_b   9.88905058
_cell_length_c   13.33437400
_cell_angle_alpha   53.93021572
_cell_angle_beta   53.94121293
_cell_angle_gamma   31.19507430
_symmetry_Int_Tables_number   1
_chemical_formula_structural   Sc7Ti(Si4Ru3)4
_chemical_formula_sum   'Sc7 Ti1 Si16 Ru12'
_cell_volume   533.83235271
_cell_formula_units_Z   1
loop_
 _symmetry_equiv_pos_site_id
 _symmetry_equiv_pos_as_xyz
  1  'x, y, z'
loop_
 _atom_site_type_symbol
 _atom_site_label
 _atom_site_symmetry_multiplicity
 _atom_site_fract_x
 _atom_site_fract_y
 _atom_site_fract_z
 _atom_site_occupancy
  Sc  Sc0  1  0.295929  0.559478  0.644295  1
  Sc  Sc1  1  0.439137  0.706839  0.856134  1
  Sc  Sc2  1  0.705960  0.441225  0.354049  1
  Sc  Sc3  1  0.561156  0.291784  0.146018  1
  Sc  Sc4  1  0.036197  0.292755  0.638993  1
  Sc  Sc5  1  0.708276  0.963129  0.860135  1
  Sc  Sc6  1  0.963817  0.707487  0.360740  1
  Ti  Ti7  1  0.299906  0.040066  0.130601  1
  Si  Si8  1  0.876397  0.126227  0.250043  1
  Si  Si9  1  0.128716  0.872019  0.749861  1
  Si  Si10  1  0.383971  0.619980  0.249102  1
  Si  Si11  1  0.615787  0.382989  0.750988  1
  Si  Si12  1  0.975031  0.252776  0.893260  1
  Si  Si13  1  0.747102  0.025631  0.606638  1
  Si  Si14  1  0.025407  0.744888  0.108446  1
  Si  Si15  1  0.251713  0.977897  0.388868  1
  Si  Si16  1  0.573005  0.079745  0.066564  1
  Si  Si17  1  0.921451  0.424266  0.432792  1
  Si  Si18  1  0.425529  0.919270  0.936646  1
  Si  Si19  1  0.079322  0.575084  0.568032  1
  Si  Si20  1  0.386960  0.141857  0.398302  1
  Si  Si21  1  0.852879  0.612226  0.102629  1
  Si  Si22  1  0.610889  0.861255  0.601110  1
  Si  Si23  1  0.143014  0.384912  0.899168  1
  Ru  Ru24  1  0.648537  0.830267  0.281435  1
  Ru  Ru25  1  0.167393  0.349242  0.216530  1
  Ru  Ru26  1  0.754239  0.485307  0.069678  1
  Ru  Ru27  1  0.828390  0.649854  0.783422  1
  Ru  Ru28  1  0.897232  0.141932  0.585831  1
  Ru  Ru29  1  0.857120  0.102853  0.914717  1
  Ru  Ru30  1  0.104433  0.856902  0.414284  1
  Ru  Ru31  1  0.143099  0.896536  0.086576  1
  Ru  Ru32  1  0.241172  0.511877  0.933484  1
  Ru  Ru33  1  0.493936  0.749658  0.568359  1
  Ru  Ru34  1  0.506327  0.250971  0.432289  1
  Ru  Ru35  1  0.350570  0.170815  0.719981  1
