# generated using pymatgen
data_Tm8Co(Si4Ni)3
_symmetry_space_group_name_H-M   'P 1'
_cell_length_a   7.90855400
_cell_length_b   7.90855342
_cell_length_c   7.89564900
_cell_angle_alpha   90.00000000
_cell_angle_beta   90.00000000
_cell_angle_gamma   120.00000243
_symmetry_Int_Tables_number   1
_chemical_formula_structural   Tm8Co(Si4Ni)3
_chemical_formula_sum   'Tm8 Co1 Si12 Ni3'
_cell_volume   427.67374678
_cell_formula_units_Z   1
loop_
 _symmetry_equiv_pos_site_id
 _symmetry_equiv_pos_as_xyz
  1  'x, y, z'
loop_
 _atom_site_type_symbol
 _atom_site_label
 _atom_site_symmetry_multiplicity
 _atom_site_fract_x
 _atom_site_fract_y
 _atom_site_fract_z
 _atom_site_occupancy
  Tm  Tm0  1  0.499969  0.999938  0.248403  1
  Tm  Tm1  1  0.497948  0.995897  0.751537  1
  Tm  Tm2  1  0.000062  0.500031  0.248403  1
  Tm  Tm3  1  0.004103  0.502052  0.751537  1
  Tm  Tm4  1  0.499969  0.500031  0.248403  1
  Tm  Tm5  1  0.497948  0.502052  0.751537  1
  Tm  Tm6  1  0.000000  0.000000  0.250309  1
  Tm  Tm7  1  0.000000  0.000000  0.749763  1
  Co  Co8  1  0.333333  0.666667  0.003649  1
  Si  Si9  1  0.172168  0.344336  0.000734  1
  Si  Si10  1  0.829618  0.659235  0.999295  1
  Si  Si11  1  0.655664  0.827832  0.000734  1
  Si  Si12  1  0.829118  0.658236  0.500718  1
  Si  Si13  1  0.340765  0.170382  0.999295  1
  Si  Si14  1  0.170327  0.340655  0.499328  1
  Si  Si15  1  0.172168  0.827832  0.000734  1
  Si  Si16  1  0.341764  0.170882  0.500718  1
  Si  Si17  1  0.829618  0.170382  0.999295  1
  Si  Si18  1  0.659345  0.829673  0.499328  1
  Si  Si19  1  0.829118  0.170882  0.500718  1
  Si  Si20  1  0.170327  0.829673  0.499328  1
  Ni  Ni21  1  0.666667  0.333333  0.996696  1
  Ni  Ni22  1  0.666667  0.333333  0.502489  1
  Ni  Ni23  1  0.333333  0.666667  0.497051  1
