# generated using pymatgen
data_Y2Er8NiAg3
_symmetry_space_group_name_H-M   'P 1'
_cell_length_a   9.44426500
_cell_length_b   9.44226234
_cell_length_c   9.53582000
_cell_angle_alpha   90.00000000
_cell_angle_beta   90.00000000
_cell_angle_gamma   119.99373713
_symmetry_Int_Tables_number   1
_chemical_formula_structural   Y2Er8NiAg3
_chemical_formula_sum   'Y4 Er16 Ni2 Ag6'
_cell_volume   736.47889861
_cell_formula_units_Z   2
loop_
 _symmetry_equiv_pos_site_id
 _symmetry_equiv_pos_as_xyz
  1  'x, y, z'
loop_
 _atom_site_type_symbol
 _atom_site_label
 _atom_site_symmetry_multiplicity
 _atom_site_fract_x
 _atom_site_fract_y
 _atom_site_fract_z
 _atom_site_occupancy
  Y  Y0  1  0.911834  0.455924  0.250000  1
  Y  Y1  1  0.456545  0.543299  0.750000  1
  Y  Y2  1  0.456539  0.913257  0.750000  1
  Y  Y3  1  0.086491  0.543251  0.750000  1
  Er  Er4  1  0.000387  0.000189  0.499793  1
  Er  Er5  1  0.000387  0.000189  0.000207  1
  Er  Er6  1  0.543086  0.456126  0.250000  1
  Er  Er7  1  0.543101  0.086987  0.250000  1
  Er  Er8  1  0.210740  0.790670  0.438792  1
  Er  Er9  1  0.210738  0.420070  0.438806  1
  Er  Er10  1  0.580175  0.790087  0.438492  1
  Er  Er11  1  0.789392  0.209566  0.560202  1
  Er  Er12  1  0.789388  0.579810  0.560194  1
  Er  Er13  1  0.420559  0.210285  0.559711  1
  Er  Er14  1  0.789392  0.209566  0.939798  1
  Er  Er15  1  0.789388  0.579810  0.939806  1
  Er  Er16  1  0.420559  0.210285  0.940289  1
  Er  Er17  1  0.210740  0.790670  0.061208  1
  Er  Er18  1  0.210738  0.420070  0.061194  1
  Er  Er19  1  0.580175  0.790087  0.061508  1
  Ni  Ni20  1  0.333596  0.666794  0.250000  1
  Ni  Ni21  1  0.666720  0.333352  0.750000  1
  Ag  Ag22  1  0.883491  0.114360  0.250000  1
  Ag  Ag23  1  0.883486  0.769127  0.250000  1
  Ag  Ag24  1  0.232200  0.116102  0.250000  1
  Ag  Ag25  1  0.114937  0.885270  0.750000  1
  Ag  Ag26  1  0.114951  0.229674  0.750000  1
  Ag  Ag27  1  0.770264  0.885122  0.750000  1
