# generated using pymatgen
data_SmHo2Al7Cu2
_symmetry_space_group_name_H-M   'P 1'
_cell_length_a   9.11967413
_cell_length_b   9.11967398
_cell_length_c   9.11967518
_cell_angle_alpha   35.15835952
_cell_angle_beta   35.15836094
_cell_angle_gamma   35.15835749
_symmetry_Int_Tables_number   1
_chemical_formula_structural   SmHo2Al7Cu2
_chemical_formula_sum   'Sm1 Ho2 Al7 Cu2'
_cell_volume   224.62094849
_cell_formula_units_Z   1
loop_
 _symmetry_equiv_pos_site_id
 _symmetry_equiv_pos_as_xyz
  1  'x, y, z'
loop_
 _atom_site_type_symbol
 _atom_site_label
 _atom_site_symmetry_multiplicity
 _atom_site_fract_x
 _atom_site_fract_y
 _atom_site_fract_z
 _atom_site_occupancy
  Sm  Sm0  1  0.000000  0.000000  0.000000  1
  Ho  Ho1  1  0.857705  0.857705  0.857705  1
  Ho  Ho2  1  0.142295  0.142295  0.142295  1
  Al  Al3  1  0.417757  0.417757  0.926834  1
  Al  Al4  1  0.926834  0.417757  0.417757  1
  Al  Al5  1  0.417757  0.926834  0.417757  1
  Al  Al6  1  0.500000  0.500000  0.500000  1
  Al  Al7  1  0.582243  0.073166  0.582243  1
  Al  Al8  1  0.073166  0.582243  0.582243  1
  Al  Al9  1  0.582243  0.582243  0.073166  1
  Cu  Cu10  1  0.664743  0.664743  0.664743  1
  Cu  Cu11  1  0.335257  0.335257  0.335257  1
