# generated using pymatgen
data_Dy2Ho8In8Pt3Rh
_symmetry_space_group_name_H-M   'P 1'
_cell_length_a   3.61949200
_cell_length_b   8.12295703
_cell_length_c   18.22569204
_cell_angle_alpha   90.03258292
_cell_angle_beta   90.00000000
_cell_angle_gamma   90.00000000
_symmetry_Int_Tables_number   1
_chemical_formula_structural   Dy2Ho8In8Pt3Rh
_chemical_formula_sum   'Dy2 Ho8 In8 Pt3 Rh1'
_cell_volume   535.85308384
_cell_formula_units_Z   1
loop_
 _symmetry_equiv_pos_site_id
 _symmetry_equiv_pos_as_xyz
  1  'x, y, z'
loop_
 _atom_site_type_symbol
 _atom_site_label
 _atom_site_symmetry_multiplicity
 _atom_site_fract_x
 _atom_site_fract_y
 _atom_site_fract_z
 _atom_site_occupancy
  Dy  Dy0  1  0.000000  0.999968  0.000049  1
  Dy  Dy1  1  0.000000  0.500128  0.499872  1
  Ho  Ho2  1  0.000000  0.114810  0.412254  1
  Ho  Ho3  1  0.000000  0.882718  0.585214  1
  Ho  Ho4  1  0.000000  0.383100  0.914833  1
  Ho  Ho5  1  0.000000  0.616896  0.085830  1
  Ho  Ho6  1  0.000000  0.240096  0.221678  1
  Ho  Ho7  1  0.000000  0.756867  0.779458  1
  Ho  Ho8  1  0.000000  0.256525  0.720878  1
  Ho  Ho9  1  0.000000  0.750639  0.279340  1
  In  In10  1  0.500000  0.423789  0.351381  1
  In  In11  1  0.500000  0.574905  0.648553  1
  In  In12  1  0.500000  0.075116  0.851499  1
  In  In13  1  0.500000  0.927501  0.149487  1
  In  In14  1  0.500000  0.291977  0.067059  1
  In  In15  1  0.500000  0.707693  0.933207  1
  In  In16  1  0.500000  0.207492  0.566658  1
  In  In17  1  0.500000  0.793291  0.431651  1
  Pt  Pt18  1  0.500000  0.974788  0.696491  1
  Pt  Pt19  1  0.500000  0.475028  0.803420  1
  Pt  Pt20  1  0.500000  0.523615  0.196925  1
  Rh  Rh21  1  0.500000  0.023056  0.304264  1
