# generated using pymatgen
data_Hf3Ti2Si2Sn
_symmetry_space_group_name_H-M   'P 1'
_cell_length_a   7.85443000
_cell_length_b   7.97412648
_cell_length_c   5.37558300
_cell_angle_alpha   90.00000000
_cell_angle_beta   90.00000000
_cell_angle_gamma   119.50467479
_symmetry_Int_Tables_number   1
_chemical_formula_structural   Hf3Ti2Si2Sn
_chemical_formula_sum   'Hf6 Ti4 Si4 Sn2'
_cell_volume   293.02190759
_cell_formula_units_Z   2
loop_
 _symmetry_equiv_pos_site_id
 _symmetry_equiv_pos_as_xyz
  1  'x, y, z'
loop_
 _atom_site_type_symbol
 _atom_site_label
 _atom_site_symmetry_multiplicity
 _atom_site_fract_x
 _atom_site_fract_y
 _atom_site_fract_z
 _atom_site_occupancy
  Hf  Hf0  1  0.220222  0.000000  0.250000  1
  Hf  Hf1  1  0.779778  0.000000  0.750000  1
  Hf  Hf2  1  0.010986  0.267463  0.250000  1
  Hf  Hf3  1  0.989014  0.732537  0.750000  1
  Hf  Hf4  1  0.743523  0.732537  0.250000  1
  Hf  Hf5  1  0.256477  0.267463  0.750000  1
  Ti  Ti6  1  0.324644  0.649289  0.000000  1
  Ti  Ti7  1  0.675356  0.350711  0.000000  1
  Ti  Ti8  1  0.675356  0.350711  0.500000  1
  Ti  Ti9  1  0.324644  0.649289  0.500000  1
  Si  Si10  1  0.004544  0.608186  0.250000  1
  Si  Si11  1  0.995456  0.391814  0.750000  1
  Si  Si12  1  0.396358  0.391814  0.250000  1
  Si  Si13  1  0.603642  0.608186  0.750000  1
  Sn  Sn14  1  0.599230  0.000000  0.250000  1
  Sn  Sn15  1  0.400770  0.000000  0.750000  1
