# generated using pymatgen
data_AcLa19(SnBi)8
_symmetry_space_group_name_H-M   'P 1'
_cell_length_a   8.58485100
_cell_length_b   8.66524591
_cell_length_c   16.45475100
_cell_angle_alpha   90.00000000
_cell_angle_beta   90.00000000
_cell_angle_gamma   89.91336777
_symmetry_Int_Tables_number   1
_chemical_formula_structural   AcLa19(SnBi)8
_chemical_formula_sum   'Ac1 La19 Sn8 Bi8'
_cell_volume   1224.06497676
_cell_formula_units_Z   1
loop_
 _symmetry_equiv_pos_site_id
 _symmetry_equiv_pos_as_xyz
  1  'x, y, z'
loop_
 _atom_site_type_symbol
 _atom_site_label
 _atom_site_symmetry_multiplicity
 _atom_site_fract_x
 _atom_site_fract_y
 _atom_site_fract_z
 _atom_site_occupancy
  Ac  Ac0  1  0.278689  0.995860  0.250000  1
  La  La1  1  0.395516  0.833929  0.879697  1
  La  La2  1  0.895198  0.665647  0.619649  1
  La  La3  1  0.605165  0.165951  0.381133  1
  La  La4  1  0.104440  0.334783  0.118934  1
  La  La5  1  0.605165  0.165951  0.118867  1
  La  La6  1  0.104440  0.334783  0.381066  1
  La  La7  1  0.395516  0.833929  0.620303  1
  La  La8  1  0.895198  0.665647  0.880351  1
  La  La9  1  0.550070  0.324501  0.890148  1
  La  La10  1  0.049593  0.175636  0.610424  1
  La  La11  1  0.450454  0.674758  0.390583  1
  La  La12  1  0.949948  0.823725  0.108885  1
  La  La13  1  0.450454  0.674758  0.109417  1
  La  La14  1  0.949948  0.823725  0.391115  1
  La  La15  1  0.550070  0.324501  0.609852  1
  La  La16  1  0.049593  0.175636  0.889576  1
  La  La17  1  0.220924  0.496031  0.750000  1
  La  La18  1  0.720556  0.004406  0.750000  1
  La  La19  1  0.779164  0.503523  0.250000  1
  Sn  Sn20  1  0.595179  0.621179  0.750000  1
  Sn  Sn21  1  0.094362  0.878454  0.750000  1
  Sn  Sn22  1  0.406774  0.381234  0.250000  1
  Sn  Sn23  1  0.901067  0.124069  0.250000  1
  Sn  Sn24  1  0.350481  0.134338  0.750000  1
  Sn  Sn25  1  0.850328  0.366373  0.750000  1
  Sn  Sn26  1  0.653997  0.864316  0.250000  1
  Sn  Sn27  1  0.147682  0.629718  0.250000  1
  Bi  Bi28  1  0.265945  0.018589  0.041719  1
  Bi  Bi29  1  0.766257  0.482377  0.455378  1
  Bi  Bi30  1  0.733990  0.982465  0.545076  1
  Bi  Bi31  1  0.233824  0.517885  0.955064  1
  Bi  Bi32  1  0.733990  0.982465  0.954924  1
  Bi  Bi33  1  0.233824  0.517885  0.544936  1
  Bi  Bi34  1  0.265945  0.018589  0.458281  1
  Bi  Bi35  1  0.766257  0.482377  0.044622  1
