# generated using pymatgen
data_Li4Er(ThSn2)2
_symmetry_space_group_name_H-M   'P 1'
_cell_length_a   8.71154419
_cell_length_b   8.71154340
_cell_length_c   8.71154400
_cell_angle_alpha   148.79882087
_cell_angle_beta   132.57017400
_cell_angle_gamma   57.86971035
_symmetry_Int_Tables_number   1
_chemical_formula_structural   Li4Er(ThSn2)2
_chemical_formula_sum   'Li4 Er1 Th2 Sn4'
_cell_volume   250.32478117
_cell_formula_units_Z   1
loop_
 _symmetry_equiv_pos_site_id
 _symmetry_equiv_pos_as_xyz
  1  'x, y, z'
loop_
 _atom_site_type_symbol
 _atom_site_label
 _atom_site_symmetry_multiplicity
 _atom_site_fract_x
 _atom_site_fract_y
 _atom_site_fract_z
 _atom_site_occupancy
  Li  Li0  1  0.486541  0.672083  0.814460  1
  Li  Li1  1  0.857623  0.672083  0.185540  1
  Li  Li2  1  0.142377  0.327917  0.814460  1
  Li  Li3  1  0.513459  0.327917  0.185540  1
  Er  Er4  1  0.500000  0.000000  0.500000  1
  Th  Th5  1  0.873759  0.873759  0.000000  1
  Th  Th6  1  0.126241  0.126241  0.000000  1
  Sn  Sn7  1  0.286186  0.786186  0.500000  1
  Sn  Sn8  1  0.713814  0.213814  0.500000  1
  Sn  Sn9  1  0.789657  0.500000  0.289657  1
  Sn  Sn10  1  0.210343  0.500000  0.710343  1
