# generated using pymatgen
data_Ho2GaSi13Rh6
_symmetry_space_group_name_H-M   'P 1'
_cell_length_a   8.02800874
_cell_length_b   8.02800870
_cell_length_c   8.02800900
_cell_angle_alpha   57.05634218
_cell_angle_beta   57.05634236
_cell_angle_gamma   57.05633278
_symmetry_Int_Tables_number   1
_chemical_formula_structural   Ho2GaSi13Rh6
_chemical_formula_sum   'Ho2 Ga1 Si13 Rh6'
_cell_volume   341.02950373
_cell_formula_units_Z   1
loop_
 _symmetry_equiv_pos_site_id
 _symmetry_equiv_pos_as_xyz
  1  'x, y, z'
loop_
 _atom_site_type_symbol
 _atom_site_label
 _atom_site_symmetry_multiplicity
 _atom_site_fract_x
 _atom_site_fract_y
 _atom_site_fract_z
 _atom_site_occupancy
  Ho  Ho0  1  0.999270  0.999270  0.999270  1
  Ho  Ho1  1  0.500730  0.500730  0.500730  1
  Ga  Ga2  1  0.750000  0.750000  0.750000  1
  Si  Si3  1  0.250000  0.250000  0.250000  1
  Si  Si4  1  0.850220  0.066433  0.670702  1
  Si  Si5  1  0.670702  0.850220  0.066433  1
  Si  Si6  1  0.066433  0.670702  0.850220  1
  Si  Si7  1  0.649780  0.829298  0.433567  1
  Si  Si8  1  0.433567  0.649780  0.829298  1
  Si  Si9  1  0.829298  0.433567  0.649780  1
  Si  Si10  1  0.170577  0.561426  0.355232  1
  Si  Si11  1  0.561426  0.355232  0.170577  1
  Si  Si12  1  0.355232  0.170577  0.561426  1
  Si  Si13  1  0.938574  0.329423  0.144768  1
  Si  Si14  1  0.329423  0.144768  0.938574  1
  Si  Si15  1  0.144768  0.938574  0.329423  1
  Rh  Rh16  1  0.082351  0.417649  0.750000  1
  Rh  Rh17  1  0.250000  0.929325  0.570675  1
  Rh  Rh18  1  0.570675  0.250000  0.929325  1
  Rh  Rh19  1  0.929325  0.570675  0.250000  1
  Rh  Rh20  1  0.417649  0.750000  0.082351  1
  Rh  Rh21  1  0.750000  0.082351  0.417649  1
