# generated using pymatgen
data_Ce2PaTc3
_symmetry_space_group_name_H-M   'P 1'
_cell_length_a   5.85044252
_cell_length_b   5.33077142
_cell_length_c   5.85044200
_cell_angle_alpha   56.71921196
_cell_angle_beta   60.00000296
_cell_angle_gamma   56.71922569
_symmetry_Int_Tables_number   1
_chemical_formula_structural   Ce2PaTc3
_chemical_formula_sum   'Ce2 Pa1 Tc3'
_cell_volume   122.24565624
_cell_formula_units_Z   1
loop_
 _symmetry_equiv_pos_site_id
 _symmetry_equiv_pos_as_xyz
  1  'x, y, z'
loop_
 _atom_site_type_symbol
 _atom_site_label
 _atom_site_symmetry_multiplicity
 _atom_site_fract_x
 _atom_site_fract_y
 _atom_site_fract_z
 _atom_site_occupancy
  Ce  Ce0  1  0.743953  0.768141  0.743953  1
  Ce  Ce1  1  0.506047  0.481859  0.506047  1
  Pa  Pa2  1  0.125000  0.625000  0.125000  1
  Tc  Tc3  1  0.125000  0.125000  0.625000  1
  Tc  Tc4  1  0.625000  0.125000  0.125000  1
  Tc  Tc5  1  0.125000  0.125000  0.125000  1
