# generated using pymatgen
data_PrCd2IrO7
_symmetry_space_group_name_H-M   'P 1'
_cell_length_a   6.54806223
_cell_length_b   6.54806315
_cell_length_c   7.68420600
_cell_angle_alpha   90.00000000
_cell_angle_beta   90.00000000
_cell_angle_gamma   113.39631711
_symmetry_Int_Tables_number   1
_chemical_formula_structural   PrCd2IrO7
_chemical_formula_sum   'Pr2 Cd4 Ir2 O14'
_cell_volume   302.38714023
_cell_formula_units_Z   2
loop_
 _symmetry_equiv_pos_site_id
 _symmetry_equiv_pos_as_xyz
  1  'x, y, z'
loop_
 _atom_site_type_symbol
 _atom_site_label
 _atom_site_symmetry_multiplicity
 _atom_site_fract_x
 _atom_site_fract_y
 _atom_site_fract_z
 _atom_site_occupancy
  Pr  Pr0  1  0.000000  0.000000  0.000000  1
  Pr  Pr1  1  0.000000  0.000000  0.500000  1
  Cd  Cd2  1  0.486857  0.965383  0.750000  1
  Cd  Cd3  1  0.513143  0.034617  0.250000  1
  Cd  Cd4  1  0.965383  0.486857  0.750000  1
  Cd  Cd5  1  0.034617  0.513143  0.250000  1
  Ir  Ir6  1  0.500000  0.500000  0.000000  1
  Ir  Ir7  1  0.500000  0.500000  0.500000  1
  O  O8  1  0.567115  0.567115  0.750000  1
  O  O9  1  0.432885  0.432885  0.250000  1
  O  O10  1  0.847496  0.123963  0.750000  1
  O  O11  1  0.152504  0.876037  0.250000  1
  O  O12  1  0.123963  0.847496  0.750000  1
  O  O13  1  0.876037  0.152504  0.250000  1
  O  O14  1  0.431412  0.189810  0.975941  1
  O  O15  1  0.568588  0.810190  0.475941  1
  O  O16  1  0.189810  0.431412  0.975941  1
  O  O17  1  0.810190  0.568588  0.475941  1
  O  O18  1  0.431412  0.189810  0.524059  1
  O  O19  1  0.568588  0.810190  0.024059  1
  O  O20  1  0.810190  0.568588  0.024059  1
  O  O21  1  0.189810  0.431412  0.524059  1
