# generated using pymatgen
data_Tb9Y7Cd2(HgIr2)2
_symmetry_space_group_name_H-M   'P 1'
_cell_length_a   9.65864438
_cell_length_b   9.65864381
_cell_length_c   9.65861100
_cell_angle_alpha   60.00010896
_cell_angle_beta   60.00011090
_cell_angle_gamma   60.11965549
_symmetry_Int_Tables_number   1
_chemical_formula_structural   Tb9Y7Cd2(HgIr2)2
_chemical_formula_sum   'Tb9 Y7 Cd2 Hg2 Ir4'
_cell_volume   637.71101656
_cell_formula_units_Z   1
loop_
 _symmetry_equiv_pos_site_id
 _symmetry_equiv_pos_as_xyz
  1  'x, y, z'
loop_
 _atom_site_type_symbol
 _atom_site_label
 _atom_site_symmetry_multiplicity
 _atom_site_fract_x
 _atom_site_fract_y
 _atom_site_fract_z
 _atom_site_occupancy
  Tb  Tb0  1  0.349444  0.349444  0.348263  1
  Tb  Tb1  1  0.349444  0.349444  0.952851  1
  Tb  Tb2  1  0.351651  0.949699  0.349325  1
  Tb  Tb3  1  0.949699  0.351651  0.349325  1
  Tb  Tb4  1  0.808961  0.188901  0.191629  1
  Tb  Tb5  1  0.188901  0.808961  0.810509  1
  Tb  Tb6  1  0.188901  0.808961  0.191629  1
  Tb  Tb7  1  0.808961  0.188901  0.810509  1
  Tb  Tb8  1  0.189509  0.189509  0.810491  1
  Y  Y9  1  0.808455  0.808455  0.191545  1
  Y  Y10  1  0.937808  0.561160  0.562507  1
  Y  Y11  1  0.561160  0.937808  0.938525  1
  Y  Y12  1  0.561160  0.937808  0.562507  1
  Y  Y13  1  0.937808  0.561160  0.938525  1
  Y  Y14  1  0.561393  0.561393  0.938607  1
  Y  Y15  1  0.938214  0.938214  0.561786  1
  Cd  Cd16  1  0.580190  0.257918  0.580947  1
  Cd  Cd17  1  0.257918  0.580190  0.580947  1
  Hg  Hg18  1  0.584093  0.584093  0.585835  1
  Hg  Hg19  1  0.584093  0.584093  0.245980  1
  Ir  Ir20  1  0.141989  0.141989  0.141054  1
  Ir  Ir21  1  0.141989  0.141989  0.574969  1
  Ir  Ir22  1  0.143257  0.575006  0.140868  1
  Ir  Ir23  1  0.575006  0.143257  0.140868  1
