# generated using pymatgen
data_CaCo2(Sn3Ru)2
_symmetry_space_group_name_H-M   'P 1'
_cell_length_a   6.80174197
_cell_length_b   6.80174182
_cell_length_c   6.88118697
_cell_angle_alpha   120.11443779
_cell_angle_beta   120.11442965
_cell_angle_gamma   89.13035119
_symmetry_Int_Tables_number   1
_chemical_formula_structural   CaCo2(Sn3Ru)2
_chemical_formula_sum   'Ca1 Co2 Sn6 Ru2'
_cell_volume   225.99373321
_cell_formula_units_Z   1
loop_
 _symmetry_equiv_pos_site_id
 _symmetry_equiv_pos_as_xyz
  1  'x, y, z'
loop_
 _atom_site_type_symbol
 _atom_site_label
 _atom_site_symmetry_multiplicity
 _atom_site_fract_x
 _atom_site_fract_y
 _atom_site_fract_z
 _atom_site_occupancy
  Ca  Ca0  1  0.007465  0.007465  0.000000  1
  Co  Co1  1  0.406679  0.406679  0.659593  1
  Co  Co2  1  0.747087  0.747087  0.340407  1
  Sn  Sn3  1  0.000654  0.500654  0.500000  1
  Sn  Sn4  1  0.471961  0.471961  0.365685  1
  Sn  Sn5  1  0.535714  0.877960  0.000000  1
  Sn  Sn6  1  0.877960  0.535714  0.000000  1
  Sn  Sn7  1  0.106276  0.106276  0.634315  1
  Sn  Sn8  1  0.500654  0.000654  0.500000  1
  Ru  Ru9  1  0.260370  0.585180  0.000000  1
  Ru  Ru10  1  0.585180  0.260370  0.000000  1
