# generated using pymatgen
data_Tm4Si4Ni3Rh
_symmetry_space_group_name_H-M   'P 1'
_cell_length_a   4.15194700
_cell_length_b   6.77719037
_cell_length_c   7.17753498
_cell_angle_alpha   89.97317446
_cell_angle_beta   90.00000000
_cell_angle_gamma   90.00000000
_symmetry_Int_Tables_number   1
_chemical_formula_structural   Tm4Si4Ni3Rh
_chemical_formula_sum   'Tm4 Si4 Ni3 Rh1'
_cell_volume   201.96529896
_cell_formula_units_Z   1
loop_
 _symmetry_equiv_pos_site_id
 _symmetry_equiv_pos_as_xyz
  1  'x, y, z'
loop_
 _atom_site_type_symbol
 _atom_site_label
 _atom_site_symmetry_multiplicity
 _atom_site_fract_x
 _atom_site_fract_y
 _atom_site_fract_z
 _atom_site_occupancy
  Tm  Tm0  1  0.250000  0.493165  0.204452  1
  Tm  Tm1  1  0.750000  0.506680  0.796851  1
  Tm  Tm2  1  0.750000  0.006480  0.695490  1
  Tm  Tm3  1  0.250000  0.987962  0.301316  1
  Si  Si4  1  0.250000  0.801743  0.911140  1
  Si  Si5  1  0.750000  0.193031  0.099104  1
  Si  Si6  1  0.750000  0.691742  0.410732  1
  Si  Si7  1  0.250000  0.308654  0.583674  1
  Ni  Ni8  1  0.250000  0.690682  0.581414  1
  Ni  Ni9  1  0.750000  0.316647  0.417244  1
  Ni  Ni10  1  0.750000  0.817276  0.078887  1
  Rh  Rh11  1  0.250000  0.185938  0.919695  1
