# generated using pymatgen
data_Rb4NaSb2Au
_symmetry_space_group_name_H-M   'P 1'
_cell_length_a   7.14810187
_cell_length_b   7.14810209
_cell_length_c   6.56477298
_cell_angle_alpha   92.51099987
_cell_angle_beta   92.51099956
_cell_angle_gamma   101.77251107
_symmetry_Int_Tables_number   1
_chemical_formula_structural   Rb4NaSb2Au
_chemical_formula_sum   'Rb4 Na1 Sb2 Au1'
_cell_volume   327.58102128
_cell_formula_units_Z   1
loop_
 _symmetry_equiv_pos_site_id
 _symmetry_equiv_pos_as_xyz
  1  'x, y, z'
loop_
 _atom_site_type_symbol
 _atom_site_label
 _atom_site_symmetry_multiplicity
 _atom_site_fract_x
 _atom_site_fract_y
 _atom_site_fract_z
 _atom_site_occupancy
  Rb  Rb0  1  0.814418  0.468250  0.739735  1
  Rb  Rb1  1  0.531750  0.185582  0.260265  1
  Rb  Rb2  1  0.468250  0.814418  0.739735  1
  Rb  Rb3  1  0.185582  0.531750  0.260265  1
  Na  Na4  1  0.000000  0.000000  0.000000  1
  Sb  Sb5  1  0.739406  0.739406  0.264449  1
  Sb  Sb6  1  0.260594  0.260594  0.735551  1
  Au  Au7  1  0.000000  0.000000  0.500000  1
