# generated using pymatgen
data_Li3Ho3InAs2
_symmetry_space_group_name_H-M   'P 1'
_cell_length_a   6.97981900
_cell_length_b   6.97981999
_cell_length_c   4.38700200
_cell_angle_alpha   90.00000000
_cell_angle_beta   90.00000000
_cell_angle_gamma   119.99999057
_symmetry_Int_Tables_number   1
_chemical_formula_structural   Li3Ho3InAs2
_chemical_formula_sum   'Li3 Ho3 In1 As2'
_cell_volume   185.09167617
_cell_formula_units_Z   1
loop_
 _symmetry_equiv_pos_site_id
 _symmetry_equiv_pos_as_xyz
  1  'x, y, z'
loop_
 _atom_site_type_symbol
 _atom_site_label
 _atom_site_symmetry_multiplicity
 _atom_site_fract_x
 _atom_site_fract_y
 _atom_site_fract_z
 _atom_site_occupancy
  Li  Li0  1  0.247812  0.000000  0.500000  1
  Li  Li1  1  0.752188  0.752188  0.500000  1
  Li  Li2  1  0.000000  0.247812  0.500000  1
  Ho  Ho3  1  0.000000  0.558251  0.000000  1
  Ho  Ho4  1  0.558251  0.000000  0.000000  1
  Ho  Ho5  1  0.441749  0.441749  0.000000  1
  In  In6  1  0.000000  0.000000  0.000000  1
  As  As7  1  0.333333  0.666667  0.500000  1
  As  As8  1  0.666667  0.333333  0.500000  1
