# generated using pymatgen
data_Er6CrP12Ir17
_symmetry_space_group_name_H-M   'P 1'
_cell_length_a   3.97353700
_cell_length_b   11.17391400
_cell_length_c   12.68498400
_cell_angle_alpha   90.00000000
_cell_angle_beta   90.00000000
_cell_angle_gamma   90.00000000
_symmetry_Int_Tables_number   1
_chemical_formula_structural   Er6CrP12Ir17
_chemical_formula_sum   'Er6 Cr1 P12 Ir17'
_cell_volume   563.21279126
_cell_formula_units_Z   1
loop_
 _symmetry_equiv_pos_site_id
 _symmetry_equiv_pos_as_xyz
  1  'x, y, z'
loop_
 _atom_site_type_symbol
 _atom_site_label
 _atom_site_symmetry_multiplicity
 _atom_site_fract_x
 _atom_site_fract_y
 _atom_site_fract_z
 _atom_site_occupancy
  Er  Er0  1  0.750000  0.250000  0.480738  1
  Er  Er1  1  0.250000  0.750000  0.523867  1
  Er  Er2  1  0.250000  0.934014  0.794183  1
  Er  Er3  1  0.250000  0.565986  0.794183  1
  Er  Er4  1  0.750000  0.068416  0.203517  1
  Er  Er5  1  0.750000  0.431584  0.203517  1
  Cr  Cr6  1  0.250000  0.250000  0.837073  1
  P  P7  1  0.250000  0.250000  0.123998  1
  P  P8  1  0.750000  0.750000  0.875443  1
  P  P9  1  0.250000  0.250000  0.655561  1
  P  P10  1  0.750000  0.750000  0.357562  1
  P  P11  1  0.250000  0.433453  0.381135  1
  P  P12  1  0.250000  0.066547  0.381135  1
  P  P13  1  0.750000  0.563940  0.618676  1
  P  P14  1  0.750000  0.936060  0.618676  1
  P  P15  1  0.250000  0.903725  0.107768  1
  P  P16  1  0.250000  0.596275  0.107768  1
  P  P17  1  0.750000  0.093283  0.889004  1
  P  P18  1  0.750000  0.406717  0.889004  1
  Ir  Ir19  1  0.750000  0.750000  0.176451  1
  Ir  Ir20  1  0.250000  0.250000  0.301856  1
  Ir  Ir21  1  0.750000  0.750000  0.698058  1
  Ir  Ir22  1  0.750000  0.250000  0.003918  1
  Ir  Ir23  1  0.250000  0.750000  0.976605  1
  Ir  Ir24  1  0.250000  0.416409  0.014327  1
  Ir  Ir25  1  0.250000  0.083591  0.014327  1
  Ir  Ir26  1  0.750000  0.583126  0.988170  1
  Ir  Ir27  1  0.750000  0.916874  0.988170  1
  Ir  Ir28  1  0.250000  0.453615  0.567814  1
  Ir  Ir29  1  0.250000  0.046385  0.567814  1
  Ir  Ir30  1  0.750000  0.548713  0.430405  1
  Ir  Ir31  1  0.750000  0.951287  0.430405  1
  Ir  Ir32  1  0.250000  0.880401  0.287123  1
  Ir  Ir33  1  0.250000  0.619599  0.287123  1
  Ir  Ir34  1  0.750000  0.123018  0.712317  1
  Ir  Ir35  1  0.750000  0.376982  0.712317  1
