# generated using pymatgen
data_LuH5Os
_symmetry_space_group_name_H-M   'P 1'
_cell_length_a   4.35877400
_cell_length_b   4.65900200
_cell_length_c   11.45253100
_cell_angle_alpha   90.00000000
_cell_angle_beta   90.00000000
_cell_angle_gamma   90.00000000
_symmetry_Int_Tables_number   1
_chemical_formula_structural   LuH5Os
_chemical_formula_sum   'Lu4 H20 Os4'
_cell_volume   232.57269455
_cell_formula_units_Z   4
loop_
 _symmetry_equiv_pos_site_id
 _symmetry_equiv_pos_as_xyz
  1  'x, y, z'
loop_
 _atom_site_type_symbol
 _atom_site_label
 _atom_site_symmetry_multiplicity
 _atom_site_fract_x
 _atom_site_fract_y
 _atom_site_fract_z
 _atom_site_occupancy
  Lu  Lu0  1  0.283223  0.143834  0.649716  1
  Lu  Lu1  1  0.783223  0.356166  0.350284  1
  Lu  Lu2  1  0.216777  0.856166  0.149716  1
  Lu  Lu3  1  0.716777  0.643834  0.850284  1
  H  H4  1  0.557700  0.360831  0.518589  1
  H  H5  1  0.057700  0.139169  0.481411  1
  H  H6  1  0.942300  0.639169  0.018589  1
  H  H7  1  0.442300  0.860831  0.981411  1
  H  H8  1  0.113506  0.938218  0.815501  1
  H  H9  1  0.613506  0.561782  0.184499  1
  H  H10  1  0.386494  0.061782  0.315501  1
  H  H11  1  0.886494  0.438218  0.684499  1
  H  H12  1  0.196822  0.446005  0.830181  1
  H  H13  1  0.696822  0.053995  0.169819  1
  H  H14  1  0.303178  0.553995  0.330181  1
  H  H15  1  0.803178  0.946005  0.669819  1
  H  H16  1  0.620364  0.138494  0.821371  1
  H  H17  1  0.120364  0.361506  0.178629  1
  H  H18  1  0.879636  0.861506  0.321371  1
  H  H19  1  0.379636  0.638494  0.678629  1
  H  H20  1  0.972254  0.085322  0.997417  1
  H  H21  1  0.472254  0.414678  0.002583  1
  H  H22  1  0.527746  0.914678  0.497417  1
  H  H23  1  0.027746  0.585322  0.502583  1
  Os  Os24  1  0.312626  0.149350  0.907440  1
  Os  Os25  1  0.812626  0.350650  0.092560  1
  Os  Os26  1  0.187374  0.850650  0.407440  1
  Os  Os27  1  0.687374  0.649350  0.592560  1
