# generated using pymatgen
data_Pm2TeO5
_symmetry_space_group_name_H-M   'P 1'
_cell_length_a   9.61875824
_cell_length_b   7.83539500
_cell_length_c   6.84856074
_cell_angle_alpha   90.00000000
_cell_angle_beta   106.97843060
_cell_angle_gamma   90.00000000
_symmetry_Int_Tables_number   1
_chemical_formula_structural   Pm2TeO5
_chemical_formula_sum   'Pm8 Te4 O20'
_cell_volume   493.65720866
_cell_formula_units_Z   4
loop_
 _symmetry_equiv_pos_site_id
 _symmetry_equiv_pos_as_xyz
  1  'x, y, z'
loop_
 _atom_site_type_symbol
 _atom_site_label
 _atom_site_symmetry_multiplicity
 _atom_site_fract_x
 _atom_site_fract_y
 _atom_site_fract_z
 _atom_site_occupancy
  Pm  Pm0  1  0.338808  0.370139  0.046803  1
  Pm  Pm1  1  0.997316  0.372585  0.234963  1
  Pm  Pm2  1  0.002683  0.872585  0.265038  1
  Pm  Pm3  1  0.661193  0.870139  0.453198  1
  Pm  Pm4  1  0.338807  0.129861  0.546803  1
  Pm  Pm5  1  0.997316  0.127415  0.734963  1
  Pm  Pm6  1  0.002684  0.627415  0.765038  1
  Pm  Pm7  1  0.661193  0.629862  0.953198  1
  Te  Te8  1  0.319003  0.916711  0.079141  1
  Te  Te9  1  0.680996  0.416711  0.420858  1
  Te  Te10  1  0.319003  0.583290  0.579141  1
  Te  Te11  1  0.680997  0.083289  0.920858  1
  O  O12  1  0.893687  0.108827  0.035877  1
  O  O13  1  0.732819  0.381158  0.160599  1
  O  O14  1  0.906787  0.636347  0.047390  1
  O  O15  1  0.715893  0.895008  0.133337  1
  O  O16  1  0.441537  0.104013  0.257357  1
  O  O17  1  0.558463  0.604013  0.242642  1
  O  O18  1  0.284108  0.395008  0.366663  1
  O  O19  1  0.093214  0.136348  0.452610  1
  O  O20  1  0.267182  0.881158  0.339402  1
  O  O21  1  0.106313  0.608827  0.464122  1
  O  O22  1  0.893687  0.391173  0.535877  1
  O  O23  1  0.732818  0.118842  0.660599  1
  O  O24  1  0.906787  0.863653  0.547390  1
  O  O25  1  0.715892  0.604993  0.633337  1
  O  O26  1  0.441537  0.395988  0.757358  1
  O  O27  1  0.558464  0.895988  0.742642  1
  O  O28  1  0.284108  0.104992  0.866663  1
  O  O29  1  0.093214  0.363653  0.952610  1
  O  O30  1  0.267182  0.618843  0.839402  1
  O  O31  1  0.106313  0.891173  0.964122  1
