# generated using pymatgen
data_Ti2GeIr2Rh3
_symmetry_space_group_name_H-M   'P 1'
_cell_length_a   3.96069900
_cell_length_b   5.45462400
_cell_length_c   10.75668800
_cell_angle_alpha   90.00000000
_cell_angle_beta   90.00000000
_cell_angle_gamma   90.00000000
_symmetry_Int_Tables_number   1
_chemical_formula_structural   Ti2GeIr2Rh3
_chemical_formula_sum   'Ti4 Ge2 Ir4 Rh6'
_cell_volume   232.38881947
_cell_formula_units_Z   2
loop_
 _symmetry_equiv_pos_site_id
 _symmetry_equiv_pos_as_xyz
  1  'x, y, z'
loop_
 _atom_site_type_symbol
 _atom_site_label
 _atom_site_symmetry_multiplicity
 _atom_site_fract_x
 _atom_site_fract_y
 _atom_site_fract_z
 _atom_site_occupancy
  Ti  Ti0  1  0.500000  0.320380  0.140754  1
  Ti  Ti1  1  0.500000  0.679620  0.859246  1
  Ti  Ti2  1  0.500000  0.820380  0.359246  1
  Ti  Ti3  1  0.500000  0.179620  0.640754  1
  Ge  Ge4  1  0.000000  0.000000  0.000000  1
  Ge  Ge5  1  0.000000  0.500000  0.500000  1
  Ir  Ir6  1  0.000000  0.064957  0.247793  1
  Ir  Ir7  1  0.000000  0.935043  0.752207  1
  Ir  Ir8  1  0.000000  0.564957  0.252207  1
  Ir  Ir9  1  0.000000  0.435043  0.747793  1
  Rh  Rh10  1  0.000000  0.000000  0.500000  1
  Rh  Rh11  1  0.000000  0.500000  0.000000  1
  Rh  Rh12  1  0.500000  0.309620  0.389355  1
  Rh  Rh13  1  0.500000  0.690380  0.610645  1
  Rh  Rh14  1  0.500000  0.809620  0.110645  1
  Rh  Rh15  1  0.500000  0.190380  0.889355  1
