# generated using pymatgen
data_Tb9Ho(Bi2Te)2
_symmetry_space_group_name_H-M   'P 1'
_cell_length_a   8.20743000
_cell_length_b   9.51129805
_cell_length_c   11.97618000
_cell_angle_alpha   89.99437964
_cell_angle_beta   90.00000000
_cell_angle_gamma   90.00000000
_symmetry_Int_Tables_number   1
_chemical_formula_structural   Tb9Ho(Bi2Te)2
_chemical_formula_sum   'Tb18 Ho2 Bi8 Te4'
_cell_volume   934.90028242
_cell_formula_units_Z   2
loop_
 _symmetry_equiv_pos_site_id
 _symmetry_equiv_pos_as_xyz
  1  'x, y, z'
loop_
 _atom_site_type_symbol
 _atom_site_label
 _atom_site_symmetry_multiplicity
 _atom_site_fract_x
 _atom_site_fract_y
 _atom_site_fract_z
 _atom_site_occupancy
  Tb  Tb0  1  0.353376  0.749884  0.213390  1
  Tb  Tb1  1  0.853376  0.750116  0.286610  1
  Tb  Tb2  1  0.646483  0.249944  0.786698  1
  Tb  Tb3  1  0.146483  0.250056  0.713302  1
  Tb  Tb4  1  0.689571  0.561463  0.057470  1
  Tb  Tb5  1  0.189571  0.938537  0.442530  1
  Tb  Tb6  1  0.310474  0.061216  0.942634  1
  Tb  Tb7  1  0.810474  0.438784  0.557366  1
  Tb  Tb8  1  0.310481  0.438765  0.942655  1
  Tb  Tb9  1  0.810481  0.061235  0.557345  1
  Tb  Tb10  1  0.476554  0.249997  0.488180  1
  Tb  Tb11  1  0.976554  0.250003  0.011820  1
  Tb  Tb12  1  0.523391  0.749911  0.511770  1
  Tb  Tb13  1  0.023391  0.750089  0.988230  1
  Tb  Tb14  1  0.319352  0.250077  0.218242  1
  Tb  Tb15  1  0.819352  0.249923  0.281758  1
  Tb  Tb16  1  0.680577  0.750075  0.781853  1
  Tb  Tb17  1  0.180577  0.749925  0.718147  1
  Ho  Ho18  1  0.689549  0.938270  0.057350  1
  Ho  Ho19  1  0.189549  0.561730  0.442650  1
  Bi  Bi20  1  0.568743  0.995518  0.325051  1
  Bi  Bi21  1  0.068743  0.504482  0.174949  1
  Bi  Bi22  1  0.431225  0.495504  0.674663  1
  Bi  Bi23  1  0.931225  0.004496  0.825337  1
  Bi  Bi24  1  0.431280  0.004464  0.674805  1
  Bi  Bi25  1  0.931280  0.495536  0.825195  1
  Bi  Bi26  1  0.568487  0.504487  0.325216  1
  Bi  Bi27  1  0.068487  0.995513  0.174784  1
  Te  Te28  1  0.406992  0.750234  0.957536  1
  Te  Te29  1  0.906992  0.749766  0.542464  1
  Te  Te30  1  0.593465  0.249126  0.042698  1
  Te  Te31  1  0.093465  0.250874  0.457302  1
