# generated using pymatgen
data_CaTl4CdO8
_symmetry_space_group_name_H-M   'P 1'
_cell_length_a   6.78586880
_cell_length_b   6.78586951
_cell_length_c   6.78586900
_cell_angle_alpha   60.00000737
_cell_angle_beta   60.00000391
_cell_angle_gamma   60.00001170
_symmetry_Int_Tables_number   1
_chemical_formula_structural   CaTl4CdO8
_chemical_formula_sum   'Ca1 Tl4 Cd1 O8'
_cell_volume   220.95381877
_cell_formula_units_Z   1
loop_
 _symmetry_equiv_pos_site_id
 _symmetry_equiv_pos_as_xyz
  1  'x, y, z'
loop_
 _atom_site_type_symbol
 _atom_site_label
 _atom_site_symmetry_multiplicity
 _atom_site_fract_x
 _atom_site_fract_y
 _atom_site_fract_z
 _atom_site_occupancy
  Ca  Ca0  1  0.000000  0.000000  0.000000  1
  Tl  Tl1  1  0.625575  0.625575  0.625575  1
  Tl  Tl2  1  0.625575  0.123275  0.625575  1
  Tl  Tl3  1  0.625575  0.625575  0.123275  1
  Tl  Tl4  1  0.123275  0.625575  0.625575  1
  Cd  Cd5  1  0.250000  0.250000  0.250000  1
  O  O6  1  0.406621  0.864460  0.864460  1
  O  O7  1  0.864460  0.864460  0.406621  1
  O  O8  1  0.864460  0.864460  0.864460  1
  O  O9  1  0.846198  0.384600  0.384600  1
  O  O10  1  0.384600  0.846198  0.384600  1
  O  O11  1  0.384600  0.384600  0.846198  1
  O  O12  1  0.864460  0.406621  0.864460  1
  O  O13  1  0.384600  0.384600  0.384600  1
