# generated using pymatgen
data_TbEr2(GaIr2)3
_symmetry_space_group_name_H-M   'P 1'
_cell_length_a   5.56275000
_cell_length_b   5.56265006
_cell_length_c   15.78752100
_cell_angle_alpha   90.00000000
_cell_angle_beta   90.00000000
_cell_angle_gamma   119.99911955
_symmetry_Int_Tables_number   1
_chemical_formula_structural   TbEr2(GaIr2)3
_chemical_formula_sum   'Tb2 Er4 Ga6 Ir12'
_cell_volume   423.07728415
_cell_formula_units_Z   2
loop_
 _symmetry_equiv_pos_site_id
 _symmetry_equiv_pos_as_xyz
  1  'x, y, z'
loop_
 _atom_site_type_symbol
 _atom_site_label
 _atom_site_symmetry_multiplicity
 _atom_site_fract_x
 _atom_site_fract_y
 _atom_site_fract_z
 _atom_site_occupancy
  Tb  Tb0  1  0.333344  0.666674  0.750000  1
  Tb  Tb1  1  0.666656  0.333326  0.250000  1
  Er  Er2  1  0.333359  0.666677  0.539757  1
  Er  Er3  1  0.666641  0.333323  0.460243  1
  Er  Er4  1  0.666641  0.333323  0.039757  1
  Er  Er5  1  0.333359  0.666677  0.960243  1
  Ga  Ga6  1  0.998901  0.999534  0.250000  1
  Ga  Ga7  1  0.001099  0.000466  0.750000  1
  Ga  Ga8  1  0.334366  0.667123  0.250000  1
  Ga  Ga9  1  0.665634  0.332877  0.750000  1
  Ga  Ga10  1  0.000000  0.000000  0.000000  1
  Ga  Ga11  1  0.000000  0.000000  0.500000  1
  Ir  Ir12  1  0.169798  0.339580  0.124870  1
  Ir  Ir13  1  0.830202  0.660420  0.875130  1
  Ir  Ir14  1  0.660444  0.830223  0.124807  1
  Ir  Ir15  1  0.830202  0.660420  0.624870  1
  Ir  Ir16  1  0.339556  0.169777  0.875193  1
  Ir  Ir17  1  0.169798  0.339580  0.375130  1
  Ir  Ir18  1  0.169803  0.830216  0.124874  1
  Ir  Ir19  1  0.339556  0.169777  0.624807  1
  Ir  Ir20  1  0.830197  0.169784  0.875126  1
  Ir  Ir21  1  0.660444  0.830223  0.375193  1
  Ir  Ir22  1  0.830197  0.169784  0.624874  1
  Ir  Ir23  1  0.169803  0.830216  0.375126  1
