# generated using pymatgen
data_La11Pr5Cd4(IrPd)2
_symmetry_space_group_name_H-M   'P 1'
_cell_length_a   10.16211186
_cell_length_b   10.15971474
_cell_length_c   10.13757968
_cell_angle_alpha   59.90678844
_cell_angle_beta   60.04465763
_cell_angle_gamma   60.37064593
_symmetry_Int_Tables_number   1
_chemical_formula_structural   La11Pr5Cd4(IrPd)2
_chemical_formula_sum   'La11 Pr5 Cd4 Ir2 Pd2'
_cell_volume   741.86509936
_cell_formula_units_Z   1
loop_
 _symmetry_equiv_pos_site_id
 _symmetry_equiv_pos_as_xyz
  1  'x, y, z'
loop_
 _atom_site_type_symbol
 _atom_site_label
 _atom_site_symmetry_multiplicity
 _atom_site_fract_x
 _atom_site_fract_y
 _atom_site_fract_z
 _atom_site_occupancy
  La  La0  1  0.349044  0.348702  0.343564  1
  La  La1  1  0.350393  0.349597  0.955697  1
  La  La2  1  0.356529  0.947420  0.348173  1
  La  La3  1  0.946988  0.356557  0.348515  1
  La  La4  1  0.803691  0.192237  0.190340  1
  La  La5  1  0.192502  0.803057  0.813372  1
  La  La6  1  0.192323  0.804758  0.189472  1
  La  La7  1  0.802908  0.191579  0.813699  1
  La  La8  1  0.192986  0.191877  0.808998  1
  La  La9  1  0.809771  0.810002  0.188252  1
  La  La10  1  0.939556  0.566202  0.561708  1
  Pr  Pr11  1  0.565130  0.937736  0.934038  1
  Pr  Pr12  1  0.565307  0.939088  0.562511  1
  Pr  Pr13  1  0.937738  0.565442  0.934801  1
  Pr  Pr14  1  0.563426  0.564784  0.937210  1
  Pr  Pr15  1  0.936581  0.936904  0.563110  1
  Cd  Cd16  1  0.579624  0.580177  0.580928  1
  Cd  Cd17  1  0.580437  0.580363  0.258206  1
  Cd  Cd18  1  0.579300  0.259493  0.580790  1
  Cd  Cd19  1  0.260052  0.579294  0.580791  1
  Ir  Ir20  1  0.140000  0.573578  0.143698  1
  Ir  Ir21  1  0.573554  0.140020  0.143710  1
  Pd  Pd22  1  0.141328  0.140822  0.145808  1
  Pd  Pd23  1  0.140831  0.140309  0.572607  1
