# generated using pymatgen
data_YAs4(RuRh2)2
_symmetry_space_group_name_H-M   'P 1'
_cell_length_a   7.19529041
_cell_length_b   7.26514910
_cell_length_c   3.87154200
_cell_angle_alpha   90.00000000
_cell_angle_beta   90.00000000
_cell_angle_gamma   120.32169213
_symmetry_Int_Tables_number   1
_chemical_formula_structural   YAs4(RuRh2)2
_chemical_formula_sum   'Y1 As4 Ru2 Rh4'
_cell_volume   174.69903949
_cell_formula_units_Z   1
loop_
 _symmetry_equiv_pos_site_id
 _symmetry_equiv_pos_as_xyz
  1  'x, y, z'
loop_
 _atom_site_type_symbol
 _atom_site_label
 _atom_site_symmetry_multiplicity
 _atom_site_fract_x
 _atom_site_fract_y
 _atom_site_fract_z
 _atom_site_occupancy
  Y  Y0  1  0.000254  0.000127  0.000000  1
  As  As1  1  0.804030  0.615469  0.500000  1
  As  As2  1  0.336097  0.668049  0.000000  1
  As  As3  1  0.386871  0.193436  0.500000  1
  As  As4  1  0.804030  0.188561  0.500000  1
  Ru  Ru5  1  0.536824  0.069146  0.000000  1
  Ru  Ru6  1  0.536824  0.467678  0.000000  1
  Rh  Rh7  1  0.602228  0.801114  0.500000  1
  Rh  Rh8  1  0.196590  0.392405  0.500000  1
  Rh  Rh9  1  0.196590  0.804185  0.500000  1
  Rh  Rh10  1  0.932995  0.466498  0.000000  1
