# generated using pymatgen
data_Na4Bi2(PdO4)3
_symmetry_space_group_name_H-M   'P 1'
_cell_length_a   9.60967100
_cell_length_b   9.60967144
_cell_length_c   3.21664500
_cell_angle_alpha   90.00000000
_cell_angle_beta   90.00000000
_cell_angle_gamma   119.99999506
_symmetry_Int_Tables_number   1
_chemical_formula_structural   Na4Bi2(PdO4)3
_chemical_formula_sum   'Na4 Bi2 Pd3 O12'
_cell_volume   257.24731164
_cell_formula_units_Z   1
loop_
 _symmetry_equiv_pos_site_id
 _symmetry_equiv_pos_as_xyz
  1  'x, y, z'
loop_
 _atom_site_type_symbol
 _atom_site_label
 _atom_site_symmetry_multiplicity
 _atom_site_fract_x
 _atom_site_fract_y
 _atom_site_fract_z
 _atom_site_occupancy
  Na  Na0  1  0.000000  0.000000  0.000000  1
  Na  Na1  1  0.704083  0.000000  0.500000  1
  Na  Na2  1  0.000000  0.704083  0.500000  1
  Na  Na3  1  0.295917  0.295917  0.500000  1
  Bi  Bi4  1  0.333333  0.666667  0.500000  1
  Bi  Bi5  1  0.666667  0.333333  0.500000  1
  Pd  Pd6  1  0.332011  0.000000  0.000000  1
  Pd  Pd7  1  0.000000  0.332011  0.000000  1
  Pd  Pd8  1  0.667989  0.667989  0.000000  1
  O  O9  1  0.193931  0.000000  0.500000  1
  O  O10  1  0.000000  0.193931  0.500000  1
  O  O11  1  0.806069  0.806069  0.500000  1
  O  O12  1  0.461862  0.000000  0.500000  1
  O  O13  1  0.000000  0.461862  0.500000  1
  O  O14  1  0.538138  0.538138  0.500000  1
  O  O15  1  0.241234  0.458118  0.000000  1
  O  O16  1  0.541882  0.783114  0.000000  1
  O  O17  1  0.458118  0.241234  0.000000  1
  O  O18  1  0.216886  0.758766  0.000000  1
  O  O19  1  0.783114  0.541882  0.000000  1
  O  O20  1  0.758766  0.216886  0.000000  1
