# generated using pymatgen
data_Lu3Zn(Ga4Pd)2
_symmetry_space_group_name_H-M   'P 1'
_cell_length_a   8.05735982
_cell_length_b   8.07490312
_cell_length_c   8.07490383
_cell_angle_alpha   149.20226755
_cell_angle_beta   108.51190817
_cell_angle_gamma   79.85296610
_symmetry_Int_Tables_number   1
_chemical_formula_structural   Lu3Zn(Ga4Pd)2
_chemical_formula_sum   'Lu3 Zn1 Ga8 Pd2'
_cell_volume   249.98224716
_cell_formula_units_Z   1
loop_
 _symmetry_equiv_pos_site_id
 _symmetry_equiv_pos_as_xyz
  1  'x, y, z'
loop_
 _atom_site_type_symbol
 _atom_site_label
 _atom_site_symmetry_multiplicity
 _atom_site_fract_x
 _atom_site_fract_y
 _atom_site_fract_z
 _atom_site_occupancy
  Lu  Lu0  1  0.499209  0.499032  0.000177  1
  Lu  Lu1  1  0.202330  0.201770  0.000560  1
  Lu  Lu2  1  0.797366  0.799192  0.998174  1
  Zn  Zn3  1  0.642092  0.360998  0.281094  1
  Ga  Ga4  1  0.355492  0.638546  0.716946  1
  Ga  Ga5  1  0.078694  0.360928  0.717765  1
  Ga  Ga6  1  0.920598  0.638068  0.282531  1
  Ga  Ga7  1  0.524707  0.157358  0.367348  1
  Ga  Ga8  1  0.480973  0.845732  0.635242  1
  Ga  Ga9  1  0.787938  0.155280  0.632657  1
  Ga  Ga10  1  0.213001  0.844384  0.368617  1
  Ga  Ga11  1  0.995452  0.497728  0.497725  1
  Pd  Pd12  1  0.180434  0.999630  0.180804  1
  Pd  Pd13  1  0.821713  0.001352  0.820360  1
