# generated using pymatgen
data_NiAgF34
_symmetry_space_group_name_H-M   'P 1'
_cell_length_a   8.66524201
_cell_length_b   8.23756109
_cell_length_c   10.26240128
_cell_angle_alpha   86.76598873
_cell_angle_beta   91.29985666
_cell_angle_gamma   62.68526134
_symmetry_Int_Tables_number   1
_chemical_formula_structural   NiAgF34
_chemical_formula_sum   'Ni1 Ag1 F34'
_cell_volume   648.84535505
_cell_formula_units_Z   1
loop_
 _symmetry_equiv_pos_site_id
 _symmetry_equiv_pos_as_xyz
  1  'x, y, z'
loop_
 _atom_site_type_symbol
 _atom_site_label
 _atom_site_symmetry_multiplicity
 _atom_site_fract_x
 _atom_site_fract_y
 _atom_site_fract_z
 _atom_site_occupancy
  Ni  Ni0  1  0.140216  0.741339  0.244665  1
  Ag  Ag1  1  0.865785  0.252939  0.751146  1
  F  F2  1  0.602316  0.216208  0.491142  1
  F  F3  1  0.392125  0.788260  0.504164  1
  F  F4  1  0.829507  0.678391  0.720841  1
  F  F5  1  0.157967  0.327848  0.309177  1
  F  F6  1  0.100730  0.747464  0.875646  1
  F  F7  1  0.896030  0.245143  0.129376  1
  F  F8  1  0.564799  0.153325  0.372490  1
  F  F9  1  0.436897  0.839513  0.624875  1
  F  F10  1  0.628466  0.342292  0.681656  1
  F  F11  1  0.358391  0.667046  0.306445  1
  F  F12  1  0.943605  0.045700  0.644333  1
  F  F13  1  0.061951  0.926137  0.348951  1
  F  F14  1  0.909134  0.386476  0.607094  1
  F  F15  1  0.094727  0.622793  0.377781  1
  F  F16  1  0.842773  0.815058  0.636158  1
  F  F17  1  0.152374  0.167443  0.363414  1
  F  F18  1  0.793271  0.463263  0.854249  1
  F  F19  1  0.210447  0.542240  0.155342  1
  F  F20  1  0.217503  0.693140  0.773313  1
  F  F21  1  0.776379  0.314244  0.228977  1
  F  F22  1  0.928240  0.826268  0.168440  1
  F  F23  1  0.100388  0.165351  0.822709  1
  F  F24  1  0.821876  0.117152  0.891942  1
  F  F25  1  0.184694  0.867801  0.117118  1
  F  F26  1  0.485653  0.600926  0.994396  1
  F  F27  1  0.507587  0.419348  0.000116  1
  F  F28  1  0.460259  0.092653  0.865148  1
  F  F29  1  0.534831  0.915940  0.136936  1
  F  F30  1  0.286730  0.244611  0.603469  1
  F  F31  1  0.718455  0.758529  0.398751  1
  F  F32  1  0.257839  0.403539  0.667728  1
  F  F33  1  0.747172  0.602991  0.329998  1
  F  F34  1  0.547311  0.901428  0.849782  1
  F  F35  1  0.443566  0.107203  0.152234  1
