# generated using pymatgen
data_Zr5Nb3(P3Ir4)4
_symmetry_space_group_name_H-M   'P 1'
_cell_length_a   12.64324100
_cell_length_b   12.64324134
_cell_length_c   3.96297200
_cell_angle_alpha   90.00000000
_cell_angle_beta   90.00000000
_cell_angle_gamma   120.00000172
_symmetry_Int_Tables_number   1
_chemical_formula_structural   Zr5Nb3(P3Ir4)4
_chemical_formula_sum   'Zr5 Nb3 P12 Ir16'
_cell_volume   548.61600405
_cell_formula_units_Z   1
loop_
 _symmetry_equiv_pos_site_id
 _symmetry_equiv_pos_as_xyz
  1  'x, y, z'
loop_
 _atom_site_type_symbol
 _atom_site_label
 _atom_site_symmetry_multiplicity
 _atom_site_fract_x
 _atom_site_fract_y
 _atom_site_fract_z
 _atom_site_occupancy
  Zr  Zr0  1  0.333333  0.666667  0.000000  1
  Zr  Zr1  1  0.666667  0.333333  0.000000  1
  Zr  Zr2  1  0.819641  0.000000  0.500000  1
  Zr  Zr3  1  0.000000  0.819641  0.500000  1
  Zr  Zr4  1  0.180359  0.180359  0.500000  1
  Nb  Nb5  1  0.454769  0.000000  0.000000  1
  Nb  Nb6  1  0.000000  0.454769  0.000000  1
  Nb  Nb7  1  0.545231  0.545231  0.000000  1
  P  P8  1  0.174270  0.000000  0.000000  1
  P  P9  1  0.000000  0.174270  0.000000  1
  P  P10  1  0.825730  0.825730  0.000000  1
  P  P11  1  0.167409  0.483875  0.500000  1
  P  P12  1  0.516125  0.683533  0.500000  1
  P  P13  1  0.316467  0.832591  0.500000  1
  P  P14  1  0.683533  0.516125  0.500000  1
  P  P15  1  0.832591  0.316467  0.500000  1
  P  P16  1  0.483875  0.167409  0.500000  1
  P  P17  1  0.643567  0.000000  0.000000  1
  P  P18  1  0.000000  0.643567  0.000000  1
  P  P19  1  0.356433  0.356433  0.000000  1
  Ir  Ir20  1  0.354592  0.492795  0.500000  1
  Ir  Ir21  1  0.507205  0.861796  0.500000  1
  Ir  Ir22  1  0.138204  0.645408  0.500000  1
  Ir  Ir23  1  0.861796  0.507205  0.500000  1
  Ir  Ir24  1  0.645408  0.138204  0.500000  1
  Ir  Ir25  1  0.492795  0.354592  0.500000  1
  Ir  Ir26  1  0.178355  0.367229  0.000000  1
  Ir  Ir27  1  0.632771  0.811127  0.000000  1
  Ir  Ir28  1  0.188873  0.821645  0.000000  1
  Ir  Ir29  1  0.811127  0.632771  0.000000  1
  Ir  Ir30  1  0.821645  0.188873  0.000000  1
  Ir  Ir31  1  0.367229  0.178355  0.000000  1
  Ir  Ir32  1  0.284263  0.000000  0.500000  1
  Ir  Ir33  1  0.000000  0.284263  0.500000  1
  Ir  Ir34  1  0.715737  0.715737  0.500000  1
  Ir  Ir35  1  0.000000  0.000000  0.000000  1
