# generated using pymatgen
data_LiYb2Ge(PPd4)5
_symmetry_space_group_name_H-M   'P 1'
_cell_length_a   8.63266657
_cell_length_b   8.66186468
_cell_length_c   8.66186502
_cell_angle_alpha   59.77709719
_cell_angle_beta   60.11144276
_cell_angle_gamma   60.11144605
_symmetry_Int_Tables_number   1
_chemical_formula_structural   LiYb2Ge(PPd4)5
_chemical_formula_sum   'Li1 Yb2 Ge1 P5 Pd20'
_cell_volume   457.97618177
_cell_formula_units_Z   1
loop_
 _symmetry_equiv_pos_site_id
 _symmetry_equiv_pos_as_xyz
  1  'x, y, z'
loop_
 _atom_site_type_symbol
 _atom_site_label
 _atom_site_symmetry_multiplicity
 _atom_site_fract_x
 _atom_site_fract_y
 _atom_site_fract_z
 _atom_site_occupancy
  Li  Li0  1  0.999038  0.000962  0.000962  1
  Yb  Yb1  1  0.751390  0.748610  0.748610  1
  Yb  Yb2  1  0.251390  0.248610  0.248610  1
  Ge  Ge3  1  0.737384  0.262616  0.262616  1
  P  P4  1  0.739082  0.735873  0.260918  1
  P  P5  1  0.739082  0.260918  0.735873  1
  P  P6  1  0.264127  0.735873  0.260918  1
  P  P7  1  0.262605  0.737395  0.737395  1
  P  P8  1  0.264127  0.260918  0.735873  1
  Pd  Pd9  1  0.342183  0.001140  0.001140  1
  Pd  Pd10  1  0.998860  0.657817  0.344464  1
  Pd  Pd11  1  0.342843  0.000382  0.657157  1
  Pd  Pd12  1  0.999618  0.657157  0.000382  1
  Pd  Pd13  1  0.653103  0.346897  0.992028  1
  Pd  Pd14  1  0.612511  0.622861  0.152116  1
  Pd  Pd15  1  0.384806  0.844286  0.386104  1
  Pd  Pd16  1  0.155714  0.615194  0.615194  1
  Pd  Pd17  1  0.653103  0.992028  0.346897  1
  Pd  Pd18  1  0.998860  0.344464  0.657817  1
  Pd  Pd19  1  0.655536  0.001140  0.001140  1
  Pd  Pd20  1  0.007972  0.992028  0.346897  1
  Pd  Pd21  1  0.612511  0.152116  0.622861  1
  Pd  Pd22  1  0.342843  0.657157  0.000382  1
  Pd  Pd23  1  0.377139  0.387489  0.387489  1
  Pd  Pd24  1  0.613896  0.615194  0.615194  1
  Pd  Pd25  1  0.384806  0.386104  0.844286  1
  Pd  Pd26  1  0.999618  0.000382  0.657157  1
  Pd  Pd27  1  0.847884  0.387489  0.387489  1
  Pd  Pd28  1  0.007972  0.346897  0.992028  1
