# generated using pymatgen
data_Na2TmIO6
_symmetry_space_group_name_H-M   'P 1'
_cell_length_a   5.68495709
_cell_length_b   5.68495708
_cell_length_c   5.68495700
_cell_angle_alpha   59.99999464
_cell_angle_beta   59.99999472
_cell_angle_gamma   60.00000312
_symmetry_Int_Tables_number   1
_chemical_formula_structural   Na2TmIO6
_chemical_formula_sum   'Na2 Tm1 I1 O6'
_cell_volume   129.91716735
_cell_formula_units_Z   1
loop_
 _symmetry_equiv_pos_site_id
 _symmetry_equiv_pos_as_xyz
  1  'x, y, z'
loop_
 _atom_site_type_symbol
 _atom_site_label
 _atom_site_symmetry_multiplicity
 _atom_site_fract_x
 _atom_site_fract_y
 _atom_site_fract_z
 _atom_site_occupancy
  Na  Na0  1  0.250000  0.250000  0.250000  1
  Na  Na1  1  0.750000  0.750000  0.750000  1
  Tm  Tm2  1  0.000000  0.000000  0.000000  1
  I  I3  1  0.499999  0.499999  0.499999  1
  O  O4  1  0.732762  0.267237  0.267237  1
  O  O5  1  0.267237  0.732762  0.267237  1
  O  O6  1  0.732762  0.732762  0.267237  1
  O  O7  1  0.267237  0.267237  0.732762  1
  O  O8  1  0.732762  0.267237  0.732762  1
  O  O9  1  0.267237  0.732762  0.732762  1
