# generated using pymatgen
data_AcTmIr2F14
_symmetry_space_group_name_H-M   'P 1'
_cell_length_a   5.70922077
_cell_length_b   6.04702923
_cell_length_c   8.38128200
_cell_angle_alpha   101.74969397
_cell_angle_beta   90.10597659
_cell_angle_gamma   89.96513534
_symmetry_Int_Tables_number   1
_chemical_formula_structural   AcTmIr2F14
_chemical_formula_sum   'Ac1 Tm1 Ir2 F14'
_cell_volume   283.29045945
_cell_formula_units_Z   1
loop_
 _symmetry_equiv_pos_site_id
 _symmetry_equiv_pos_as_xyz
  1  'x, y, z'
loop_
 _atom_site_type_symbol
 _atom_site_label
 _atom_site_symmetry_multiplicity
 _atom_site_fract_x
 _atom_site_fract_y
 _atom_site_fract_z
 _atom_site_occupancy
  Ac  Ac0  1  0.706236  0.650813  0.683538  1
  Tm  Tm1  1  0.197186  0.343934  0.297033  1
  Ir  Ir2  1  0.708977  0.821391  0.224222  1
  Ir  Ir3  1  0.209956  0.187155  0.783317  1
  F  F4  1  0.911914  0.423067  0.461126  1
  F  F5  1  0.381841  0.521668  0.501029  1
  F  F6  1  0.359470  0.895490  0.778636  1
  F  F7  1  0.952189  0.052011  0.226308  1
  F  F8  1  0.907274  0.028885  0.775037  1
  F  F9  1  0.459535  0.060606  0.247625  1
  F  F10  1  0.057734  0.480921  0.796193  1
  F  F11  1  0.471461  0.581008  0.210292  1
  F  F12  1  0.697021  0.772946  0.988650  1
  F  F13  1  0.207701  0.243500  0.021170  1
  F  F14  1  0.722825  0.878685  0.461647  1
  F  F15  1  0.217165  0.120843  0.548763  1
  F  F16  1  0.515914  0.342087  0.793894  1
  F  F17  1  0.968319  0.594992  0.201520  1
