# generated using pymatgen
data_Ca12Nd8Si15Ge
_symmetry_space_group_name_H-M   'P 1'
_cell_length_a   7.60071721
_cell_length_b   8.00915563
_cell_length_c   15.52073200
_cell_angle_alpha   90.05011943
_cell_angle_beta   89.92676630
_cell_angle_gamma   90.02153255
_symmetry_Int_Tables_number   1
_chemical_formula_structural   Ca12Nd8Si15Ge
_chemical_formula_sum   'Ca12 Nd8 Si15 Ge1'
_cell_volume   944.82843614
_cell_formula_units_Z   1
loop_
 _symmetry_equiv_pos_site_id
 _symmetry_equiv_pos_as_xyz
  1  'x, y, z'
loop_
 _atom_site_type_symbol
 _atom_site_label
 _atom_site_symmetry_multiplicity
 _atom_site_fract_x
 _atom_site_fract_y
 _atom_site_fract_z
 _atom_site_occupancy
  Ca  Ca0  1  0.644019  0.976661  0.250177  1
  Ca  Ca1  1  0.144481  0.522626  0.250075  1
  Ca  Ca2  1  0.855682  0.477251  0.749211  1
  Ca  Ca3  1  0.355794  0.023234  0.749539  1
  Ca  Ca4  1  0.969146  0.813521  0.096875  1
  Ca  Ca5  1  0.468263  0.686713  0.403671  1
  Ca  Ca6  1  0.529063  0.312350  0.903741  1
  Ca  Ca7  1  0.031953  0.186941  0.596104  1
  Ca  Ca8  1  0.032059  0.186487  0.903726  1
  Ca  Ca9  1  0.531887  0.313242  0.596146  1
  Ca  Ca10  1  0.468690  0.686917  0.096477  1
  Ca  Ca11  1  0.968181  0.812854  0.403661  1
  Nd  Nd12  1  0.687251  0.824115  0.877555  1
  Nd  Nd13  1  0.188327  0.678641  0.621471  1
  Nd  Nd14  1  0.812942  0.320719  0.121797  1
  Nd  Nd15  1  0.311969  0.178409  0.378657  1
  Nd  Nd16  1  0.312505  0.177867  0.122021  1
  Nd  Nd17  1  0.812017  0.321338  0.378648  1
  Nd  Nd18  1  0.188247  0.678394  0.878630  1
  Nd  Nd19  1  0.688349  0.821663  0.621282  1
  Si  Si20  1  0.749073  0.608828  0.250131  1
  Si  Si21  1  0.248859  0.890393  0.250328  1
  Si  Si22  1  0.751529  0.109874  0.749459  1
  Si  Si23  1  0.251107  0.391105  0.749953  1
  Si  Si24  1  0.019483  0.102704  0.250329  1
  Si  Si25  1  0.519697  0.396439  0.250248  1
  Si  Si26  1  0.480644  0.603828  0.749825  1
  Si  Si27  1  0.980856  0.896886  0.749733  1
  Si  Si28  1  0.362132  0.968516  0.538337  1
  Si  Si29  1  0.638265  0.031520  0.038417  1
  Si  Si30  1  0.138130  0.468399  0.461639  1
  Si  Si31  1  0.141854  0.468063  0.039179  1
  Si  Si32  1  0.638075  0.031436  0.461541  1
  Si  Si33  1  0.361679  0.968242  0.961861  1
  Si  Si34  1  0.862207  0.531570  0.538343  1
  Ge  Ge35  1  0.855583  0.532256  0.961217  1
