# generated using pymatgen
data_NdHo5Co8(P6Ru5)2
_symmetry_space_group_name_H-M   'P 1'
_cell_length_a   3.86076500
_cell_length_b   10.69154800
_cell_length_c   12.55991600
_cell_angle_alpha   90.00000000
_cell_angle_beta   90.00000000
_cell_angle_gamma   90.00000000
_symmetry_Int_Tables_number   1
_chemical_formula_structural   NdHo5Co8(P6Ru5)2
_chemical_formula_sum   'Nd1 Ho5 Co8 P12 Ru10'
_cell_volume   518.44261487
_cell_formula_units_Z   1
loop_
 _symmetry_equiv_pos_site_id
 _symmetry_equiv_pos_as_xyz
  1  'x, y, z'
loop_
 _atom_site_type_symbol
 _atom_site_label
 _atom_site_symmetry_multiplicity
 _atom_site_fract_x
 _atom_site_fract_y
 _atom_site_fract_z
 _atom_site_occupancy
  Nd  Nd0  1  0.000000  0.500000  0.526642  1
  Ho  Ho1  1  0.500000  0.000000  0.472870  1
  Ho  Ho2  1  0.500000  0.821572  0.200628  1
  Ho  Ho3  1  0.500000  0.178428  0.200628  1
  Ho  Ho4  1  0.000000  0.678869  0.799764  1
  Ho  Ho5  1  0.000000  0.321131  0.799764  1
  Co  Co6  1  0.000000  0.500000  0.983903  1
  Co  Co7  1  0.500000  0.000000  0.016149  1
  Co  Co8  1  0.500000  0.332244  0.988901  1
  Co  Co9  1  0.500000  0.667756  0.988901  1
  Co  Co10  1  0.000000  0.167657  0.011099  1
  Co  Co11  1  0.000000  0.832343  0.011099  1
  Co  Co12  1  0.500000  0.500000  0.704764  1
  Co  Co13  1  0.000000  0.000000  0.297376  1
  P  P14  1  0.500000  0.312020  0.619165  1
  P  P15  1  0.500000  0.687980  0.619165  1
  P  P16  1  0.000000  0.185115  0.381780  1
  P  P17  1  0.000000  0.814885  0.381780  1
  P  P18  1  0.500000  0.500000  0.881643  1
  P  P19  1  0.000000  0.000000  0.118693  1
  P  P20  1  0.500000  0.845930  0.900971  1
  P  P21  1  0.500000  0.154070  0.900971  1
  P  P22  1  0.000000  0.654199  0.098821  1
  P  P23  1  0.000000  0.345801  0.098821  1
  P  P24  1  0.500000  0.500000  0.334627  1
  P  P25  1  0.000000  0.000000  0.663534  1
  Ru  Ru26  1  0.500000  0.295311  0.426519  1
  Ru  Ru27  1  0.500000  0.704689  0.426519  1
  Ru  Ru28  1  0.000000  0.200389  0.572741  1
  Ru  Ru29  1  0.000000  0.799611  0.572741  1
  Ru  Ru30  1  0.500000  0.875244  0.719481  1
  Ru  Ru31  1  0.500000  0.124756  0.719481  1
  Ru  Ru32  1  0.000000  0.625438  0.280217  1
  Ru  Ru33  1  0.000000  0.374562  0.280217  1
  Ru  Ru34  1  0.500000  0.500000  0.145990  1
  Ru  Ru35  1  0.000000  0.000000  0.853631  1
