# generated using pymatgen
data_Tb9Dy11Sn16
_symmetry_space_group_name_H-M   'P 1'
_cell_length_a   8.06155708
_cell_length_b   8.21639008
_cell_length_c   15.50433002
_cell_angle_alpha   90.00310401
_cell_angle_beta   90.00415907
_cell_angle_gamma   90.01585367
_symmetry_Int_Tables_number   1
_chemical_formula_structural   Tb9Dy11Sn16
_chemical_formula_sum   'Tb9 Dy11 Sn16'
_cell_volume   1026.95867695
_cell_formula_units_Z   1
loop_
 _symmetry_equiv_pos_site_id
 _symmetry_equiv_pos_as_xyz
  1  'x, y, z'
loop_
 _atom_site_type_symbol
 _atom_site_label
 _atom_site_symmetry_multiplicity
 _atom_site_fract_x
 _atom_site_fract_y
 _atom_site_fract_z
 _atom_site_occupancy
  Tb  Tb0  1  0.867613  0.664287  0.878414  1
  Tb  Tb1  1  0.520205  0.319745  0.902245  1
  Tb  Tb2  1  0.020277  0.180223  0.597718  1
  Tb  Tb3  1  0.479745  0.680211  0.402159  1
  Tb  Tb4  1  0.979780  0.819866  0.097938  1
  Tb  Tb5  1  0.479798  0.680124  0.097825  1
  Tb  Tb6  1  0.979688  0.819840  0.402166  1
  Tb  Tb7  1  0.520294  0.319799  0.597758  1
  Tb  Tb8  1  0.020267  0.180158  0.902214  1
  Dy  Dy9  1  0.367532  0.835783  0.878341  1
  Dy  Dy10  1  0.867554  0.664229  0.621611  1
  Dy  Dy11  1  0.632420  0.164168  0.378258  1
  Dy  Dy12  1  0.132383  0.335859  0.121726  1
  Dy  Dy13  1  0.632377  0.164173  0.121841  1
  Dy  Dy14  1  0.132412  0.335801  0.378234  1
  Dy  Dy15  1  0.367604  0.835821  0.621573  1
  Dy  Dy16  1  0.198554  0.502503  0.749964  1
  Dy  Dy17  1  0.698411  0.997539  0.749918  1
  Dy  Dy18  1  0.801587  0.497448  0.250074  1
  Dy  Dy19  1  0.301597  0.002575  0.249988  1
  Sn  Sn20  1  0.292573  0.034908  0.042036  1
  Sn  Sn21  1  0.792541  0.465135  0.457969  1
  Sn  Sn22  1  0.707502  0.965154  0.542005  1
  Sn  Sn23  1  0.207995  0.534670  0.958040  1
  Sn  Sn24  1  0.707203  0.965645  0.958063  1
  Sn  Sn25  1  0.207447  0.534807  0.542025  1
  Sn  Sn26  1  0.292511  0.034872  0.457933  1
  Sn  Sn27  1  0.792475  0.464839  0.042347  1
  Sn  Sn28  1  0.565045  0.619077  0.749918  1
  Sn  Sn29  1  0.065376  0.881078  0.749894  1
  Sn  Sn30  1  0.434727  0.380854  0.249984  1
  Sn  Sn31  1  0.934780  0.119141  0.249971  1
  Sn  Sn32  1  0.328088  0.145633  0.749980  1
  Sn  Sn33  1  0.828028  0.354054  0.749869  1
  Sn  Sn34  1  0.671814  0.854220  0.249994  1
  Sn  Sn35  1  0.171801  0.645760  0.250008  1
