# generated using pymatgen
data_U8Ta5Nb7Si15Ge
_symmetry_space_group_name_H-M   'P 1'
_cell_length_a   6.85451266
_cell_length_b   7.07773591
_cell_length_c   13.29512809
_cell_angle_alpha   89.98817634
_cell_angle_beta   90.00592142
_cell_angle_gamma   90.00361902
_symmetry_Int_Tables_number   1
_chemical_formula_structural   U8Ta5Nb7Si15Ge
_chemical_formula_sum   'U8 Ta5 Nb7 Si15 Ge1'
_cell_volume   645.00554783
_cell_formula_units_Z   1
loop_
 _symmetry_equiv_pos_site_id
 _symmetry_equiv_pos_as_xyz
  1  'x, y, z'
loop_
 _atom_site_type_symbol
 _atom_site_label
 _atom_site_symmetry_multiplicity
 _atom_site_fract_x
 _atom_site_fract_y
 _atom_site_fract_z
 _atom_site_occupancy
  U  U0  1  0.498945  0.668963  0.592827  1
  U  U1  1  0.998645  0.830785  0.907341  1
  U  U2  1  0.498875  0.331218  0.091611  1
  U  U3  1  0.003848  0.166173  0.409882  1
  U  U4  1  0.498747  0.331210  0.408613  1
  U  U5  1  0.003823  0.166083  0.090032  1
  U  U6  1  0.499075  0.669127  0.907086  1
  U  U7  1  0.998728  0.831257  0.592820  1
  Ta  Ta8  1  0.163055  0.326793  0.624360  1
  Ta  Ta9  1  0.832712  0.500116  0.749815  1
  Ta  Ta10  1  0.332262  0.000126  0.749884  1
  Ta  Ta11  1  0.170666  0.501336  0.250027  1
  Ta  Ta12  1  0.666073  0.997054  0.249992  1
  Nb  Nb13  1  0.663212  0.173334  0.624312  1
  Nb  Nb14  1  0.163140  0.326944  0.875609  1
  Nb  Nb15  1  0.336670  0.827727  0.123830  1
  Nb  Nb16  1  0.836794  0.675260  0.376439  1
  Nb  Nb17  1  0.336628  0.827864  0.376099  1
  Nb  Nb18  1  0.836683  0.675498  0.123496  1
  Nb  Nb19  1  0.663018  0.173336  0.875604  1
  Si  Si20  1  0.663451  0.962054  0.458682  1
  Si  Si21  1  0.163046  0.539306  0.041449  1
  Si  Si22  1  0.336620  0.038304  0.957796  1
  Si  Si23  1  0.836351  0.460868  0.541424  1
  Si  Si24  1  0.336132  0.038700  0.542254  1
  Si  Si25  1  0.835683  0.461099  0.958606  1
  Si  Si26  1  0.663356  0.962010  0.041247  1
  Si  Si27  1  0.163136  0.539227  0.458895  1
  Si  Si28  1  0.457806  0.377705  0.749893  1
  Si  Si29  1  0.957848  0.122758  0.750179  1
  Si  Si30  1  0.540573  0.624665  0.250003  1
  Si  Si31  1  0.041781  0.877600  0.249995  1
  Si  Si32  1  0.699991  0.870426  0.750052  1
  Si  Si33  1  0.200327  0.629506  0.749890  1
  Si  Si34  1  0.299685  0.130502  0.249974  1
  Ge  Ge35  1  0.802617  0.365065  0.249980  1
