# generated using pymatgen
data_Pr2Er2Zn10SiSn
_symmetry_space_group_name_H-M   'P 1'
_cell_length_a   8.34845622
_cell_length_b   8.34845704
_cell_length_c   8.89622100
_cell_angle_alpha   90.00000000
_cell_angle_beta   90.00000000
_cell_angle_gamma   149.61005585
_symmetry_Int_Tables_number   1
_chemical_formula_structural   Pr2Er2Zn10SiSn
_chemical_formula_sum   'Pr2 Er2 Zn10 Si1 Sn1'
_cell_volume   313.66604310
_cell_formula_units_Z   1
loop_
 _symmetry_equiv_pos_site_id
 _symmetry_equiv_pos_as_xyz
  1  'x, y, z'
loop_
 _atom_site_type_symbol
 _atom_site_label
 _atom_site_symmetry_multiplicity
 _atom_site_fract_x
 _atom_site_fract_y
 _atom_site_fract_z
 _atom_site_occupancy
  Pr  Pr0  1  0.000809  0.999191  0.486717  1
  Pr  Pr1  1  0.000809  0.999191  0.013283  1
  Er  Er2  1  0.200800  0.799200  0.250000  1
  Er  Er3  1  0.795981  0.204019  0.750000  1
  Zn  Zn4  1  0.810751  0.189249  0.390757  1
  Zn  Zn5  1  0.188031  0.811969  0.606858  1
  Zn  Zn6  1  0.810751  0.189249  0.109243  1
  Zn  Zn7  1  0.188031  0.811969  0.893142  1
  Zn  Zn8  1  0.652028  0.347972  0.472331  1
  Zn  Zn9  1  0.342726  0.657274  0.516293  1
  Zn  Zn10  1  0.652028  0.347972  0.027669  1
  Zn  Zn11  1  0.342726  0.657274  0.983707  1
  Zn  Zn12  1  0.403004  0.596996  0.250000  1
  Zn  Zn13  1  0.608051  0.391949  0.750000  1
  Si  Si14  1  0.558845  0.441155  0.250000  1
  Sn  Sn15  1  0.444627  0.555373  0.750000  1
