# generated using pymatgen
data_Ce8Si12NiAu3
_symmetry_space_group_name_H-M   'P 1'
_cell_length_a   8.35454600
_cell_length_b   8.35454557
_cell_length_c   8.45144600
_cell_angle_alpha   90.00000000
_cell_angle_beta   90.00000000
_cell_angle_gamma   120.00000962
_symmetry_Int_Tables_number   1
_chemical_formula_structural   Ce8Si12NiAu3
_chemical_formula_sum   'Ce8 Si12 Ni1 Au3'
_cell_volume   510.86635007
_cell_formula_units_Z   1
loop_
 _symmetry_equiv_pos_site_id
 _symmetry_equiv_pos_as_xyz
  1  'x, y, z'
loop_
 _atom_site_type_symbol
 _atom_site_label
 _atom_site_symmetry_multiplicity
 _atom_site_fract_x
 _atom_site_fract_y
 _atom_site_fract_z
 _atom_site_occupancy
  Ce  Ce0  1  0.497339  0.994676  0.254733  1
  Ce  Ce1  1  0.497036  0.994072  0.745156  1
  Ce  Ce2  1  0.005324  0.502661  0.254733  1
  Ce  Ce3  1  0.005928  0.502964  0.745156  1
  Ce  Ce4  1  0.497339  0.502661  0.254733  1
  Ce  Ce5  1  0.497036  0.502964  0.745156  1
  Ce  Ce6  1  0.000000  0.000000  0.250880  1
  Ce  Ce7  1  0.000000  0.000000  0.748686  1
  Si  Si8  1  0.162277  0.324556  0.997053  1
  Si  Si9  1  0.836643  0.673285  0.001353  1
  Si  Si10  1  0.675444  0.837723  0.997053  1
  Si  Si11  1  0.839592  0.679184  0.501197  1
  Si  Si12  1  0.326715  0.163357  0.001353  1
  Si  Si13  1  0.172151  0.344300  0.499690  1
  Si  Si14  1  0.162277  0.837723  0.997053  1
  Si  Si15  1  0.320816  0.160408  0.501197  1
  Si  Si16  1  0.836643  0.163357  0.001353  1
  Si  Si17  1  0.655700  0.827849  0.499690  1
  Si  Si18  1  0.839592  0.160408  0.501197  1
  Si  Si19  1  0.172151  0.827849  0.499690  1
  Ni  Ni20  1  0.333333  0.666667  0.504144  1
  Au  Au21  1  0.333333  0.666667  0.000736  1
  Au  Au22  1  0.666667  0.333333  0.996809  1
  Au  Au23  1  0.666667  0.333333  0.501204  1
