# generated using pymatgen
data_Tb3BiIr3RhO14
_symmetry_space_group_name_H-M   'P 1'
_cell_length_a   7.28804255
_cell_length_b   7.30285945
_cell_length_c   7.28804268
_cell_angle_alpha   59.98002428
_cell_angle_beta   59.83743686
_cell_angle_gamma   59.98002464
_symmetry_Int_Tables_number   1
_chemical_formula_structural   Tb3BiIr3RhO14
_chemical_formula_sum   'Tb3 Bi1 Ir3 Rh1 O14'
_cell_volume   273.86244207
_cell_formula_units_Z   1
loop_
 _symmetry_equiv_pos_site_id
 _symmetry_equiv_pos_as_xyz
  1  'x, y, z'
loop_
 _atom_site_type_symbol
 _atom_site_label
 _atom_site_symmetry_multiplicity
 _atom_site_fract_x
 _atom_site_fract_y
 _atom_site_fract_z
 _atom_site_occupancy
  Tb  Tb0  1  0.125000  0.125000  0.125000  1
  Tb  Tb1  1  0.625000  0.125000  0.125000  1
  Tb  Tb2  1  0.125000  0.125000  0.625000  1
  Bi  Bi3  1  0.125000  0.625000  0.125000  1
  Ir  Ir4  1  0.625000  0.625000  0.125000  1
  Ir  Ir5  1  0.125000  0.625000  0.625000  1
  Ir  Ir6  1  0.625000  0.125000  0.625000  1
  Rh  Rh7  1  0.625000  0.625000  0.625000  1
  O  O8  1  0.252146  0.241106  0.252146  1
  O  O9  1  0.291491  0.715687  0.291491  1
  O  O10  1  0.960027  0.960443  0.536967  1
  O  O11  1  0.537304  0.965835  0.537304  1
  O  O12  1  0.706026  0.716211  0.285987  1
  O  O13  1  0.964013  0.533789  0.543974  1
  O  O14  1  0.712696  0.284165  0.712696  1
  O  O15  1  0.289973  0.289557  0.713033  1
  O  O16  1  0.713033  0.289557  0.289973  1
  O  O17  1  0.285987  0.716211  0.706026  1
  O  O18  1  0.958509  0.534313  0.958509  1
  O  O19  1  0.543974  0.533789  0.964013  1
  O  O20  1  0.997854  0.008894  0.997854  1
  O  O21  1  0.536967  0.960443  0.960027  1
