# generated using pymatgen
data_AcNi2Ir3
_symmetry_space_group_name_H-M   'P 1'
_cell_length_a   5.38280500
_cell_length_b   5.38280499
_cell_length_c   4.09201000
_cell_angle_alpha   90.00000000
_cell_angle_beta   90.00000000
_cell_angle_gamma   120.00001848
_symmetry_Int_Tables_number   1
_chemical_formula_structural   AcNi2Ir3
_chemical_formula_sum   'Ac1 Ni2 Ir3'
_cell_volume   102.67968578
_cell_formula_units_Z   1
loop_
 _symmetry_equiv_pos_site_id
 _symmetry_equiv_pos_as_xyz
  1  'x, y, z'
loop_
 _atom_site_type_symbol
 _atom_site_label
 _atom_site_symmetry_multiplicity
 _atom_site_fract_x
 _atom_site_fract_y
 _atom_site_fract_z
 _atom_site_occupancy
  Ac  Ac0  1  0.000000  0.000000  0.000000  1
  Ni  Ni1  1  0.666667  0.333333  0.000000  1
  Ni  Ni2  1  0.333333  0.666667  0.000000  1
  Ir  Ir3  1  0.500000  0.500000  0.500000  1
  Ir  Ir4  1  0.500000  0.000000  0.500000  1
  Ir  Ir5  1  0.000000  0.500000  0.500000  1
