# generated using pymatgen
data_Pm4Sc3MoO12
_symmetry_space_group_name_H-M   'P 1'
_cell_length_a   5.59114620
_cell_length_b   5.85663492
_cell_length_c   8.06296893
_cell_angle_alpha   89.97368134
_cell_angle_beta   90.05065236
_cell_angle_gamma   89.94395217
_symmetry_Int_Tables_number   1
_chemical_formula_structural   Pm4Sc3MoO12
_chemical_formula_sum   'Pm4 Sc3 Mo1 O12'
_cell_volume   264.02409617
_cell_formula_units_Z   1
loop_
 _symmetry_equiv_pos_site_id
 _symmetry_equiv_pos_as_xyz
  1  'x, y, z'
loop_
 _atom_site_type_symbol
 _atom_site_label
 _atom_site_symmetry_multiplicity
 _atom_site_fract_x
 _atom_site_fract_y
 _atom_site_fract_z
 _atom_site_occupancy
  Pm  Pm0  1  0.983915  0.059860  0.249787  1
  Pm  Pm1  1  0.518213  0.560264  0.249225  1
  Pm  Pm2  1  0.481787  0.439736  0.750775  1
  Pm  Pm3  1  0.016084  0.940140  0.750213  1
  Sc  Sc4  1  0.500000  0.000000  0.000000  1
  Sc  Sc5  1  0.000000  0.500001  0.000000  1
  Sc  Sc6  1  0.500000  0.000000  0.500000  1
  Mo  Mo7  1  0.000000  0.500001  0.500000  1
  O  O8  1  0.695537  0.302261  0.060262  1
  O  O9  1  0.804066  0.801925  0.061224  1
  O  O10  1  0.118451  0.452304  0.246892  1
  O  O11  1  0.383399  0.952890  0.249491  1
  O  O12  1  0.689548  0.300521  0.437934  1
  O  O13  1  0.804392  0.807091  0.439906  1
  O  O14  1  0.195609  0.192909  0.560095  1
  O  O15  1  0.310453  0.699479  0.562067  1
  O  O16  1  0.616601  0.047110  0.750509  1
  O  O17  1  0.881550  0.547696  0.753108  1
  O  O18  1  0.195935  0.198075  0.938775  1
  O  O19  1  0.304464  0.697739  0.939737  1
