# generated using pymatgen
data_Ho5Er5(Bi2Rh)2
_symmetry_space_group_name_H-M   'P 1'
_cell_length_a   7.95097591
_cell_length_b   8.97766800
_cell_length_c   12.39448603
_cell_angle_alpha   90.00000000
_cell_angle_beta   90.05282670
_cell_angle_gamma   90.00000000
_symmetry_Int_Tables_number   1
_chemical_formula_structural   Ho5Er5(Bi2Rh)2
_chemical_formula_sum   'Ho10 Er10 Bi8 Rh4'
_cell_volume   884.73318228
_cell_formula_units_Z   2
loop_
 _symmetry_equiv_pos_site_id
 _symmetry_equiv_pos_as_xyz
  1  'x, y, z'
loop_
 _atom_site_type_symbol
 _atom_site_label
 _atom_site_symmetry_multiplicity
 _atom_site_fract_x
 _atom_site_fract_y
 _atom_site_fract_z
 _atom_site_occupancy
  Ho  Ho0  1  0.839514  0.250000  0.792501  1
  Ho  Ho1  1  0.160486  0.750000  0.207499  1
  Ho  Ho2  1  0.877659  0.750000  0.808193  1
  Ho  Ho3  1  0.122341  0.250000  0.191807  1
  Ho  Ho4  1  0.377073  0.250000  0.692012  1
  Ho  Ho5  1  0.622927  0.750000  0.307988  1
  Ho  Ho6  1  0.050164  0.750000  0.498926  1
  Ho  Ho7  1  0.949836  0.250000  0.501074  1
  Ho  Ho8  1  0.549828  0.250000  0.001117  1
  Ho  Ho9  1  0.450172  0.750000  0.998883  1
  Er  Er10  1  0.340072  0.750000  0.706897  1
  Er  Er11  1  0.659928  0.250000  0.293103  1
  Er  Er12  1  0.676019  0.543316  0.566034  1
  Er  Er13  1  0.323981  0.456684  0.433966  1
  Er  Er14  1  0.176249  0.456334  0.934233  1
  Er  Er15  1  0.323981  0.043316  0.433966  1
  Er  Er16  1  0.823751  0.543666  0.065767  1
  Er  Er17  1  0.676019  0.956684  0.566034  1
  Er  Er18  1  0.823751  0.956334  0.065767  1
  Er  Er19  1  0.176249  0.043666  0.934233  1
  Bi  Bi20  1  0.568200  0.509519  0.826736  1
  Bi  Bi21  1  0.431800  0.490481  0.173264  1
  Bi  Bi22  1  0.068872  0.490956  0.673212  1
  Bi  Bi23  1  0.431800  0.009519  0.173264  1
  Bi  Bi24  1  0.931128  0.509044  0.326788  1
  Bi  Bi25  1  0.568200  0.990481  0.826736  1
  Bi  Bi26  1  0.931128  0.990956  0.326788  1
  Bi  Bi27  1  0.068872  0.009044  0.673212  1
  Rh  Rh28  1  0.074017  0.750000  0.990146  1
  Rh  Rh29  1  0.925983  0.250000  0.009854  1
  Rh  Rh30  1  0.573546  0.250000  0.509180  1
  Rh  Rh31  1  0.426454  0.750000  0.490820  1
