# generated using pymatgen
data_Pr3C2Cl3
_symmetry_space_group_name_H-M   'P 1'
_cell_length_a   10.15910900
_cell_length_b   10.15910962
_cell_length_c   16.82704200
_cell_angle_alpha   90.00000000
_cell_angle_beta   90.00000000
_cell_angle_gamma   112.11156877
_symmetry_Int_Tables_number   1
_chemical_formula_structural   Pr3C2Cl3
_chemical_formula_sum   'Pr24 C16 Cl24'
_cell_volume   1608.94897645
_cell_formula_units_Z   8
loop_
 _symmetry_equiv_pos_site_id
 _symmetry_equiv_pos_as_xyz
  1  'x, y, z'
loop_
 _atom_site_type_symbol
 _atom_site_label
 _atom_site_symmetry_multiplicity
 _atom_site_fract_x
 _atom_site_fract_y
 _atom_site_fract_z
 _atom_site_occupancy
  Pr  Pr0  1  0.863066  0.116765  0.005451  1
  Pr  Pr1  1  0.389309  0.673886  0.016626  1
  Pr  Pr2  1  0.013500  0.546862  0.103687  1
  Pr  Pr3  1  0.747374  0.776953  0.107537  1
  Pr  Pr4  1  0.479510  0.992094  0.126333  1
  Pr  Pr5  1  0.378843  0.621156  0.250000  1
  Pr  Pr6  1  0.164745  0.835254  0.250000  1
  Pr  Pr7  1  0.007905  0.520489  0.373667  1
  Pr  Pr8  1  0.223048  0.252626  0.392464  1
  Pr  Pr9  1  0.453138  0.986499  0.396313  1
  Pr  Pr10  1  0.326114  0.610690  0.483375  1
  Pr  Pr11  1  0.883234  0.136933  0.494549  1
  Pr  Pr12  1  0.136933  0.883234  0.505451  1
  Pr  Pr13  1  0.610690  0.326114  0.516626  1
  Pr  Pr14  1  0.986499  0.453138  0.603687  1
  Pr  Pr15  1  0.252626  0.223048  0.607536  1
  Pr  Pr16  1  0.520489  0.007905  0.626333  1
  Pr  Pr17  1  0.835254  0.164745  0.750000  1
  Pr  Pr18  1  0.621156  0.378843  0.750000  1
  Pr  Pr19  1  0.992094  0.479510  0.873667  1
  Pr  Pr20  1  0.776953  0.747374  0.892464  1
  Pr  Pr21  1  0.546862  0.013500  0.896313  1
  Pr  Pr22  1  0.673886  0.389309  0.983375  1
  Pr  Pr23  1  0.116765  0.863066  0.994549  1
  C  C24  1  0.859730  0.663582  0.024443  1
  C  C25  1  0.601287  0.914388  0.033703  1
  C  C26  1  0.226769  0.785009  0.094016  1
  C  C27  1  0.286994  0.724926  0.150441  1
  C  C28  1  0.275074  0.713005  0.349559  1
  C  C29  1  0.214991  0.773232  0.405984  1
  C  C30  1  0.085612  0.398712  0.466297  1
  C  C31  1  0.336418  0.140270  0.475557  1
  C  C32  1  0.140270  0.336418  0.524442  1
  C  C33  1  0.398712  0.085612  0.533702  1
  C  C34  1  0.773232  0.214991  0.594016  1
  C  C35  1  0.713005  0.275074  0.650441  1
  C  C36  1  0.724926  0.286994  0.849559  1
  C  C37  1  0.785009  0.226769  0.905984  1
  C  C38  1  0.914388  0.601287  0.966298  1
  C  C39  1  0.663582  0.859730  0.975557  1
  Cl  Cl40  1  0.139521  0.390508  0.002984  1
  Cl  Cl41  1  0.509457  0.506239  0.113978  1
  Cl  Cl42  1  0.757186  0.271834  0.123982  1
  Cl  Cl43  1  0.017188  0.007700  0.126302  1
  Cl  Cl44  1  0.878275  0.634451  0.238462  1
  Cl  Cl45  1  0.105947  0.376470  0.244127  1
  Cl  Cl46  1  0.623531  0.894053  0.255873  1
  Cl  Cl47  1  0.365549  0.121724  0.261538  1
  Cl  Cl48  1  0.992300  0.982813  0.373698  1
  Cl  Cl49  1  0.728166  0.242814  0.376018  1
  Cl  Cl50  1  0.493762  0.490544  0.386022  1
  Cl  Cl51  1  0.609493  0.860480  0.497016  1
  Cl  Cl52  1  0.860480  0.609493  0.502984  1
  Cl  Cl53  1  0.490544  0.493762  0.613978  1
  Cl  Cl54  1  0.242814  0.728166  0.623982  1
  Cl  Cl55  1  0.982813  0.992300  0.626302  1
  Cl  Cl56  1  0.121724  0.365549  0.738462  1
  Cl  Cl57  1  0.894053  0.623531  0.744127  1
  Cl  Cl58  1  0.376470  0.105947  0.755873  1
  Cl  Cl59  1  0.634451  0.878275  0.761538  1
  Cl  Cl60  1  0.007700  0.017188  0.873698  1
  Cl  Cl61  1  0.271834  0.757186  0.876018  1
  Cl  Cl62  1  0.506239  0.509457  0.886022  1
  Cl  Cl63  1  0.390508  0.139521  0.997016  1
