# generated using pymatgen
data_Rb8Li4DyLu3Bi8
_symmetry_space_group_name_H-M   'P 1'
_cell_length_a   11.34480105
_cell_length_b   11.34480149
_cell_length_c   7.31202800
_cell_angle_alpha   90.03443868
_cell_angle_beta   89.96556132
_cell_angle_gamma   99.89942188
_symmetry_Int_Tables_number   1
_chemical_formula_structural   Rb8Li4DyLu3Bi8
_chemical_formula_sum   'Rb8 Li4 Dy1 Lu3 Bi8'
_cell_volume   927.07889045
_cell_formula_units_Z   1
loop_
 _symmetry_equiv_pos_site_id
 _symmetry_equiv_pos_as_xyz
  1  'x, y, z'
loop_
 _atom_site_type_symbol
 _atom_site_label
 _atom_site_symmetry_multiplicity
 _atom_site_fract_x
 _atom_site_fract_y
 _atom_site_fract_z
 _atom_site_occupancy
  Rb  Rb0  1  0.573442  0.927325  0.750509  1
  Rb  Rb1  1  0.927325  0.573442  0.249491  1
  Rb  Rb2  1  0.427279  0.071535  0.250022  1
  Rb  Rb3  1  0.071535  0.427279  0.749978  1
  Rb  Rb4  1  0.675748  0.325398  0.781204  1
  Rb  Rb5  1  0.824716  0.174743  0.280977  1
  Rb  Rb6  1  0.325398  0.675748  0.218796  1
  Rb  Rb7  1  0.174743  0.824716  0.719023  1
  Li  Li8  1  0.623534  0.623534  0.000000  1
  Li  Li9  1  0.877336  0.877336  0.500000  1
  Li  Li10  1  0.377381  0.377381  0.000000  1
  Li  Li11  1  0.121380  0.121380  0.500000  1
  Dy  Dy12  1  0.370116  0.370116  0.500000  1
  Lu  Lu13  1  0.871150  0.871150  0.000000  1
  Lu  Lu14  1  0.629926  0.629926  0.500000  1
  Lu  Lu15  1  0.128524  0.128524  0.000000  1
  Bi  Bi16  1  0.346042  0.151037  0.752598  1
  Bi  Bi17  1  0.151037  0.346042  0.247402  1
  Bi  Bi18  1  0.654279  0.846557  0.250294  1
  Bi  Bi19  1  0.846557  0.654279  0.749706  1
  Bi  Bi20  1  0.902652  0.097008  0.764209  1
  Bi  Bi21  1  0.599178  0.403710  0.262757  1
  Bi  Bi22  1  0.097008  0.902652  0.235791  1
  Bi  Bi23  1  0.403710  0.599178  0.737243  1
