# generated using pymatgen
data_Y4Er(SiSb)2
_symmetry_space_group_name_H-M   'P 1'
_cell_length_a   7.88425900
_cell_length_b   7.93797300
_cell_length_c   15.04594400
_cell_angle_alpha   90.00000000
_cell_angle_beta   90.00000000
_cell_angle_gamma   90.00000000
_symmetry_Int_Tables_number   1
_chemical_formula_structural   Y4Er(SiSb)2
_chemical_formula_sum   'Y16 Er4 Si8 Sb8'
_cell_volume   941.65093286
_cell_formula_units_Z   4
loop_
 _symmetry_equiv_pos_site_id
 _symmetry_equiv_pos_as_xyz
  1  'x, y, z'
loop_
 _atom_site_type_symbol
 _atom_site_label
 _atom_site_symmetry_multiplicity
 _atom_site_fract_x
 _atom_site_fract_y
 _atom_site_fract_z
 _atom_site_occupancy
  Y  Y0  1  0.390825  0.837769  0.872298  1
  Y  Y1  1  0.890825  0.662231  0.627702  1
  Y  Y2  1  0.609175  0.162231  0.372298  1
  Y  Y3  1  0.109175  0.337769  0.127702  1
  Y  Y4  1  0.609175  0.162231  0.127702  1
  Y  Y5  1  0.109175  0.337769  0.372298  1
  Y  Y6  1  0.390825  0.837769  0.627702  1
  Y  Y7  1  0.890825  0.662231  0.872298  1
  Y  Y8  1  0.558416  0.329352  0.882155  1
  Y  Y9  1  0.058416  0.170648  0.617845  1
  Y  Y10  1  0.441584  0.670648  0.382155  1
  Y  Y11  1  0.941584  0.829352  0.117845  1
  Y  Y12  1  0.441584  0.670648  0.117845  1
  Y  Y13  1  0.941584  0.829352  0.382155  1
  Y  Y14  1  0.558416  0.329352  0.617845  1
  Y  Y15  1  0.058416  0.170648  0.882155  1
  Er  Er16  1  0.226227  0.495673  0.750000  1
  Er  Er17  1  0.726227  0.004327  0.750000  1
  Er  Er18  1  0.773773  0.504327  0.250000  1
  Er  Er19  1  0.273773  0.995673  0.250000  1
  Si  Si20  1  0.592228  0.625414  0.750000  1
  Si  Si21  1  0.092228  0.874586  0.750000  1
  Si  Si22  1  0.407772  0.374586  0.250000  1
  Si  Si23  1  0.907772  0.125414  0.250000  1
  Si  Si24  1  0.360293  0.138557  0.750000  1
  Si  Si25  1  0.860293  0.361443  0.750000  1
  Si  Si26  1  0.639707  0.861443  0.250000  1
  Si  Si27  1  0.139707  0.638557  0.250000  1
  Sb  Sb28  1  0.267274  0.016799  0.044317  1
  Sb  Sb29  1  0.767274  0.483201  0.455683  1
  Sb  Sb30  1  0.732726  0.983201  0.544317  1
  Sb  Sb31  1  0.232726  0.516799  0.955683  1
  Sb  Sb32  1  0.732726  0.983201  0.955683  1
  Sb  Sb33  1  0.232726  0.516799  0.544317  1
  Sb  Sb34  1  0.267274  0.016799  0.455683  1
  Sb  Sb35  1  0.767274  0.483201  0.044317  1
