# generated using pymatgen
data_Ac3Cd3HgAu2
_symmetry_space_group_name_H-M   'P 1'
_cell_length_a   8.28556900
_cell_length_b   8.28556854
_cell_length_c   4.35825400
_cell_angle_alpha   90.00000000
_cell_angle_beta   90.00000000
_cell_angle_gamma   119.99999783
_symmetry_Int_Tables_number   1
_chemical_formula_structural   Ac3Cd3HgAu2
_chemical_formula_sum   'Ac3 Cd3 Hg1 Au2'
_cell_volume   259.11218189
_cell_formula_units_Z   1
loop_
 _symmetry_equiv_pos_site_id
 _symmetry_equiv_pos_as_xyz
  1  'x, y, z'
loop_
 _atom_site_type_symbol
 _atom_site_label
 _atom_site_symmetry_multiplicity
 _atom_site_fract_x
 _atom_site_fract_y
 _atom_site_fract_z
 _atom_site_occupancy
  Ac  Ac0  1  0.410812  0.000000  0.000000  1
  Ac  Ac1  1  0.589188  0.589188  0.000000  1
  Ac  Ac2  1  0.000000  0.410812  0.000000  1
  Cd  Cd3  1  0.743228  0.000000  0.500000  1
  Cd  Cd4  1  0.256772  0.256772  0.500000  1
  Cd  Cd5  1  0.000000  0.743228  0.500000  1
  Hg  Hg6  1  0.000000  0.000000  0.000000  1
  Au  Au7  1  0.666667  0.333333  0.500000  1
  Au  Au8  1  0.333333  0.666667  0.500000  1
