# generated using pymatgen
data_Cr8RuPt7
_symmetry_space_group_name_H-M   'P 1'
_cell_length_a   8.60175293
_cell_length_b   8.60217698
_cell_length_c   6.67548200
_cell_angle_alpha   75.35009513
_cell_angle_beta   75.35437572
_cell_angle_gamma   78.21077752
_symmetry_Int_Tables_number   1
_chemical_formula_structural   Cr8RuPt7
_chemical_formula_sum   'Cr16 Ru2 Pt14'
_cell_volume   457.13044387
_cell_formula_units_Z   2
loop_
 _symmetry_equiv_pos_site_id
 _symmetry_equiv_pos_as_xyz
  1  'x, y, z'
loop_
 _atom_site_type_symbol
 _atom_site_label
 _atom_site_symmetry_multiplicity
 _atom_site_fract_x
 _atom_site_fract_y
 _atom_site_fract_z
 _atom_site_occupancy
  Cr  Cr0  1  0.010019  0.246540  0.255358  1
  Cr  Cr1  1  0.246241  0.003120  0.245994  1
  Cr  Cr2  1  0.742964  0.514121  0.249570  1
  Cr  Cr3  1  0.512606  0.746466  0.247269  1
  Cr  Cr4  1  0.868980  0.122819  0.994488  1
  Cr  Cr5  1  0.137557  0.869959  0.000279  1
  Cr  Cr6  1  0.618668  0.388484  0.998816  1
  Cr  Cr7  1  0.374505  0.625940  0.993717  1
  Cr  Cr8  1  0.130594  0.368104  0.502232  1
  Cr  Cr9  1  0.368515  0.127183  0.498762  1
  Cr  Cr10  1  0.859981  0.632416  0.500250  1
  Cr  Cr11  1  0.631658  0.868800  0.510363  1
  Cr  Cr12  1  0.740117  0.005884  0.748427  1
  Cr  Cr13  1  0.007245  0.745148  0.755737  1
  Cr  Cr14  1  0.511436  0.232897  0.752143  1
  Cr  Cr15  1  0.242858  0.504392  0.749526  1
  Ru  Ru16  1  0.682748  0.683715  0.880958  1
  Ru  Ru17  1  0.441172  0.938123  0.870104  1
  Pt  Pt18  1  0.315854  0.314179  0.118095  1
  Pt  Pt19  1  0.060104  0.058538  0.631084  1
  Pt  Pt20  1  0.815518  0.815672  0.118791  1
  Pt  Pt21  1  0.559122  0.559354  0.629592  1
  Pt  Pt22  1  0.438426  0.438479  0.372000  1
  Pt  Pt23  1  0.187708  0.185855  0.876320  1
  Pt  Pt24  1  0.937235  0.938308  0.375644  1
  Pt  Pt25  1  0.059110  0.559025  0.129708  1
  Pt  Pt26  1  0.560313  0.060051  0.128154  1
  Pt  Pt27  1  0.812268  0.315268  0.624528  1
  Pt  Pt28  1  0.316477  0.815586  0.619699  1
  Pt  Pt29  1  0.186869  0.687133  0.374094  1
  Pt  Pt30  1  0.690146  0.191016  0.370151  1
  Pt  Pt31  1  0.932987  0.437425  0.878149  1
