# generated using pymatgen
data_RbY3S5
_symmetry_space_group_name_H-M   'P 1'
_cell_length_a   4.00076000
_cell_length_b   11.83442200
_cell_length_c   21.36591300
_cell_angle_alpha   90.00000000
_cell_angle_beta   90.00000000
_cell_angle_gamma   90.00000000
_symmetry_Int_Tables_number   1
_chemical_formula_structural   RbY3S5
_chemical_formula_sum   'Rb4 Y12 S20'
_cell_volume   1011.60509188
_cell_formula_units_Z   4
loop_
 _symmetry_equiv_pos_site_id
 _symmetry_equiv_pos_as_xyz
  1  'x, y, z'
loop_
 _atom_site_type_symbol
 _atom_site_label
 _atom_site_symmetry_multiplicity
 _atom_site_fract_x
 _atom_site_fract_y
 _atom_site_fract_z
 _atom_site_occupancy
  Rb  Rb0  1  0.250000  0.652839  0.597509  1
  Rb  Rb1  1  0.250000  0.847161  0.097509  1
  Rb  Rb2  1  0.750000  0.347161  0.402491  1
  Rb  Rb3  1  0.750000  0.152839  0.902491  1
  Y  Y4  1  0.250000  0.962010  0.697862  1
  Y  Y5  1  0.250000  0.537990  0.197862  1
  Y  Y6  1  0.750000  0.037990  0.302138  1
  Y  Y7  1  0.750000  0.462010  0.802138  1
  Y  Y8  1  0.750000  0.804727  0.827825  1
  Y  Y9  1  0.750000  0.695273  0.327825  1
  Y  Y10  1  0.250000  0.195273  0.172175  1
  Y  Y11  1  0.250000  0.304727  0.672175  1
  Y  Y12  1  0.750000  0.112723  0.551542  1
  Y  Y13  1  0.750000  0.387277  0.051542  1
  Y  Y14  1  0.250000  0.887277  0.448458  1
  Y  Y15  1  0.250000  0.612723  0.948458  1
  S  S16  1  0.750000  0.811397  0.700107  1
  S  S17  1  0.750000  0.688603  0.200107  1
  S  S18  1  0.250000  0.188603  0.299893  1
  S  S19  1  0.250000  0.311397  0.799893  1
  S  S20  1  0.750000  0.131811  0.681319  1
  S  S21  1  0.750000  0.368189  0.181319  1
  S  S22  1  0.250000  0.868189  0.318681  1
  S  S23  1  0.250000  0.631811  0.818681  1
  S  S24  1  0.250000  0.957092  0.825729  1
  S  S25  1  0.250000  0.542908  0.325729  1
  S  S26  1  0.750000  0.042908  0.174271  1
  S  S27  1  0.750000  0.457092  0.674271  1
  S  S28  1  0.750000  0.768219  0.954580  1
  S  S29  1  0.750000  0.731781  0.454580  1
  S  S30  1  0.250000  0.231781  0.045420  1
  S  S31  1  0.250000  0.268219  0.545420  1
  S  S32  1  0.250000  0.951969  0.569340  1
  S  S33  1  0.250000  0.548031  0.069340  1
  S  S34  1  0.750000  0.048031  0.430660  1
  S  S35  1  0.750000  0.451969  0.930660  1
