# generated using pymatgen
data_Tm8CoSi16W11
_symmetry_space_group_name_H-M   'P 1'
_cell_length_a   6.73260407
_cell_length_b   6.87165859
_cell_length_c   12.82008820
_cell_angle_alpha   89.77619186
_cell_angle_beta   89.99105876
_cell_angle_gamma   90.21959544
_symmetry_Int_Tables_number   1
_chemical_formula_structural   Tm8CoSi16W11
_chemical_formula_sum   'Tm8 Co1 Si16 W11'
_cell_volume   593.10167903
_cell_formula_units_Z   1
loop_
 _symmetry_equiv_pos_site_id
 _symmetry_equiv_pos_as_xyz
  1  'x, y, z'
loop_
 _atom_site_type_symbol
 _atom_site_label
 _atom_site_symmetry_multiplicity
 _atom_site_fract_x
 _atom_site_fract_y
 _atom_site_fract_z
 _atom_site_occupancy
  Tm  Tm0  1  0.997018  0.167001  0.092288  1
  Tm  Tm1  1  0.003090  0.830110  0.907088  1
  Tm  Tm2  1  0.507711  0.667362  0.908005  1
  Tm  Tm3  1  0.004373  0.833424  0.593245  1
  Tm  Tm4  1  0.501937  0.327140  0.094148  1
  Tm  Tm5  1  0.996044  0.169168  0.405964  1
  Tm  Tm6  1  0.493769  0.335133  0.403650  1
  Tm  Tm7  1  0.503813  0.668035  0.594272  1
  Co  Co8  1  0.174192  0.639320  0.116496  1
  Si  Si9  1  0.033195  0.128481  0.751231  1
  Si  Si10  1  0.971149  0.867775  0.240561  1
  Si  Si11  1  0.458645  0.632394  0.244574  1
  Si  Si12  1  0.534142  0.369493  0.752676  1
  Si  Si13  1  0.303605  0.864940  0.750904  1
  Si  Si14  1  0.697930  0.136197  0.251885  1
  Si  Si15  1  0.195867  0.371951  0.246242  1
  Si  Si16  1  0.800571  0.636091  0.750615  1
  Si  Si17  1  0.161053  0.461475  0.544813  1
  Si  Si18  1  0.832548  0.543652  0.455103  1
  Si  Si19  1  0.340176  0.959013  0.455457  1
  Si  Si20  1  0.843019  0.546301  0.049182  1
  Si  Si21  1  0.662299  0.042783  0.545987  1
  Si  Si22  1  0.165655  0.460266  0.957115  1
  Si  Si23  1  0.660032  0.041709  0.955357  1
  Si  Si24  1  0.335267  0.942047  0.051123  1
  W  W25  1  0.164174  0.499354  0.751091  1
  W  W26  1  0.833938  0.503877  0.250683  1
  W  W27  1  0.331608  0.001419  0.250256  1
  W  W28  1  0.666062  0.997422  0.751897  1
  W  W29  1  0.330040  0.165730  0.624651  1
  W  W30  1  0.669021  0.838055  0.375202  1
  W  W31  1  0.162850  0.670340  0.369484  1
  W  W32  1  0.672316  0.841561  0.127483  1
  W  W33  1  0.831127  0.338859  0.625373  1
  W  W34  1  0.326770  0.160610  0.878621  1
  W  W35  1  0.834997  0.341514  0.877283  1
