# generated using pymatgen
data_Pr15Sm(TmSn4)4
_symmetry_space_group_name_H-M   'P 1'
_cell_length_a   8.25364201
_cell_length_b   8.42673813
_cell_length_c   16.01049200
_cell_angle_alpha   90.05123261
_cell_angle_beta   89.65455615
_cell_angle_gamma   90.03736431
_symmetry_Int_Tables_number   1
_chemical_formula_structural   Pr15Sm(TmSn4)4
_chemical_formula_sum   'Pr15 Sm1 Tm4 Sn16'
_cell_volume   1113.52929275
_cell_formula_units_Z   1
loop_
 _symmetry_equiv_pos_site_id
 _symmetry_equiv_pos_as_xyz
  1  'x, y, z'
loop_
 _atom_site_type_symbol
 _atom_site_label
 _atom_site_symmetry_multiplicity
 _atom_site_fract_x
 _atom_site_fract_y
 _atom_site_fract_z
 _atom_site_occupancy
  Pr  Pr0  1  0.863400  0.661099  0.622512  1
  Pr  Pr1  1  0.636019  0.160558  0.378918  1
  Pr  Pr2  1  0.140224  0.337260  0.118950  1
  Pr  Pr3  1  0.637852  0.163024  0.122033  1
  Pr  Pr4  1  0.135943  0.338363  0.379128  1
  Pr  Pr5  1  0.363726  0.839101  0.621674  1
  Pr  Pr6  1  0.863438  0.661975  0.879417  1
  Pr  Pr7  1  0.515722  0.319208  0.902027  1
  Pr  Pr8  1  0.018392  0.180748  0.599648  1
  Pr  Pr9  1  0.482780  0.681299  0.402006  1
  Pr  Pr10  1  0.984842  0.818070  0.097388  1
  Pr  Pr11  1  0.485466  0.681671  0.095816  1
  Pr  Pr12  1  0.982789  0.818292  0.400980  1
  Pr  Pr13  1  0.517818  0.318868  0.600324  1
  Pr  Pr14  1  0.013964  0.180201  0.902370  1
  Sm  Sm15  1  0.359370  0.838914  0.875307  1
  Tm  Tm16  1  0.195507  0.502102  0.750842  1
  Tm  Tm17  1  0.693995  0.998094  0.750486  1
  Tm  Tm18  1  0.805698  0.498068  0.250030  1
  Tm  Tm19  1  0.304530  0.001533  0.249243  1
  Sn  Sn20  1  0.299516  0.032835  0.041066  1
  Sn  Sn21  1  0.794109  0.465603  0.455631  1
  Sn  Sn22  1  0.706891  0.965724  0.545398  1
  Sn  Sn23  1  0.207218  0.540167  0.954711  1
  Sn  Sn24  1  0.693833  0.962664  0.955350  1
  Sn  Sn25  1  0.205961  0.533811  0.545867  1
  Sn  Sn26  1  0.293305  0.033510  0.454764  1
  Sn  Sn27  1  0.797739  0.464698  0.044915  1
  Sn  Sn28  1  0.557473  0.618734  0.751433  1
  Sn  Sn29  1  0.058348  0.884714  0.751485  1
  Sn  Sn30  1  0.440863  0.384462  0.250163  1
  Sn  Sn31  1  0.942022  0.116851  0.248928  1
  Sn  Sn32  1  0.321854  0.147944  0.751723  1
  Sn  Sn33  1  0.821566  0.351327  0.751420  1
  Sn  Sn34  1  0.678587  0.851164  0.249217  1
  Sn  Sn35  1  0.179235  0.647344  0.248828  1
