# generated using pymatgen
data_Er4Sn6IrRh6
_symmetry_space_group_name_H-M   'P 1'
_cell_length_a   7.58331697
_cell_length_b   7.58329346
_cell_length_c   7.58331710
_cell_angle_alpha   109.48035647
_cell_angle_beta   109.48031932
_cell_angle_gamma   109.45312784
_symmetry_Int_Tables_number   1
_chemical_formula_structural   Er4Sn6IrRh6
_chemical_formula_sum   'Er4 Sn6 Ir1 Rh6'
_cell_volume   335.70175646
_cell_formula_units_Z   1
loop_
 _symmetry_equiv_pos_site_id
 _symmetry_equiv_pos_as_xyz
  1  'x, y, z'
loop_
 _atom_site_type_symbol
 _atom_site_label
 _atom_site_symmetry_multiplicity
 _atom_site_fract_x
 _atom_site_fract_y
 _atom_site_fract_z
 _atom_site_occupancy
  Er  Er0  1  0.999632  0.000366  0.500001  1
  Er  Er1  1  0.999627  0.499632  0.999265  1
  Er  Er2  1  0.500365  0.000366  0.000734  1
  Er  Er3  1  0.500367  0.499632  0.500006  1
  Sn  Sn4  1  0.685067  0.685072  0.000005  1
  Sn  Sn5  1  0.314027  0.999686  0.314346  1
  Sn  Sn6  1  0.000321  0.314658  0.314337  1
  Sn  Sn7  1  0.314937  0.314928  0.999991  1
  Sn  Sn8  1  0.685339  0.999686  0.685658  1
  Sn  Sn9  1  0.000325  0.685983  0.685659  1
  Ir  Ir10  1  0.749998  0.249990  0.499992  1
  Rh  Rh11  1  0.749888  0.499955  0.249937  1
  Rh  Rh12  1  0.500034  0.250110  0.750077  1
  Rh  Rh13  1  0.250018  0.499955  0.750066  1
  Rh  Rh14  1  0.249995  0.749986  0.499991  1
  Rh  Rh15  1  0.500056  0.749995  0.249939  1
  Rh  Rh16  1  0.000004  0.999999  0.999995  1
