# generated using pymatgen
data_Mn12Cr8Si(TcC3)2
_symmetry_space_group_name_H-M   'P 1'
_cell_length_a   7.41743688
_cell_length_b   7.41455505
_cell_length_c   7.42366725
_cell_angle_alpha   60.08804276
_cell_angle_beta   60.04792127
_cell_angle_gamma   60.07757685
_symmetry_Int_Tables_number   1
_chemical_formula_structural   Mn12Cr8Si(TcC3)2
_chemical_formula_sum   'Mn12 Cr8 Si1 Tc2 C6'
_cell_volume   289.16274496
_cell_formula_units_Z   1
loop_
 _symmetry_equiv_pos_site_id
 _symmetry_equiv_pos_as_xyz
  1  'x, y, z'
loop_
 _atom_site_type_symbol
 _atom_site_label
 _atom_site_symmetry_multiplicity
 _atom_site_fract_x
 _atom_site_fract_y
 _atom_site_fract_z
 _atom_site_occupancy
  Mn  Mn0  1  0.616965  0.615865  0.149346  1
  Mn  Mn1  1  0.617863  0.149343  0.615890  1
  Mn  Mn2  1  0.149229  0.617305  0.616478  1
  Mn  Mn3  1  0.616932  0.616666  0.617260  1
  Mn  Mn4  1  0.383120  0.382958  0.851161  1
  Mn  Mn5  1  0.383204  0.851120  0.382388  1
  Mn  Mn6  1  0.851384  0.382941  0.382488  1
  Mn  Mn7  1  0.383006  0.382984  0.382322  1
  Mn  Mn8  1  0.998798  0.999994  0.339490  1
  Mn  Mn9  1  0.661711  0.998752  0.339562  1
  Mn  Mn10  1  0.999542  0.661630  0.339898  1
  Mn  Mn11  1  0.660869  0.338839  0.000645  1
  Cr  Cr12  1  0.999127  0.340695  0.000075  1
  Cr  Cr13  1  0.999585  0.341772  0.658287  1
  Cr  Cr14  1  0.341519  0.657835  0.001222  1
  Cr  Cr15  1  0.341138  0.000295  0.658088  1
  Cr  Cr16  1  0.340051  0.999188  0.000764  1
  Cr  Cr17  1  0.999967  0.001367  0.657335  1
  Cr  Cr18  1  0.000069  0.659338  0.001031  1
  Cr  Cr19  1  0.659536  0.000434  0.001212  1
  Si  Si20  1  0.998185  0.999716  0.003164  1
  Tc  Tc21  1  0.749512  0.750687  0.750037  1
  Tc  Tc22  1  0.249372  0.250178  0.251244  1
  C  C23  1  0.718255  0.717076  0.284053  1
  C  C24  1  0.278987  0.719078  0.283731  1
  C  C25  1  0.717993  0.279884  0.281641  1
  C  C26  1  0.284878  0.284010  0.715830  1
  C  C27  1  0.716022  0.283665  0.718871  1
  C  C28  1  0.283180  0.716385  0.716486  1
