# generated using pymatgen
data_NdLu4(InSb)2
_symmetry_space_group_name_H-M   'P 1'
_cell_length_a   9.02726712
_cell_length_b   8.57037922
_cell_length_c   8.10429400
_cell_angle_alpha   89.35203770
_cell_angle_beta   90.06673839
_cell_angle_gamma   125.19885462
_symmetry_Int_Tables_number   1
_chemical_formula_structural   NdLu4(InSb)2
_chemical_formula_sum   'Nd2 Lu8 In4 Sb4'
_cell_volume   512.31800947
_cell_formula_units_Z   2
loop_
 _symmetry_equiv_pos_site_id
 _symmetry_equiv_pos_as_xyz
  1  'x, y, z'
loop_
 _atom_site_type_symbol
 _atom_site_label
 _atom_site_symmetry_multiplicity
 _atom_site_fract_x
 _atom_site_fract_y
 _atom_site_fract_z
 _atom_site_occupancy
  Nd  Nd0  1  0.045718  0.344508  0.320624  1
  Nd  Nd1  1  0.954282  0.655492  0.679376  1
  Lu  Lu2  1  0.452308  0.174912  0.829163  1
  Lu  Lu3  1  0.784965  0.523293  0.163165  1
  Lu  Lu4  1  0.547692  0.825088  0.170837  1
  Lu  Lu5  1  0.215035  0.476707  0.836835  1
  Lu  Lu6  1  0.716699  0.983456  0.659796  1
  Lu  Lu7  1  0.283301  0.016544  0.340204  1
  Lu  Lu8  1  0.000000  0.000000  0.000000  1
  Lu  Lu9  1  0.500000  0.500000  0.500000  1
  In  In10  1  0.370131  0.369721  0.128554  1
  In  In11  1  0.629869  0.630279  0.871446  1
  In  In12  1  0.130988  0.125456  0.631252  1
  In  In13  1  0.869012  0.874544  0.368748  1
  Sb  Sb14  1  0.803611  0.221204  0.971824  1
  Sb  Sb15  1  0.196389  0.778796  0.028176  1
  Sb  Sb16  1  0.675402  0.273694  0.478495  1
  Sb  Sb17  1  0.324598  0.726306  0.521505  1
