# generated using pymatgen
data_Zr2TiMnFe8
_symmetry_space_group_name_H-M   'P 1'
_cell_length_a   8.48939789
_cell_length_b   8.48939795
_cell_length_c   8.48939709
_cell_angle_alpha   33.47354104
_cell_angle_beta   33.47354229
_cell_angle_gamma   33.47354964
_symmetry_Int_Tables_number   1
_chemical_formula_structural   Zr2TiMnFe8
_chemical_formula_sum   'Zr2 Ti1 Mn1 Fe8'
_cell_volume   165.76260270
_cell_formula_units_Z   1
loop_
 _symmetry_equiv_pos_site_id
 _symmetry_equiv_pos_as_xyz
  1  'x, y, z'
loop_
 _atom_site_type_symbol
 _atom_site_label
 _atom_site_symmetry_multiplicity
 _atom_site_fract_x
 _atom_site_fract_y
 _atom_site_fract_z
 _atom_site_occupancy
  Zr  Zr0  1  0.002580  0.002580  0.002580  1
  Zr  Zr1  1  0.497221  0.497221  0.497221  1
  Ti  Ti2  1  0.874930  0.874930  0.874930  1
  Mn  Mn3  1  0.374407  0.374407  0.374407  1
  Fe  Fe4  1  0.436550  0.938632  0.436550  1
  Fe  Fe5  1  0.936810  0.439905  0.936810  1
  Fe  Fe6  1  0.436550  0.436550  0.938632  1
  Fe  Fe7  1  0.936810  0.936810  0.439905  1
  Fe  Fe8  1  0.187859  0.187859  0.187859  1
  Fe  Fe9  1  0.687748  0.687748  0.687748  1
  Fe  Fe10  1  0.938632  0.436550  0.436550  1
  Fe  Fe11  1  0.439905  0.936810  0.936810  1
