# generated using pymatgen
data_TbCe(NbS2)6
_symmetry_space_group_name_H-M   'P 1'
_cell_length_a   5.84012600
_cell_length_b   5.84012695
_cell_length_c   14.20773200
_cell_angle_alpha   90.00000000
_cell_angle_beta   90.00000000
_cell_angle_gamma   120.00000593
_symmetry_Int_Tables_number   1
_chemical_formula_structural   TbCe(NbS2)6
_chemical_formula_sum   'Tb1 Ce1 Nb6 S12'
_cell_volume   419.66221365
_cell_formula_units_Z   1
loop_
 _symmetry_equiv_pos_site_id
 _symmetry_equiv_pos_as_xyz
  1  'x, y, z'
loop_
 _atom_site_type_symbol
 _atom_site_label
 _atom_site_symmetry_multiplicity
 _atom_site_fract_x
 _atom_site_fract_y
 _atom_site_fract_z
 _atom_site_occupancy
  Tb  Tb0  1  0.000000  0.000000  0.500000  1
  Ce  Ce1  1  0.000000  0.000000  0.000000  1
  Nb  Nb2  1  0.333333  0.666667  0.254417  1
  Nb  Nb3  1  0.000000  0.000000  0.253635  1
  Nb  Nb4  1  0.000000  0.000000  0.746365  1
  Nb  Nb5  1  0.333333  0.666667  0.745583  1
  Nb  Nb6  1  0.666667  0.333333  0.745583  1
  Nb  Nb7  1  0.666667  0.333333  0.254417  1
  S  S8  1  0.000000  0.663605  0.634611  1
  S  S9  1  0.000000  0.661560  0.856769  1
  S  S10  1  0.000000  0.338440  0.143231  1
  S  S11  1  0.000000  0.336395  0.365389  1
  S  S12  1  0.336395  0.336395  0.634611  1
  S  S13  1  0.338440  0.338440  0.856769  1
  S  S14  1  0.661560  0.661560  0.143231  1
  S  S15  1  0.663605  0.663605  0.365389  1
  S  S16  1  0.338440  0.000000  0.143231  1
  S  S17  1  0.336395  0.000000  0.365389  1
  S  S18  1  0.663605  0.000000  0.634611  1
  S  S19  1  0.661560  0.000000  0.856769  1
