# generated using pymatgen
data_Dy3Ga2Si3
_symmetry_space_group_name_H-M   'P 1'
_cell_length_a   5.93333707
_cell_length_b   5.93333558
_cell_length_c   9.37057400
_cell_angle_alpha   90.00000000
_cell_angle_beta   90.00000000
_cell_angle_gamma   102.91192189
_symmetry_Int_Tables_number   1
_chemical_formula_structural   Dy3Ga2Si3
_chemical_formula_sum   'Dy6 Ga4 Si6'
_cell_volume   321.54492007
_cell_formula_units_Z   2
loop_
 _symmetry_equiv_pos_site_id
 _symmetry_equiv_pos_as_xyz
  1  'x, y, z'
loop_
 _atom_site_type_symbol
 _atom_site_label
 _atom_site_symmetry_multiplicity
 _atom_site_fract_x
 _atom_site_fract_y
 _atom_site_fract_z
 _atom_site_occupancy
  Dy  Dy0  1  0.658551  0.658551  0.250000  1
  Dy  Dy1  1  0.341449  0.341449  0.750000  1
  Dy  Dy2  1  0.800937  0.199063  0.000000  1
  Dy  Dy3  1  0.199063  0.800937  0.000000  1
  Dy  Dy4  1  0.199063  0.800937  0.500000  1
  Dy  Dy5  1  0.800937  0.199063  0.500000  1
  Ga  Ga6  1  0.319362  0.319362  0.054697  1
  Ga  Ga7  1  0.680638  0.680638  0.945303  1
  Ga  Ga8  1  0.680638  0.680638  0.554697  1
  Ga  Ga9  1  0.319362  0.319362  0.445303  1
  Si  Si10  1  0.094172  0.485959  0.250000  1
  Si  Si11  1  0.905828  0.514041  0.750000  1
  Si  Si12  1  0.485959  0.094172  0.250000  1
  Si  Si13  1  0.514041  0.905828  0.750000  1
  Si  Si14  1  0.054114  0.054114  0.250000  1
  Si  Si15  1  0.945886  0.945886  0.750000  1
