# generated using pymatgen
data_Ce2HfBe2Rh5
_symmetry_space_group_name_H-M   'P 1'
_cell_length_a   9.82978600
_cell_length_b   9.82978600
_cell_length_c   3.33669400
_cell_angle_alpha   90.00000000
_cell_angle_beta   90.00000000
_cell_angle_gamma   90.00000000
_symmetry_Int_Tables_number   1
_chemical_formula_structural   Ce2HfBe2Rh5
_chemical_formula_sum   'Ce4 Hf2 Be4 Rh10'
_cell_volume   322.40703274
_cell_formula_units_Z   2
loop_
 _symmetry_equiv_pos_site_id
 _symmetry_equiv_pos_as_xyz
  1  'x, y, z'
loop_
 _atom_site_type_symbol
 _atom_site_label
 _atom_site_symmetry_multiplicity
 _atom_site_fract_x
 _atom_site_fract_y
 _atom_site_fract_z
 _atom_site_occupancy
  Ce  Ce0  1  0.825357  0.325357  0.000000  1
  Ce  Ce1  1  0.325357  0.174643  0.000000  1
  Ce  Ce2  1  0.674643  0.825357  0.000000  1
  Ce  Ce3  1  0.174643  0.674643  0.000000  1
  Hf  Hf4  1  0.000000  0.000000  0.000000  1
  Hf  Hf5  1  0.500000  0.500000  0.000000  1
  Be  Be6  1  0.619621  0.119621  0.000000  1
  Be  Be7  1  0.119621  0.380379  0.000000  1
  Be  Be8  1  0.880379  0.619621  0.000000  1
  Be  Be9  1  0.380379  0.880379  0.000000  1
  Rh  Rh10  1  0.070838  0.216675  0.500000  1
  Rh  Rh11  1  0.216675  0.929162  0.500000  1
  Rh  Rh12  1  0.783325  0.070838  0.500000  1
  Rh  Rh13  1  0.929162  0.783325  0.500000  1
  Rh  Rh14  1  0.429162  0.716675  0.500000  1
  Rh  Rh15  1  0.570838  0.283325  0.500000  1
  Rh  Rh16  1  0.716675  0.570838  0.500000  1
  Rh  Rh17  1  0.283325  0.429162  0.500000  1
  Rh  Rh18  1  0.500000  0.000000  0.500000  1
  Rh  Rh19  1  0.000000  0.500000  0.500000  1
