# generated using pymatgen
data_LiSc4Co19(SiP2)4
_symmetry_space_group_name_H-M   'P 1'
_cell_length_a   3.59453900
_cell_length_b   10.17265264
_cell_length_c   11.67873844
_cell_angle_alpha   90.04438947
_cell_angle_beta   90.00000000
_cell_angle_gamma   90.00000000
_symmetry_Int_Tables_number   1
_chemical_formula_structural   LiSc4Co19(SiP2)4
_chemical_formula_sum   'Li1 Sc4 Co19 Si4 P8'
_cell_volume   427.04458230
_cell_formula_units_Z   1
loop_
 _symmetry_equiv_pos_site_id
 _symmetry_equiv_pos_as_xyz
  1  'x, y, z'
loop_
 _atom_site_type_symbol
 _atom_site_label
 _atom_site_symmetry_multiplicity
 _atom_site_fract_x
 _atom_site_fract_y
 _atom_site_fract_z
 _atom_site_occupancy
  Li  Li0  1  0.250000  0.705712  0.990961  1
  Sc  Sc1  1  0.250000  0.582613  0.704159  1
  Sc  Sc2  1  0.250000  0.918908  0.203495  1
  Sc  Sc3  1  0.750000  0.421652  0.299357  1
  Sc  Sc4  1  0.750000  0.075078  0.798097  1
  Co  Co5  1  0.250000  0.779216  0.495972  1
  Co  Co6  1  0.750000  0.286945  0.008843  1
  Co  Co7  1  0.750000  0.218611  0.508341  1
  Co  Co8  1  0.250000  0.412603  0.488861  1
  Co  Co9  1  0.250000  0.088915  0.987933  1
  Co  Co10  1  0.750000  0.592817  0.517070  1
  Co  Co11  1  0.750000  0.907507  0.016497  1
  Co  Co12  1  0.250000  0.214235  0.173422  1
  Co  Co13  1  0.250000  0.287487  0.673366  1
  Co  Co14  1  0.750000  0.780981  0.822177  1
  Co  Co15  1  0.750000  0.719478  0.329581  1
  Co  Co16  1  0.250000  0.881787  0.698555  1
  Co  Co17  1  0.250000  0.623095  0.202071  1
  Co  Co18  1  0.750000  0.114822  0.297640  1
  Co  Co19  1  0.750000  0.384427  0.798158  1
  Co  Co20  1  0.250000  0.469657  0.927815  1
  Co  Co21  1  0.250000  0.026821  0.426329  1
  Co  Co22  1  0.750000  0.539927  0.066777  1
  Co  Co23  1  0.750000  0.962423  0.565691  1
  Si  Si24  1  0.250000  0.418240  0.113001  1
  Si  Si25  1  0.250000  0.085530  0.610581  1
  Si  Si26  1  0.250000  0.264329  0.868664  1
  Si  Si27  1  0.250000  0.233959  0.369832  1
  P  P28  1  0.750000  0.579597  0.881716  1
  P  P29  1  0.750000  0.919243  0.383842  1
  P  P30  1  0.750000  0.736183  0.139303  1
  P  P31  1  0.750000  0.766778  0.633098  1
  P  P32  1  0.250000  0.599113  0.390879  1
  P  P33  1  0.250000  0.900059  0.889036  1
  P  P34  1  0.750000  0.401734  0.610415  1
  P  P35  1  0.750000  0.099522  0.108465  1
