# generated using pymatgen
data_Tm2Fe3Ru
_symmetry_space_group_name_H-M   'P 1'
_cell_length_a   5.19129889
_cell_length_b   5.19129872
_cell_length_c   5.19129952
_cell_angle_alpha   58.94766112
_cell_angle_beta   58.94765784
_cell_angle_gamma   58.94766561
_symmetry_Int_Tables_number   1
_chemical_formula_structural   Tm2Fe3Ru
_chemical_formula_sum   'Tm2 Fe3 Ru1'
_cell_volume   96.55122177
_cell_formula_units_Z   1
loop_
 _symmetry_equiv_pos_site_id
 _symmetry_equiv_pos_as_xyz
  1  'x, y, z'
loop_
 _atom_site_type_symbol
 _atom_site_label
 _atom_site_symmetry_multiplicity
 _atom_site_fract_x
 _atom_site_fract_y
 _atom_site_fract_z
 _atom_site_occupancy
  Tm  Tm0  1  0.124401  0.124401  0.124401  1
  Tm  Tm1  1  0.875599  0.875599  0.875599  1
  Fe  Fe2  1  0.500000  0.000000  0.500000  1
  Fe  Fe3  1  0.000000  0.500000  0.500000  1
  Fe  Fe4  1  0.500000  0.500000  0.000000  1
  Ru  Ru5  1  0.500000  0.500000  0.500000  1
