# generated using pymatgen
data_DyEr9(RuPb3)2
_symmetry_space_group_name_H-M   'P 1'
_cell_length_a   9.27441400
_cell_length_b   9.27441339
_cell_length_c   6.54303300
_cell_angle_alpha   90.00000000
_cell_angle_beta   90.00000000
_cell_angle_gamma   119.99999505
_symmetry_Int_Tables_number   1
_chemical_formula_structural   DyEr9(RuPb3)2
_chemical_formula_sum   'Dy1 Er9 Ru2 Pb6'
_cell_volume   487.39682106
_cell_formula_units_Z   1
loop_
 _symmetry_equiv_pos_site_id
 _symmetry_equiv_pos_as_xyz
  1  'x, y, z'
loop_
 _atom_site_type_symbol
 _atom_site_label
 _atom_site_symmetry_multiplicity
 _atom_site_fract_x
 _atom_site_fract_y
 _atom_site_fract_z
 _atom_site_occupancy
  Dy  Dy0  1  0.333333  0.666667  0.500000  1
  Er  Er1  1  0.999885  0.763823  0.749941  1
  Er  Er2  1  0.236177  0.000115  0.250059  1
  Er  Er3  1  0.763938  0.000115  0.749941  1
  Er  Er4  1  0.999885  0.236062  0.250059  1
  Er  Er5  1  0.666667  0.333333  0.500000  1
  Er  Er6  1  0.763938  0.763823  0.250059  1
  Er  Er7  1  0.236177  0.236062  0.749941  1
  Er  Er8  1  0.333333  0.666667  0.000000  1
  Er  Er9  1  0.666667  0.333333  0.000000  1
  Ru  Ru10  1  0.000000  0.000000  0.000000  1
  Ru  Ru11  1  0.000000  0.000000  0.500000  1
  Pb  Pb12  1  0.402800  0.402336  0.249815  1
  Pb  Pb13  1  0.999536  0.402336  0.750185  1
  Pb  Pb14  1  0.999536  0.597200  0.249815  1
  Pb  Pb15  1  0.597664  0.000464  0.249815  1
  Pb  Pb16  1  0.402800  0.000464  0.750185  1
  Pb  Pb17  1  0.597664  0.597200  0.750185  1
