# generated using pymatgen
data_YTm5ZrCo17P12
_symmetry_space_group_name_H-M   'P 1'
_cell_length_a   3.69772400
_cell_length_b   10.56860500
_cell_length_c   12.27312300
_cell_angle_alpha   90.00000000
_cell_angle_beta   90.00000000
_cell_angle_gamma   90.00000000
_symmetry_Int_Tables_number   1
_chemical_formula_structural   YTm5ZrCo17P12
_chemical_formula_sum   'Y1 Tm5 Zr1 Co17 P12'
_cell_volume   479.63100020
_cell_formula_units_Z   1
loop_
 _symmetry_equiv_pos_site_id
 _symmetry_equiv_pos_as_xyz
  1  'x, y, z'
loop_
 _atom_site_type_symbol
 _atom_site_label
 _atom_site_symmetry_multiplicity
 _atom_site_fract_x
 _atom_site_fract_y
 _atom_site_fract_z
 _atom_site_occupancy
  Y  Y0  1  0.500000  0.000000  0.477135  1
  Tm  Tm1  1  0.000000  0.500000  0.529764  1
  Tm  Tm2  1  0.500000  0.821809  0.207234  1
  Tm  Tm3  1  0.500000  0.178191  0.207234  1
  Tm  Tm4  1  0.000000  0.682576  0.796002  1
  Tm  Tm5  1  0.000000  0.317424  0.796002  1
  Zr  Zr6  1  0.500000  0.500000  0.154958  1
  Co  Co7  1  0.000000  0.000000  0.836468  1
  Co  Co8  1  0.500000  0.500000  0.702573  1
  Co  Co9  1  0.000000  0.000000  0.295185  1
  Co  Co10  1  0.000000  0.500000  0.982927  1
  Co  Co11  1  0.500000  0.000000  0.013895  1
  Co  Co12  1  0.500000  0.326831  0.987528  1
  Co  Co13  1  0.500000  0.673169  0.987528  1
  Co  Co14  1  0.000000  0.161422  0.001458  1
  Co  Co15  1  0.000000  0.838578  0.001458  1
  Co  Co16  1  0.500000  0.294863  0.434845  1
  Co  Co17  1  0.500000  0.705137  0.434845  1
  Co  Co18  1  0.000000  0.202825  0.570641  1
  Co  Co19  1  0.000000  0.797175  0.570641  1
  Co  Co20  1  0.500000  0.879476  0.707728  1
  Co  Co21  1  0.500000  0.120524  0.707728  1
  Co  Co22  1  0.000000  0.623353  0.297653  1
  Co  Co23  1  0.000000  0.376647  0.297653  1
  P  P24  1  0.500000  0.500000  0.880592  1
  P  P25  1  0.000000  0.000000  0.116905  1
  P  P26  1  0.500000  0.500000  0.363406  1
  P  P27  1  0.000000  0.000000  0.654771  1
  P  P28  1  0.500000  0.310309  0.618597  1
  P  P29  1  0.500000  0.689691  0.618597  1
  P  P30  1  0.000000  0.188235  0.385540  1
  P  P31  1  0.000000  0.811765  0.385540  1
  P  P32  1  0.500000  0.852046  0.887952  1
  P  P33  1  0.500000  0.147954  0.887952  1
  P  P34  1  0.000000  0.665899  0.100529  1
  P  P35  1  0.000000  0.334101  0.100529  1
