# generated using pymatgen
data_Tb5Dy4Ho3InCo5
_symmetry_space_group_name_H-M   'P 1'
_cell_length_a   8.29738279
_cell_length_b   8.30226124
_cell_length_c   8.29732691
_cell_angle_alpha   107.12451550
_cell_angle_beta   110.62120458
_cell_angle_gamma   110.67063055
_symmetry_Int_Tables_number   1
_chemical_formula_structural   Tb5Dy4Ho3InCo5
_chemical_formula_sum   'Tb5 Dy4 Ho3 In1 Co5'
_cell_volume   439.57500901
_cell_formula_units_Z   1
loop_
 _symmetry_equiv_pos_site_id
 _symmetry_equiv_pos_as_xyz
  1  'x, y, z'
loop_
 _atom_site_type_symbol
 _atom_site_label
 _atom_site_symmetry_multiplicity
 _atom_site_fract_x
 _atom_site_fract_y
 _atom_site_fract_z
 _atom_site_occupancy
  Tb  Tb0  1  0.479706  0.292360  0.186505  1
  Tb  Tb1  1  0.105846  0.292369  0.812645  1
  Tb  Tb2  1  0.893317  0.707398  0.186636  1
  Tb  Tb3  1  0.520741  0.707395  0.814068  1
  Tb  Tb4  1  0.305478  0.619940  0.314433  1
  Dy  Dy5  1  0.191513  0.207635  0.399897  1
  Dy  Dy6  1  0.809009  0.792216  0.600654  1
  Dy  Dy7  1  0.191572  0.792228  0.983232  1
  Dy  Dy8  1  0.807748  0.207649  0.016139  1
  Ho  Ho9  1  0.306290  0.991471  0.685155  1
  Ho  Ho10  1  0.693777  0.378789  0.684973  1
  Ho  Ho11  1  0.694052  0.009291  0.315215  1
  In  In12  1  0.999374  0.499805  0.500397  1
  Co  Co13  1  0.500367  0.612473  0.112093  1
  Co  Co14  1  0.499700  0.386729  0.887005  1
  Co  Co15  1  0.379897  0.001029  0.379668  1
  Co  Co16  1  0.621475  0.001020  0.621233  1
  Co  Co17  1  0.000140  0.000205  0.000050  1
