# generated using pymatgen
data_Dy3TmV4(WO6)4
_symmetry_space_group_name_H-M   'P 1'
_cell_length_a   5.22470755
_cell_length_b   7.42846631
_cell_length_c   11.17107349
_cell_angle_alpha   90.06204867
_cell_angle_beta   89.95554124
_cell_angle_gamma   89.97189117
_symmetry_Int_Tables_number   1
_chemical_formula_structural   Dy3TmV4(WO6)4
_chemical_formula_sum   'Dy3 Tm1 V4 W4 O24'
_cell_volume   433.56639655
_cell_formula_units_Z   1
loop_
 _symmetry_equiv_pos_site_id
 _symmetry_equiv_pos_as_xyz
  1  'x, y, z'
loop_
 _atom_site_type_symbol
 _atom_site_label
 _atom_site_symmetry_multiplicity
 _atom_site_fract_x
 _atom_site_fract_y
 _atom_site_fract_z
 _atom_site_occupancy
  Dy  Dy0  1  0.543669  0.253756  0.045371  1
  Dy  Dy1  1  0.044624  0.753854  0.454389  1
  Dy  Dy2  1  0.955680  0.253882  0.545727  1
  Tm  Tm3  1  0.453773  0.753673  0.954247  1
  V  V4  1  0.050922  0.507205  0.133746  1
  V  V5  1  0.550798  0.006279  0.365803  1
  V  V6  1  0.448991  0.506652  0.634542  1
  V  V7  1  0.948781  0.005597  0.865900  1
  W  W8  1  0.057036  0.997749  0.142825  1
  W  W9  1  0.557121  0.498160  0.356366  1
  W  W10  1  0.443074  0.997986  0.644213  1
  W  W11  1  0.942042  0.499360  0.856893  1
  O  O12  1  0.753920  0.547608  0.019504  1
  O  O13  1  0.763128  0.955499  0.029086  1
  O  O14  1  0.185085  0.754940  0.114257  1
  O  O15  1  0.934187  0.246177  0.142178  1
  O  O16  1  0.375352  0.071422  0.206402  1
  O  O17  1  0.392990  0.435810  0.213465  1
  O  O18  1  0.893649  0.935268  0.285908  1
  O  O19  1  0.876399  0.571530  0.293475  1
  O  O20  1  0.434312  0.746275  0.356667  1
  O  O21  1  0.681414  0.254938  0.383946  1
  O  O22  1  0.264982  0.457901  0.470562  1
  O  O23  1  0.256051  0.044650  0.480484  1
  O  O24  1  0.744005  0.544819  0.519891  1
  O  O25  1  0.735184  0.957814  0.529789  1
  O  O26  1  0.318811  0.755082  0.615911  1
  O  O27  1  0.565754  0.246254  0.643798  1
  O  O28  1  0.123371  0.071496  0.706629  1
  O  O29  1  0.105706  0.436428  0.713634  1
  O  O30  1  0.604856  0.934624  0.787595  1
  O  O31  1  0.622732  0.573853  0.794826  1
  O  O32  1  0.070869  0.746352  0.857207  1
  O  O33  1  0.819709  0.255431  0.884417  1
  O  O34  1  0.235677  0.458956  0.970501  1
  O  O35  1  0.245342  0.043125  0.979842  1
