# generated using pymatgen
data_Pr16Er3ScPb16
_symmetry_space_group_name_H-M   'P 1'
_cell_length_a   8.41111382
_cell_length_b   16.18837100
_cell_length_c   8.52088100
_cell_angle_alpha   90.00000000
_cell_angle_beta   89.90393835
_cell_angle_gamma   90.00000000
_symmetry_Int_Tables_number   1
_chemical_formula_structural   Pr16Er3ScPb16
_chemical_formula_sum   'Pr16 Er3 Sc1 Pb16'
_cell_volume   1160.22053696
_cell_formula_units_Z   1
loop_
 _symmetry_equiv_pos_site_id
 _symmetry_equiv_pos_as_xyz
  1  'x, y, z'
loop_
 _atom_site_type_symbol
 _atom_site_label
 _atom_site_symmetry_multiplicity
 _atom_site_fract_x
 _atom_site_fract_y
 _atom_site_fract_z
 _atom_site_occupancy
  Pr  Pr0  1  0.625353  0.620287  0.158861  1
  Pr  Pr1  1  0.123695  0.879791  0.342986  1
  Pr  Pr2  1  0.375066  0.119471  0.841279  1
  Pr  Pr3  1  0.875216  0.381579  0.657963  1
  Pr  Pr4  1  0.375066  0.380529  0.841279  1
  Pr  Pr5  1  0.875216  0.118421  0.657963  1
  Pr  Pr6  1  0.625353  0.879713  0.158861  1
  Pr  Pr7  1  0.123695  0.620209  0.342986  1
  Pr  Pr8  1  0.468622  0.600174  0.677662  1
  Pr  Pr9  1  0.967550  0.899771  0.821248  1
  Pr  Pr10  1  0.531722  0.099269  0.321704  1
  Pr  Pr11  1  0.031640  0.400219  0.177521  1
  Pr  Pr12  1  0.531722  0.400731  0.321704  1
  Pr  Pr13  1  0.031640  0.099781  0.177521  1
  Pr  Pr14  1  0.468622  0.899826  0.677662  1
  Pr  Pr15  1  0.967550  0.600229  0.821248  1
  Er  Er16  1  0.292870  0.750000  0.003655  1
  Er  Er17  1  0.207499  0.250000  0.503674  1
  Er  Er18  1  0.707526  0.250000  0.995950  1
  Sc  Sc19  1  0.791252  0.750000  0.496041  1
  Pb  Pb20  1  0.716944  0.453923  0.969047  1
  Pb  Pb21  1  0.217517  0.046138  0.530789  1
  Pb  Pb22  1  0.282582  0.953407  0.031689  1
  Pb  Pb23  1  0.782379  0.548913  0.470086  1
  Pb  Pb24  1  0.282582  0.546593  0.031689  1
  Pb  Pb25  1  0.782379  0.951087  0.470086  1
  Pb  Pb26  1  0.716944  0.046077  0.969047  1
  Pb  Pb27  1  0.217517  0.453862  0.530789  1
  Pb  Pb28  1  0.434797  0.750000  0.379400  1
  Pb  Pb29  1  0.929272  0.750000  0.126201  1
  Pb  Pb30  1  0.570317  0.250000  0.623328  1
  Pb  Pb31  1  0.069446  0.250000  0.875471  1
  Pb  Pb32  1  0.661975  0.750000  0.841372  1
  Pb  Pb33  1  0.156652  0.750000  0.652532  1
  Pb  Pb34  1  0.341157  0.250000  0.153490  1
  Pb  Pb35  1  0.840678  0.250000  0.347219  1
