# generated using pymatgen
data_Nd3Dy(Ir2O7)2
_symmetry_space_group_name_H-M   'P 1'
_cell_length_a   7.35593084
_cell_length_b   7.37845893
_cell_length_c   7.37845900
_cell_angle_alpha   60.00000419
_cell_angle_beta   59.89864321
_cell_angle_gamma   59.89864815
_symmetry_Int_Tables_number   1
_chemical_formula_structural   Nd3Dy(Ir2O7)2
_chemical_formula_sum   'Nd3 Dy1 Ir4 O14'
_cell_volume   282.73980786
_cell_formula_units_Z   1
loop_
 _symmetry_equiv_pos_site_id
 _symmetry_equiv_pos_as_xyz
  1  'x, y, z'
loop_
 _atom_site_type_symbol
 _atom_site_label
 _atom_site_symmetry_multiplicity
 _atom_site_fract_x
 _atom_site_fract_y
 _atom_site_fract_z
 _atom_site_occupancy
  Nd  Nd0  1  0.125000  0.625000  0.125000  1
  Nd  Nd1  1  0.125000  0.125000  0.625000  1
  Nd  Nd2  1  0.125000  0.125000  0.125000  1
  Dy  Dy3  1  0.625000  0.125000  0.125000  1
  Ir  Ir4  1  0.125000  0.625000  0.625000  1
  Ir  Ir5  1  0.625000  0.125000  0.625000  1
  Ir  Ir6  1  0.625000  0.625000  0.125000  1
  Ir  Ir7  1  0.625000  0.625000  0.625000  1
  O  O8  1  0.702746  0.714492  0.291381  1
  O  O9  1  0.292237  0.291423  0.708170  1
  O  O10  1  0.702746  0.291381  0.714492  1
  O  O11  1  0.292237  0.708170  0.291423  1
  O  O12  1  0.292237  0.708170  0.708170  1
  O  O13  1  0.702746  0.291381  0.291381  1
  O  O14  1  0.547254  0.535508  0.958619  1
  O  O15  1  0.957763  0.958577  0.541830  1
  O  O16  1  0.547254  0.958619  0.535508  1
  O  O17  1  0.957763  0.541830  0.958577  1
  O  O18  1  0.957763  0.541830  0.541830  1
  O  O19  1  0.547254  0.958619  0.958619  1
  O  O20  1  0.260812  0.246396  0.246396  1
  O  O21  1  0.989188  0.003604  0.003604  1
