# generated using pymatgen
data_HoErPa2(Pd2Pb)2
_symmetry_space_group_name_H-M   'P 1'
_cell_length_a   7.90630903
_cell_length_b   7.87733002
_cell_length_c   3.64028000
_cell_angle_alpha   90.00000000
_cell_angle_beta   90.00000000
_cell_angle_gamma   90.11579221
_symmetry_Int_Tables_number   1
_chemical_formula_structural   HoErPa2(Pd2Pb)2
_chemical_formula_sum   'Ho1 Er1 Pa2 Pd4 Pb2'
_cell_volume   226.71837972
_cell_formula_units_Z   1
loop_
 _symmetry_equiv_pos_site_id
 _symmetry_equiv_pos_as_xyz
  1  'x, y, z'
loop_
 _atom_site_type_symbol
 _atom_site_label
 _atom_site_symmetry_multiplicity
 _atom_site_fract_x
 _atom_site_fract_y
 _atom_site_fract_z
 _atom_site_occupancy
  Ho  Ho0  1  0.827497  0.672812  0.500000  1
  Er  Er1  1  0.327709  0.827438  0.500000  1
  Pa  Pa2  1  0.669920  0.169863  0.500000  1
  Pa  Pa3  1  0.170142  0.330045  0.500000  1
  Pd  Pd4  1  0.372528  0.135850  0.000000  1
  Pd  Pd5  1  0.127384  0.615210  0.000000  1
  Pd  Pd6  1  0.626482  0.885006  0.000000  1
  Pd  Pd7  1  0.872747  0.363721  0.000000  1
  Pb  Pb8  1  0.002957  0.990379  0.000000  1
  Pb  Pb9  1  0.502637  0.509676  0.000000  1
