# generated using pymatgen
data_Dy2Y2Ir3RhO14
_symmetry_space_group_name_H-M   'P 1'
_cell_length_a   7.25411754
_cell_length_b   7.25733342
_cell_length_c   7.25411669
_cell_angle_alpha   59.96747445
_cell_angle_beta   59.95323867
_cell_angle_gamma   59.96747627
_symmetry_Int_Tables_number   1
_chemical_formula_structural   Dy2Y2Ir3RhO14
_chemical_formula_sum   'Dy2 Y2 Ir3 Rh1 O14'
_cell_volume   269.81367800
_cell_formula_units_Z   1
loop_
 _symmetry_equiv_pos_site_id
 _symmetry_equiv_pos_as_xyz
  1  'x, y, z'
loop_
 _atom_site_type_symbol
 _atom_site_label
 _atom_site_symmetry_multiplicity
 _atom_site_fract_x
 _atom_site_fract_y
 _atom_site_fract_z
 _atom_site_occupancy
  Dy  Dy0  1  0.125000  0.625000  0.125000  1
  Dy  Dy1  1  0.125000  0.125000  0.125000  1
  Y  Y2  1  0.625000  0.125000  0.125000  1
  Y  Y3  1  0.125000  0.125000  0.625000  1
  Ir  Ir4  1  0.125000  0.625000  0.625000  1
  Ir  Ir5  1  0.625000  0.125000  0.625000  1
  Ir  Ir6  1  0.625000  0.625000  0.125000  1
  Rh  Rh7  1  0.625000  0.625000  0.625000  1
  O  O8  1  0.714164  0.713540  0.283538  1
  O  O9  1  0.289734  0.289837  0.714075  1
  O  O10  1  0.713659  0.283786  0.713659  1
  O  O11  1  0.289610  0.713939  0.289610  1
  O  O12  1  0.283538  0.713540  0.714164  1
  O  O13  1  0.714075  0.289837  0.289734  1
  O  O14  1  0.535836  0.536460  0.966462  1
  O  O15  1  0.960266  0.960163  0.535925  1
  O  O16  1  0.536341  0.966214  0.536341  1
  O  O17  1  0.960390  0.536061  0.960390  1
  O  O18  1  0.966462  0.536460  0.535836  1
  O  O19  1  0.535925  0.960163  0.960266  1
  O  O20  1  0.249077  0.249625  0.249077  1
  O  O21  1  0.000923  0.000375  0.000923  1
