# generated using pymatgen
data_CeZn2InPt2
_symmetry_space_group_name_H-M   'P 1'
_cell_length_a   4.14279700
_cell_length_b   6.81712200
_cell_length_c   8.19353800
_cell_angle_alpha   90.00000000
_cell_angle_beta   90.00000000
_cell_angle_gamma   90.00000000
_symmetry_Int_Tables_number   1
_chemical_formula_structural   CeZn2InPt2
_chemical_formula_sum   'Ce2 Zn4 In2 Pt4'
_cell_volume   231.40151158
_cell_formula_units_Z   2
loop_
 _symmetry_equiv_pos_site_id
 _symmetry_equiv_pos_as_xyz
  1  'x, y, z'
loop_
 _atom_site_type_symbol
 _atom_site_label
 _atom_site_symmetry_multiplicity
 _atom_site_fract_x
 _atom_site_fract_y
 _atom_site_fract_z
 _atom_site_occupancy
  Ce  Ce0  1  0.750000  0.968012  0.671747  1
  Ce  Ce1  1  0.250000  0.531988  0.171747  1
  Zn  Zn2  1  0.250000  0.641309  0.541687  1
  Zn  Zn3  1  0.250000  0.118816  0.950847  1
  Zn  Zn4  1  0.750000  0.381184  0.450847  1
  Zn  Zn5  1  0.750000  0.858691  0.041687  1
  In  In6  1  0.750000  0.442961  0.836357  1
  In  In7  1  0.250000  0.057039  0.336357  1
  Pt  Pt8  1  0.250000  0.741499  0.854253  1
  Pt  Pt9  1  0.250000  0.276234  0.645110  1
  Pt  Pt10  1  0.750000  0.758501  0.354253  1
  Pt  Pt11  1  0.750000  0.223766  0.145110  1
