# generated using pymatgen
data_Dy7Ho13(GaBi2)4
_symmetry_space_group_name_H-M   'P 1'
_cell_length_a   8.08479902
_cell_length_b   9.30149202
_cell_length_c   11.99820702
_cell_angle_alpha   90.00351920
_cell_angle_beta   90.00568326
_cell_angle_gamma   89.99402882
_symmetry_Int_Tables_number   1
_chemical_formula_structural   Dy7Ho13(GaBi2)4
_chemical_formula_sum   'Dy7 Ho13 Ga4 Bi8'
_cell_volume   902.27347828
_cell_formula_units_Z   1
loop_
 _symmetry_equiv_pos_site_id
 _symmetry_equiv_pos_as_xyz
  1  'x, y, z'
loop_
 _atom_site_type_symbol
 _atom_site_label
 _atom_site_symmetry_multiplicity
 _atom_site_fract_x
 _atom_site_fract_y
 _atom_site_fract_z
 _atom_site_occupancy
  Dy  Dy0  1  0.819430  0.553571  0.062282  1
  Dy  Dy1  1  0.680536  0.946401  0.562250  1
  Dy  Dy2  1  0.180535  0.053558  0.937680  1
  Dy  Dy3  1  0.174264  0.750026  0.217474  1
  Dy  Dy4  1  0.325732  0.749909  0.717432  1
  Dy  Dy5  1  0.825873  0.250119  0.782536  1
  Dy  Dy6  1  0.674138  0.249957  0.282554  1
  Ho  Ho7  1  0.319655  0.446337  0.437719  1
  Ho  Ho8  1  0.180241  0.446402  0.937622  1
  Ho  Ho9  1  0.319741  0.053705  0.437725  1
  Ho  Ho10  1  0.819654  0.946481  0.062337  1
  Ho  Ho11  1  0.680310  0.553541  0.562258  1
  Ho  Ho12  1  0.463219  0.749909  0.003595  1
  Ho  Ho13  1  0.036916  0.750014  0.503504  1
  Ho  Ho14  1  0.536761  0.249899  0.996551  1
  Ho  Ho15  1  0.963311  0.250152  0.496529  1
  Ho  Ho16  1  0.644634  0.749999  0.294594  1
  Ho  Ho17  1  0.855473  0.750027  0.794619  1
  Ho  Ho18  1  0.355164  0.250082  0.705263  1
  Ho  Ho19  1  0.144698  0.250072  0.205492  1
  Ga  Ga20  1  0.405004  0.749787  0.475328  1
  Ga  Ga21  1  0.094801  0.749862  0.975430  1
  Ga  Ga22  1  0.594714  0.250355  0.524503  1
  Ga  Ga23  1  0.905207  0.249807  0.024608  1
  Bi  Bi24  1  0.937585  0.509620  0.324725  1
  Bi  Bi25  1  0.562545  0.990414  0.824657  1
  Bi  Bi26  1  0.062565  0.009644  0.675311  1
  Bi  Bi27  1  0.437343  0.490356  0.175454  1
  Bi  Bi28  1  0.062490  0.490344  0.675337  1
  Bi  Bi29  1  0.437472  0.009645  0.175413  1
  Bi  Bi30  1  0.937465  0.990405  0.324609  1
  Bi  Bi31  1  0.562522  0.509602  0.824609  1
