# generated using pymatgen
data_Er8Si11
_symmetry_space_group_name_H-M   'P 1'
_cell_length_a   12.61915771
_cell_length_b   12.61915745
_cell_length_c   12.61915725
_cell_angle_alpha   160.80861584
_cell_angle_beta   144.91981922
_cell_angle_gamma   40.29060554
_symmetry_Int_Tables_number   1
_chemical_formula_structural   Er8Si11
_chemical_formula_sum   'Er8 Si11'
_cell_volume   379.10578570
_cell_formula_units_Z   1
loop_
 _symmetry_equiv_pos_site_id
 _symmetry_equiv_pos_as_xyz
  1  'x, y, z'
loop_
 _atom_site_type_symbol
 _atom_site_label
 _atom_site_symmetry_multiplicity
 _atom_site_fract_x
 _atom_site_fract_y
 _atom_site_fract_z
 _atom_site_occupancy
  Er  Er0  1  0.300507  0.300507  0.000000  1
  Er  Er1  1  0.572945  0.572945  0.000000  1
  Er  Er2  1  0.951677  0.701239  0.250439  1
  Er  Er3  1  0.686834  0.429038  0.257795  1
  Er  Er4  1  0.797513  0.297513  0.500000  1
  Er  Er5  1  0.068688  0.568688  0.500001  1
  Er  Er6  1  0.171243  0.429039  0.742205  1
  Er  Er7  1  0.450799  0.701239  0.749561  1
  Si  Si8  1  0.177453  0.177453  0.000000  1
  Si  Si9  1  0.884456  0.884456  0.000000  1
  Si  Si10  1  0.983948  0.983948  0.000000  1
  Si  Si11  1  0.358521  0.111922  0.246598  1
  Si  Si12  1  0.081360  0.825354  0.256007  1
  Si  Si13  1  0.324287  0.011187  0.313099  1
  Si  Si14  1  0.674537  0.174537  0.500000  1
  Si  Si15  1  0.395668  0.895669  0.500001  1
  Si  Si16  1  0.698086  0.011187  0.686900  1
  Si  Si17  1  0.569348  0.825354  0.743995  1
  Si  Si18  1  0.865323  0.111922  0.753401  1
