# generated using pymatgen
data_NdY3(CI)2
_symmetry_space_group_name_H-M   'P 1'
_cell_length_a   3.79816300
_cell_length_b   3.79816392
_cell_length_c   15.03346000
_cell_angle_alpha   90.00000000
_cell_angle_beta   90.00000000
_cell_angle_gamma   119.99998325
_symmetry_Int_Tables_number   1
_chemical_formula_structural   NdY3(CI)2
_chemical_formula_sum   'Nd1 Y3 C2 I2'
_cell_volume   187.81788877
_cell_formula_units_Z   1
loop_
 _symmetry_equiv_pos_site_id
 _symmetry_equiv_pos_as_xyz
  1  'x, y, z'
loop_
 _atom_site_type_symbol
 _atom_site_label
 _atom_site_symmetry_multiplicity
 _atom_site_fract_x
 _atom_site_fract_y
 _atom_site_fract_z
 _atom_site_occupancy
  Nd  Nd0  1  0.333333  0.666667  0.914085  1
  Y  Y1  1  0.333333  0.666667  0.582582  1
  Y  Y2  1  0.666667  0.333333  0.414368  1
  Y  Y3  1  0.666667  0.333333  0.088631  1
  C  C4  1  0.000000  0.000000  0.008405  1
  C  C5  1  0.000000  0.000000  0.497907  1
  I  I6  1  0.333333  0.666667  0.252660  1
  I  I7  1  0.666667  0.333333  0.741362  1
