# generated using pymatgen
data_Ti2NbMo3AsP2
_symmetry_space_group_name_H-M   'P 1'
_cell_length_a   6.83939258
_cell_length_b   6.82842420
_cell_length_c   3.33294500
_cell_angle_alpha   90.00000000
_cell_angle_beta   90.00000000
_cell_angle_gamma   119.61794983
_symmetry_Int_Tables_number   1
_chemical_formula_structural   Ti2NbMo3AsP2
_chemical_formula_sum   'Ti2 Nb1 Mo3 As1 P2'
_cell_volume   135.31810474
_cell_formula_units_Z   1
loop_
 _symmetry_equiv_pos_site_id
 _symmetry_equiv_pos_as_xyz
  1  'x, y, z'
loop_
 _atom_site_type_symbol
 _atom_site_label
 _atom_site_symmetry_multiplicity
 _atom_site_fract_x
 _atom_site_fract_y
 _atom_site_fract_z
 _atom_site_occupancy
  Ti  Ti0  1  0.592175  0.982342  0.500000  1
  Ti  Ti1  1  0.013103  0.606388  0.500000  1
  Nb  Nb2  1  0.393821  0.409086  0.500000  1
  Mo  Mo3  1  0.006153  0.258600  0.000000  1
  Mo  Mo4  1  0.252800  0.994833  0.000000  1
  Mo  Mo5  1  0.741303  0.748159  0.000000  1
  As  As6  1  0.670455  0.331521  0.000000  1
  P  P7  1  0.331491  0.671210  0.000000  1
  P  P8  1  0.998699  0.997861  0.500000  1
