# generated using pymatgen
data_Ho6Er6In2Fe2Os
_symmetry_space_group_name_H-M   'P 1'
_cell_length_a   8.33704934
_cell_length_b   8.33994223
_cell_length_c   8.34026813
_cell_angle_alpha   108.68144582
_cell_angle_beta   108.70675685
_cell_angle_gamma   111.05678493
_symmetry_Int_Tables_number   1
_chemical_formula_structural   Ho6Er6In2Fe2Os
_chemical_formula_sum   'Ho6 Er6 In2 Fe2 Os1'
_cell_volume   446.04601797
_cell_formula_units_Z   1
loop_
 _symmetry_equiv_pos_site_id
 _symmetry_equiv_pos_as_xyz
  1  'x, y, z'
loop_
 _atom_site_type_symbol
 _atom_site_label
 _atom_site_symmetry_multiplicity
 _atom_site_fract_x
 _atom_site_fract_y
 _atom_site_fract_z
 _atom_site_occupancy
  Ho  Ho0  1  0.307415  0.307346  0.615384  1
  Ho  Ho1  1  0.692585  0.692654  0.384616  1
  Ho  Ho2  1  0.307416  0.692036  0.000065  1
  Ho  Ho3  1  0.692584  0.307964  0.999935  1
  Ho  Ho4  1  0.429890  0.191971  0.237936  1
  Ho  Ho5  1  0.570110  0.808029  0.762064  1
  Er  Er6  1  0.954283  0.191958  0.762289  1
  Er  Er7  1  0.191142  0.953705  0.761784  1
  Er  Er8  1  0.045717  0.808042  0.237711  1
  Er  Er9  1  0.808858  0.046295  0.238216  1
  Er  Er10  1  0.191101  0.429330  0.237416  1
  Er  Er11  1  0.808899  0.570670  0.762584  1
  In  In12  1  0.500000  0.000000  0.500000  1
  In  In13  1  0.000000  0.500000  0.500000  1
  Fe  Fe14  1  0.385553  0.385698  0.999872  1
  Fe  Fe15  1  0.614447  0.614302  0.000128  1
  Os  Os16  1  0.000000  0.000000  0.000000  1
