# generated using pymatgen
data_KTm3Se5
_symmetry_space_group_name_H-M   'P 1'
_cell_length_a   4.03251800
_cell_length_b   12.14438300
_cell_length_c   21.72791300
_cell_angle_alpha   90.00000000
_cell_angle_beta   90.00000000
_cell_angle_gamma   90.00000000
_symmetry_Int_Tables_number   1
_chemical_formula_structural   KTm3Se5
_chemical_formula_sum   'K4 Tm12 Se20'
_cell_volume   1064.06898191
_cell_formula_units_Z   4
loop_
 _symmetry_equiv_pos_site_id
 _symmetry_equiv_pos_as_xyz
  1  'x, y, z'
loop_
 _atom_site_type_symbol
 _atom_site_label
 _atom_site_symmetry_multiplicity
 _atom_site_fract_x
 _atom_site_fract_y
 _atom_site_fract_z
 _atom_site_occupancy
  K  K0  1  0.250000  0.329976  0.102880  1
  K  K1  1  0.750000  0.670024  0.897120  1
  K  K2  1  0.750000  0.829976  0.397120  1
  K  K3  1  0.250000  0.170024  0.602880  1
  Tm  Tm4  1  0.250000  0.472939  0.700754  1
  Tm  Tm5  1  0.750000  0.527061  0.299246  1
  Tm  Tm6  1  0.750000  0.972939  0.799246  1
  Tm  Tm7  1  0.250000  0.027061  0.200754  1
  Tm  Tm8  1  0.250000  0.816304  0.667365  1
  Tm  Tm9  1  0.750000  0.183696  0.332635  1
  Tm  Tm10  1  0.750000  0.316304  0.832635  1
  Tm  Tm11  1  0.250000  0.683696  0.167365  1
  Tm  Tm12  1  0.250000  0.385496  0.449098  1
  Tm  Tm13  1  0.750000  0.614504  0.550902  1
  Tm  Tm14  1  0.750000  0.885496  0.050902  1
  Tm  Tm15  1  0.250000  0.114504  0.949098  1
  Se  Se16  1  0.250000  0.450899  0.571345  1
  Se  Se17  1  0.750000  0.549101  0.428655  1
  Se  Se18  1  0.750000  0.950899  0.928655  1
  Se  Se19  1  0.250000  0.049101  0.071345  1
  Se  Se20  1  0.250000  0.774097  0.539743  1
  Se  Se21  1  0.750000  0.225903  0.460257  1
  Se  Se22  1  0.750000  0.274097  0.960257  1
  Se  Se23  1  0.250000  0.725903  0.039743  1
  Se  Se24  1  0.250000  0.817928  0.796956  1
  Se  Se25  1  0.750000  0.182072  0.203044  1
  Se  Se26  1  0.750000  0.317928  0.703044  1
  Se  Se27  1  0.250000  0.682072  0.296956  1
  Se  Se28  1  0.250000  0.473880  0.830975  1
  Se  Se29  1  0.750000  0.526120  0.169025  1
  Se  Se30  1  0.750000  0.973880  0.669025  1
  Se  Se31  1  0.250000  0.026120  0.330975  1
  Se  Se32  1  0.250000  0.357455  0.318007  1
  Se  Se33  1  0.750000  0.642545  0.681993  1
  Se  Se34  1  0.750000  0.857455  0.181993  1
  Se  Se35  1  0.250000  0.142545  0.818007  1
