# generated using pymatgen
data_Eu2NiB4Ru3
_symmetry_space_group_name_H-M   'P 1'
_cell_length_a   6.90051590
_cell_length_b   6.00511427
_cell_length_c   5.46067316
_cell_angle_alpha   73.83102021
_cell_angle_beta   56.70117557
_cell_angle_gamma   51.31354604
_symmetry_Int_Tables_number   1
_chemical_formula_structural   Eu2NiB4Ru3
_chemical_formula_sum   'Eu2 Ni1 B4 Ru3'
_cell_volume   146.90348522
_cell_formula_units_Z   1
loop_
 _symmetry_equiv_pos_site_id
 _symmetry_equiv_pos_as_xyz
  1  'x, y, z'
loop_
 _atom_site_type_symbol
 _atom_site_label
 _atom_site_symmetry_multiplicity
 _atom_site_fract_x
 _atom_site_fract_y
 _atom_site_fract_z
 _atom_site_occupancy
  Eu  Eu0  1  0.003467  0.003467  0.996533  1
  Eu  Eu1  1  0.246074  0.246074  0.253926  1
  Ni  Ni2  1  0.620579  0.620579  0.879421  1
  B  B3  1  0.671310  0.327131  0.679593  1
  B  B4  1  0.327131  0.671310  0.321966  1
  B  B5  1  0.932440  0.569923  0.926625  1
  B  B6  1  0.569923  0.932440  0.571013  1
  Ru  Ru7  1  0.633047  0.633047  0.366952  1
  Ru  Ru8  1  0.365591  0.365592  0.634408  1
  Ru  Ru9  1  0.880438  0.880437  0.619562  1
