# generated using pymatgen
data_Li4LaYb3Si8
_symmetry_space_group_name_H-M   'P 1'
_cell_length_a   3.83057200
_cell_length_b   7.87041256
_cell_length_c   10.61474118
_cell_angle_alpha   89.90493179
_cell_angle_beta   90.00000000
_cell_angle_gamma   90.00000000
_symmetry_Int_Tables_number   1
_chemical_formula_structural   Li4LaYb3Si8
_chemical_formula_sum   'Li4 La1 Yb3 Si8'
_cell_volume   320.01470812
_cell_formula_units_Z   1
loop_
 _symmetry_equiv_pos_site_id
 _symmetry_equiv_pos_as_xyz
  1  'x, y, z'
loop_
 _atom_site_type_symbol
 _atom_site_label
 _atom_site_symmetry_multiplicity
 _atom_site_fract_x
 _atom_site_fract_y
 _atom_site_fract_z
 _atom_site_occupancy
  Li  Li0  1  0.250000  0.998238  0.388432  1
  Li  Li1  1  0.750000  0.000286  0.609052  1
  Li  Li2  1  0.250000  0.498737  0.111954  1
  Li  Li3  1  0.750000  0.503906  0.888497  1
  La  La4  1  0.250000  0.133057  0.865765  1
  Yb  Yb5  1  0.750000  0.865701  0.135247  1
  Yb  Yb6  1  0.250000  0.635136  0.634967  1
  Yb  Yb7  1  0.750000  0.366401  0.365377  1
  Si  Si8  1  0.750000  0.269690  0.070734  1
  Si  Si9  1  0.250000  0.731717  0.932784  1
  Si  Si10  1  0.750000  0.766467  0.432302  1
  Si  Si11  1  0.250000  0.232411  0.566244  1
  Si  Si12  1  0.750000  0.831679  0.823470  1
  Si  Si13  1  0.250000  0.165055  0.176680  1
  Si  Si14  1  0.750000  0.336177  0.673573  1
  Si  Si15  1  0.250000  0.665339  0.324922  1
