# generated using pymatgen
data_Lu3In3Ag2Au
_symmetry_space_group_name_H-M   'P 1'
_cell_length_a   7.77913000
_cell_length_b   7.77913069
_cell_length_c   3.88186000
_cell_angle_alpha   90.00000000
_cell_angle_beta   90.00000000
_cell_angle_gamma   119.99999705
_symmetry_Int_Tables_number   1
_chemical_formula_structural   Lu3In3Ag2Au
_chemical_formula_sum   'Lu3 In3 Ag2 Au1'
_cell_volume   203.43824945
_cell_formula_units_Z   1
loop_
 _symmetry_equiv_pos_site_id
 _symmetry_equiv_pos_as_xyz
  1  'x, y, z'
loop_
 _atom_site_type_symbol
 _atom_site_label
 _atom_site_symmetry_multiplicity
 _atom_site_fract_x
 _atom_site_fract_y
 _atom_site_fract_z
 _atom_site_occupancy
  Lu  Lu0  1  0.407544  0.006076  0.500000  1
  Lu  Lu1  1  0.993924  0.401468  0.500000  1
  Lu  Lu2  1  0.598532  0.592456  0.500000  1
  In  In3  1  0.735008  0.996274  0.000000  1
  In  In4  1  0.003726  0.738734  0.000000  1
  In  In5  1  0.261266  0.264992  0.000000  1
  Ag  Ag6  1  0.333333  0.666667  0.000000  1
  Ag  Ag7  1  0.000000  0.000000  0.500000  1
  Au  Au8  1  0.666667  0.333333  0.000000  1
