# generated using pymatgen
data_Rb7PaSb4
_symmetry_space_group_name_H-M   'P 1'
_cell_length_a   9.30731900
_cell_length_b   10.48043800
_cell_length_c   11.58500800
_cell_angle_alpha   90.00000000
_cell_angle_beta   90.00000000
_cell_angle_gamma   90.00000000
_symmetry_Int_Tables_number   1
_chemical_formula_structural   Rb7PaSb4
_chemical_formula_sum   'Rb14 Pa2 Sb8'
_cell_volume   1130.05705348
_cell_formula_units_Z   2
loop_
 _symmetry_equiv_pos_site_id
 _symmetry_equiv_pos_as_xyz
  1  'x, y, z'
loop_
 _atom_site_type_symbol
 _atom_site_label
 _atom_site_symmetry_multiplicity
 _atom_site_fract_x
 _atom_site_fract_y
 _atom_site_fract_z
 _atom_site_occupancy
  Rb  Rb0  1  0.876857  0.031797  0.000000  1
  Rb  Rb1  1  0.707226  0.834846  0.719281  1
  Rb  Rb2  1  0.393136  0.907439  0.000000  1
  Rb  Rb3  1  0.376857  0.968203  0.500000  1
  Rb  Rb4  1  0.875137  0.461940  0.288794  1
  Rb  Rb5  1  0.893136  0.092561  0.500000  1
  Rb  Rb6  1  0.656958  0.334148  0.000000  1
  Rb  Rb7  1  0.156958  0.665852  0.500000  1
  Rb  Rb8  1  0.207226  0.165154  0.219281  1
  Rb  Rb9  1  0.375137  0.538060  0.211206  1
  Rb  Rb10  1  0.375137  0.538060  0.788794  1
  Rb  Rb11  1  0.875137  0.461940  0.711206  1
  Rb  Rb12  1  0.707226  0.834846  0.280719  1
  Rb  Rb13  1  0.207226  0.165154  0.780719  1
  Pa  Pa14  1  0.005106  0.672328  0.000000  1
  Pa  Pa15  1  0.505106  0.327672  0.500000  1
  Sb  Sb16  1  0.687121  0.676331  0.000000  1
  Sb  Sb17  1  0.187121  0.323669  0.500000  1
  Sb  Sb18  1  0.078544  0.396278  0.000000  1
  Sb  Sb19  1  0.578544  0.603722  0.500000  1
  Sb  Sb20  1  0.099328  0.815637  0.211460  1
  Sb  Sb21  1  0.599328  0.184363  0.288540  1
  Sb  Sb22  1  0.599328  0.184363  0.711460  1
  Sb  Sb23  1  0.099328  0.815637  0.788540  1
