# generated using pymatgen
data_Sm2GaRu2
_symmetry_space_group_name_H-M   'P 1'
_cell_length_a   5.75039842
_cell_length_b   5.75039884
_cell_length_c   7.14106271
_cell_angle_alpha   90.10962446
_cell_angle_beta   89.89037322
_cell_angle_gamma   117.21843269
_symmetry_Int_Tables_number   1
_chemical_formula_structural   Sm2GaRu2
_chemical_formula_sum   'Sm4 Ga2 Ru4'
_cell_volume   209.98629305
_cell_formula_units_Z   2
loop_
 _symmetry_equiv_pos_site_id
 _symmetry_equiv_pos_as_xyz
  1  'x, y, z'
loop_
 _atom_site_type_symbol
 _atom_site_label
 _atom_site_symmetry_multiplicity
 _atom_site_fract_x
 _atom_site_fract_y
 _atom_site_fract_z
 _atom_site_occupancy
  Sm  Sm0  1  0.160180  0.839820  0.592598  1
  Sm  Sm1  1  0.839820  0.160180  0.407402  1
  Sm  Sm2  1  0.339986  0.660014  0.090371  1
  Sm  Sm3  1  0.660014  0.339986  0.909629  1
  Ga  Ga4  1  0.000000  0.000000  0.000000  1
  Ga  Ga5  1  0.500000  0.500000  0.500000  1
  Ru  Ru6  1  0.851043  0.652169  0.251129  1
  Ru  Ru7  1  0.652169  0.851043  0.748871  1
  Ru  Ru8  1  0.148957  0.347831  0.748871  1
  Ru  Ru9  1  0.347831  0.148957  0.251129  1
