# generated using pymatgen
data_Er16In6CuOs
_symmetry_space_group_name_H-M   'P 1'
_cell_length_a   10.37239900
_cell_length_b   10.37239959
_cell_length_c   6.95028700
_cell_angle_alpha   90.00000000
_cell_angle_beta   90.00000000
_cell_angle_gamma   119.99999494
_symmetry_Int_Tables_number   1
_chemical_formula_structural   Er16In6CuOs
_chemical_formula_sum   'Er16 In6 Cu1 Os1'
_cell_volume   647.57764211
_cell_formula_units_Z   1
loop_
 _symmetry_equiv_pos_site_id
 _symmetry_equiv_pos_as_xyz
  1  'x, y, z'
loop_
 _atom_site_type_symbol
 _atom_site_label
 _atom_site_symmetry_multiplicity
 _atom_site_fract_x
 _atom_site_fract_y
 _atom_site_fract_z
 _atom_site_occupancy
  Er  Er0  1  0.531338  0.062676  0.795865  1
  Er  Er1  1  0.937324  0.468662  0.795865  1
  Er  Er2  1  0.531338  0.468662  0.795865  1
  Er  Er3  1  0.466829  0.933658  0.292929  1
  Er  Er4  1  0.066342  0.533171  0.292929  1
  Er  Er5  1  0.466829  0.533171  0.292929  1
  Er  Er6  1  0.823874  0.647748  0.498957  1
  Er  Er7  1  0.352252  0.176126  0.498957  1
  Er  Er8  1  0.823874  0.176126  0.498957  1
  Er  Er9  1  0.177420  0.354840  0.999614  1
  Er  Er10  1  0.645160  0.822580  0.999614  1
  Er  Er11  1  0.177420  0.822580  0.999614  1
  Er  Er12  1  0.666667  0.333333  0.171174  1
  Er  Er13  1  0.333333  0.666667  0.673313  1
  Er  Er14  1  0.000000  0.000000  0.776351  1
  Er  Er15  1  0.000000  0.000000  0.280545  1
  In  In16  1  0.836659  0.673320  0.038220  1
  In  In17  1  0.326680  0.163341  0.038220  1
  In  In18  1  0.836659  0.163341  0.038220  1
  In  In19  1  0.162694  0.325388  0.538547  1
  In  In20  1  0.674612  0.837306  0.538547  1
  In  In21  1  0.162694  0.837306  0.538547  1
  Cu  Cu22  1  0.666667  0.333333  0.571406  1
  Os  Os23  1  0.333333  0.666667  0.070715  1
