# generated using pymatgen
data_Ti4InRe24
_symmetry_space_group_name_H-M   'P 1'
_cell_length_a   8.38883443
_cell_length_b   8.38883412
_cell_length_c   8.38883400
_cell_angle_alpha   109.47122036
_cell_angle_beta   109.47121960
_cell_angle_gamma   109.47122585
_symmetry_Int_Tables_number   1
_chemical_formula_structural   Ti4InRe24
_chemical_formula_sum   'Ti4 In1 Re24'
_cell_volume   454.44666257
_cell_formula_units_Z   1
loop_
 _symmetry_equiv_pos_site_id
 _symmetry_equiv_pos_as_xyz
  1  'x, y, z'
loop_
 _atom_site_type_symbol
 _atom_site_label
 _atom_site_symmetry_multiplicity
 _atom_site_fract_x
 _atom_site_fract_y
 _atom_site_fract_z
 _atom_site_occupancy
  Ti  Ti0  1  0.632619  0.000000  0.000000  1
  Ti  Ti1  1  0.000000  0.632619  0.000000  1
  Ti  Ti2  1  0.000000  0.000000  0.632619  1
  Ti  Ti3  1  0.367381  0.367381  0.367381  1
  In  In4  1  0.000000  0.000000  0.000000  1
  Re  Re5  1  0.398409  0.680633  0.000000  1
  Re  Re6  1  0.717776  0.319367  0.319367  1
  Re  Re7  1  0.398409  0.000000  0.680633  1
  Re  Re8  1  0.680633  0.398409  0.000000  1
  Re  Re9  1  0.000000  0.398409  0.680633  1
  Re  Re10  1  0.319367  0.717776  0.319367  1
  Re  Re11  1  0.319367  0.319367  0.717776  1
  Re  Re12  1  0.000000  0.680633  0.398409  1
  Re  Re13  1  0.680633  0.000000  0.398409  1
  Re  Re14  1  0.601591  0.601591  0.282224  1
  Re  Re15  1  0.282224  0.601591  0.601591  1
  Re  Re16  1  0.601591  0.282224  0.601591  1
  Re  Re17  1  0.376868  0.194082  0.000000  1
  Re  Re18  1  0.182785  0.805918  0.805918  1
  Re  Re19  1  0.376868  0.000000  0.194082  1
  Re  Re20  1  0.194082  0.376868  0.000000  1
  Re  Re21  1  0.000000  0.376868  0.194082  1
  Re  Re22  1  0.805918  0.182785  0.805918  1
  Re  Re23  1  0.805918  0.805918  0.182785  1
  Re  Re24  1  0.000000  0.194082  0.376868  1
  Re  Re25  1  0.194082  0.000000  0.376868  1
  Re  Re26  1  0.623132  0.623132  0.817215  1
  Re  Re27  1  0.817215  0.623132  0.623132  1
  Re  Re28  1  0.623132  0.817215  0.623132  1
