# generated using pymatgen
data_La2AlIr3
_symmetry_space_group_name_H-M   'P 1'
_cell_length_a   5.24577902
_cell_length_b   5.24577884
_cell_length_c   5.24577802
_cell_angle_alpha   66.61198824
_cell_angle_beta   66.61200073
_cell_angle_gamma   66.61200114
_symmetry_Int_Tables_number   1
_chemical_formula_structural   La2AlIr3
_chemical_formula_sum   'La2 Al1 Ir3'
_cell_volume   116.59490690
_cell_formula_units_Z   1
loop_
 _symmetry_equiv_pos_site_id
 _symmetry_equiv_pos_as_xyz
  1  'x, y, z'
loop_
 _atom_site_type_symbol
 _atom_site_label
 _atom_site_symmetry_multiplicity
 _atom_site_fract_x
 _atom_site_fract_y
 _atom_site_fract_z
 _atom_site_occupancy
  La  La0  1  0.253122  0.253122  0.253122  1
  La  La1  1  0.996878  0.996878  0.996878  1
  Al  Al2  1  0.625000  0.625000  0.625000  1
  Ir  Ir3  1  0.625000  0.125000  0.625000  1
  Ir  Ir4  1  0.625000  0.625000  0.125000  1
  Ir  Ir5  1  0.125000  0.625000  0.625000  1
