# generated using pymatgen
data_BaEu2(PN2)6
_symmetry_space_group_name_H-M   'P 1'
_cell_length_a   10.15848400
_cell_length_b   10.15848400
_cell_length_c   10.15848400
_cell_angle_alpha   90.00000000
_cell_angle_beta   90.00000000
_cell_angle_gamma   90.00000000
_symmetry_Int_Tables_number   1
_chemical_formula_structural   BaEu2(PN2)6
_chemical_formula_sum   'Ba4 Eu8 P24 N48'
_cell_volume   1048.30269602
_cell_formula_units_Z   4
loop_
 _symmetry_equiv_pos_site_id
 _symmetry_equiv_pos_as_xyz
  1  'x, y, z'
loop_
 _atom_site_type_symbol
 _atom_site_label
 _atom_site_symmetry_multiplicity
 _atom_site_fract_x
 _atom_site_fract_y
 _atom_site_fract_z
 _atom_site_occupancy
  Ba  Ba0  1  0.500000  0.000000  0.500000  1
  Ba  Ba1  1  0.000000  0.500000  0.500000  1
  Ba  Ba2  1  0.000000  0.000000  0.000000  1
  Ba  Ba3  1  0.500000  0.500000  0.000000  1
  Eu  Eu4  1  0.128529  0.871471  0.371471  1
  Eu  Eu5  1  0.371471  0.128529  0.871471  1
  Eu  Eu6  1  0.371471  0.371471  0.371471  1
  Eu  Eu7  1  0.128529  0.628529  0.871471  1
  Eu  Eu8  1  0.628529  0.628529  0.628529  1
  Eu  Eu9  1  0.871471  0.371471  0.128529  1
  Eu  Eu10  1  0.871471  0.128529  0.628529  1
  Eu  Eu11  1  0.628529  0.871471  0.128529  1
  P  P12  1  0.840240  0.386709  0.813135  1
  P  P13  1  0.813135  0.659760  0.886709  1
  P  P14  1  0.159760  0.886709  0.686865  1
  P  P15  1  0.886709  0.813135  0.659760  1
  P  P16  1  0.340240  0.386709  0.686865  1
  P  P17  1  0.186865  0.159760  0.613291  1
  P  P18  1  0.813135  0.840240  0.386709  1
  P  P19  1  0.386709  0.813135  0.840240  1
  P  P20  1  0.113291  0.186865  0.340240  1
  P  P21  1  0.613291  0.186865  0.159760  1
  P  P22  1  0.613291  0.313135  0.659760  1
  P  P23  1  0.386709  0.686865  0.340240  1
  P  P24  1  0.686865  0.340240  0.386709  1
  P  P25  1  0.186865  0.340240  0.113291  1
  P  P26  1  0.340240  0.113291  0.186865  1
  P  P27  1  0.659760  0.613291  0.313135  1
  P  P28  1  0.113291  0.313135  0.840240  1
  P  P29  1  0.159760  0.613291  0.186865  1
  P  P30  1  0.840240  0.113291  0.313135  1
  P  P31  1  0.659760  0.886709  0.813135  1
  P  P32  1  0.313135  0.659760  0.613291  1
  P  P33  1  0.686865  0.159760  0.886709  1
  P  P34  1  0.313135  0.840240  0.113291  1
  P  P35  1  0.886709  0.686865  0.159760  1
  N  N36  1  0.827250  0.240899  0.885035  1
  N  N37  1  0.114965  0.327250  0.259101  1
  N  N38  1  0.672750  0.759101  0.385035  1
  N  N39  1  0.001680  0.911531  0.717425  1
  N  N40  1  0.717425  0.001680  0.911531  1
  N  N41  1  0.259101  0.385035  0.827250  1
  N  N42  1  0.411531  0.782575  0.998320  1
  N  N43  1  0.998320  0.088469  0.282575  1
  N  N44  1  0.588469  0.217425  0.001680  1
  N  N45  1  0.614965  0.327250  0.240899  1
  N  N46  1  0.172750  0.740899  0.614965  1
  N  N47  1  0.088469  0.282575  0.998320  1
  N  N48  1  0.740899  0.614965  0.172750  1
  N  N49  1  0.259101  0.114965  0.327250  1
  N  N50  1  0.911531  0.782575  0.501680  1
  N  N51  1  0.327250  0.240899  0.614965  1
  N  N52  1  0.827250  0.259101  0.385035  1
  N  N53  1  0.001680  0.588469  0.217425  1
  N  N54  1  0.759101  0.385035  0.672750  1
  N  N55  1  0.740899  0.885035  0.672750  1
  N  N56  1  0.998320  0.411531  0.782575  1
  N  N57  1  0.282575  0.998320  0.088469  1
  N  N58  1  0.172750  0.759101  0.114965  1
  N  N59  1  0.498320  0.088469  0.217425  1
  N  N60  1  0.240899  0.614965  0.327250  1
  N  N61  1  0.717425  0.498320  0.411531  1
  N  N62  1  0.588469  0.282575  0.501680  1
  N  N63  1  0.282575  0.501680  0.588469  1
  N  N64  1  0.911531  0.717425  0.001680  1
  N  N65  1  0.885035  0.672750  0.740899  1
  N  N66  1  0.759101  0.114965  0.172750  1
  N  N67  1  0.217425  0.498320  0.088469  1
  N  N68  1  0.217425  0.001680  0.588469  1
  N  N69  1  0.672750  0.740899  0.885035  1
  N  N70  1  0.782575  0.998320  0.411531  1
  N  N71  1  0.501680  0.588469  0.282575  1
  N  N72  1  0.614965  0.172750  0.740899  1
  N  N73  1  0.327250  0.259101  0.114965  1
  N  N74  1  0.782575  0.501680  0.911531  1
  N  N75  1  0.498320  0.411531  0.717425  1
  N  N76  1  0.385035  0.827250  0.259101  1
  N  N77  1  0.885035  0.827250  0.240899  1
  N  N78  1  0.088469  0.217425  0.498320  1
  N  N79  1  0.114965  0.172750  0.759101  1
  N  N80  1  0.385035  0.672750  0.759101  1
  N  N81  1  0.240899  0.885035  0.827250  1
  N  N82  1  0.501680  0.911531  0.782575  1
  N  N83  1  0.411531  0.717425  0.498320  1
