# generated using pymatgen
data_Tm2Ta3P7Rh9
_symmetry_space_group_name_H-M   'P 1'
_cell_length_a   3.91357600
_cell_length_b   9.62587549
_cell_length_c   9.62582700
_cell_angle_alpha   120.00062739
_cell_angle_beta   89.99997833
_cell_angle_gamma   90.00000874
_symmetry_Int_Tables_number   1
_chemical_formula_structural   Tm2Ta3P7Rh9
_chemical_formula_sum   'Tm2 Ta3 P7 Rh9'
_cell_volume   314.03637095
_cell_formula_units_Z   1
loop_
 _symmetry_equiv_pos_site_id
 _symmetry_equiv_pos_as_xyz
  1  'x, y, z'
loop_
 _atom_site_type_symbol
 _atom_site_label
 _atom_site_symmetry_multiplicity
 _atom_site_fract_x
 _atom_site_fract_y
 _atom_site_fract_z
 _atom_site_occupancy
  Tm  Tm0  1  0.261313  0.666675  0.333346  1
  Tm  Tm1  1  0.762208  0.333348  0.666666  1
  Ta  Ta2  1  0.761940  0.094877  0.872472  1
  Ta  Ta3  1  0.761940  0.127545  0.222406  1
  Ta  Ta4  1  0.761942  0.777573  0.905125  1
  P  P5  1  0.262159  0.999990  0.000001  1
  P  P6  1  0.761696  0.875844  0.587570  1
  P  P7  1  0.761662  0.412428  0.288257  1
  P  P8  1  0.761697  0.711720  0.124160  1
  P  P9  1  0.262007  0.118410  0.416972  1
  P  P10  1  0.262001  0.583033  0.701420  1
  P  P11  1  0.261992  0.298579  0.881614  1
  Rh  Rh12  1  0.261872  0.884913  0.161514  1
  Rh  Rh13  1  0.261871  0.838475  0.723394  1
  Rh  Rh14  1  0.261866  0.276592  0.115081  1
  Rh  Rh15  1  0.761940  0.611723  0.556351  1
  Rh  Rh16  1  0.761940  0.443610  0.055363  1
  Rh  Rh17  1  0.761963  0.944654  0.388267  1
  Rh  Rh18  1  0.261988  0.367692  0.440153  1
  Rh  Rh19  1  0.261993  0.559827  0.927532  1
  Rh  Rh20  1  0.262010  0.072493  0.632334  1
