# generated using pymatgen
data_LiNd2GaPd2
_symmetry_space_group_name_H-M   'P 1'
_cell_length_a   4.41896200
_cell_length_b   7.13029500
_cell_length_c   8.12141100
_cell_angle_alpha   90.00000000
_cell_angle_beta   90.00000000
_cell_angle_gamma   90.00000000
_symmetry_Int_Tables_number   1
_chemical_formula_structural   LiNd2GaPd2
_chemical_formula_sum   'Li2 Nd4 Ga2 Pd4'
_cell_volume   255.89350005
_cell_formula_units_Z   2
loop_
 _symmetry_equiv_pos_site_id
 _symmetry_equiv_pos_as_xyz
  1  'x, y, z'
loop_
 _atom_site_type_symbol
 _atom_site_label
 _atom_site_symmetry_multiplicity
 _atom_site_fract_x
 _atom_site_fract_y
 _atom_site_fract_z
 _atom_site_occupancy
  Li  Li0  1  0.250000  0.135018  0.067278  1
  Li  Li1  1  0.250000  0.635018  0.432722  1
  Nd  Nd2  1  0.250000  0.038319  0.691748  1
  Nd  Nd3  1  0.250000  0.538319  0.808252  1
  Nd  Nd4  1  0.750000  0.969202  0.310824  1
  Nd  Nd5  1  0.750000  0.469202  0.189176  1
  Ga  Ga6  1  0.750000  0.859706  0.936269  1
  Ga  Ga7  1  0.750000  0.359706  0.563731  1
  Pd  Pd8  1  0.250000  0.264545  0.395900  1
  Pd  Pd9  1  0.250000  0.764545  0.104100  1
  Pd  Pd10  1  0.750000  0.733209  0.613064  1
  Pd  Pd11  1  0.750000  0.233209  0.886936  1
