# generated using pymatgen
data_Li6ZrNb5Rh12
_symmetry_space_group_name_H-M   'P 1'
_cell_length_a   4.39587700
_cell_length_b   6.13342900
_cell_length_c   13.14693400
_cell_angle_alpha   90.00000000
_cell_angle_beta   89.99882956
_cell_angle_gamma   90.00000000
_symmetry_Int_Tables_number   1
_chemical_formula_structural   Li6ZrNb5Rh12
_chemical_formula_sum   'Li6 Zr1 Nb5 Rh12'
_cell_volume   354.46499815
_cell_formula_units_Z   1
loop_
 _symmetry_equiv_pos_site_id
 _symmetry_equiv_pos_as_xyz
  1  'x, y, z'
loop_
 _atom_site_type_symbol
 _atom_site_label
 _atom_site_symmetry_multiplicity
 _atom_site_fract_x
 _atom_site_fract_y
 _atom_site_fract_z
 _atom_site_occupancy
  Li  Li0  1  0.000004  0.000000  0.001273  1
  Li  Li1  1  0.499822  0.500000  0.168158  1
  Li  Li2  1  0.999872  0.000000  0.333311  1
  Li  Li3  1  0.499997  0.500000  0.498469  1
  Li  Li4  1  0.000140  0.000000  0.665465  1
  Li  Li5  1  0.500151  0.500000  0.833291  1
  Zr  Zr6  1  0.500118  0.000000  0.833364  1
  Nb  Nb7  1  0.000029  0.500000  0.001030  1
  Nb  Nb8  1  0.499941  0.000000  0.167965  1
  Nb  Nb9  1  0.999982  0.500000  0.333246  1
  Nb  Nb10  1  0.500000  0.000000  0.498621  1
  Nb  Nb11  1  0.000072  0.500000  0.665673  1
  Rh  Rh12  1  0.499996  0.253549  0.005327  1
  Rh  Rh13  1  0.499996  0.746452  0.005327  1
  Rh  Rh14  1  0.999830  0.249362  0.168229  1
  Rh  Rh15  1  0.999830  0.750637  0.168229  1
  Rh  Rh16  1  0.499876  0.250350  0.333273  1
  Rh  Rh17  1  0.499876  0.749650  0.333273  1
  Rh  Rh18  1  0.000003  0.249317  0.498458  1
  Rh  Rh19  1  0.000003  0.750684  0.498458  1
  Rh  Rh20  1  0.500140  0.253643  0.661439  1
  Rh  Rh21  1  0.500140  0.746357  0.661439  1
  Rh  Rh22  1  0.000092  0.259215  0.833341  1
  Rh  Rh23  1  0.000092  0.740784  0.833341  1
