# generated using pymatgen
data_Sb11TeOsRh3
_symmetry_space_group_name_H-M   'P 1'
_cell_length_a   8.12686607
_cell_length_b   8.13646516
_cell_length_c   8.13875490
_cell_angle_alpha   109.43763725
_cell_angle_beta   109.60973524
_cell_angle_gamma   109.34686902
_symmetry_Int_Tables_number   1
_chemical_formula_structural   Sb11TeOsRh3
_chemical_formula_sum   'Sb11 Te1 Os1 Rh3'
_cell_volume   414.37851235
_cell_formula_units_Z   1
loop_
 _symmetry_equiv_pos_site_id
 _symmetry_equiv_pos_as_xyz
  1  'x, y, z'
loop_
 _atom_site_type_symbol
 _atom_site_label
 _atom_site_symmetry_multiplicity
 _atom_site_fract_x
 _atom_site_fract_y
 _atom_site_fract_z
 _atom_site_occupancy
  Sb  Sb0  1  0.843132  0.181333  0.336616  1
  Sb  Sb1  1  0.839405  0.498472  0.660240  1
  Sb  Sb2  1  0.154272  0.486576  0.332688  1
  Sb  Sb3  1  0.813236  0.659691  0.154814  1
  Sb  Sb4  1  0.187800  0.343348  0.845608  1
  Sb  Sb5  1  0.508065  0.663111  0.846958  1
  Sb  Sb6  1  0.494308  0.339243  0.154481  1
  Sb  Sb7  1  0.662693  0.155909  0.817734  1
  Sb  Sb8  1  0.340362  0.847986  0.185115  1
  Sb  Sb9  1  0.658748  0.847373  0.504510  1
  Sb  Sb10  1  0.341633  0.156859  0.495481  1
  Te  Te11  1  0.154233  0.814055  0.662654  1
  Os  Os12  1  0.498405  0.999856  0.998750  1
  Rh  Rh13  1  0.000699  0.000758  0.501429  1
  Rh  Rh14  1  0.001921  0.502568  0.002263  1
  Rh  Rh15  1  0.501088  0.502863  0.500660  1
