# generated using pymatgen
data_Eu2VWO8
_symmetry_space_group_name_H-M   'P 1'
_cell_length_a   6.94509328
_cell_length_b   6.94509310
_cell_length_c   6.94509331
_cell_angle_alpha   134.96138748
_cell_angle_beta   134.96138047
_cell_angle_gamma   65.59021213
_symmetry_Int_Tables_number   1
_chemical_formula_structural   Eu2VWO8
_chemical_formula_sum   'Eu2 V1 W1 O8'
_cell_volume   165.22505406
_cell_formula_units_Z   1
loop_
 _symmetry_equiv_pos_site_id
 _symmetry_equiv_pos_as_xyz
  1  'x, y, z'
loop_
 _atom_site_type_symbol
 _atom_site_label
 _atom_site_symmetry_multiplicity
 _atom_site_fract_x
 _atom_site_fract_y
 _atom_site_fract_z
 _atom_site_occupancy
  Eu  Eu0  1  0.750000  0.250000  0.500000  1
  Eu  Eu1  1  0.000000  0.000000  0.000000  1
  V  V2  1  0.500000  0.500000  0.000000  1
  W  W3  1  0.250000  0.750000  0.500000  1
  O  O4  1  0.183897  0.267462  0.618510  1
  O  O5  1  0.648952  0.565388  0.381490  1
  O  O6  1  0.310013  0.412370  0.386506  1
  O  O7  1  0.025863  0.923506  0.613494  1
  O  O8  1  0.587630  0.974137  0.897643  1
  O  O9  1  0.076494  0.689987  0.102357  1
  O  O10  1  0.434612  0.816103  0.083565  1
  O  O11  1  0.732538  0.351048  0.916435  1
