# generated using pymatgen
data_La8Tm11LuPb16
_symmetry_space_group_name_H-M   'P 1'
_cell_length_a   8.22444500
_cell_length_b   8.32877835
_cell_length_c   15.67064400
_cell_angle_alpha   90.00000000
_cell_angle_beta   90.00000000
_cell_angle_gamma   90.01655836
_symmetry_Int_Tables_number   1
_chemical_formula_structural   La8Tm11LuPb16
_chemical_formula_sum   'La8 Tm11 Lu1 Pb16'
_cell_volume   1073.43247871
_cell_formula_units_Z   1
loop_
 _symmetry_equiv_pos_site_id
 _symmetry_equiv_pos_as_xyz
  1  'x, y, z'
loop_
 _atom_site_type_symbol
 _atom_site_label
 _atom_site_symmetry_multiplicity
 _atom_site_fract_x
 _atom_site_fract_y
 _atom_site_fract_z
 _atom_site_occupancy
  La  La0  1  0.475412  0.677334  0.596748  1
  La  La1  1  0.975407  0.822677  0.903296  1
  La  La2  1  0.524643  0.322468  0.096743  1
  La  La3  1  0.024499  0.177191  0.403259  1
  La  La4  1  0.524643  0.322468  0.403257  1
  La  La5  1  0.024499  0.177191  0.096741  1
  La  La6  1  0.475412  0.677334  0.903252  1
  La  La7  1  0.975407  0.822677  0.596704  1
  Tm  Tm8  1  0.635521  0.157929  0.622844  1
  Tm  Tm9  1  0.135471  0.342112  0.877048  1
  Tm  Tm10  1  0.364570  0.842234  0.122945  1
  Tm  Tm11  1  0.864296  0.657934  0.377050  1
  Tm  Tm12  1  0.364570  0.842234  0.377055  1
  Tm  Tm13  1  0.864296  0.657934  0.122950  1
  Tm  Tm14  1  0.635521  0.157929  0.877156  1
  Tm  Tm15  1  0.135471  0.342112  0.622952  1
  Tm  Tm16  1  0.801343  0.493739  0.750000  1
  Tm  Tm17  1  0.301408  0.006267  0.750000  1
  Tm  Tm18  1  0.198609  0.506254  0.250000  1
  Lu  Lu19  1  0.698909  0.993483  0.250000  1
  Pb  Pb20  1  0.702084  0.957863  0.455513  1
  Pb  Pb21  1  0.201985  0.542141  0.044299  1
  Pb  Pb22  1  0.297975  0.042206  0.955808  1
  Pb  Pb23  1  0.798000  0.457942  0.544219  1
  Pb  Pb24  1  0.297975  0.042206  0.544192  1
  Pb  Pb25  1  0.798000  0.457942  0.955781  1
  Pb  Pb26  1  0.702084  0.957863  0.044487  1
  Pb  Pb27  1  0.201985  0.542141  0.455701  1
  Pb  Pb28  1  0.439527  0.369904  0.750000  1
  Pb  Pb29  1  0.939436  0.130061  0.750000  1
  Pb  Pb30  1  0.560626  0.630248  0.250000  1
  Pb  Pb31  1  0.060195  0.870324  0.250000  1
  Pb  Pb32  1  0.664555  0.852168  0.750000  1
  Pb  Pb33  1  0.164616  0.647970  0.750000  1
  Pb  Pb34  1  0.335534  0.147770  0.250000  1
  Pb  Pb35  1  0.835521  0.351747  0.250000  1
