# generated using pymatgen
data_Lu3Pa3(Ni3Sb4)2
_symmetry_space_group_name_H-M   'P 1'
_cell_length_a   8.12175099
_cell_length_b   8.12175105
_cell_length_c   8.14008092
_cell_angle_alpha   109.89501121
_cell_angle_beta   109.05041278
_cell_angle_gamma   109.37791677
_symmetry_Int_Tables_number   1
_chemical_formula_structural   Lu3Pa3(Ni3Sb4)2
_chemical_formula_sum   'Lu3 Pa3 Ni6 Sb8'
_cell_volume   413.78173906
_cell_formula_units_Z   1
loop_
 _symmetry_equiv_pos_site_id
 _symmetry_equiv_pos_as_xyz
  1  'x, y, z'
loop_
 _atom_site_type_symbol
 _atom_site_label
 _atom_site_symmetry_multiplicity
 _atom_site_fract_x
 _atom_site_fract_y
 _atom_site_fract_z
 _atom_site_occupancy
  Lu  Lu0  1  0.623805  0.373805  0.250000  1
  Lu  Lu1  1  0.374589  0.250054  0.625076  1
  Lu  Lu2  1  0.124977  0.749513  0.874924  1
  Pa  Pa3  1  0.749321  0.873375  0.123167  1
  Pa  Pa4  1  0.250208  0.626154  0.376833  1
  Pa  Pa5  1  0.876636  0.126636  0.750000  1
  Ni  Ni6  1  0.878253  0.248181  0.121413  1
  Ni  Ni7  1  0.377892  0.627892  0.750000  1
  Ni  Ni8  1  0.626767  0.756839  0.378587  1
  Ni  Ni9  1  0.752424  0.369380  0.629845  1
  Ni  Ni10  1  0.239535  0.122578  0.870155  1
  Ni  Ni11  1  0.123599  0.873599  0.250000  1
  Sb  Sb12  1  0.498160  0.003740  0.840977  1
  Sb  Sb13  1  0.165958  0.161832  0.164282  1
  Sb  Sb14  1  0.836468  0.502021  0.999281  1
  Sb  Sb15  1  0.002741  0.837187  0.500719  1
  Sb  Sb16  1  0.339245  0.497678  0.998567  1
  Sb  Sb17  1  0.999111  0.340679  0.501433  1
  Sb  Sb18  1  0.497550  0.001676  0.335718  1
  Sb  Sb19  1  0.662763  0.657182  0.659023  1
