# generated using pymatgen
data_DyThP7Ru12
_symmetry_space_group_name_H-M   'P 1'
_cell_length_a   9.47059300
_cell_length_b   9.47059214
_cell_length_c   3.95709400
_cell_angle_alpha   90.00000000
_cell_angle_beta   90.00000000
_cell_angle_gamma   119.99999857
_symmetry_Int_Tables_number   1
_chemical_formula_structural   DyThP7Ru12
_chemical_formula_sum   'Dy1 Th1 P7 Ru12'
_cell_volume   307.36988297
_cell_formula_units_Z   1
loop_
 _symmetry_equiv_pos_site_id
 _symmetry_equiv_pos_as_xyz
  1  'x, y, z'
loop_
 _atom_site_type_symbol
 _atom_site_label
 _atom_site_symmetry_multiplicity
 _atom_site_fract_x
 _atom_site_fract_y
 _atom_site_fract_z
 _atom_site_occupancy
  Dy  Dy0  1  0.666667  0.333333  0.500000  1
  Th  Th1  1  0.333333  0.666667  0.000000  1
  P  P2  1  0.606012  0.716937  0.500000  1
  P  P3  1  0.000000  0.000000  0.000000  1
  P  P4  1  0.283063  0.889075  0.500000  1
  P  P5  1  0.110925  0.393988  0.500000  1
  P  P6  1  0.886281  0.573325  0.000000  1
  P  P7  1  0.426675  0.312956  0.000000  1
  P  P8  1  0.687044  0.113719  0.000000  1
  Ru  Ru9  1  0.556740  0.948868  0.500000  1
  Ru  Ru10  1  0.392129  0.443260  0.500000  1
  Ru  Ru11  1  0.913180  0.119775  0.500000  1
  Ru  Ru12  1  0.206595  0.086820  0.500000  1
  Ru  Ru13  1  0.880225  0.793405  0.500000  1
  Ru  Ru14  1  0.728071  0.891562  0.000000  1
  Ru  Ru15  1  0.108438  0.836508  0.000000  1
  Ru  Ru16  1  0.163492  0.271929  0.000000  1
  Ru  Ru17  1  0.424443  0.069402  0.000000  1
  Ru  Ru18  1  0.930598  0.355041  0.000000  1
  Ru  Ru19  1  0.644959  0.575557  0.000000  1
  Ru  Ru20  1  0.051132  0.607871  0.500000  1
