# generated using pymatgen
data_Hf2AlCo5B2
_symmetry_space_group_name_H-M   'P 1'
_cell_length_a   8.62348100
_cell_length_b   8.62348100
_cell_length_c   3.08216000
_cell_angle_alpha   90.00000000
_cell_angle_beta   90.00000000
_cell_angle_gamma   90.00000000
_symmetry_Int_Tables_number   1
_chemical_formula_structural   Hf2AlCo5B2
_chemical_formula_sum   'Hf4 Al2 Co10 B4'
_cell_volume   229.20305479
_cell_formula_units_Z   2
loop_
 _symmetry_equiv_pos_site_id
 _symmetry_equiv_pos_as_xyz
  1  'x, y, z'
loop_
 _atom_site_type_symbol
 _atom_site_label
 _atom_site_symmetry_multiplicity
 _atom_site_fract_x
 _atom_site_fract_y
 _atom_site_fract_z
 _atom_site_occupancy
  Hf  Hf0  1  0.823142  0.323142  0.000000  1
  Hf  Hf1  1  0.323142  0.176858  0.000000  1
  Hf  Hf2  1  0.676858  0.823142  0.000000  1
  Hf  Hf3  1  0.176858  0.676858  0.000000  1
  Al  Al4  1  0.000000  0.000000  0.000000  1
  Al  Al5  1  0.500000  0.500000  0.000000  1
  Co  Co6  1  0.500000  0.000000  0.500000  1
  Co  Co7  1  0.000000  0.500000  0.500000  1
  Co  Co8  1  0.068923  0.223329  0.500000  1
  Co  Co9  1  0.223329  0.931077  0.500000  1
  Co  Co10  1  0.776671  0.068923  0.500000  1
  Co  Co11  1  0.931077  0.776671  0.500000  1
  Co  Co12  1  0.431077  0.723329  0.500000  1
  Co  Co13  1  0.568923  0.276671  0.500000  1
  Co  Co14  1  0.723329  0.568923  0.500000  1
  Co  Co15  1  0.276671  0.431077  0.500000  1
  B  B16  1  0.619332  0.119332  0.000000  1
  B  B17  1  0.119332  0.380668  0.000000  1
  B  B18  1  0.880668  0.619332  0.000000  1
  B  B19  1  0.380668  0.880668  0.000000  1
