# generated using pymatgen
data_Ba4La2Pr2Co4O15
_symmetry_space_group_name_H-M   'P 1'
_cell_length_a   11.83450227
_cell_length_b   11.83450294
_cell_length_c   6.90228561
_cell_angle_alpha   89.96164171
_cell_angle_beta   89.96163770
_cell_angle_gamma   120.06996818
_symmetry_Int_Tables_number   1
_chemical_formula_structural   Ba4La2Pr2Co4O15
_chemical_formula_sum   'Ba8 La4 Pr4 Co8 O30'
_cell_volume   836.59748928
_cell_formula_units_Z   2
loop_
 _symmetry_equiv_pos_site_id
 _symmetry_equiv_pos_as_xyz
  1  'x, y, z'
loop_
 _atom_site_type_symbol
 _atom_site_label
 _atom_site_symmetry_multiplicity
 _atom_site_fract_x
 _atom_site_fract_y
 _atom_site_fract_z
 _atom_site_occupancy
  Ba  Ba0  1  0.824036  0.178052  0.325663  1
  Ba  Ba1  1  0.826258  0.647615  0.329402  1
  Ba  Ba2  1  0.354171  0.176419  0.327324  1
  Ba  Ba3  1  0.178052  0.824036  0.825663  1
  Ba  Ba4  1  0.176419  0.354171  0.827324  1
  Ba  Ba5  1  0.647615  0.826258  0.829402  1
  Ba  Ba6  1  0.664059  0.328690  0.019874  1
  Ba  Ba7  1  0.328690  0.664059  0.519874  1
  La  La8  1  0.001603  0.001529  0.518539  1
  La  La9  1  0.001529  0.001603  0.018539  1
  La  La10  1  0.524463  0.051316  0.669735  1
  La  La11  1  0.051316  0.524463  0.169735  1
  Pr  Pr12  1  0.522488  0.472477  0.666042  1
  Pr  Pr13  1  0.949598  0.473072  0.666960  1
  Pr  Pr14  1  0.472477  0.522488  0.166042  1
  Pr  Pr15  1  0.473072  0.949598  0.166960  1
  Co  Co16  1  0.666281  0.332799  0.485853  1
  Co  Co17  1  0.332799  0.666281  0.985853  1
  Co  Co18  1  0.825624  0.173454  0.835180  1
  Co  Co19  1  0.823994  0.649078  0.838504  1
  Co  Co20  1  0.347606  0.173652  0.835486  1
  Co  Co21  1  0.173454  0.825624  0.335180  1
  Co  Co22  1  0.173652  0.347606  0.335486  1
  Co  Co23  1  0.649078  0.823994  0.338504  1
  O  O24  1  0.058253  0.664501  0.473438  1
  O  O25  1  0.338210  0.397556  0.466402  1
  O  O26  1  0.609082  0.938453  0.464427  1
  O  O27  1  0.059240  0.394633  0.472255  1
  O  O28  1  0.336971  0.940842  0.470506  1
  O  O29  1  0.611011  0.669682  0.463446  1
  O  O30  1  0.940842  0.336971  0.970506  1
  O  O31  1  0.669682  0.611011  0.963446  1
  O  O32  1  0.394633  0.059240  0.972255  1
  O  O33  1  0.938453  0.609082  0.964427  1
  O  O34  1  0.664501  0.058253  0.973438  1
  O  O35  1  0.397556  0.338210  0.966402  1
  O  O36  1  0.587363  0.416002  0.333553  1
  O  O37  1  0.586411  0.172886  0.333699  1
  O  O38  1  0.826935  0.414953  0.335180  1
  O  O39  1  0.416002  0.587363  0.833553  1
  O  O40  1  0.414953  0.826935  0.835180  1
  O  O41  1  0.172886  0.586411  0.833699  1
  O  O42  1  0.078959  0.912297  0.251603  1
  O  O43  1  0.081136  0.165872  0.254919  1
  O  O44  1  0.822615  0.911306  0.259964  1
  O  O45  1  0.912297  0.078959  0.751603  1
  O  O46  1  0.911306  0.822615  0.759964  1
  O  O47  1  0.165872  0.081136  0.754919  1
  O  O48  1  0.747580  0.255058  0.656974  1
  O  O49  1  0.749805  0.502766  0.662922  1
  O  O50  1  0.506173  0.255117  0.656350  1
  O  O51  1  0.255058  0.747580  0.156974  1
  O  O52  1  0.255117  0.506173  0.156350  1
  O  O53  1  0.502766  0.749805  0.162922  1
