# generated using pymatgen
data_Ba2V2CuNi3S8
_symmetry_space_group_name_H-M   'P 1'
_cell_length_a   9.27887969
_cell_length_b   9.27416315
_cell_length_c   7.02401700
_cell_angle_alpha   90.00000000
_cell_angle_beta   90.00000000
_cell_angle_gamma   146.48668037
_symmetry_Int_Tables_number   1
_chemical_formula_structural   Ba2V2CuNi3S8
_chemical_formula_sum   'Ba2 V2 Cu1 Ni3 S8'
_cell_volume   333.73197882
_cell_formula_units_Z   1
loop_
 _symmetry_equiv_pos_site_id
 _symmetry_equiv_pos_as_xyz
  1  'x, y, z'
loop_
 _atom_site_type_symbol
 _atom_site_label
 _atom_site_symmetry_multiplicity
 _atom_site_fract_x
 _atom_site_fract_y
 _atom_site_fract_z
 _atom_site_occupancy
  Ba  Ba0  1  0.908486  0.554959  0.250000  1
  Ba  Ba1  1  0.558860  0.905260  0.750000  1
  V  V2  1  0.867922  0.092810  0.250000  1
  V  V3  1  0.091312  0.868768  0.750000  1
  Cu  Cu4  1  0.592003  0.368108  0.750000  1
  Ni  Ni5  1  0.986824  0.987061  0.499866  1
  Ni  Ni6  1  0.986824  0.987061  0.000134  1
  Ni  Ni7  1  0.370685  0.594084  0.250000  1
  S  S8  1  0.320964  0.110875  0.493691  1
  S  S9  1  0.120134  0.330735  0.500978  1
  S  S10  1  0.518968  0.947265  0.250000  1
  S  S11  1  0.955493  0.525768  0.750000  1
  S  S12  1  0.720693  0.744115  0.250000  1
  S  S13  1  0.751172  0.732962  0.750000  1
  S  S14  1  0.320964  0.110875  0.006309  1
  S  S15  1  0.120134  0.330735  0.999022  1
