# generated using pymatgen
data_LaEr2(P2Rh3)3
_symmetry_space_group_name_H-M   'P 1'
_cell_length_a   3.93504000
_cell_length_b   11.26701100
_cell_length_c   12.86453200
_cell_angle_alpha   90.00000000
_cell_angle_beta   90.00000000
_cell_angle_gamma   90.00000000
_symmetry_Int_Tables_number   1
_chemical_formula_structural   LaEr2(P2Rh3)3
_chemical_formula_sum   'La2 Er4 P12 Rh18'
_cell_volume   570.36367848
_cell_formula_units_Z   2
loop_
 _symmetry_equiv_pos_site_id
 _symmetry_equiv_pos_as_xyz
  1  'x, y, z'
loop_
 _atom_site_type_symbol
 _atom_site_label
 _atom_site_symmetry_multiplicity
 _atom_site_fract_x
 _atom_site_fract_y
 _atom_site_fract_z
 _atom_site_occupancy
  La  La0  1  0.750000  0.250000  0.477273  1
  La  La1  1  0.250000  0.750000  0.522727  1
  Er  Er2  1  0.250000  0.935572  0.796624  1
  Er  Er3  1  0.250000  0.564428  0.796624  1
  Er  Er4  1  0.750000  0.064428  0.203376  1
  Er  Er5  1  0.750000  0.435572  0.203376  1
  P  P6  1  0.250000  0.250000  0.120413  1
  P  P7  1  0.750000  0.750000  0.879587  1
  P  P8  1  0.250000  0.250000  0.654187  1
  P  P9  1  0.750000  0.750000  0.345813  1
  P  P10  1  0.250000  0.437521  0.379022  1
  P  P11  1  0.250000  0.062479  0.379022  1
  P  P12  1  0.750000  0.562479  0.620978  1
  P  P13  1  0.750000  0.937521  0.620978  1
  P  P14  1  0.250000  0.904149  0.106255  1
  P  P15  1  0.250000  0.595851  0.106255  1
  P  P16  1  0.750000  0.095851  0.893745  1
  P  P17  1  0.750000  0.404149  0.893745  1
  Rh  Rh18  1  0.250000  0.250000  0.833580  1
  Rh  Rh19  1  0.750000  0.750000  0.166420  1
  Rh  Rh20  1  0.250000  0.250000  0.294621  1
  Rh  Rh21  1  0.750000  0.750000  0.705379  1
  Rh  Rh22  1  0.750000  0.250000  0.021292  1
  Rh  Rh23  1  0.250000  0.750000  0.978708  1
  Rh  Rh24  1  0.250000  0.415988  0.006149  1
  Rh  Rh25  1  0.250000  0.084012  0.006149  1
  Rh  Rh26  1  0.750000  0.584012  0.993851  1
  Rh  Rh27  1  0.750000  0.915988  0.993851  1
  Rh  Rh28  1  0.250000  0.457836  0.571627  1
  Rh  Rh29  1  0.250000  0.042164  0.571627  1
  Rh  Rh30  1  0.750000  0.542164  0.428373  1
  Rh  Rh31  1  0.750000  0.957836  0.428373  1
  Rh  Rh32  1  0.250000  0.877508  0.285872  1
  Rh  Rh33  1  0.250000  0.622492  0.285872  1
  Rh  Rh34  1  0.750000  0.122492  0.714128  1
  Rh  Rh35  1  0.750000  0.377508  0.714128  1
