# generated using pymatgen
data_LaCoP2Os
_symmetry_space_group_name_H-M   'P 1'
_cell_length_a   6.36698320
_cell_length_b   6.36698333
_cell_length_c   6.36698389
_cell_angle_alpha   144.63439592
_cell_angle_beta   144.63440193
_cell_angle_gamma   50.87968666
_symmetry_Int_Tables_number   1
_chemical_formula_structural   LaCoP2Os
_chemical_formula_sum   'La1 Co1 P2 Os1'
_cell_volume   86.01828914
_cell_formula_units_Z   1
loop_
 _symmetry_equiv_pos_site_id
 _symmetry_equiv_pos_as_xyz
  1  'x, y, z'
loop_
 _atom_site_type_symbol
 _atom_site_label
 _atom_site_symmetry_multiplicity
 _atom_site_fract_x
 _atom_site_fract_y
 _atom_site_fract_z
 _atom_site_occupancy
  La  La0  1  0.000000  0.000000  0.000000  1
  Co  Co1  1  0.250000  0.750000  0.500000  1
  P  P2  1  0.356892  0.356892  0.000000  1
  P  P3  1  0.643108  0.643108  0.000000  1
  Os  Os4  1  0.750000  0.250000  0.500000  1
