# generated using pymatgen
data_In2Cu5S7
_symmetry_space_group_name_H-M   'P 1'
_cell_length_a   6.63985455
_cell_length_b   6.63985436
_cell_length_c   8.57861200
_cell_angle_alpha   82.58987131
_cell_angle_beta   82.58987153
_cell_angle_gamma   48.27269030
_symmetry_Int_Tables_number   1
_chemical_formula_structural   In2Cu5S7
_chemical_formula_sum   'In2 Cu5 S7'
_cell_volume   279.43371691
_cell_formula_units_Z   1
loop_
 _symmetry_equiv_pos_site_id
 _symmetry_equiv_pos_as_xyz
  1  'x, y, z'
loop_
 _atom_site_type_symbol
 _atom_site_label
 _atom_site_symmetry_multiplicity
 _atom_site_fract_x
 _atom_site_fract_y
 _atom_site_fract_z
 _atom_site_occupancy
  In  In0  1  0.151955  0.697409  0.222682  1
  In  In1  1  0.302591  0.848045  0.777318  1
  Cu  Cu2  1  0.734068  0.265932  0.500000  1
  Cu  Cu3  1  0.885330  0.406693  0.074708  1
  Cu  Cu4  1  0.593307  0.114670  0.925292  1
  Cu  Cu5  1  0.447243  0.980084  0.357136  1
  Cu  Cu6  1  0.019916  0.552757  0.642864  1
  S  S7  1  0.355661  0.347841  0.445803  1
  S  S8  1  0.652159  0.644339  0.554197  1
  S  S9  1  0.513456  0.486544  0.000000  1
  S  S10  1  0.049100  0.113633  0.291206  1
  S  S11  1  0.886367  0.950900  0.708794  1
  S  S12  1  0.738737  0.812292  0.137015  1
  S  S13  1  0.187708  0.261263  0.862985  1
