# generated using pymatgen
data_HoTa3(PO4)6
_symmetry_space_group_name_H-M   'P 1'
_cell_length_a   8.87049632
_cell_length_b   9.14226905
_cell_length_c   8.87043500
_cell_angle_alpha   89.99714773
_cell_angle_beta   59.99961043
_cell_angle_gamma   119.01921154
_symmetry_Int_Tables_number   1
_chemical_formula_structural   HoTa3(PO4)6
_chemical_formula_sum   'Ho1 Ta3 P6 O24'
_cell_volume   516.06070304
_cell_formula_units_Z   1
loop_
 _symmetry_equiv_pos_site_id
 _symmetry_equiv_pos_as_xyz
  1  'x, y, z'
loop_
 _atom_site_type_symbol
 _atom_site_label
 _atom_site_symmetry_multiplicity
 _atom_site_fract_x
 _atom_site_fract_y
 _atom_site_fract_z
 _atom_site_occupancy
  Ho  Ho0  1  0.722448  0.083618  0.638718  1
  Ta  Ta1  1  0.284696  0.926928  0.357642  1
  Ta  Ta2  1  0.286506  0.429639  0.856739  1
  Ta  Ta3  1  0.715354  0.572949  0.142274  1
  P  P4  1  0.786959  0.748526  0.748498  1
  P  P5  1  0.484162  0.251101  0.535657  1
  P  P6  1  0.497230  0.748595  0.464435  1
  P  P7  1  0.231386  0.251186  0.232957  1
  P  P8  1  0.786878  0.251135  0.980120  1
  P  P9  1  0.213167  0.748564  0.038262  1
  O  O10  1  0.653418  0.909029  0.475421  1
  O  O11  1  0.995119  0.707177  0.097108  1
  O  O12  1  0.221029  0.583886  0.004530  1
  O  O13  1  0.226137  0.779150  0.206522  1
  O  O14  1  0.987805  0.276854  0.951415  1
  O  O15  1  0.791327  0.416219  0.022729  1
  O  O16  1  0.789677  0.238648  0.810574  1
  O  O17  1  0.804540  0.707349  0.907686  1
  O  O18  1  0.985768  0.779041  0.567269  1
  O  O19  1  0.638600  0.238843  0.550849  1
  O  O20  1  0.779985  0.908848  0.744305  1
  O  O21  1  0.588513  0.583758  0.774518  1
  O  O22  1  0.590669  0.085057  0.151166  1
  O  O23  1  0.601963  0.416112  0.375024  1
  O  O24  1  0.228234  0.276716  0.060794  1
  O  O25  1  0.337603  0.276757  0.710898  1
  O  O26  1  0.615188  0.707305  0.287752  1
  O  O27  1  0.343324  0.084924  0.505589  1
  O  O28  1  0.384499  0.908916  0.870967  1
  O  O29  1  0.358561  0.583923  0.636954  1
  O  O30  1  0.236377  0.085140  0.258234  1
  O  O31  1  0.439140  0.416350  0.185685  1
  O  O32  1  0.346447  0.778985  0.446857  1
  O  O33  1  0.049422  0.238772  0.399721  1
