# generated using pymatgen
data_Tb5DySi24Os7Ru
_symmetry_space_group_name_H-M   'P 1'
_cell_length_a   10.14963919
_cell_length_b   10.14963858
_cell_length_c   8.18086301
_cell_angle_alpha   90.00995875
_cell_angle_beta   90.00995134
_cell_angle_gamma   132.48011954
_symmetry_Int_Tables_number   1
_chemical_formula_structural   Tb5DySi24Os7Ru
_chemical_formula_sum   'Tb5 Dy1 Si24 Os7 Ru1'
_cell_volume   621.54013961
_cell_formula_units_Z   1
loop_
 _symmetry_equiv_pos_site_id
 _symmetry_equiv_pos_as_xyz
  1  'x, y, z'
loop_
 _atom_site_type_symbol
 _atom_site_label
 _atom_site_symmetry_multiplicity
 _atom_site_fract_x
 _atom_site_fract_y
 _atom_site_fract_z
 _atom_site_occupancy
  Tb  Tb0  1  0.000780  0.000780  0.999804  1
  Tb  Tb1  1  0.501170  0.000960  0.749328  1
  Tb  Tb2  1  0.998810  0.499051  0.250686  1
  Tb  Tb3  1  0.499051  0.998810  0.250686  1
  Tb  Tb4  1  0.000960  0.501170  0.749328  1
  Dy  Dy5  1  0.500127  0.500127  0.499161  1
  Si  Si6  1  0.795093  0.204793  0.500154  1
  Si  Si7  1  0.295536  0.704377  0.000125  1
  Si  Si8  1  0.204793  0.795093  0.500154  1
  Si  Si9  1  0.704377  0.295536  0.000125  1
  Si  Si10  1  0.334178  0.334178  0.831889  1
  Si  Si11  1  0.668527  0.668527  0.165367  1
  Si  Si12  1  0.167488  0.167488  0.332990  1
  Si  Si13  1  0.832067  0.832067  0.667338  1
  Si  Si14  1  0.119787  0.885466  0.727796  1
  Si  Si15  1  0.114279  0.879292  0.272297  1
  Si  Si16  1  0.611226  0.376923  0.228441  1
  Si  Si17  1  0.621935  0.388239  0.771865  1
  Si  Si18  1  0.879292  0.114279  0.272297  1
  Si  Si19  1  0.885466  0.119787  0.727796  1
  Si  Si20  1  0.388239  0.621935  0.771865  1
  Si  Si21  1  0.376923  0.611226  0.228441  1
  Si  Si22  1  0.345046  0.110825  0.503707  1
  Si  Si23  1  0.888620  0.655026  0.496937  1
  Si  Si24  1  0.388406  0.154475  0.005954  1
  Si  Si25  1  0.845068  0.611727  0.994905  1
  Si  Si26  1  0.655026  0.888620  0.496937  1
  Si  Si27  1  0.110825  0.345046  0.503707  1
  Si  Si28  1  0.611727  0.845068  0.994905  1
  Si  Si29  1  0.154475  0.388406  0.005954  1
  Os  Os30  1  0.668932  0.331273  0.500054  1
  Os  Os31  1  0.169607  0.830485  0.999725  1
  Os  Os32  1  0.331273  0.668932  0.500054  1
  Os  Os33  1  0.830485  0.169607  0.999725  1
  Os  Os34  1  0.126712  0.126712  0.626811  1
  Os  Os35  1  0.873580  0.873580  0.372843  1
  Os  Os36  1  0.372881  0.372881  0.127985  1
  Ru  Ru37  1  0.627229  0.627229  0.871866  1
