# generated using pymatgen
data_Ce2Fe2CuSi2Ge
_symmetry_space_group_name_H-M   'P 1'
_cell_length_a   8.57804684
_cell_length_b   8.57804665
_cell_length_c   4.07064100
_cell_angle_alpha   90.00000000
_cell_angle_beta   90.00000000
_cell_angle_gamma   152.70405139
_symmetry_Int_Tables_number   1
_chemical_formula_structural   Ce2Fe2CuSi2Ge
_chemical_formula_sum   'Ce2 Fe2 Cu1 Si2 Ge1'
_cell_volume   137.36025638
_cell_formula_units_Z   1
loop_
 _symmetry_equiv_pos_site_id
 _symmetry_equiv_pos_as_xyz
  1  'x, y, z'
loop_
 _atom_site_type_symbol
 _atom_site_label
 _atom_site_symmetry_multiplicity
 _atom_site_fract_x
 _atom_site_fract_y
 _atom_site_fract_z
 _atom_site_occupancy
  Ce  Ce0  1  0.616622  0.383378  0.250000  1
  Ce  Ce1  1  0.384326  0.615674  0.750000  1
  Fe  Fe2  1  0.249067  0.750933  0.250000  1
  Fe  Fe3  1  0.748993  0.251007  0.750000  1
  Cu  Cu4  1  0.038851  0.961149  0.750000  1
  Si  Si5  1  0.814597  0.185403  0.250000  1
  Si  Si6  1  0.182385  0.817615  0.750000  1
  Ge  Ge7  1  0.965160  0.034840  0.250000  1
