# generated using pymatgen
data_Zn3CrP6N13
_symmetry_space_group_name_H-M   'P 1'
_cell_length_a   6.98813288
_cell_length_b   6.99404124
_cell_length_c   6.98813331
_cell_angle_alpha   109.48833604
_cell_angle_beta   109.45408498
_cell_angle_gamma   109.48835669
_symmetry_Int_Tables_number   1
_chemical_formula_structural   Zn3CrP6N13
_chemical_formula_sum   'Zn3 Cr1 P6 N13'
_cell_volume   262.86745710
_cell_formula_units_Z   1
loop_
 _symmetry_equiv_pos_site_id
 _symmetry_equiv_pos_as_xyz
  1  'x, y, z'
loop_
 _atom_site_type_symbol
 _atom_site_label
 _atom_site_symmetry_multiplicity
 _atom_site_fract_x
 _atom_site_fract_y
 _atom_site_fract_z
 _atom_site_occupancy
  Zn  Zn0  1  0.714908  0.001100  0.000000  1
  Zn  Zn1  1  0.000000  0.001100  0.714908  1
  Zn  Zn2  1  0.285092  0.286192  0.285092  1
  Cr  Cr3  1  0.000000  0.710388  0.000000  1
  P  P4  1  0.499751  0.249722  0.748335  1
  P  P5  1  0.500249  0.749971  0.248585  1
  P  P6  1  0.751415  0.501386  0.251665  1
  P  P7  1  0.248585  0.749971  0.500249  1
  P  P8  1  0.748335  0.249722  0.499751  1
  P  P9  1  0.251665  0.501386  0.751415  1
  N  N10  1  0.000000  0.738916  0.458827  1
  N  N11  1  0.272223  0.538761  0.538567  1
  N  N12  1  0.740996  0.461663  0.000000  1
  N  N13  1  0.259004  0.720668  0.259004  1
  N  N14  1  0.461433  0.000195  0.733657  1
  N  N15  1  0.727777  0.266537  0.266343  1
  N  N16  1  0.541173  0.280088  0.541173  1
  N  N17  1  0.733657  0.000195  0.461433  1
  N  N18  1  0.266343  0.266537  0.727777  1
  N  N19  1  0.458827  0.738916  0.000000  1
  N  N20  1  0.538567  0.538761  0.272223  1
  N  N21  1  0.000000  0.461663  0.740996  1
  N  N22  1  0.000000  0.986165  0.000000  1
