# generated using pymatgen
data_Ce8Zn5Cu3Pt3Rh5
_symmetry_space_group_name_H-M   'P 1'
_cell_length_a   3.90199400
_cell_length_b   7.40876594
_cell_length_c   16.35414390
_cell_angle_alpha   90.33079219
_cell_angle_beta   90.00000000
_cell_angle_gamma   90.00000000
_symmetry_Int_Tables_number   1
_chemical_formula_structural   Ce8Zn5Cu3Pt3Rh5
_chemical_formula_sum   'Ce8 Zn5 Cu3 Pt3 Rh5'
_cell_volume   472.77341629
_cell_formula_units_Z   1
loop_
 _symmetry_equiv_pos_site_id
 _symmetry_equiv_pos_as_xyz
  1  'x, y, z'
loop_
 _atom_site_type_symbol
 _atom_site_label
 _atom_site_symmetry_multiplicity
 _atom_site_fract_x
 _atom_site_fract_y
 _atom_site_fract_z
 _atom_site_occupancy
  Ce  Ce0  1  0.250000  0.677904  0.563121  1
  Ce  Ce1  1  0.750000  0.830242  0.056215  1
  Ce  Ce2  1  0.250000  0.053792  0.711630  1
  Ce  Ce3  1  0.250000  0.178891  0.943499  1
  Ce  Ce4  1  0.750000  0.950682  0.281028  1
  Ce  Ce5  1  0.250000  0.560973  0.787179  1
  Ce  Ce6  1  0.750000  0.429677  0.214499  1
  Ce  Ce7  1  0.750000  0.323362  0.443460  1
  Zn  Zn8  1  0.750000  0.386254  0.651812  1
  Zn  Zn9  1  0.750000  0.886211  0.848174  1
  Zn  Zn10  1  0.250000  0.498568  0.056890  1
  Zn  Zn11  1  0.250000  0.608530  0.346562  1
  Zn  Zn12  1  0.250000  0.998047  0.442748  1
  Cu  Cu13  1  0.250000  0.109254  0.152261  1
  Cu  Cu14  1  0.750000  0.504649  0.941553  1
  Cu  Cu15  1  0.750000  0.002199  0.559252  1
  Pt  Pt16  1  0.750000  0.747573  0.435520  1
  Pt  Pt17  1  0.750000  0.258619  0.812028  1
  Pt  Pt18  1  0.250000  0.732362  0.187341  1
  Rh  Rh19  1  0.750000  0.755658  0.687803  1
  Rh  Rh20  1  0.250000  0.761182  0.939625  1
  Rh  Rh21  1  0.250000  0.258932  0.560761  1
  Rh  Rh22  1  0.750000  0.245951  0.060209  1
  Rh  Rh23  1  0.250000  0.240486  0.316828  1
