# generated using pymatgen
data_Dy3PaNiRh3
_symmetry_space_group_name_H-M   'P 1'
_cell_length_a   4.33328300
_cell_length_b   5.55101789
_cell_length_c   6.98187967
_cell_angle_alpha   91.82624377
_cell_angle_beta   90.00000000
_cell_angle_gamma   90.00000000
_symmetry_Int_Tables_number   1
_chemical_formula_structural   Dy3PaNiRh3
_chemical_formula_sum   'Dy3 Pa1 Ni1 Rh3'
_cell_volume   167.85774794
_cell_formula_units_Z   1
loop_
 _symmetry_equiv_pos_site_id
 _symmetry_equiv_pos_as_xyz
  1  'x, y, z'
loop_
 _atom_site_type_symbol
 _atom_site_label
 _atom_site_symmetry_multiplicity
 _atom_site_fract_x
 _atom_site_fract_y
 _atom_site_fract_z
 _atom_site_occupancy
  Dy  Dy0  1  0.750000  0.646724  0.315154  1
  Dy  Dy1  1  0.750000  0.857049  0.827745  1
  Dy  Dy2  1  0.250000  0.145315  0.181934  1
  Pa  Pa3  1  0.250000  0.364843  0.679113  1
  Ni  Ni4  1  0.250000  0.632516  0.027118  1
  Rh  Rh5  1  0.250000  0.827126  0.560289  1
  Rh  Rh6  1  0.750000  0.172553  0.478458  1
  Rh  Rh7  1  0.750000  0.353876  0.930187  1
