# generated using pymatgen
data_Li2Lu5P12Ru17
_symmetry_space_group_name_H-M   'P 1'
_cell_length_a   12.68284300
_cell_length_b   12.46447871
_cell_length_c   3.94004300
_cell_angle_alpha   90.00000000
_cell_angle_beta   90.00000000
_cell_angle_gamma   120.58123617
_symmetry_Int_Tables_number   1
_chemical_formula_structural   Li2Lu5P12Ru17
_chemical_formula_sum   'Li2 Lu5 P12 Ru17'
_cell_volume   536.22713637
_cell_formula_units_Z   1
loop_
 _symmetry_equiv_pos_site_id
 _symmetry_equiv_pos_as_xyz
  1  'x, y, z'
loop_
 _atom_site_type_symbol
 _atom_site_label
 _atom_site_symmetry_multiplicity
 _atom_site_fract_x
 _atom_site_fract_y
 _atom_site_fract_z
 _atom_site_occupancy
  Li  Li0  1  0.000580  0.562305  0.000000  1
  Li  Li1  1  0.438275  0.437695  0.000000  1
  Lu  Lu2  1  0.000492  0.181040  0.500000  1
  Lu  Lu3  1  0.819451  0.818960  0.500000  1
  Lu  Lu4  1  0.181165  0.000000  0.500000  1
  Lu  Lu5  1  0.663563  0.325393  0.000000  1
  Lu  Lu6  1  0.338169  0.674607  0.000000  1
  P  P7  1  0.998264  0.810302  0.000000  1
  P  P8  1  0.187962  0.189698  0.000000  1
  P  P9  1  0.820123  0.000000  0.000000  1
  P  P10  1  0.691499  0.169658  0.500000  1
  P  P11  1  0.815948  0.514050  0.500000  1
  P  P12  1  0.477904  0.301756  0.500000  1
  P  P13  1  0.176148  0.698244  0.500000  1
  P  P14  1  0.521841  0.830342  0.500000  1
  P  P15  1  0.301897  0.485950  0.500000  1
  P  P16  1  0.002532  0.370247  0.000000  1
  P  P17  1  0.632286  0.629753  0.000000  1
  P  P18  1  0.375960  0.000000  0.000000  1
  Ru  Ru19  1  0.557308  0.000000  0.000000  1
  Ru  Ru20  1  0.997906  0.713087  0.500000  1
  Ru  Ru21  1  0.284818  0.286913  0.500000  1
  Ru  Ru22  1  0.719677  0.000000  0.500000  1
  Ru  Ru23  1  0.810595  0.185832  0.000000  1
  Ru  Ru24  1  0.811695  0.615191  0.000000  1
  Ru  Ru25  1  0.376063  0.190135  0.000000  1
  Ru  Ru26  1  0.185928  0.809865  0.000000  1
  Ru  Ru27  1  0.624764  0.814168  0.000000  1
  Ru  Ru28  1  0.196506  0.384809  0.000000  1
  Ru  Ru29  1  0.872241  0.365734  0.500000  1
  Ru  Ru30  1  0.629085  0.509723  0.500000  1
  Ru  Ru31  1  0.492536  0.125170  0.500000  1
  Ru  Ru32  1  0.367366  0.874830  0.500000  1
  Ru  Ru33  1  0.506507  0.634266  0.500000  1
  Ru  Ru34  1  0.119362  0.490277  0.500000  1
  Ru  Ru35  1  0.003582  0.000000  0.000000  1
