# generated using pymatgen
data_YbCeFeIr3
_symmetry_space_group_name_H-M   'P 1'
_cell_length_a   5.47675935
_cell_length_b   5.47675990
_cell_length_c   5.14928882
_cell_angle_alpha   57.87302068
_cell_angle_beta   57.87301764
_cell_angle_gamma   60.00000244
_symmetry_Int_Tables_number   1
_chemical_formula_structural   YbCeFeIr3
_chemical_formula_sum   'Yb1 Ce1 Fe1 Ir3'
_cell_volume   105.57037917
_cell_formula_units_Z   1
loop_
 _symmetry_equiv_pos_site_id
 _symmetry_equiv_pos_as_xyz
  1  'x, y, z'
loop_
 _atom_site_type_symbol
 _atom_site_label
 _atom_site_symmetry_multiplicity
 _atom_site_fract_x
 _atom_site_fract_y
 _atom_site_fract_z
 _atom_site_occupancy
  Yb  Yb0  1  0.750262  0.750262  0.749214  1
  Ce  Ce1  1  0.499337  0.499337  0.501989  1
  Fe  Fe2  1  0.125080  0.125080  0.624759  1
  Ir  Ir3  1  0.124448  0.626424  0.124679  1
  Ir  Ir4  1  0.124448  0.124448  0.124679  1
  Ir  Ir5  1  0.626424  0.124448  0.124679  1
