# generated using pymatgen
data_Nd2YSi6Pd17Pt3
_symmetry_space_group_name_H-M   'P 1'
_cell_length_a   8.77379790
_cell_length_b   8.76238686
_cell_length_c   8.76238648
_cell_angle_alpha   60.02287137
_cell_angle_beta   59.95693412
_cell_angle_gamma   59.95694227
_symmetry_Int_Tables_number   1
_chemical_formula_structural   Nd2YSi6Pd17Pt3
_chemical_formula_sum   'Nd2 Y1 Si6 Pd17 Pt3'
_cell_volume   476.11228797
_cell_formula_units_Z   1
loop_
 _symmetry_equiv_pos_site_id
 _symmetry_equiv_pos_as_xyz
  1  'x, y, z'
loop_
 _atom_site_type_symbol
 _atom_site_label
 _atom_site_symmetry_multiplicity
 _atom_site_fract_x
 _atom_site_fract_y
 _atom_site_fract_z
 _atom_site_occupancy
  Nd  Nd0  1  0.250961  0.248669  0.249408  1
  Nd  Nd1  1  0.749039  0.750592  0.751331  1
  Y  Y2  1  0.000000  0.001651  0.998349  1
  Si  Si3  1  0.731899  0.267534  0.268669  1
  Si  Si4  1  0.268101  0.731331  0.732466  1
  Si  Si5  1  0.265677  0.735926  0.264074  1
  Si  Si6  1  0.736624  0.264358  0.735642  1
  Si  Si7  1  0.263376  0.264358  0.735642  1
  Si  Si8  1  0.734323  0.735926  0.264074  1
  Pd  Pd9  1  0.000000  0.655024  0.344976  1
  Pd  Pd10  1  0.997246  0.346537  0.004214  1
  Pd  Pd11  1  0.655197  0.001071  0.345888  1
  Pd  Pd12  1  0.002157  0.654112  0.998929  1
  Pd  Pd13  1  0.347996  0.995786  0.653463  1
  Pd  Pd14  1  0.997843  0.001071  0.345888  1
  Pd  Pd15  1  0.002754  0.995786  0.653463  1
  Pd  Pd16  1  0.652004  0.346537  0.004214  1
  Pd  Pd17  1  0.344803  0.654112  0.998929  1
  Pd  Pd18  1  0.383995  0.386099  0.384672  1
  Pd  Pd19  1  0.616004  0.615328  0.613901  1
  Pd  Pd20  1  0.385357  0.386293  0.842992  1
  Pd  Pd21  1  0.385141  0.843672  0.386045  1
  Pd  Pd22  1  0.614859  0.613955  0.156328  1
  Pd  Pd23  1  0.614643  0.157008  0.613706  1
  Pd  Pd24  1  0.845234  0.386099  0.384672  1
  Pd  Pd25  1  0.154766  0.615328  0.613901  1
  Pt  Pt26  1  0.345348  0.000636  0.999363  1
  Pt  Pt27  1  0.654652  0.000636  0.999364  1
  Pt  Pt28  1  0.000000  0.344564  0.655436  1
