# generated using pymatgen
data_Hf2Co12Si4P3
_symmetry_space_group_name_H-M   'P 1'
_cell_length_a   9.00328000
_cell_length_b   9.00327896
_cell_length_c   3.53286100
_cell_angle_alpha   90.00000000
_cell_angle_beta   90.00000000
_cell_angle_gamma   120.00000381
_symmetry_Int_Tables_number   1
_chemical_formula_structural   Hf2Co12Si4P3
_chemical_formula_sum   'Hf2 Co12 Si4 P3'
_cell_volume   248.00396780
_cell_formula_units_Z   1
loop_
 _symmetry_equiv_pos_site_id
 _symmetry_equiv_pos_as_xyz
  1  'x, y, z'
loop_
 _atom_site_type_symbol
 _atom_site_label
 _atom_site_symmetry_multiplicity
 _atom_site_fract_x
 _atom_site_fract_y
 _atom_site_fract_z
 _atom_site_occupancy
  Hf  Hf0  1  0.666667  0.333333  0.000000  1
  Hf  Hf1  1  0.000000  0.000000  0.500000  1
  Co  Co2  1  0.770043  0.046482  0.000000  1
  Co  Co3  1  0.953518  0.723561  0.000000  1
  Co  Co4  1  0.276439  0.229957  0.000000  1
  Co  Co5  1  0.488443  0.538797  0.000000  1
  Co  Co6  1  0.461203  0.949646  0.000000  1
  Co  Co7  1  0.050354  0.511557  0.000000  1
  Co  Co8  1  0.715321  0.605256  0.500000  1
  Co  Co9  1  0.394744  0.110065  0.500000  1
  Co  Co10  1  0.889935  0.284679  0.500000  1
  Co  Co11  1  0.565930  0.797618  0.500000  1
  Co  Co12  1  0.202382  0.768314  0.500000  1
  Co  Co13  1  0.231686  0.434070  0.500000  1
  Si  Si14  1  0.739108  0.784055  0.000000  1
  Si  Si15  1  0.215945  0.955053  0.000000  1
  Si  Si16  1  0.044947  0.260892  0.000000  1
  Si  Si17  1  0.333333  0.666667  0.000000  1
  P  P18  1  0.448820  0.375448  0.500000  1
  P  P19  1  0.624552  0.073372  0.500000  1
  P  P20  1  0.926628  0.551180  0.500000  1
