# generated using pymatgen
data_Ho9Tm11Sn16
_symmetry_space_group_name_H-M   'P 1'
_cell_length_a   7.97818030
_cell_length_b   8.10150332
_cell_length_c   15.32386203
_cell_angle_alpha   90.00625876
_cell_angle_beta   89.99729924
_cell_angle_gamma   90.03138465
_symmetry_Int_Tables_number   1
_chemical_formula_structural   Ho9Tm11Sn16
_chemical_formula_sum   'Ho9 Tm11 Sn16'
_cell_volume   990.46156135
_cell_formula_units_Z   1
loop_
 _symmetry_equiv_pos_site_id
 _symmetry_equiv_pos_as_xyz
  1  'x, y, z'
loop_
 _atom_site_type_symbol
 _atom_site_label
 _atom_site_symmetry_multiplicity
 _atom_site_fract_x
 _atom_site_fract_y
 _atom_site_fract_z
 _atom_site_occupancy
  Ho  Ho0  1  0.867674  0.662570  0.877449  1
  Ho  Ho1  1  0.521846  0.321137  0.903528  1
  Ho  Ho2  1  0.021993  0.178543  0.596282  1
  Ho  Ho3  1  0.478138  0.678740  0.403555  1
  Ho  Ho4  1  0.978183  0.821546  0.096958  1
  Ho  Ho5  1  0.478527  0.678536  0.096414  1
  Ho  Ho6  1  0.978094  0.821354  0.403501  1
  Ho  Ho7  1  0.521744  0.321234  0.596415  1
  Ho  Ho8  1  0.022019  0.178355  0.903325  1
  Tm  Tm9  1  0.367123  0.837882  0.876607  1
  Tm  Tm10  1  0.867338  0.661870  0.623057  1
  Tm  Tm11  1  0.632576  0.161919  0.376855  1
  Tm  Tm12  1  0.132512  0.338059  0.123080  1
  Tm  Tm13  1  0.632245  0.161878  0.123752  1
  Tm  Tm14  1  0.132606  0.337886  0.376864  1
  Tm  Tm15  1  0.367624  0.838091  0.622851  1
  Tm  Tm16  1  0.198635  0.503952  0.749730  1
  Tm  Tm17  1  0.698313  0.995995  0.749606  1
  Tm  Tm18  1  0.801280  0.495588  0.250296  1
  Tm  Tm19  1  0.301191  0.004276  0.250013  1
  Sn  Sn20  1  0.293903  0.038349  0.041249  1
  Sn  Sn21  1  0.793896  0.461566  0.458709  1
  Sn  Sn22  1  0.706157  0.961441  0.541138  1
  Sn  Sn23  1  0.207818  0.537841  0.958817  1
  Sn  Sn24  1  0.705060  0.963359  0.958837  1
  Sn  Sn25  1  0.205952  0.538405  0.541214  1
  Sn  Sn26  1  0.293891  0.038523  0.458612  1
  Sn  Sn27  1  0.793579  0.461038  0.042106  1
  Sn  Sn28  1  0.563704  0.620453  0.749577  1
  Sn  Sn29  1  0.064430  0.880250  0.749573  1
  Sn  Sn30  1  0.435669  0.380055  0.250169  1
  Sn  Sn31  1  0.935863  0.119985  0.250124  1
  Sn  Sn32  1  0.331377  0.149231  0.749893  1
  Sn  Sn33  1  0.831232  0.350429  0.749716  1
  Sn  Sn34  1  0.668912  0.850561  0.250050  1
  Sn  Sn35  1  0.168894  0.649103  0.250082  1
