# generated using pymatgen
data_Na2MnSn3O8
_symmetry_space_group_name_H-M   'P 1'
_cell_length_a   6.46405266
_cell_length_b   6.46517587
_cell_length_c   11.39680813
_cell_angle_alpha   90.00095972
_cell_angle_beta   106.45182218
_cell_angle_gamma   120.00802333
_symmetry_Int_Tables_number   1
_chemical_formula_structural   Na2MnSn3O8
_chemical_formula_sum   'Na4 Mn2 Sn6 O16'
_cell_volume   389.76047417
_cell_formula_units_Z   2
loop_
 _symmetry_equiv_pos_site_id
 _symmetry_equiv_pos_as_xyz
  1  'x, y, z'
loop_
 _atom_site_type_symbol
 _atom_site_label
 _atom_site_symmetry_multiplicity
 _atom_site_fract_x
 _atom_site_fract_y
 _atom_site_fract_z
 _atom_site_occupancy
  Na  Na0  1  0.120448  0.060206  0.180601  1
  Na  Na1  1  0.120364  0.560218  0.680602  1
  Na  Na2  1  0.879605  0.439796  0.319419  1
  Na  Na3  1  0.879544  0.939803  0.819417  1
  Mn  Mn4  1  0.500046  0.749924  0.250050  1
  Mn  Mn5  1  0.499946  0.249879  0.749944  1
  Sn  Sn6  1  0.499979  0.000063  0.499977  1
  Sn  Sn7  1  0.499865  0.500149  0.000078  1
  Sn  Sn8  1  0.499934  0.500016  0.500027  1
  Sn  Sn9  1  0.499912  0.999990  0.999939  1
  Sn  Sn10  1  0.999906  0.999997  0.499969  1
  Sn  Sn11  1  0.999919  0.499998  0.999925  1
  O  O12  1  0.263430  0.131783  0.395103  1
  O  O13  1  0.263464  0.631803  0.895116  1
  O  O14  1  0.736587  0.368302  0.104889  1
  O  O15  1  0.736506  0.868311  0.604923  1
  O  O16  1  0.696430  0.348277  0.606567  1
  O  O17  1  0.696343  0.847932  0.106457  1
  O  O18  1  0.258387  0.910006  0.606419  1
  O  O19  1  0.258260  0.410007  0.106354  1
  O  O20  1  0.258101  0.348180  0.606444  1
  O  O21  1  0.258286  0.848288  0.106421  1
  O  O22  1  0.741845  0.151957  0.893608  1
  O  O23  1  0.741772  0.651746  0.393612  1
  O  O24  1  0.741889  0.589966  0.893553  1
  O  O25  1  0.741975  0.089976  0.393593  1
  O  O26  1  0.303633  0.151557  0.893497  1
  O  O27  1  0.303623  0.651871  0.393494  1
