# generated using pymatgen
data_Yb10CdCuPd3Pb
_symmetry_space_group_name_H-M   'P 1'
_cell_length_a   8.99099408
_cell_length_b   8.99099285
_cell_length_c   9.02520087
_cell_angle_alpha   128.13687537
_cell_angle_beta   128.13687834
_cell_angle_gamma   76.16538721
_symmetry_Int_Tables_number   1
_chemical_formula_structural   Yb10CdCuPd3Pb
_chemical_formula_sum   'Yb10 Cd1 Cu1 Pd3 Pb1'
_cell_volume   439.25595871
_cell_formula_units_Z   1
loop_
 _symmetry_equiv_pos_site_id
 _symmetry_equiv_pos_as_xyz
  1  'x, y, z'
loop_
 _atom_site_type_symbol
 _atom_site_label
 _atom_site_symmetry_multiplicity
 _atom_site_fract_x
 _atom_site_fract_y
 _atom_site_fract_z
 _atom_site_occupancy
  Yb  Yb0  1  0.499526  0.500920  0.002290  1
  Yb  Yb1  1  0.999080  0.000474  0.997710  1
  Yb  Yb2  1  0.533324  0.032353  0.836219  1
  Yb  Yb3  1  0.198753  0.694792  0.163933  1
  Yb  Yb4  1  0.031679  0.201888  0.501641  1
  Yb  Yb5  1  0.697992  0.532569  0.498261  1
  Yb  Yb6  1  0.467647  0.966676  0.163781  1
  Yb  Yb7  1  0.805208  0.301247  0.836067  1
  Yb  Yb8  1  0.967431  0.802008  0.501739  1
  Yb  Yb9  1  0.298112  0.468321  0.498359  1
  Cd  Cd10  1  0.750335  0.749665  0.000000  1
  Cu  Cu11  1  0.379102  0.120898  0.500000  1
  Pd  Pd12  1  0.129520  0.629701  0.759276  1
  Pd  Pd13  1  0.870299  0.370480  0.240724  1
  Pd  Pd14  1  0.621632  0.878368  0.500000  1
  Pb  Pb15  1  0.250360  0.249640  0.000000  1
