# generated using pymatgen
data_TmLu2(Sn2Ir)2
_symmetry_space_group_name_H-M   'P 1'
_cell_length_a   7.45595298
_cell_length_b   7.46259599
_cell_length_c   4.16837300
_cell_angle_alpha   90.00000000
_cell_angle_beta   90.00000000
_cell_angle_gamma   119.88721133
_symmetry_Int_Tables_number   1
_chemical_formula_structural   TmLu2(Sn2Ir)2
_chemical_formula_sum   'Tm1 Lu2 Sn4 Ir2'
_cell_volume   201.08643084
_cell_formula_units_Z   1
loop_
 _symmetry_equiv_pos_site_id
 _symmetry_equiv_pos_as_xyz
  1  'x, y, z'
loop_
 _atom_site_type_symbol
 _atom_site_label
 _atom_site_symmetry_multiplicity
 _atom_site_fract_x
 _atom_site_fract_y
 _atom_site_fract_z
 _atom_site_occupancy
  Tm  Tm0  1  0.416526  0.025356  0.500000  1
  Lu  Lu1  1  0.973024  0.389864  0.500000  1
  Lu  Lu2  1  0.610451  0.583339  0.500000  1
  Sn  Sn3  1  0.981340  0.742351  0.000000  1
  Sn  Sn4  1  0.257606  0.239362  0.000000  1
  Sn  Sn5  1  0.761104  0.018891  0.000000  1
  Sn  Sn6  1  0.333155  0.666129  0.000000  1
  Ir  Ir7  1  0.667573  0.334605  0.000000  1
  Ir  Ir8  1  0.999219  0.000104  0.500000  1
