# generated using pymatgen
data_Tb13HoTh2(CdNi)4
_symmetry_space_group_name_H-M   'P 1'
_cell_length_a   9.64098837
_cell_length_b   9.63662258
_cell_length_c   9.64980600
_cell_angle_alpha   59.95472793
_cell_angle_beta   59.96973385
_cell_angle_gamma   59.90024234
_symmetry_Int_Tables_number   1
_chemical_formula_structural   Tb13HoTh2(CdNi)4
_chemical_formula_sum   'Tb13 Ho1 Th2 Cd4 Ni4'
_cell_volume   633.10201164
_cell_formula_units_Z   1
loop_
 _symmetry_equiv_pos_site_id
 _symmetry_equiv_pos_as_xyz
  1  'x, y, z'
loop_
 _atom_site_type_symbol
 _atom_site_label
 _atom_site_symmetry_multiplicity
 _atom_site_fract_x
 _atom_site_fract_y
 _atom_site_fract_z
 _atom_site_occupancy
  Tb  Tb0  1  0.951238  0.348230  0.350266  1
  Tb  Tb1  1  0.811486  0.190294  0.187960  1
  Tb  Tb2  1  0.190087  0.811573  0.810016  1
  Tb  Tb3  1  0.190087  0.811573  0.188325  1
  Tb  Tb4  1  0.811486  0.190294  0.810261  1
  Tb  Tb5  1  0.189870  0.189748  0.810191  1
  Tb  Tb6  1  0.811424  0.811881  0.188348  1
  Tb  Tb7  1  0.937104  0.564710  0.565873  1
  Tb  Tb8  1  0.564633  0.937205  0.932458  1
  Tb  Tb9  1  0.564633  0.937205  0.565703  1
  Tb  Tb10  1  0.937104  0.564710  0.932312  1
  Tb  Tb11  1  0.563829  0.563956  0.936108  1
  Tb  Tb12  1  0.936470  0.936203  0.563664  1
  Ho  Ho13  1  0.348909  0.951693  0.349699  1
  Th  Th14  1  0.343036  0.342628  0.350451  1
  Th  Th15  1  0.343036  0.342628  0.963885  1
  Cd  Cd16  1  0.581421  0.582585  0.579959  1
  Cd  Cd17  1  0.581421  0.582585  0.256033  1
  Cd  Cd18  1  0.582394  0.256562  0.580521  1
  Cd  Cd19  1  0.256418  0.583273  0.580154  1
  Ni  Ni20  1  0.143813  0.142586  0.142676  1
  Ni  Ni21  1  0.143813  0.142586  0.570926  1
  Ni  Ni22  1  0.147172  0.568740  0.142044  1
  Ni  Ni23  1  0.569117  0.146552  0.142166  1
