# generated using pymatgen
data_Pd2Ru2Pb4O13
_symmetry_space_group_name_H-M   'P 1'
_cell_length_a   7.40157167
_cell_length_b   7.35814187
_cell_length_c   7.35814192
_cell_angle_alpha   59.69959227
_cell_angle_beta   59.80456133
_cell_angle_gamma   59.80455811
_symmetry_Int_Tables_number   1
_chemical_formula_structural   Pd2Ru2Pb4O13
_chemical_formula_sum   'Pd2 Ru2 Pb4 O13'
_cell_volume   281.88120920
_cell_formula_units_Z   1
loop_
 _symmetry_equiv_pos_site_id
 _symmetry_equiv_pos_as_xyz
  1  'x, y, z'
loop_
 _atom_site_type_symbol
 _atom_site_label
 _atom_site_symmetry_multiplicity
 _atom_site_fract_x
 _atom_site_fract_y
 _atom_site_fract_z
 _atom_site_occupancy
  Pd  Pd0  1  0.873958  0.377171  0.874911  1
  Pd  Pd1  1  0.873958  0.874911  0.377171  1
  Ru  Ru2  1  0.873754  0.875760  0.875760  1
  Ru  Ru3  1  0.374724  0.875760  0.875760  1
  Pb  Pb4  1  0.883443  0.371083  0.371083  1
  Pb  Pb5  1  0.374392  0.371083  0.371083  1
  Pb  Pb6  1  0.373108  0.374065  0.879718  1
  Pb  Pb7  1  0.373108  0.879718  0.374065  1
  O  O8  1  0.199186  0.800814  0.800814  1
  O  O9  1  0.208916  0.801155  0.196839  1
  O  O10  1  0.554581  0.945419  0.945419  1
  O  O11  1  0.542461  0.946168  0.556326  1
  O  O12  1  0.955045  0.946168  0.556326  1
  O  O13  1  0.793090  0.801155  0.196839  1
  O  O14  1  0.542461  0.556326  0.946168  1
  O  O15  1  0.793090  0.196839  0.801155  1
  O  O16  1  0.789758  0.210242  0.210242  1
  O  O17  1  0.955045  0.556326  0.946168  1
  O  O18  1  0.956056  0.543944  0.543944  1
  O  O19  1  0.208916  0.196839  0.801155  1
  O  O20  1  0.500949  0.499051  0.499051  1
