# generated using pymatgen
data_Pr20Ir3Pt8Rh
_symmetry_space_group_name_H-M   'P 1'
_cell_length_a   11.53689400
_cell_length_b   11.53689400
_cell_length_c   6.60140400
_cell_angle_alpha   90.00000000
_cell_angle_beta   90.00000000
_cell_angle_gamma   90.00000000
_symmetry_Int_Tables_number   1
_chemical_formula_structural   Pr20Ir3Pt8Rh
_chemical_formula_sum   'Pr20 Ir3 Pt8 Rh1'
_cell_volume   878.64636520
_cell_formula_units_Z   1
loop_
 _symmetry_equiv_pos_site_id
 _symmetry_equiv_pos_as_xyz
  1  'x, y, z'
loop_
 _atom_site_type_symbol
 _atom_site_label
 _atom_site_symmetry_multiplicity
 _atom_site_fract_x
 _atom_site_fract_y
 _atom_site_fract_z
 _atom_site_occupancy
  Pr  Pr0  1  0.295012  0.089536  0.376049  1
  Pr  Pr1  1  0.295068  0.910398  0.874215  1
  Pr  Pr2  1  0.704932  0.089602  0.874215  1
  Pr  Pr3  1  0.704988  0.910464  0.376049  1
  Pr  Pr4  1  0.589602  0.795068  0.874215  1
  Pr  Pr5  1  0.589536  0.204988  0.376049  1
  Pr  Pr6  1  0.410464  0.795012  0.376049  1
  Pr  Pr7  1  0.410398  0.204932  0.874215  1
  Pr  Pr8  1  0.204729  0.410649  0.625018  1
  Pr  Pr9  1  0.204727  0.589448  0.124976  1
  Pr  Pr10  1  0.795273  0.410552  0.124976  1
  Pr  Pr11  1  0.795271  0.589351  0.625018  1
  Pr  Pr12  1  0.910552  0.704727  0.124976  1
  Pr  Pr13  1  0.910649  0.295271  0.625018  1
  Pr  Pr14  1  0.089351  0.704729  0.625018  1
  Pr  Pr15  1  0.089448  0.295273  0.124976  1
  Pr  Pr16  1  0.000000  0.000000  0.500073  1
  Pr  Pr17  1  0.000000  0.000000  0.999899  1
  Pr  Pr18  1  0.500000  0.500000  0.999899  1
  Pr  Pr19  1  0.500000  0.500000  0.500073  1
  Ir  Ir20  1  0.500000  0.000000  0.615220  1
  Ir  Ir21  1  0.000000  0.500000  0.885344  1
  Ir  Ir22  1  0.000000  0.500000  0.385314  1
  Pt  Pt23  1  0.845955  0.153508  0.249821  1
  Pt  Pt24  1  0.846117  0.846374  0.749813  1
  Pt  Pt25  1  0.153883  0.153626  0.749813  1
  Pt  Pt26  1  0.154045  0.846492  0.249821  1
  Pt  Pt27  1  0.653626  0.346117  0.749813  1
  Pt  Pt28  1  0.653508  0.654045  0.249821  1
  Pt  Pt29  1  0.346492  0.345955  0.249821  1
  Pt  Pt30  1  0.346374  0.653883  0.749813  1
  Rh  Rh31  1  0.500000  0.000000  0.114611  1
