# generated using pymatgen
data_Lu4Tc(SbRh)6
_symmetry_space_group_name_H-M   'P 1'
_cell_length_a   7.52978359
_cell_length_b   7.52978527
_cell_length_c   7.52978500
_cell_angle_alpha   109.47121721
_cell_angle_beta   109.47122174
_cell_angle_gamma   109.47122260
_symmetry_Int_Tables_number   1
_chemical_formula_structural   Lu4Tc(SbRh)6
_chemical_formula_sum   'Lu4 Tc1 Sb6 Rh6'
_cell_volume   328.64404936
_cell_formula_units_Z   1
loop_
 _symmetry_equiv_pos_site_id
 _symmetry_equiv_pos_as_xyz
  1  'x, y, z'
loop_
 _atom_site_type_symbol
 _atom_site_label
 _atom_site_symmetry_multiplicity
 _atom_site_fract_x
 _atom_site_fract_y
 _atom_site_fract_z
 _atom_site_occupancy
  Lu  Lu0  1  0.500000  0.500000  0.500000  1
  Lu  Lu1  1  0.000000  0.500000  0.000000  1
  Lu  Lu2  1  0.500000  0.000000  0.000000  1
  Lu  Lu3  1  0.000000  0.000000  0.500000  1
  Tc  Tc4  1  0.000000  0.000000  0.000000  1
  Sb  Sb5  1  0.686686  0.000000  0.686686  1
  Sb  Sb6  1  0.686686  0.686686  0.000000  1
  Sb  Sb7  1  0.313314  0.313314  0.000000  1
  Sb  Sb8  1  0.000000  0.686686  0.686686  1
  Sb  Sb9  1  0.000000  0.313314  0.313314  1
  Sb  Sb10  1  0.313314  0.000000  0.313314  1
  Rh  Rh11  1  0.750000  0.500000  0.250000  1
  Rh  Rh12  1  0.500000  0.250000  0.750000  1
  Rh  Rh13  1  0.750000  0.250000  0.500000  1
  Rh  Rh14  1  0.250000  0.750000  0.500000  1
  Rh  Rh15  1  0.250000  0.500000  0.750000  1
  Rh  Rh16  1  0.500000  0.750000  0.250000  1
