# generated using pymatgen
data_Ho16Lu4IrPt11
_symmetry_space_group_name_H-M   'P 1'
_cell_length_a   10.91425100
_cell_length_b   10.91425100
_cell_length_c   6.40190900
_cell_angle_alpha   90.00000000
_cell_angle_beta   90.00000000
_cell_angle_gamma   90.00000000
_symmetry_Int_Tables_number   1
_chemical_formula_structural   Ho16Lu4IrPt11
_chemical_formula_sum   'Ho16 Lu4 Ir1 Pt11'
_cell_volume   762.60100105
_cell_formula_units_Z   1
loop_
 _symmetry_equiv_pos_site_id
 _symmetry_equiv_pos_as_xyz
  1  'x, y, z'
loop_
 _atom_site_type_symbol
 _atom_site_label
 _atom_site_symmetry_multiplicity
 _atom_site_fract_x
 _atom_site_fract_y
 _atom_site_fract_z
 _atom_site_occupancy
  Ho  Ho0  1  0.291088  0.087684  0.377866  1
  Ho  Ho1  1  0.291068  0.911910  0.877415  1
  Ho  Ho2  1  0.708932  0.088090  0.877415  1
  Ho  Ho3  1  0.708912  0.912316  0.377866  1
  Ho  Ho4  1  0.588090  0.791068  0.877415  1
  Ho  Ho5  1  0.587684  0.208912  0.377866  1
  Ho  Ho6  1  0.412316  0.791088  0.377866  1
  Ho  Ho7  1  0.411910  0.208932  0.877415  1
  Ho  Ho8  1  0.207442  0.412895  0.620088  1
  Ho  Ho9  1  0.207843  0.587181  0.125200  1
  Ho  Ho10  1  0.792157  0.412819  0.125200  1
  Ho  Ho11  1  0.792558  0.587105  0.620088  1
  Ho  Ho12  1  0.912819  0.707843  0.125200  1
  Ho  Ho13  1  0.912895  0.292558  0.620088  1
  Ho  Ho14  1  0.087105  0.707442  0.620088  1
  Ho  Ho15  1  0.087181  0.292157  0.125200  1
  Lu  Lu16  1  0.000000  0.000000  0.500400  1
  Lu  Lu17  1  0.000000  0.000000  0.000061  1
  Lu  Lu18  1  0.500000  0.500000  0.000061  1
  Lu  Lu19  1  0.500000  0.500000  0.500400  1
  Ir  Ir20  1  0.000000  0.500000  0.379503  1
  Pt  Pt21  1  0.848252  0.150735  0.249865  1
  Pt  Pt22  1  0.848464  0.848964  0.750365  1
  Pt  Pt23  1  0.151536  0.151036  0.750365  1
  Pt  Pt24  1  0.151748  0.849265  0.249865  1
  Pt  Pt25  1  0.651036  0.348464  0.750365  1
  Pt  Pt26  1  0.650735  0.651748  0.249865  1
  Pt  Pt27  1  0.349265  0.348252  0.249865  1
  Pt  Pt28  1  0.348964  0.651536  0.750365  1
  Pt  Pt29  1  0.500000  0.000000  0.117770  1
  Pt  Pt30  1  0.500000  0.000000  0.618282  1
  Pt  Pt31  1  0.000000  0.500000  0.880323  1
