# generated using pymatgen
data_ScNi2BO5
_symmetry_space_group_name_H-M   'P 1'
_cell_length_a   3.11653900
_cell_length_b   9.36491900
_cell_length_c   12.52469900
_cell_angle_alpha   90.00000000
_cell_angle_beta   90.00000000
_cell_angle_gamma   90.00000000
_symmetry_Int_Tables_number   1
_chemical_formula_structural   ScNi2BO5
_chemical_formula_sum   'Sc4 Ni8 B4 O20'
_cell_volume   365.54755955
_cell_formula_units_Z   4
loop_
 _symmetry_equiv_pos_site_id
 _symmetry_equiv_pos_as_xyz
  1  'x, y, z'
loop_
 _atom_site_type_symbol
 _atom_site_label
 _atom_site_symmetry_multiplicity
 _atom_site_fract_x
 _atom_site_fract_y
 _atom_site_fract_z
 _atom_site_occupancy
  Sc  Sc0  1  0.000000  0.237922  0.383823  1
  Sc  Sc1  1  0.000000  0.762078  0.616177  1
  Sc  Sc2  1  0.000000  0.262078  0.883823  1
  Sc  Sc3  1  0.000000  0.737922  0.116177  1
  Ni  Ni4  1  0.500000  0.000000  0.500000  1
  Ni  Ni5  1  0.500000  0.500000  0.000000  1
  Ni  Ni6  1  0.000000  0.000000  0.000000  1
  Ni  Ni7  1  0.000000  0.500000  0.500000  1
  Ni  Ni8  1  0.500000  0.000736  0.217154  1
  Ni  Ni9  1  0.500000  0.999264  0.782846  1
  Ni  Ni10  1  0.500000  0.499264  0.717154  1
  Ni  Ni11  1  0.500000  0.500736  0.282846  1
  B  B12  1  0.000000  0.275714  0.139560  1
  B  B13  1  0.000000  0.724286  0.860440  1
  B  B14  1  0.000000  0.224286  0.639560  1
  B  B15  1  0.000000  0.775714  0.360440  1
  O  O16  1  0.000000  0.350417  0.043312  1
  O  O17  1  0.000000  0.649583  0.956688  1
  O  O18  1  0.000000  0.149583  0.543312  1
  O  O19  1  0.000000  0.850417  0.456688  1
  O  O20  1  0.500000  0.102008  0.356332  1
  O  O21  1  0.500000  0.897992  0.643668  1
  O  O22  1  0.500000  0.397992  0.856332  1
  O  O23  1  0.500000  0.602008  0.143668  1
  O  O24  1  0.000000  0.351441  0.235269  1
  O  O25  1  0.000000  0.648559  0.764731  1
  O  O26  1  0.000000  0.148559  0.735269  1
  O  O27  1  0.000000  0.851441  0.264731  1
  O  O28  1  0.500000  0.387311  0.423471  1
  O  O29  1  0.500000  0.612689  0.576529  1
  O  O30  1  0.500000  0.112689  0.923471  1
  O  O31  1  0.500000  0.887311  0.076529  1
  O  O32  1  0.000000  0.127101  0.141868  1
  O  O33  1  0.000000  0.872899  0.858132  1
  O  O34  1  0.000000  0.372899  0.641868  1
  O  O35  1  0.000000  0.627101  0.358132  1
