# generated using pymatgen
data_DyMgB6Ir
_symmetry_space_group_name_H-M   'P 1'
_cell_length_a   3.55656200
_cell_length_b   8.92415600
_cell_length_c   11.32733700
_cell_angle_alpha   90.00000000
_cell_angle_beta   90.00000000
_cell_angle_gamma   90.00000000
_symmetry_Int_Tables_number   1
_chemical_formula_structural   DyMgB6Ir
_chemical_formula_sum   'Dy4 Mg4 B24 Ir4'
_cell_volume   359.52190709
_cell_formula_units_Z   4
loop_
 _symmetry_equiv_pos_site_id
 _symmetry_equiv_pos_as_xyz
  1  'x, y, z'
loop_
 _atom_site_type_symbol
 _atom_site_label
 _atom_site_symmetry_multiplicity
 _atom_site_fract_x
 _atom_site_fract_y
 _atom_site_fract_z
 _atom_site_occupancy
  Dy  Dy0  1  0.500000  0.318587  0.414332  1
  Dy  Dy1  1  0.500000  0.681413  0.585668  1
  Dy  Dy2  1  0.500000  0.181413  0.914332  1
  Dy  Dy3  1  0.500000  0.818587  0.085668  1
  Mg  Mg4  1  0.500000  0.448140  0.118394  1
  Mg  Mg5  1  0.500000  0.551860  0.881606  1
  Mg  Mg6  1  0.500000  0.051860  0.618394  1
  Mg  Mg7  1  0.500000  0.948140  0.381606  1
  B  B8  1  0.000000  0.100314  0.472972  1
  B  B9  1  0.000000  0.899686  0.527028  1
  B  B10  1  0.000000  0.399686  0.972972  1
  B  B11  1  0.000000  0.600314  0.027028  1
  B  B12  1  0.000000  0.127667  0.318962  1
  B  B13  1  0.000000  0.872333  0.681038  1
  B  B14  1  0.000000  0.372333  0.818962  1
  B  B15  1  0.000000  0.627667  0.181038  1
  B  B16  1  0.000000  0.055967  0.067144  1
  B  B17  1  0.000000  0.944033  0.932856  1
  B  B18  1  0.000000  0.444033  0.567144  1
  B  B19  1  0.000000  0.555967  0.432856  1
  B  B20  1  0.000000  0.481415  0.284754  1
  B  B21  1  0.000000  0.518585  0.715246  1
  B  B22  1  0.000000  0.018585  0.784754  1
  B  B23  1  0.000000  0.981415  0.215246  1
  B  B24  1  0.000000  0.255600  0.080009  1
  B  B25  1  0.000000  0.744400  0.919991  1
  B  B26  1  0.000000  0.244400  0.580009  1
  B  B27  1  0.000000  0.755600  0.419991  1
  B  B28  1  0.000000  0.293894  0.234805  1
  B  B29  1  0.000000  0.706106  0.765195  1
  B  B30  1  0.000000  0.206106  0.734805  1
  B  B31  1  0.000000  0.793894  0.265195  1
  Ir  Ir32  1  0.500000  0.140866  0.182048  1
  Ir  Ir33  1  0.500000  0.859134  0.817952  1
  Ir  Ir34  1  0.500000  0.359134  0.682048  1
  Ir  Ir35  1  0.500000  0.640866  0.317952  1
