# generated using pymatgen
data_La5Ta2BiO14
_symmetry_space_group_name_H-M   'P 1'
_cell_length_a   6.76438146
_cell_length_b   6.83395589
_cell_length_c   7.79756200
_cell_angle_alpha   90.00000000
_cell_angle_beta   90.00000000
_cell_angle_gamma   111.48090298
_symmetry_Int_Tables_number   1
_chemical_formula_structural   La5Ta2BiO14
_chemical_formula_sum   'La5 Ta2 Bi1 O14'
_cell_volume   335.42389075
_cell_formula_units_Z   1
loop_
 _symmetry_equiv_pos_site_id
 _symmetry_equiv_pos_as_xyz
  1  'x, y, z'
loop_
 _atom_site_type_symbol
 _atom_site_label
 _atom_site_symmetry_multiplicity
 _atom_site_fract_x
 _atom_site_fract_y
 _atom_site_fract_z
 _atom_site_occupancy
  La  La0  1  0.990926  0.999349  0.001013  1
  La  La1  1  0.990926  0.999349  0.498987  1
  La  La2  1  0.517112  0.065424  0.250000  1
  La  La3  1  0.947472  0.486619  0.750000  1
  La  La4  1  0.066453  0.521855  0.250000  1
  Ta  Ta5  1  0.505360  0.505843  0.999140  1
  Ta  Ta6  1  0.505360  0.505843  0.500860  1
  Bi  Bi7  1  0.473521  0.972909  0.750000  1
  O  O8  1  0.835599  0.116458  0.750000  1
  O  O9  1  0.146883  0.891787  0.250000  1
  O  O10  1  0.096733  0.857620  0.750000  1
  O  O11  1  0.887373  0.155643  0.250000  1
  O  O12  1  0.440272  0.182220  0.963958  1
  O  O13  1  0.563832  0.803898  0.462895  1
  O  O14  1  0.191473  0.430792  0.528594  1
  O  O15  1  0.815317  0.558939  0.031404  1
  O  O16  1  0.446597  0.426608  0.250000  1
  O  O17  1  0.567897  0.542995  0.750000  1
  O  O18  1  0.191473  0.430792  0.971406  1
  O  O19  1  0.815317  0.558939  0.468596  1
  O  O20  1  0.440272  0.182220  0.536042  1
  O  O21  1  0.563832  0.803898  0.037105  1
