# generated using pymatgen
data_TlHBr2
_symmetry_space_group_name_H-M   'P 1'
_cell_length_a   6.70223921
_cell_length_b   6.70223952
_cell_length_c   6.70223900
_cell_angle_alpha   112.64701734
_cell_angle_beta   112.64701842
_cell_angle_gamma   103.29085630
_symmetry_Int_Tables_number   1
_chemical_formula_structural   TlHBr2
_chemical_formula_sum   'Tl2 H2 Br4'
_cell_volume   229.76704666
_cell_formula_units_Z   2
loop_
 _symmetry_equiv_pos_site_id
 _symmetry_equiv_pos_as_xyz
  1  'x, y, z'
loop_
 _atom_site_type_symbol
 _atom_site_label
 _atom_site_symmetry_multiplicity
 _atom_site_fract_x
 _atom_site_fract_y
 _atom_site_fract_z
 _atom_site_occupancy
  Tl  Tl0  1  0.250000  0.250000  0.000000  1
  Tl  Tl1  1  0.750000  0.750000  0.000000  1
  H  H2  1  0.500000  0.000000  0.500000  1
  H  H3  1  0.000000  0.500000  0.500000  1
  Br  Br4  1  0.837152  0.337152  0.174303  1
  Br  Br5  1  0.337152  0.162848  0.500000  1
  Br  Br6  1  0.662849  0.837152  0.500000  1
  Br  Br7  1  0.162848  0.662847  0.825697  1
