# generated using pymatgen
data_Tm4Lu16(Bi3Sb)3
_symmetry_space_group_name_H-M   'P 1'
_cell_length_a   8.07777212
_cell_length_b   9.34087300
_cell_length_c   11.77187018
_cell_angle_alpha   90.00000000
_cell_angle_beta   89.97993518
_cell_angle_gamma   90.00000000
_symmetry_Int_Tables_number   1
_chemical_formula_structural   Tm4Lu16(Bi3Sb)3
_chemical_formula_sum   'Tm4 Lu16 Bi9 Sb3'
_cell_volume   888.22808746
_cell_formula_units_Z   1
loop_
 _symmetry_equiv_pos_site_id
 _symmetry_equiv_pos_as_xyz
  1  'x, y, z'
loop_
 _atom_site_type_symbol
 _atom_site_label
 _atom_site_symmetry_multiplicity
 _atom_site_fract_x
 _atom_site_fract_y
 _atom_site_fract_z
 _atom_site_occupancy
  Tm  Tm0  1  0.189049  0.250000  0.780522  1
  Tm  Tm1  1  0.814947  0.750000  0.216907  1
  Tm  Tm2  1  0.315114  0.750000  0.283055  1
  Tm  Tm3  1  0.683461  0.250000  0.715251  1
  Lu  Lu4  1  0.027580  0.250000  0.510957  1
  Lu  Lu5  1  0.972279  0.750000  0.488861  1
  Lu  Lu6  1  0.471542  0.750000  0.011381  1
  Lu  Lu7  1  0.524118  0.250000  0.989102  1
  Lu  Lu8  1  0.355323  0.250000  0.284897  1
  Lu  Lu9  1  0.644612  0.750000  0.715095  1
  Lu  Lu10  1  0.144611  0.750000  0.784628  1
  Lu  Lu11  1  0.854427  0.250000  0.218426  1
  Lu  Lu12  1  0.192451  0.063384  0.060305  1
  Lu  Lu13  1  0.808936  0.930948  0.940746  1
  Lu  Lu14  1  0.310124  0.934392  0.558998  1
  Lu  Lu15  1  0.808936  0.569052  0.940746  1
  Lu  Lu16  1  0.689777  0.065409  0.441192  1
  Lu  Lu17  1  0.192451  0.436616  0.060305  1
  Lu  Lu18  1  0.689777  0.434591  0.441192  1
  Lu  Lu19  1  0.310124  0.565608  0.558998  1
  Bi  Bi20  1  0.905368  0.250000  0.957534  1
  Bi  Bi21  1  0.066854  0.003847  0.325816  1
  Bi  Bi22  1  0.933180  0.996041  0.674253  1
  Bi  Bi23  1  0.433467  0.995593  0.825688  1
  Bi  Bi24  1  0.933180  0.503959  0.674253  1
  Bi  Bi25  1  0.567065  0.004142  0.174314  1
  Bi  Bi26  1  0.066854  0.496153  0.325816  1
  Bi  Bi27  1  0.567065  0.495858  0.174314  1
  Bi  Bi28  1  0.433467  0.504407  0.825688  1
  Sb  Sb29  1  0.404828  0.250000  0.540858  1
  Sb  Sb30  1  0.594706  0.750000  0.458666  1
  Sb  Sb31  1  0.094326  0.750000  0.041237  1
