# generated using pymatgen
data_PrSm3(Ga5Pd3)2
_symmetry_space_group_name_H-M   'P 1'
_cell_length_a   8.72309525
_cell_length_b   8.72148947
_cell_length_c   8.72148937
_cell_angle_alpha   140.70149659
_cell_angle_beta   107.95131819
_cell_angle_gamma   85.29030501
_symmetry_Int_Tables_number   1
_chemical_formula_structural   PrSm3(Ga5Pd3)2
_chemical_formula_sum   'Pr1 Sm3 Ga10 Pd6'
_cell_volume   386.08362761
_cell_formula_units_Z   1
loop_
 _symmetry_equiv_pos_site_id
 _symmetry_equiv_pos_as_xyz
  1  'x, y, z'
loop_
 _atom_site_type_symbol
 _atom_site_label
 _atom_site_symmetry_multiplicity
 _atom_site_fract_x
 _atom_site_fract_y
 _atom_site_fract_z
 _atom_site_occupancy
  Pr  Pr0  1  0.636235  0.861966  0.774269  1
  Sm  Sm1  1  0.363414  0.138039  0.225375  1
  Sm  Sm2  1  0.087150  0.361735  0.725415  1
  Sm  Sm3  1  0.912856  0.638343  0.274514  1
  Ga  Ga4  1  0.289501  0.040419  0.749910  1
  Ga  Ga5  1  0.709907  0.959688  0.250493  1
  Ga  Ga6  1  0.709907  0.459415  0.750220  1
  Ga  Ga7  1  0.289501  0.539591  0.249081  1
  Ga  Ga8  1  0.430307  0.596268  0.834039  1
  Ga  Ga9  1  0.568884  0.403745  0.165139  1
  Ga  Ga10  1  0.762532  0.096929  0.665604  1
  Ga  Ga11  1  0.237840  0.903535  0.334305  1
  Ga  Ga12  1  0.000796  0.749919  0.750133  1
  Ga  Ga13  1  0.000796  0.250663  0.250876  1
  Pd  Pd14  1  0.240340  0.644036  0.596305  1
  Pd  Pd15  1  0.759755  0.355566  0.404188  1
  Pd  Pd16  1  0.047539  0.144263  0.903276  1
  Pd  Pd17  1  0.952859  0.855603  0.097256  1
  Pd  Pd18  1  0.499941  0.749990  0.249652  1
  Pd  Pd19  1  0.499941  0.250289  0.749951  1
