# generated using pymatgen
data_Pr2Al16TcPt8
_symmetry_space_group_name_H-M   'P 1'
_cell_length_a   11.19914181
_cell_length_b   11.19914181
_cell_length_c   11.19914030
_cell_angle_alpha   158.50986318
_cell_angle_beta   116.65363671
_cell_angle_gamma   67.72351940
_symmetry_Int_Tables_number   1
_chemical_formula_structural   Pr2Al16TcPt8
_chemical_formula_sum   'Pr2 Al16 Tc1 Pt8'
_cell_volume   456.72119707
_cell_formula_units_Z   1
loop_
 _symmetry_equiv_pos_site_id
 _symmetry_equiv_pos_as_xyz
  1  'x, y, z'
loop_
 _atom_site_type_symbol
 _atom_site_label
 _atom_site_symmetry_multiplicity
 _atom_site_fract_x
 _atom_site_fract_y
 _atom_site_fract_z
 _atom_site_occupancy
  Pr  Pr0  1  0.231104  0.231018  0.000087  1
  Pr  Pr1  1  0.769068  0.768983  0.000087  1
  Al  Al2  1  0.275820  0.392567  0.883252  1
  Al  Al3  1  0.090151  0.923917  0.166235  1
  Al  Al4  1  0.505368  0.201095  0.304273  1
  Al  Al5  1  0.242318  0.076083  0.166235  1
  Al  Al6  1  0.907779  0.415848  0.491932  1
  Al  Al7  1  0.722726  0.598058  0.124666  1
  Al  Al8  1  0.901692  0.208309  0.693383  1
  Al  Al9  1  0.485076  0.791692  0.693383  1
  Al  Al10  1  0.387373  0.000000  0.387373  1
  Al  Al11  1  0.627128  0.000000  0.627128  1
  Al  Al12  1  0.490686  0.607432  0.883252  1
  Al  Al13  1  0.103177  0.798904  0.304273  1
  Al  Al14  1  0.906368  0.085265  0.821102  1
  Al  Al15  1  0.735838  0.914736  0.821102  1
  Al  Al16  1  0.526607  0.401940  0.124666  1
  Al  Al17  1  0.076084  0.584153  0.491932  1
  Tc  Tc18  1  0.784375  0.500001  0.284376  1
  Pt  Pt19  1  0.027399  0.343551  0.683848  1
  Pt  Pt20  1  0.625896  0.123536  0.502358  1
  Pt  Pt21  1  0.252099  0.500000  0.752099  1
  Pt  Pt22  1  0.378822  0.876462  0.502358  1
  Pt  Pt23  1  0.985845  0.000002  0.985847  1
  Pt  Pt24  1  0.646203  0.335751  0.310452  1
  Pt  Pt25  1  0.340298  0.656449  0.683848  1
  Pt  Pt26  1  0.974701  0.664249  0.310452  1
