# generated using pymatgen
data_TaBe9VW
_symmetry_space_group_name_H-M   'P 1'
_cell_length_a   7.34753752
_cell_length_b   7.34753654
_cell_length_c   7.34753583
_cell_angle_alpha   35.01037954
_cell_angle_beta   35.01038999
_cell_angle_gamma   35.01039694
_symmetry_Int_Tables_number   1
_chemical_formula_structural   TaBe9VW
_chemical_formula_sum   'Ta1 Be9 V1 W1'
_cell_volume   116.58264300
_cell_formula_units_Z   1
loop_
 _symmetry_equiv_pos_site_id
 _symmetry_equiv_pos_as_xyz
  1  'x, y, z'
loop_
 _atom_site_type_symbol
 _atom_site_label
 _atom_site_symmetry_multiplicity
 _atom_site_fract_x
 _atom_site_fract_y
 _atom_site_fract_z
 _atom_site_occupancy
  Ta  Ta0  1  0.999094  0.999094  0.999094  1
  Be  Be1  1  0.414649  0.921759  0.414649  1
  Be  Be2  1  0.414649  0.414649  0.921759  1
  Be  Be3  1  0.921759  0.414649  0.414649  1
  Be  Be4  1  0.585742  0.077622  0.585742  1
  Be  Be5  1  0.585742  0.585742  0.077622  1
  Be  Be6  1  0.077622  0.585742  0.585742  1
  Be  Be7  1  0.666569  0.666569  0.666569  1
  Be  Be8  1  0.334965  0.334965  0.334965  1
  Be  Be9  1  0.499730  0.499730  0.499730  1
  V  V10  1  0.142865  0.142865  0.142865  1
  W  W11  1  0.856614  0.856614  0.856614  1
