# generated using pymatgen
data_DyLu5(TeO6)3
_symmetry_space_group_name_H-M   'P 1'
_cell_length_a   9.03675600
_cell_length_b   9.03615410
_cell_length_c   5.11813316
_cell_angle_alpha   89.97541178
_cell_angle_beta   90.00000000
_cell_angle_gamma   120.00220348
_symmetry_Int_Tables_number   1
_chemical_formula_structural   DyLu5(TeO6)3
_chemical_formula_sum   'Dy1 Lu5 Te3 O18'
_cell_volume   361.93343144
_cell_formula_units_Z   1
loop_
 _symmetry_equiv_pos_site_id
 _symmetry_equiv_pos_as_xyz
  1  'x, y, z'
loop_
 _atom_site_type_symbol
 _atom_site_label
 _atom_site_symmetry_multiplicity
 _atom_site_fract_x
 _atom_site_fract_y
 _atom_site_fract_z
 _atom_site_occupancy
  Dy  Dy0  1  0.619997  0.000000  0.000000  1
  Lu  Lu1  1  0.000261  0.622895  0.000110  1
  Lu  Lu2  1  0.000423  0.285461  0.499947  1
  Lu  Lu3  1  0.377366  0.377105  0.999890  1
  Lu  Lu4  1  0.284464  0.000000  0.500000  1
  Lu  Lu5  1  0.714963  0.714539  0.500053  1
  Te  Te6  1  0.331852  0.664869  0.502599  1
  Te  Te7  1  0.001270  0.000000  0.000000  1
  Te  Te8  1  0.666984  0.335131  0.497401  1
  O  O9  1  0.082886  0.877824  0.787165  1
  O  O10  1  0.222303  0.761314  0.284048  1
  O  O11  1  0.128521  0.540052  0.719554  1
  O  O12  1  0.407304  0.868616  0.714812  1
  O  O13  1  0.237820  0.459620  0.286084  1
  O  O14  1  0.122595  0.204377  0.786500  1
  O  O15  1  0.205063  0.122176  0.212835  1
  O  O16  1  0.538815  0.774869  0.290010  1
  O  O17  1  0.458470  0.588356  0.721417  1
  O  O18  1  0.798986  0.917956  0.784406  1
  O  O19  1  0.460990  0.238686  0.715952  1
  O  O20  1  0.588469  0.459948  0.280446  1
  O  O21  1  0.538689  0.131384  0.285188  1
  O  O22  1  0.778200  0.540380  0.713916  1
  O  O23  1  0.918220  0.795623  0.213500  1
  O  O24  1  0.763946  0.225131  0.709990  1
  O  O25  1  0.870113  0.411644  0.278583  1
  O  O26  1  0.881031  0.082044  0.215594  1
