# generated using pymatgen
data_Tb14Tm2MgCo4Ag3
_symmetry_space_group_name_H-M   'P 1'
_cell_length_a   9.42292520
_cell_length_b   9.42026966
_cell_length_c   9.42027041
_cell_angle_alpha   60.47596582
_cell_angle_beta   60.34808110
_cell_angle_gamma   60.34808004
_symmetry_Int_Tables_number   1
_chemical_formula_structural   Tb14Tm2MgCo4Ag3
_chemical_formula_sum   'Tb14 Tm2 Mg1 Co4 Ag3'
_cell_volume   596.50859738
_cell_formula_units_Z   1
loop_
 _symmetry_equiv_pos_site_id
 _symmetry_equiv_pos_as_xyz
  1  'x, y, z'
loop_
 _atom_site_type_symbol
 _atom_site_label
 _atom_site_symmetry_multiplicity
 _atom_site_fract_x
 _atom_site_fract_y
 _atom_site_fract_z
 _atom_site_occupancy
  Tb  Tb0  1  0.184485  0.814413  0.185932  1
  Tb  Tb1  1  0.810407  0.188133  0.812485  1
  Tb  Tb2  1  0.184485  0.185932  0.814413  1
  Tb  Tb3  1  0.810407  0.812485  0.188133  1
  Tb  Tb4  1  0.935437  0.562349  0.562350  1
  Tb  Tb5  1  0.562123  0.938007  0.938008  1
  Tb  Tb6  1  0.561588  0.937823  0.562245  1
  Tb  Tb7  1  0.936656  0.562502  0.938308  1
  Tb  Tb8  1  0.561588  0.562244  0.937824  1
  Tb  Tb9  1  0.936656  0.938307  0.562503  1
  Tb  Tb10  1  0.347168  0.345331  0.345331  1
  Tb  Tb11  1  0.345981  0.347233  0.961772  1
  Tb  Tb12  1  0.345981  0.961772  0.347233  1
  Tb  Tb13  1  0.950361  0.349757  0.349757  1
  Tm  Tm14  1  0.809450  0.188890  0.188890  1
  Tm  Tm15  1  0.185463  0.813512  0.813512  1
  Mg  Mg16  1  0.289010  0.570769  0.570769  1
  Co  Co17  1  0.138703  0.141626  0.141626  1
  Co  Co18  1  0.140037  0.141856  0.577486  1
  Co  Co19  1  0.140037  0.577486  0.141856  1
  Co  Co20  1  0.576990  0.141914  0.141914  1
  Ag  Ag21  1  0.582019  0.583141  0.583141  1
  Ag  Ag22  1  0.582486  0.582421  0.252096  1
  Ag  Ag23  1  0.582486  0.252096  0.582421  1
