# generated using pymatgen
data_Dy4Hf2ScAlPt4
_symmetry_space_group_name_H-M   'P 1'
_cell_length_a   4.57702800
_cell_length_b   7.06618634
_cell_length_c   8.17290131
_cell_angle_alpha   87.14269034
_cell_angle_beta   90.00000000
_cell_angle_gamma   90.00000000
_symmetry_Int_Tables_number   1
_chemical_formula_structural   Dy4Hf2ScAlPt4
_chemical_formula_sum   'Dy4 Hf2 Sc1 Al1 Pt4'
_cell_volume   264.00043893
_cell_formula_units_Z   1
loop_
 _symmetry_equiv_pos_site_id
 _symmetry_equiv_pos_as_xyz
  1  'x, y, z'
loop_
 _atom_site_type_symbol
 _atom_site_label
 _atom_site_symmetry_multiplicity
 _atom_site_fract_x
 _atom_site_fract_y
 _atom_site_fract_z
 _atom_site_occupancy
  Dy  Dy0  1  0.250000  0.469535  0.185976  1
  Dy  Dy1  1  0.750000  0.516955  0.816374  1
  Dy  Dy2  1  0.750000  0.038493  0.672452  1
  Dy  Dy3  1  0.250000  0.989561  0.336042  1
  Hf  Hf4  1  0.250000  0.858110  0.926336  1
  Hf  Hf5  1  0.750000  0.641920  0.435157  1
  Sc  Sc6  1  0.750000  0.135779  0.071364  1
  Al  Al7  1  0.250000  0.358237  0.570543  1
  Pt  Pt8  1  0.250000  0.725772  0.609052  1
  Pt  Pt9  1  0.750000  0.272271  0.387050  1
  Pt  Pt10  1  0.750000  0.758845  0.101041  1
  Pt  Pt11  1  0.250000  0.234524  0.888613  1
