# generated using pymatgen
data_Tb4Y8Co4NiSn
_symmetry_space_group_name_H-M   'P 1'
_cell_length_a   8.32588839
_cell_length_b   8.32588908
_cell_length_c   8.32588810
_cell_angle_alpha   110.73716761
_cell_angle_beta   110.63865583
_cell_angle_gamma   107.06433829
_symmetry_Int_Tables_number   1
_chemical_formula_structural   Tb4Y8Co4NiSn
_chemical_formula_sum   'Tb4 Y8 Co4 Ni1 Sn1'
_cell_volume   443.70812923
_cell_formula_units_Z   1
loop_
 _symmetry_equiv_pos_site_id
 _symmetry_equiv_pos_as_xyz
  1  'x, y, z'
loop_
 _atom_site_type_symbol
 _atom_site_label
 _atom_site_symmetry_multiplicity
 _atom_site_fract_x
 _atom_site_fract_y
 _atom_site_fract_z
 _atom_site_occupancy
  Tb  Tb0  1  0.405289  0.208586  0.196703  1
  Tb  Tb1  1  0.594711  0.791414  0.803297  1
  Tb  Tb2  1  0.011884  0.208586  0.803297  1
  Tb  Tb3  1  0.988116  0.791414  0.196703  1
  Y  Y4  1  0.186887  0.293752  0.480639  1
  Y  Y5  1  0.813113  0.706248  0.519361  1
  Y  Y6  1  0.186887  0.706248  0.893134  1
  Y  Y7  1  0.813113  0.293752  0.106866  1
  Y  Y8  1  0.313789  0.618445  0.304657  1
  Y  Y9  1  0.686211  0.381555  0.695343  1
  Y  Y10  1  0.313789  0.009132  0.695343  1
  Y  Y11  1  0.686211  0.990868  0.304657  1
  Co  Co12  1  0.377354  0.000000  0.377354  1
  Co  Co13  1  0.622646  0.000000  0.622646  1
  Co  Co14  1  0.111872  0.611872  0.500000  1
  Co  Co15  1  0.888128  0.388128  0.500000  1
  Ni  Ni16  1  0.000000  0.000000  0.000000  1
  Sn  Sn17  1  0.500000  0.500000  0.000000  1
