# generated using pymatgen
data_IrRu2RhF24
_symmetry_space_group_name_H-M   'P 1'
_cell_length_a   5.17133461
_cell_length_b   8.82597800
_cell_length_c   9.81800764
_cell_angle_alpha   90.00000000
_cell_angle_beta   89.85191367
_cell_angle_gamma   90.00000000
_symmetry_Int_Tables_number   1
_chemical_formula_structural   IrRu2RhF24
_chemical_formula_sum   'Ir1 Ru2 Rh1 F24'
_cell_volume   448.11284727
_cell_formula_units_Z   1
loop_
 _symmetry_equiv_pos_site_id
 _symmetry_equiv_pos_as_xyz
  1  'x, y, z'
loop_
 _atom_site_type_symbol
 _atom_site_label
 _atom_site_symmetry_multiplicity
 _atom_site_fract_x
 _atom_site_fract_y
 _atom_site_fract_z
 _atom_site_occupancy
  Ir  Ir0  1  0.093871  0.750000  0.627397  1
  Ru  Ru1  1  0.905574  0.250000  0.372310  1
  Ru  Ru2  1  0.406466  0.750000  0.127101  1
  Rh  Rh3  1  0.593744  0.250000  0.873069  1
  F  F4  1  0.247885  0.600002  0.518991  1
  F  F5  1  0.253546  0.898808  0.019959  1
  F  F6  1  0.940321  0.899962  0.735852  1
  F  F7  1  0.194148  0.250000  0.484875  1
  F  F8  1  0.746475  0.100074  0.981009  1
  F  F9  1  0.558966  0.898657  0.234602  1
  F  F10  1  0.304035  0.250000  0.987772  1
  F  F11  1  0.247885  0.899998  0.518991  1
  F  F12  1  0.751873  0.398914  0.479796  1
  F  F13  1  0.441771  0.399944  0.764943  1
  F  F14  1  0.746475  0.399926  0.981009  1
  F  F15  1  0.804149  0.750000  0.512779  1
  F  F16  1  0.695034  0.750000  0.013944  1
  F  F17  1  0.253546  0.601192  0.019959  1
  F  F18  1  0.441771  0.100056  0.764943  1
  F  F19  1  0.059232  0.398812  0.264849  1
  F  F20  1  0.616366  0.250000  0.260064  1
  F  F21  1  0.558966  0.601343  0.234602  1
  F  F22  1  0.884293  0.250000  0.758639  1
  F  F23  1  0.117789  0.750000  0.240330  1
  F  F24  1  0.059232  0.101188  0.264849  1
  F  F25  1  0.940321  0.600038  0.735852  1
  F  F26  1  0.384399  0.750000  0.741712  1
  F  F27  1  0.751873  0.101086  0.479796  1
