# generated using pymatgen
data_Tm3In4HgRu
_symmetry_space_group_name_H-M   'P 1'
_cell_length_a   8.19089600
_cell_length_b   8.19089685
_cell_length_c   3.66157800
_cell_angle_alpha   90.00000000
_cell_angle_beta   90.00000000
_cell_angle_gamma   119.99999656
_symmetry_Int_Tables_number   1
_chemical_formula_structural   Tm3In4HgRu
_chemical_formula_sum   'Tm3 In4 Hg1 Ru1'
_cell_volume   212.74619698
_cell_formula_units_Z   1
loop_
 _symmetry_equiv_pos_site_id
 _symmetry_equiv_pos_as_xyz
  1  'x, y, z'
loop_
 _atom_site_type_symbol
 _atom_site_label
 _atom_site_symmetry_multiplicity
 _atom_site_fract_x
 _atom_site_fract_y
 _atom_site_fract_z
 _atom_site_occupancy
  Tm  Tm0  1  0.287882  0.253812  0.500000  1
  Tm  Tm1  1  0.746188  0.034069  0.500000  1
  Tm  Tm2  1  0.965931  0.712118  0.500000  1
  In  In3  1  0.045519  0.377608  0.000000  1
  In  In4  1  0.622392  0.667911  0.000000  1
  In  In5  1  0.332089  0.954481  0.000000  1
  In  In6  1  0.666667  0.333333  0.000000  1
  Hg  Hg7  1  0.333333  0.666667  0.500000  1
  Ru  Ru8  1  0.000000  0.000000  0.000000  1
