# generated using pymatgen
data_Dy5Ho3Tl2(CdAu4)2
_symmetry_space_group_name_H-M   'P 1'
_cell_length_a   8.00933003
_cell_length_b   8.00948649
_cell_length_c   7.34599500
_cell_angle_alpha   89.99562922
_cell_angle_beta   90.00472140
_cell_angle_gamma   89.95501921
_symmetry_Int_Tables_number   1
_chemical_formula_structural   Dy5Ho3Tl2(CdAu4)2
_chemical_formula_sum   'Dy5 Ho3 Tl2 Cd2 Au8'
_cell_volume   471.24999042
_cell_formula_units_Z   1
loop_
 _symmetry_equiv_pos_site_id
 _symmetry_equiv_pos_as_xyz
  1  'x, y, z'
loop_
 _atom_site_type_symbol
 _atom_site_label
 _atom_site_symmetry_multiplicity
 _atom_site_fract_x
 _atom_site_fract_y
 _atom_site_fract_z
 _atom_site_occupancy
  Dy  Dy0  1  0.840063  0.160207  0.499996  1
  Dy  Dy1  1  0.160217  0.840054  0.500005  1
  Dy  Dy2  1  0.339774  0.339769  0.999996  1
  Dy  Dy3  1  0.659949  0.659939  0.000002  1
  Dy  Dy4  1  0.681375  0.681389  0.500009  1
  Ho  Ho5  1  0.318759  0.318820  0.499983  1
  Ho  Ho6  1  0.181307  0.819031  0.000001  1
  Ho  Ho7  1  0.819057  0.181288  0.000006  1
  Tl  Tl8  1  0.499902  0.000017  0.750039  1
  Tl  Tl9  1  0.000080  0.500060  0.249961  1
  Cd  Cd10  1  0.499971  0.000080  0.249701  1
  Cd  Cd11  1  0.999924  0.499855  0.750300  1
  Au  Au12  1  0.623920  0.367315  0.271026  1
  Au  Au13  1  0.375363  0.631997  0.270966  1
  Au  Au14  1  0.124315  0.132416  0.771250  1
  Au  Au15  1  0.876237  0.868019  0.772272  1
  Au  Au16  1  0.367337  0.623902  0.728959  1
  Au  Au17  1  0.632026  0.375344  0.729051  1
  Au  Au18  1  0.868006  0.876216  0.227731  1
  Au  Au19  1  0.132415  0.124281  0.228745  1
