# generated using pymatgen
data_Ho8Er2Ir3Ru
_symmetry_space_group_name_H-M   'P 1'
_cell_length_a   6.42724420
_cell_length_b   7.22149645
_cell_length_c   8.43671727
_cell_angle_alpha   96.59772378
_cell_angle_beta   112.05956167
_cell_angle_gamma   90.03944590
_symmetry_Int_Tables_number   1
_chemical_formula_structural   Ho8Er2Ir3Ru
_chemical_formula_sum   'Ho8 Er2 Ir3 Ru1'
_cell_volume   360.10568095
_cell_formula_units_Z   1
loop_
 _symmetry_equiv_pos_site_id
 _symmetry_equiv_pos_as_xyz
  1  'x, y, z'
loop_
 _atom_site_type_symbol
 _atom_site_label
 _atom_site_symmetry_multiplicity
 _atom_site_fract_x
 _atom_site_fract_y
 _atom_site_fract_z
 _atom_site_occupancy
  Ho  Ho0  1  0.791599  0.582604  0.814744  1
  Ho  Ho1  1  0.974568  0.917714  0.183685  1
  Ho  Ho2  1  0.208786  0.417342  0.182419  1
  Ho  Ho3  1  0.025932  0.084114  0.815510  1
  Ho  Ho4  1  0.210190  0.682251  0.561996  1
  Ho  Ho5  1  0.649692  0.816564  0.439155  1
  Ho  Ho6  1  0.789525  0.315913  0.439952  1
  Ho  Ho7  1  0.348742  0.184109  0.561317  1
  Er  Er8  1  0.425383  0.748865  0.999156  1
  Er  Er9  1  0.574402  0.249960  0.000117  1
  Ir  Ir10  1  0.605726  0.925715  0.779690  1
  Ir  Ir11  1  0.824788  0.575234  0.220344  1
  Ir  Ir12  1  0.395676  0.073940  0.220015  1
  Ru  Ru13  1  0.174990  0.425675  0.781899  1
