# generated using pymatgen
data_Sr3Yb2(ReN3)2
_symmetry_space_group_name_H-M   'P 1'
_cell_length_a   6.21076299
_cell_length_b   6.96060670
_cell_length_c   12.33360657
_cell_angle_alpha   89.99999872
_cell_angle_beta   103.17178053
_cell_angle_gamma   124.08114245
_symmetry_Int_Tables_number   1
_chemical_formula_structural   Sr3Yb2(ReN3)2
_chemical_formula_sum   'Sr6 Yb4 Re4 N12'
_cell_volume   424.56944319
_cell_formula_units_Z   2
loop_
 _symmetry_equiv_pos_site_id
 _symmetry_equiv_pos_as_xyz
  1  'x, y, z'
loop_
 _atom_site_type_symbol
 _atom_site_label
 _atom_site_symmetry_multiplicity
 _atom_site_fract_x
 _atom_site_fract_y
 _atom_site_fract_z
 _atom_site_occupancy
  Sr  Sr0  1  0.329373  0.037082  0.729870  1
  Sr  Sr1  1  0.670627  0.707709  0.770130  1
  Sr  Sr2  1  0.670627  0.962918  0.270130  1
  Sr  Sr3  1  0.329373  0.292291  0.229870  1
  Sr  Sr4  1  0.000000  0.390853  0.750000  1
  Sr  Sr5  1  0.000000  0.609147  0.250000  1
  Yb  Yb6  1  0.112271  0.805569  0.001802  1
  Yb  Yb7  1  0.887729  0.693297  0.498198  1
  Yb  Yb8  1  0.887729  0.194431  0.998198  1
  Yb  Yb9  1  0.112271  0.306703  0.501802  1
  Re  Re10  1  0.517868  0.842107  0.527952  1
  Re  Re11  1  0.482132  0.324240  0.972048  1
  Re  Re12  1  0.482132  0.157893  0.472048  1
  Re  Re13  1  0.517868  0.675760  0.027952  1
  N  N14  1  0.881359  0.978965  0.612945  1
  N  N15  1  0.118641  0.097606  0.887055  1
  N  N16  1  0.118641  0.021035  0.387055  1
  N  N17  1  0.881359  0.902394  0.112945  1
  N  N18  1  0.267835  0.669840  0.614298  1
  N  N19  1  0.732165  0.402004  0.885702  1
  N  N20  1  0.732165  0.330160  0.385702  1
  N  N21  1  0.267835  0.597996  0.114298  1
  N  N22  1  0.566401  0.358533  0.600404  1
  N  N23  1  0.433599  0.792132  0.899596  1
  N  N24  1  0.433599  0.641467  0.399596  1
  N  N25  1  0.566401  0.207868  0.100404  1
