# generated using pymatgen
data_YbTm7(Sc3Sn4)4
_symmetry_space_group_name_H-M   'P 1'
_cell_length_a   7.64090044
_cell_length_b   7.93952471
_cell_length_c   14.80859504
_cell_angle_alpha   90.02197305
_cell_angle_beta   89.75127671
_cell_angle_gamma   90.13588590
_symmetry_Int_Tables_number   1
_chemical_formula_structural   YbTm7(Sc3Sn4)4
_chemical_formula_sum   'Yb1 Tm7 Sc12 Sn16'
_cell_volume   898.35410917
_cell_formula_units_Z   1
loop_
 _symmetry_equiv_pos_site_id
 _symmetry_equiv_pos_as_xyz
  1  'x, y, z'
loop_
 _atom_site_type_symbol
 _atom_site_label
 _atom_site_symmetry_multiplicity
 _atom_site_fract_x
 _atom_site_fract_y
 _atom_site_fract_z
 _atom_site_occupancy
  Yb  Yb0  1  0.993476  0.177720  0.092585  1
  Tm  Tm1  1  0.005976  0.820526  0.905734  1
  Tm  Tm2  1  0.506313  0.678459  0.905779  1
  Tm  Tm3  1  0.005881  0.821579  0.593613  1
  Tm  Tm4  1  0.494044  0.321578  0.094100  1
  Tm  Tm5  1  0.994485  0.178824  0.406512  1
  Tm  Tm6  1  0.494014  0.321361  0.406880  1
  Tm  Tm7  1  0.506058  0.678259  0.593667  1
  Sc  Sc8  1  0.165498  0.496777  0.749932  1
  Sc  Sc9  1  0.834530  0.503664  0.250581  1
  Sc  Sc10  1  0.334716  0.996740  0.250424  1
  Sc  Sc11  1  0.665188  0.003690  0.749732  1
  Sc  Sc12  1  0.336866  0.160752  0.627401  1
  Sc  Sc13  1  0.663314  0.839351  0.372607  1
  Sc  Sc14  1  0.163246  0.660480  0.373151  1
  Sc  Sc15  1  0.663814  0.839202  0.127529  1
  Sc  Sc16  1  0.836871  0.339006  0.627412  1
  Sc  Sc17  1  0.336130  0.160690  0.872281  1
  Sc  Sc18  1  0.835681  0.339594  0.872427  1
  Sc  Sc19  1  0.164137  0.660322  0.127413  1
  Sn  Sn20  1  0.027169  0.122604  0.750420  1
  Sn  Sn21  1  0.972641  0.876829  0.250583  1
  Sn  Sn22  1  0.472045  0.622507  0.249956  1
  Sn  Sn23  1  0.527657  0.377414  0.750125  1
  Sn  Sn24  1  0.307738  0.847619  0.749790  1
  Sn  Sn25  1  0.691561  0.151860  0.250926  1
  Sn  Sn26  1  0.193701  0.348426  0.250901  1
  Sn  Sn27  1  0.807772  0.652384  0.749935  1
  Sn  Sn28  1  0.182988  0.457821  0.542345  1
  Sn  Sn29  1  0.816822  0.542246  0.457997  1
  Sn  Sn30  1  0.317146  0.957958  0.457968  1
  Sn  Sn31  1  0.817354  0.543990  0.041732  1
  Sn  Sn32  1  0.683202  0.041979  0.542124  1
  Sn  Sn33  1  0.182543  0.459729  0.956845  1
  Sn  Sn34  1  0.678587  0.040254  0.956990  1
  Sn  Sn35  1  0.320836  0.957806  0.041601  1
