# generated using pymatgen
data_Dy19YBi11Sb
_symmetry_space_group_name_H-M   'P 1'
_cell_length_a   8.24767075
_cell_length_b   9.52883400
_cell_length_c   12.04717703
_cell_angle_alpha   90.00000000
_cell_angle_beta   90.04139938
_cell_angle_gamma   90.00000000
_symmetry_Int_Tables_number   1
_chemical_formula_structural   Dy19YBi11Sb
_chemical_formula_sum   'Dy19 Y1 Bi11 Sb1'
_cell_volume   946.79565352
_cell_formula_units_Z   1
loop_
 _symmetry_equiv_pos_site_id
 _symmetry_equiv_pos_as_xyz
  1  'x, y, z'
loop_
 _atom_site_type_symbol
 _atom_site_label
 _atom_site_symmetry_multiplicity
 _atom_site_fract_x
 _atom_site_fract_y
 _atom_site_fract_z
 _atom_site_occupancy
  Dy  Dy0  1  0.852506  0.750000  0.284286  1
  Dy  Dy1  1  0.647656  0.250000  0.784399  1
  Dy  Dy2  1  0.147584  0.250000  0.715747  1
  Dy  Dy3  1  0.690144  0.565817  0.057363  1
  Dy  Dy4  1  0.192641  0.936175  0.441413  1
  Dy  Dy5  1  0.308549  0.060176  0.941565  1
  Dy  Dy6  1  0.807362  0.436426  0.558525  1
  Dy  Dy7  1  0.308549  0.439824  0.941565  1
  Dy  Dy8  1  0.807362  0.063574  0.558525  1
  Dy  Dy9  1  0.690144  0.934183  0.057363  1
  Dy  Dy10  1  0.192641  0.563825  0.441413  1
  Dy  Dy11  1  0.474997  0.250000  0.487928  1
  Dy  Dy12  1  0.975526  0.250000  0.011806  1
  Dy  Dy13  1  0.525184  0.750000  0.512160  1
  Dy  Dy14  1  0.028254  0.750000  0.987776  1
  Dy  Dy15  1  0.312949  0.250000  0.218861  1
  Dy  Dy16  1  0.812722  0.250000  0.281209  1
  Dy  Dy17  1  0.683204  0.750000  0.783609  1
  Dy  Dy18  1  0.188572  0.750000  0.720341  1
  Y  Y19  1  0.353071  0.750000  0.212570  1
  Bi  Bi20  1  0.907755  0.750000  0.543372  1
  Bi  Bi21  1  0.592882  0.250000  0.043016  1
  Bi  Bi22  1  0.092647  0.250000  0.457089  1
  Bi  Bi23  1  0.565351  0.995440  0.325402  1
  Bi  Bi24  1  0.065189  0.504319  0.174424  1
  Bi  Bi25  1  0.434637  0.495420  0.674509  1
  Bi  Bi26  1  0.934442  0.004214  0.825510  1
  Bi  Bi27  1  0.434637  0.004580  0.674509  1
  Bi  Bi28  1  0.934442  0.495786  0.825510  1
  Bi  Bi29  1  0.565351  0.504560  0.325402  1
  Bi  Bi30  1  0.065189  0.995681  0.174424  1
  Sb  Sb31  1  0.407863  0.750000  0.958405  1
