# generated using pymatgen
data_MnNbRh3S8
_symmetry_space_group_name_H-M   'P 1'
_cell_length_a   6.87044221
_cell_length_b   6.87044106
_cell_length_c   6.87044340
_cell_angle_alpha   63.09082876
_cell_angle_beta   63.09081660
_cell_angle_gamma   63.09083298
_symmetry_Int_Tables_number   1
_chemical_formula_structural   MnNbRh3S8
_chemical_formula_sum   'Mn1 Nb1 Rh3 S8'
_cell_volume   245.04276306
_cell_formula_units_Z   1
loop_
 _symmetry_equiv_pos_site_id
 _symmetry_equiv_pos_as_xyz
  1  'x, y, z'
loop_
 _atom_site_type_symbol
 _atom_site_label
 _atom_site_symmetry_multiplicity
 _atom_site_fract_x
 _atom_site_fract_y
 _atom_site_fract_z
 _atom_site_occupancy
  Mn  Mn0  1  0.013500  0.013500  0.013500  1
  Nb  Nb1  1  0.594458  0.594458  0.594458  1
  Rh  Rh2  1  0.626225  0.626225  0.137642  1
  Rh  Rh3  1  0.626225  0.137642  0.626225  1
  Rh  Rh4  1  0.137642  0.626225  0.626225  1
  S  S5  1  0.363470  0.363470  0.877091  1
  S  S6  1  0.363470  0.877091  0.363470  1
  S  S7  1  0.877091  0.363470  0.363470  1
  S  S8  1  0.387851  0.387851  0.387851  1
  S  S9  1  0.860384  0.860384  0.418997  1
  S  S10  1  0.860384  0.418997  0.860384  1
  S  S11  1  0.418997  0.860384  0.860384  1
  S  S12  1  0.870300  0.870300  0.870300  1
