# generated using pymatgen
data_La2Ga3Ge(IrPt)2
_symmetry_space_group_name_H-M   'P 1'
_cell_length_a   4.29195100
_cell_length_b   4.29195100
_cell_length_c   10.61078700
_cell_angle_alpha   90.00000000
_cell_angle_beta   90.00000000
_cell_angle_gamma   90.00000000
_symmetry_Int_Tables_number   1
_chemical_formula_structural   La2Ga3Ge(IrPt)2
_chemical_formula_sum   'La2 Ga3 Ge1 Ir2 Pt2'
_cell_volume   195.45964553
_cell_formula_units_Z   1
loop_
 _symmetry_equiv_pos_site_id
 _symmetry_equiv_pos_as_xyz
  1  'x, y, z'
loop_
 _atom_site_type_symbol
 _atom_site_label
 _atom_site_symmetry_multiplicity
 _atom_site_fract_x
 _atom_site_fract_y
 _atom_site_fract_z
 _atom_site_occupancy
  La  La0  1  0.000000  0.500000  0.242317  1
  La  La1  1  0.500000  0.000000  0.753617  1
  Ga  Ga2  1  0.000000  0.000000  0.499721  1
  Ga  Ga3  1  0.500000  0.500000  0.499721  1
  Ga  Ga4  1  0.000000  0.500000  0.876263  1
  Ge  Ge5  1  0.500000  0.000000  0.123154  1
  Ir  Ir6  1  0.000000  0.000000  0.003392  1
  Ir  Ir7  1  0.500000  0.500000  0.003392  1
  Pt  Pt8  1  0.000000  0.500000  0.635687  1
  Pt  Pt9  1  0.500000  0.000000  0.362736  1
