# generated using pymatgen
data_Mg2SnB2IrRh4
_symmetry_space_group_name_H-M   'P 1'
_cell_length_a   9.63718600
_cell_length_b   9.63718600
_cell_length_c   2.99411300
_cell_angle_alpha   90.00000000
_cell_angle_beta   90.00000000
_cell_angle_gamma   90.00000000
_symmetry_Int_Tables_number   1
_chemical_formula_structural   Mg2SnB2IrRh4
_chemical_formula_sum   'Mg4 Sn2 B4 Ir2 Rh8'
_cell_volume   278.07930479
_cell_formula_units_Z   2
loop_
 _symmetry_equiv_pos_site_id
 _symmetry_equiv_pos_as_xyz
  1  'x, y, z'
loop_
 _atom_site_type_symbol
 _atom_site_label
 _atom_site_symmetry_multiplicity
 _atom_site_fract_x
 _atom_site_fract_y
 _atom_site_fract_z
 _atom_site_occupancy
  Mg  Mg0  1  0.676081  0.176081  0.000000  1
  Mg  Mg1  1  0.323919  0.823919  0.000000  1
  Mg  Mg2  1  0.176081  0.323919  0.000000  1
  Mg  Mg3  1  0.823919  0.676081  0.000000  1
  Sn  Sn4  1  0.000000  0.000000  0.000000  1
  Sn  Sn5  1  0.500000  0.500000  0.000000  1
  B  B6  1  0.121814  0.621814  0.000000  1
  B  B7  1  0.878186  0.378186  0.000000  1
  B  B8  1  0.621814  0.878186  0.000000  1
  B  B9  1  0.378186  0.121814  0.000000  1
  Ir  Ir10  1  0.500000  0.000000  0.500000  1
  Ir  Ir11  1  0.000000  0.500000  0.500000  1
  Rh  Rh12  1  0.222094  0.072077  0.500000  1
  Rh  Rh13  1  0.777906  0.927923  0.500000  1
  Rh  Rh14  1  0.072077  0.777906  0.500000  1
  Rh  Rh15  1  0.722094  0.427923  0.500000  1
  Rh  Rh16  1  0.927923  0.222094  0.500000  1
  Rh  Rh17  1  0.277906  0.572077  0.500000  1
  Rh  Rh18  1  0.572077  0.722094  0.500000  1
  Rh  Rh19  1  0.427923  0.277906  0.500000  1
