# generated using pymatgen
data_Y2Sc3(SnGe)2
_symmetry_space_group_name_H-M   'P 1'
_cell_length_a   7.45785900
_cell_length_b   7.68347200
_cell_length_c   14.63373700
_cell_angle_alpha   90.00000000
_cell_angle_beta   90.00000000
_cell_angle_gamma   90.00000000
_symmetry_Int_Tables_number   1
_chemical_formula_structural   Y2Sc3(SnGe)2
_chemical_formula_sum   'Y8 Sc12 Sn8 Ge8'
_cell_volume   838.54606781
_cell_formula_units_Z   4
loop_
 _symmetry_equiv_pos_site_id
 _symmetry_equiv_pos_as_xyz
  1  'x, y, z'
loop_
 _atom_site_type_symbol
 _atom_site_label
 _atom_site_symmetry_multiplicity
 _atom_site_fract_x
 _atom_site_fract_y
 _atom_site_fract_z
 _atom_site_occupancy
  Y  Y0  1  0.014216  0.826223  0.105646  1
  Y  Y1  1  0.514216  0.673777  0.394354  1
  Y  Y2  1  0.485784  0.326223  0.894354  1
  Y  Y3  1  0.985784  0.173777  0.605646  1
  Y  Y4  1  0.985784  0.173777  0.894354  1
  Y  Y5  1  0.485784  0.326223  0.605646  1
  Y  Y6  1  0.514216  0.673777  0.105646  1
  Y  Y7  1  0.014216  0.826223  0.394354  1
  Sc  Sc8  1  0.817217  0.500188  0.750000  1
  Sc  Sc9  1  0.317217  0.999812  0.750000  1
  Sc  Sc10  1  0.682783  0.000188  0.250000  1
  Sc  Sc11  1  0.182783  0.499812  0.250000  1
  Sc  Sc12  1  0.346209  0.162997  0.134883  1
  Sc  Sc13  1  0.846209  0.337003  0.365117  1
  Sc  Sc14  1  0.153791  0.662997  0.865117  1
  Sc  Sc15  1  0.653791  0.837003  0.634883  1
  Sc  Sc16  1  0.653791  0.837003  0.865117  1
  Sc  Sc17  1  0.153791  0.662997  0.634883  1
  Sc  Sc18  1  0.846209  0.337003  0.134883  1
  Sc  Sc19  1  0.346209  0.162997  0.365117  1
  Sn  Sn20  1  0.184185  0.455524  0.039099  1
  Sn  Sn21  1  0.684185  0.044476  0.460901  1
  Sn  Sn22  1  0.315815  0.955524  0.960901  1
  Sn  Sn23  1  0.815815  0.544476  0.539099  1
  Sn  Sn24  1  0.815815  0.544476  0.960901  1
  Sn  Sn25  1  0.315815  0.955524  0.539099  1
  Sn  Sn26  1  0.684185  0.044476  0.039099  1
  Sn  Sn27  1  0.184185  0.455524  0.460901  1
  Ge  Ge28  1  0.321213  0.855733  0.250000  1
  Ge  Ge29  1  0.821213  0.644267  0.250000  1
  Ge  Ge30  1  0.178787  0.355733  0.750000  1
  Ge  Ge31  1  0.678787  0.144267  0.750000  1
  Ge  Ge32  1  0.041265  0.129430  0.250000  1
  Ge  Ge33  1  0.541265  0.370570  0.250000  1
  Ge  Ge34  1  0.458735  0.629430  0.750000  1
  Ge  Ge35  1  0.958735  0.870570  0.750000  1
