# generated using pymatgen
data_TbHoTc5(NiP)7
_symmetry_space_group_name_H-M   'P 1'
_cell_length_a   9.26460630
_cell_length_b   9.32781488
_cell_length_c   3.72102300
_cell_angle_alpha   90.00000000
_cell_angle_beta   90.00000000
_cell_angle_gamma   120.18396959
_symmetry_Int_Tables_number   1
_chemical_formula_structural   TbHoTc5(NiP)7
_chemical_formula_sum   'Tb1 Ho1 Tc5 Ni7 P7'
_cell_volume   277.96607197
_cell_formula_units_Z   1
loop_
 _symmetry_equiv_pos_site_id
 _symmetry_equiv_pos_as_xyz
  1  'x, y, z'
loop_
 _atom_site_type_symbol
 _atom_site_label
 _atom_site_symmetry_multiplicity
 _atom_site_fract_x
 _atom_site_fract_y
 _atom_site_fract_z
 _atom_site_occupancy
  Tb  Tb0  1  0.334189  0.673208  0.000000  1
  Ho  Ho1  1  0.662291  0.329205  0.500000  1
  Tc  Tc2  1  0.609900  0.563893  0.000000  1
  Tc  Tc3  1  0.951549  0.387991  0.000000  1
  Tc  Tc4  1  0.116788  0.201419  0.000000  1
  Tc  Tc5  1  0.103065  0.874424  0.000000  1
  Tc  Tc6  1  0.789162  0.911661  0.000000  1
  Ni  Ni7  1  0.845477  0.727890  0.500000  1
  Ni  Ni8  1  0.281484  0.118265  0.500000  1
  Ni  Ni9  1  0.362955  0.426489  0.500000  1
  Ni  Ni10  1  0.564959  0.936578  0.500000  1
  Ni  Ni11  1  0.061281  0.634084  0.500000  1
  Ni  Ni12  1  0.877063  0.157400  0.500000  1
  Ni  Ni13  1  0.442002  0.053339  0.000000  1
  P  P14  1  0.001793  0.002391  0.500000  1
  P  P15  1  0.708796  0.115404  0.000000  1
  P  P16  1  0.116539  0.412508  0.500000  1
  P  P17  1  0.589799  0.707110  0.500000  1
  P  P18  1  0.296247  0.887696  0.500000  1
  P  P19  1  0.880802  0.595957  0.000000  1
  P  P20  1  0.403858  0.283088  0.000000  1
