# generated using pymatgen
data_ErTm5LuCo17P12
_symmetry_space_group_name_H-M   'P 1'
_cell_length_a   3.69545400
_cell_length_b   10.55821500
_cell_length_c   12.25246200
_cell_angle_alpha   90.00000000
_cell_angle_beta   90.00000000
_cell_angle_gamma   90.00000000
_symmetry_Int_Tables_number   1
_chemical_formula_structural   ErTm5LuCo17P12
_chemical_formula_sum   'Er1 Tm5 Lu1 Co17 P12'
_cell_volume   478.05918455
_cell_formula_units_Z   1
loop_
 _symmetry_equiv_pos_site_id
 _symmetry_equiv_pos_as_xyz
  1  'x, y, z'
loop_
 _atom_site_type_symbol
 _atom_site_label
 _atom_site_symmetry_multiplicity
 _atom_site_fract_x
 _atom_site_fract_y
 _atom_site_fract_z
 _atom_site_occupancy
  Er  Er0  1  0.500000  0.000000  0.477220  1
  Tm  Tm1  1  0.000000  0.500000  0.531095  1
  Tm  Tm2  1  0.500000  0.823392  0.208077  1
  Tm  Tm3  1  0.500000  0.176608  0.208077  1
  Tm  Tm4  1  0.000000  0.682671  0.795335  1
  Tm  Tm5  1  0.000000  0.317329  0.795335  1
  Lu  Lu6  1  0.500000  0.500000  0.155022  1
  Co  Co7  1  0.000000  0.000000  0.834277  1
  Co  Co8  1  0.500000  0.500000  0.703087  1
  Co  Co9  1  0.000000  0.000000  0.295633  1
  Co  Co10  1  0.000000  0.500000  0.982286  1
  Co  Co11  1  0.500000  0.000000  0.013567  1
  Co  Co12  1  0.500000  0.324689  0.986794  1
  Co  Co13  1  0.500000  0.675311  0.986794  1
  Co  Co14  1  0.000000  0.159988  0.999427  1
  Co  Co15  1  0.000000  0.840012  0.999427  1
  Co  Co16  1  0.500000  0.293263  0.436199  1
  Co  Co17  1  0.500000  0.706737  0.436199  1
  Co  Co18  1  0.000000  0.201130  0.570927  1
  Co  Co19  1  0.000000  0.798870  0.570927  1
  Co  Co20  1  0.500000  0.880027  0.706845  1
  Co  Co21  1  0.500000  0.119973  0.706845  1
  Co  Co22  1  0.000000  0.623972  0.301163  1
  Co  Co23  1  0.000000  0.376028  0.301163  1
  P  P24  1  0.500000  0.500000  0.881415  1
  P  P25  1  0.000000  0.000000  0.116589  1
  P  P26  1  0.500000  0.500000  0.364980  1
  P  P27  1  0.000000  0.000000  0.652852  1
  P  P28  1  0.500000  0.309635  0.619060  1
  P  P29  1  0.500000  0.690365  0.619060  1
  P  P30  1  0.000000  0.186956  0.386645  1
  P  P31  1  0.000000  0.813044  0.386645  1
  P  P32  1  0.500000  0.852979  0.886662  1
  P  P33  1  0.500000  0.147021  0.886662  1
  P  P34  1  0.000000  0.668407  0.098853  1
  P  P35  1  0.000000  0.331593  0.098853  1
