# generated using pymatgen
data_La8YbEuSn8
_symmetry_space_group_name_H-M   'P 1'
_cell_length_a   8.24243700
_cell_length_b   8.62021300
_cell_length_c   16.45689300
_cell_angle_alpha   90.00000000
_cell_angle_beta   90.00000000
_cell_angle_gamma   90.00000000
_symmetry_Int_Tables_number   1
_chemical_formula_structural   La8YbEuSn8
_chemical_formula_sum   'La16 Yb2 Eu2 Sn16'
_cell_volume   1169.28796285
_cell_formula_units_Z   2
loop_
 _symmetry_equiv_pos_site_id
 _symmetry_equiv_pos_as_xyz
  1  'x, y, z'
loop_
 _atom_site_type_symbol
 _atom_site_label
 _atom_site_symmetry_multiplicity
 _atom_site_fract_x
 _atom_site_fract_y
 _atom_site_fract_z
 _atom_site_occupancy
  La  La0  1  0.650396  0.172973  0.623387  1
  La  La1  1  0.150396  0.327027  0.876613  1
  La  La2  1  0.349792  0.827316  0.123685  1
  La  La3  1  0.849792  0.672684  0.376315  1
  La  La4  1  0.349792  0.827316  0.376315  1
  La  La5  1  0.849792  0.672684  0.123685  1
  La  La6  1  0.650396  0.172973  0.876613  1
  La  La7  1  0.150396  0.327027  0.623387  1
  La  La8  1  0.496209  0.682808  0.596866  1
  La  La9  1  0.996209  0.817192  0.903134  1
  La  La10  1  0.503810  0.316611  0.097196  1
  La  La11  1  0.003810  0.183389  0.402804  1
  La  La12  1  0.503810  0.316611  0.402804  1
  La  La13  1  0.003810  0.183389  0.097196  1
  La  La14  1  0.496209  0.682808  0.903134  1
  La  La15  1  0.996209  0.817192  0.596866  1
  Yb  Yb16  1  0.181851  0.494827  0.250000  1
  Yb  Yb17  1  0.681851  0.005173  0.250000  1
  Eu  Eu18  1  0.818760  0.504258  0.750000  1
  Eu  Eu19  1  0.318760  0.995742  0.750000  1
  Sn  Sn20  1  0.684985  0.965650  0.461995  1
  Sn  Sn21  1  0.184985  0.534350  0.038005  1
  Sn  Sn22  1  0.314913  0.034339  0.962366  1
  Sn  Sn23  1  0.814913  0.465661  0.537634  1
  Sn  Sn24  1  0.314913  0.034339  0.537634  1
  Sn  Sn25  1  0.814913  0.465661  0.962366  1
  Sn  Sn26  1  0.684985  0.965650  0.038005  1
  Sn  Sn27  1  0.184985  0.534350  0.461995  1
  Sn  Sn28  1  0.448945  0.396356  0.750000  1
  Sn  Sn29  1  0.948945  0.103644  0.750000  1
  Sn  Sn30  1  0.549587  0.602792  0.250000  1
  Sn  Sn31  1  0.049587  0.897208  0.250000  1
  Sn  Sn32  1  0.693262  0.860254  0.750000  1
  Sn  Sn33  1  0.193262  0.639746  0.750000  1
  Sn  Sn34  1  0.307385  0.140016  0.250000  1
  Sn  Sn35  1  0.807385  0.359984  0.250000  1
