# generated using pymatgen
data_Lu5Zn2Bi
_symmetry_space_group_name_H-M   'P 1'
_cell_length_a   8.53586941
_cell_length_b   8.53586965
_cell_length_c   8.53587005
_cell_angle_alpha   124.69654837
_cell_angle_beta   124.69655060
_cell_angle_gamma   82.04125423
_symmetry_Int_Tables_number   1
_chemical_formula_structural   Lu5Zn2Bi
_chemical_formula_sum   'Lu10 Zn4 Bi2'
_cell_volume   404.26176363
_cell_formula_units_Z   2
loop_
 _symmetry_equiv_pos_site_id
 _symmetry_equiv_pos_as_xyz
  1  'x, y, z'
loop_
 _atom_site_type_symbol
 _atom_site_label
 _atom_site_symmetry_multiplicity
 _atom_site_fract_x
 _atom_site_fract_y
 _atom_site_fract_z
 _atom_site_occupancy
  Lu  Lu0  1  0.000000  0.000000  0.000000  1
  Lu  Lu1  1  0.500000  0.500000  0.000000  1
  Lu  Lu2  1  0.796238  0.296238  0.808093  1
  Lu  Lu3  1  0.203762  0.703762  0.191907  1
  Lu  Lu4  1  0.488146  0.988146  0.191907  1
  Lu  Lu5  1  0.296238  0.488146  0.500000  1
  Lu  Lu6  1  0.011854  0.203762  0.500000  1
  Lu  Lu7  1  0.511854  0.011854  0.808093  1
  Lu  Lu8  1  0.703762  0.511854  0.500000  1
  Lu  Lu9  1  0.988146  0.796238  0.500000  1
  Zn  Zn10  1  0.134672  0.634672  0.769344  1
  Zn  Zn11  1  0.865328  0.365328  0.230656  1
  Zn  Zn12  1  0.634672  0.865328  0.500000  1
  Zn  Zn13  1  0.365328  0.134672  0.500000  1
  Bi  Bi14  1  0.250000  0.250000  0.000000  1
  Bi  Bi15  1  0.750000  0.750000  0.000000  1
