# generated using pymatgen
data_Hf4ZrRe24
_symmetry_space_group_name_H-M   'P 1'
_cell_length_a   8.48011047
_cell_length_b   8.48011042
_cell_length_c   8.48011000
_cell_angle_alpha   109.47121725
_cell_angle_beta   109.47121712
_cell_angle_gamma   109.47122766
_symmetry_Int_Tables_number   1
_chemical_formula_structural   Hf4ZrRe24
_chemical_formula_sum   'Hf4 Zr1 Re24'
_cell_volume   469.44272306
_cell_formula_units_Z   1
loop_
 _symmetry_equiv_pos_site_id
 _symmetry_equiv_pos_as_xyz
  1  'x, y, z'
loop_
 _atom_site_type_symbol
 _atom_site_label
 _atom_site_symmetry_multiplicity
 _atom_site_fract_x
 _atom_site_fract_y
 _atom_site_fract_z
 _atom_site_occupancy
  Hf  Hf0  1  0.628948  0.000000  0.000000  1
  Hf  Hf1  1  0.000000  0.628948  0.000000  1
  Hf  Hf2  1  0.000000  0.000000  0.628948  1
  Hf  Hf3  1  0.371052  0.371052  0.371052  1
  Zr  Zr4  1  0.000000  0.000000  0.000000  1
  Re  Re5  1  0.395841  0.677081  0.000000  1
  Re  Re6  1  0.718761  0.322919  0.322919  1
  Re  Re7  1  0.395841  0.000000  0.677081  1
  Re  Re8  1  0.677081  0.395841  0.000000  1
  Re  Re9  1  0.000000  0.395841  0.677081  1
  Re  Re10  1  0.322919  0.718761  0.322919  1
  Re  Re11  1  0.322919  0.322919  0.718761  1
  Re  Re12  1  0.000000  0.677081  0.395841  1
  Re  Re13  1  0.677081  0.000000  0.395841  1
  Re  Re14  1  0.604159  0.604159  0.281239  1
  Re  Re15  1  0.281239  0.604159  0.604159  1
  Re  Re16  1  0.604159  0.281239  0.604159  1
  Re  Re17  1  0.376153  0.194057  0.000000  1
  Re  Re18  1  0.182096  0.805943  0.805943  1
  Re  Re19  1  0.376153  0.000000  0.194057  1
  Re  Re20  1  0.194057  0.376153  0.000000  1
  Re  Re21  1  0.000000  0.376153  0.194057  1
  Re  Re22  1  0.805943  0.182096  0.805943  1
  Re  Re23  1  0.805943  0.805943  0.182096  1
  Re  Re24  1  0.000000  0.194057  0.376153  1
  Re  Re25  1  0.194057  0.000000  0.376153  1
  Re  Re26  1  0.623847  0.623847  0.817904  1
  Re  Re27  1  0.817904  0.623847  0.623847  1
  Re  Re28  1  0.623847  0.817904  0.623847  1
