# generated using pymatgen
data_Ba2CaCo3F14
_symmetry_space_group_name_H-M   'P 1'
_cell_length_a   5.44683702
_cell_length_b   7.46298041
_cell_length_c   14.97619500
_cell_angle_alpha   92.80157669
_cell_angle_beta   90.22236364
_cell_angle_gamma   111.42047178
_symmetry_Int_Tables_number   1
_chemical_formula_structural   Ba2CaCo3F14
_chemical_formula_sum   'Ba4 Ca2 Co6 F28'
_cell_volume   565.89389999
_cell_formula_units_Z   2
loop_
 _symmetry_equiv_pos_site_id
 _symmetry_equiv_pos_as_xyz
  1  'x, y, z'
loop_
 _atom_site_type_symbol
 _atom_site_label
 _atom_site_symmetry_multiplicity
 _atom_site_fract_x
 _atom_site_fract_y
 _atom_site_fract_z
 _atom_site_occupancy
  Ba  Ba0  1  0.131015  0.381782  0.623460  1
  Ba  Ba1  1  0.248646  0.380726  0.123323  1
  Ba  Ba2  1  0.864324  0.615960  0.376605  1
  Ba  Ba3  1  0.754020  0.615856  0.878181  1
  Ca  Ca4  1  0.433209  0.998321  0.750746  1
  Ca  Ca5  1  0.567294  0.999578  0.249604  1
  Co  Co6  1  0.105691  0.237100  0.878624  1
  Co  Co7  1  0.889987  0.763261  0.122499  1
  Co  Co8  1  0.132259  0.236233  0.378389  1
  Co  Co9  1  0.866015  0.762058  0.622244  1
  Co  Co10  1  0.499342  0.001734  0.000288  1
  Co  Co11  1  0.498619  0.998651  0.500050  1
  F  F12  1  0.917994  0.985186  0.343695  1
  F  F13  1  0.838086  0.249251  0.455930  1
  F  F14  1  0.159350  0.749311  0.544294  1
  F  F15  1  0.686409  0.503741  0.587670  1
  F  F16  1  0.624728  0.114578  0.621925  1
  F  F17  1  0.510391  0.881487  0.879825  1
  F  F18  1  0.411744  0.250062  0.957309  1
  F  F19  1  0.939846  0.013332  0.157896  1
  F  F20  1  0.360315  0.317371  0.778699  1
  F  F21  1  0.311050  0.494667  0.413049  1
  F  F22  1  0.831697  0.251370  0.798723  1
  F  F23  1  0.188211  0.495759  0.913238  1
  F  F24  1  0.420095  0.251537  0.298870  1
  F  F25  1  0.156857  0.752631  0.201579  1
  F  F26  1  0.497614  0.121202  0.121486  1
  F  F27  1  0.628313  0.682048  0.221782  1
  F  F28  1  0.112265  0.829082  0.015497  1
  F  F29  1  0.079789  0.012900  0.657736  1
  F  F30  1  0.890001  0.170730  0.985057  1
  F  F31  1  0.721712  0.831347  0.514984  1
  F  F32  1  0.597167  0.754887  0.046392  1
  F  F33  1  0.579560  0.747609  0.702269  1
  F  F34  1  0.957840  0.317367  0.277667  1
  F  F35  1  0.275848  0.166299  0.485559  1
  F  F36  1  0.372698  0.882767  0.378140  1
  F  F37  1  0.067488  0.985868  0.844091  1
  F  F38  1  0.041257  0.680853  0.722688  1
  F  F39  1  0.816736  0.509911  0.088697  1
