# generated using pymatgen
data_Zr5ScZn23As
_symmetry_space_group_name_H-M   'P 1'
_cell_length_a   8.79307447
_cell_length_b   8.79552616
_cell_length_c   8.79552634
_cell_angle_alpha   59.98156019
_cell_angle_beta   60.00922020
_cell_angle_gamma   60.00922094
_symmetry_Int_Tables_number   1
_chemical_formula_structural   Zr5ScZn23As
_chemical_formula_sum   'Zr5 Sc1 Zn23 As1'
_cell_volume   481.00473155
_cell_formula_units_Z   1
loop_
 _symmetry_equiv_pos_site_id
 _symmetry_equiv_pos_as_xyz
  1  'x, y, z'
loop_
 _atom_site_type_symbol
 _atom_site_label
 _atom_site_symmetry_multiplicity
 _atom_site_fract_x
 _atom_site_fract_y
 _atom_site_fract_z
 _atom_site_occupancy
  Zr  Zr0  1  0.286857  0.713143  0.713143  1
  Zr  Zr1  1  0.286588  0.713412  0.288502  1
  Zr  Zr2  1  0.711498  0.288502  0.713412  1
  Zr  Zr3  1  0.286588  0.288502  0.713412  1
  Zr  Zr4  1  0.711498  0.713412  0.288502  1
  Sc  Sc5  1  0.712979  0.287021  0.287021  1
  Zn  Zn6  1  0.123236  0.123086  0.123086  1
  Zn  Zn7  1  0.876843  0.876506  0.876506  1
  Zn  Zn8  1  0.123494  0.123157  0.629857  1
  Zn  Zn9  1  0.123494  0.629857  0.123157  1
  Zn  Zn10  1  0.876914  0.876764  0.369407  1
  Zn  Zn11  1  0.876914  0.369407  0.876764  1
  Zn  Zn12  1  0.630593  0.123086  0.123086  1
  Zn  Zn13  1  0.370143  0.876506  0.876506  1
  Zn  Zn14  1  0.500034  0.999966  0.999966  1
  Zn  Zn15  1  0.000034  0.499966  0.499966  1
  Zn  Zn16  1  0.999950  0.499815  0.000050  1
  Zn  Zn17  1  0.500185  0.000050  0.499815  1
  Zn  Zn18  1  0.999950  0.000050  0.499815  1
  Zn  Zn19  1  0.500185  0.499815  0.000050  1
  Zn  Zn20  1  0.334929  0.334544  0.334544  1
  Zn  Zn21  1  0.665003  0.665372  0.665372  1
  Zn  Zn22  1  0.334628  0.334997  0.995748  1
  Zn  Zn23  1  0.334628  0.995748  0.334997  1
  Zn  Zn24  1  0.665456  0.665071  0.004015  1
  Zn  Zn25  1  0.665456  0.004015  0.665071  1
  Zn  Zn26  1  0.995985  0.334544  0.334544  1
  Zn  Zn27  1  0.004252  0.665372  0.665372  1
  Zn  Zn28  1  0.000167  0.999833  0.999833  1
  As  As29  1  0.501520  0.498480  0.498480  1
