# generated using pymatgen
data_Sr4Al19Ir5
_symmetry_space_group_name_H-M   'P 1'
_cell_length_a   7.67813001
_cell_length_b   7.67813158
_cell_length_c   9.82279061
_cell_angle_alpha   89.85723451
_cell_angle_beta   89.85723556
_cell_angle_gamma   119.07348630
_symmetry_Int_Tables_number   1
_chemical_formula_structural   Sr4Al19Ir5
_chemical_formula_sum   'Sr4 Al19 Ir5'
_cell_volume   506.11672060
_cell_formula_units_Z   1
loop_
 _symmetry_equiv_pos_site_id
 _symmetry_equiv_pos_as_xyz
  1  'x, y, z'
loop_
 _atom_site_type_symbol
 _atom_site_label
 _atom_site_symmetry_multiplicity
 _atom_site_fract_x
 _atom_site_fract_y
 _atom_site_fract_z
 _atom_site_occupancy
  Sr  Sr0  1  0.997539  0.679013  0.249273  1
  Sr  Sr1  1  0.002461  0.320987  0.750727  1
  Sr  Sr2  1  0.679013  0.997539  0.249273  1
  Sr  Sr3  1  0.320987  0.002461  0.750727  1
  Al  Al4  1  0.145508  0.145508  0.263798  1
  Al  Al5  1  0.854492  0.854492  0.736202  1
  Al  Al6  1  0.007903  0.350862  0.075158  1
  Al  Al7  1  0.992097  0.649138  0.924842  1
  Al  Al8  1  0.998776  0.662646  0.565087  1
  Al  Al9  1  0.337354  0.001224  0.434913  1
  Al  Al10  1  0.001224  0.337354  0.434913  1
  Al  Al11  1  0.662646  0.998776  0.565087  1
  Al  Al12  1  0.649138  0.992097  0.924842  1
  Al  Al13  1  0.350862  0.007903  0.075158  1
  Al  Al14  1  0.333862  0.333862  0.539653  1
  Al  Al15  1  0.666138  0.666138  0.460347  1
  Al  Al16  1  0.650900  0.650900  0.054533  1
  Al  Al17  1  0.349100  0.349100  0.945467  1
  Al  Al18  1  0.338879  0.548181  0.251920  1
  Al  Al19  1  0.661121  0.451819  0.748080  1
  Al  Al20  1  0.548181  0.338879  0.251920  1
  Al  Al21  1  0.451819  0.661121  0.748080  1
  Al  Al22  1  0.000000  0.000000  0.000000  1
  Ir  Ir23  1  0.670150  0.329850  0.000000  1
  Ir  Ir24  1  0.329850  0.670150  0.000000  1
  Ir  Ir25  1  0.330921  0.669079  0.500000  1
  Ir  Ir26  1  0.669079  0.330921  0.500000  1
  Ir  Ir27  1  0.000000  0.000000  0.500000  1
