# generated using pymatgen
data_Tb3Sn2Pd3Pb
_symmetry_space_group_name_H-M   'P 1'
_cell_length_a   7.75162500
_cell_length_b   7.71755429
_cell_length_c   3.93442400
_cell_angle_alpha   90.00000000
_cell_angle_beta   90.00000000
_cell_angle_gamma   120.14614069
_symmetry_Int_Tables_number   1
_chemical_formula_structural   Tb3Sn2Pd3Pb
_chemical_formula_sum   'Tb3 Sn2 Pd3 Pb1'
_cell_volume   203.53673706
_cell_formula_units_Z   1
loop_
 _symmetry_equiv_pos_site_id
 _symmetry_equiv_pos_as_xyz
  1  'x, y, z'
loop_
 _atom_site_type_symbol
 _atom_site_label
 _atom_site_symmetry_multiplicity
 _atom_site_fract_x
 _atom_site_fract_y
 _atom_site_fract_z
 _atom_site_occupancy
  Tb  Tb0  1  0.402521  0.000000  0.000000  1
  Tb  Tb1  1  0.002544  0.406953  0.000000  1
  Tb  Tb2  1  0.595591  0.593047  0.000000  1
  Sn  Sn3  1  0.261209  0.261159  0.500001  1
  Sn  Sn4  1  0.000050  0.738841  0.500001  1
  Pd  Pd5  1  0.010468  0.000000  0.000000  1
  Pd  Pd6  1  0.664271  0.339518  0.500001  1
  Pd  Pd7  1  0.324753  0.660482  0.500001  1
  Pb  Pb8  1  0.738594  0.000000  0.500001  1
