# generated using pymatgen
data_La2Ho10ZnInCo4
_symmetry_space_group_name_H-M   'P 1'
_cell_length_a   8.45454067
_cell_length_b   8.26076316
_cell_length_c   8.26076459
_cell_angle_alpha   111.79919138
_cell_angle_beta   108.98596628
_cell_angle_gamma   106.79212948
_symmetry_Int_Tables_number   1
_chemical_formula_structural   La2Ho10ZnInCo4
_chemical_formula_sum   'La2 Ho10 Zn1 In1 Co4'
_cell_volume   448.00447224
_cell_formula_units_Z   1
loop_
 _symmetry_equiv_pos_site_id
 _symmetry_equiv_pos_as_xyz
  1  'x, y, z'
loop_
 _atom_site_type_symbol
 _atom_site_label
 _atom_site_symmetry_multiplicity
 _atom_site_fract_x
 _atom_site_fract_y
 _atom_site_fract_z
 _atom_site_occupancy
  La  La0  1  0.426558  0.220732  0.205825  1
  La  La1  1  0.573442  0.779268  0.794175  1
  Ho  Ho2  1  0.033212  0.234601  0.798611  1
  Ho  Ho3  1  0.966788  0.765399  0.201389  1
  Ho  Ho4  1  0.176724  0.283869  0.464086  1
  Ho  Ho5  1  0.823276  0.716131  0.535914  1
  Ho  Ho6  1  0.176724  0.712635  0.892854  1
  Ho  Ho7  1  0.823276  0.287365  0.107146  1
  Ho  Ho8  1  0.316730  0.638241  0.303586  1
  Ho  Ho9  1  0.683270  0.361759  0.696414  1
  Ho  Ho10  1  0.316730  0.013143  0.678489  1
  Ho  Ho11  1  0.683270  0.986857  0.321511  1
  Zn  Zn12  1  0.000000  0.000000  0.000000  1
  In  In13  1  0.500000  0.500000  0.000000  1
  Co  Co14  1  0.341878  0.001591  0.340285  1
  Co  Co15  1  0.658122  0.998409  0.659715  1
  Co  Co16  1  0.097051  0.613584  0.483467  1
  Co  Co17  1  0.902949  0.386416  0.516533  1
