# generated using pymatgen
data_Ta5NbB4Os9Ru
_symmetry_space_group_name_H-M   'P 1'
_cell_length_a   9.55729698
_cell_length_b   9.55729702
_cell_length_c   3.01140200
_cell_angle_alpha   90.00000000
_cell_angle_beta   90.00000000
_cell_angle_gamma   89.97075650
_symmetry_Int_Tables_number   1
_chemical_formula_structural   Ta5NbB4Os9Ru
_chemical_formula_sum   'Ta5 Nb1 B4 Os9 Ru1'
_cell_volume   275.06722264
_cell_formula_units_Z   1
loop_
 _symmetry_equiv_pos_site_id
 _symmetry_equiv_pos_as_xyz
  1  'x, y, z'
loop_
 _atom_site_type_symbol
 _atom_site_label
 _atom_site_symmetry_multiplicity
 _atom_site_fract_x
 _atom_site_fract_y
 _atom_site_fract_z
 _atom_site_occupancy
  Ta  Ta0  1  0.823403  0.676579  0.000000  1
  Ta  Ta1  1  0.176579  0.323403  0.000000  1
  Ta  Ta2  1  0.677481  0.177481  0.000000  1
  Ta  Ta3  1  0.500014  0.499978  0.000000  1
  Ta  Ta4  1  0.999978  0.000014  0.000000  1
  Nb  Nb5  1  0.322712  0.822712  0.000000  1
  B  B6  1  0.620923  0.879040  0.000000  1
  B  B7  1  0.379040  0.120923  0.000000  1
  B  B8  1  0.120504  0.620504  0.000000  1
  B  B9  1  0.879485  0.379485  0.000000  1
  Os  Os10  1  0.571922  0.718564  0.500000  1
  Os  Os11  1  0.428440  0.281565  0.500000  1
  Os  Os12  1  0.070600  0.780181  0.500000  1
  Os  Os13  1  0.929090  0.219477  0.500000  1
  Os  Os14  1  0.280181  0.570600  0.500000  1
  Os  Os15  1  0.719477  0.429090  0.500000  1
  Os  Os16  1  0.218564  0.071922  0.500000  1
  Os  Os17  1  0.781565  0.928440  0.500000  1
  Os  Os18  1  0.500162  0.000162  0.500000  1
  Ru  Ru19  1  0.999877  0.499877  0.500000  1
