# generated using pymatgen
data_Ce2NdZn3CuPd2
_symmetry_space_group_name_H-M   'P 1'
_cell_length_a   7.31169811
_cell_length_b   7.27983384
_cell_length_c   3.99917200
_cell_angle_alpha   90.00000000
_cell_angle_beta   90.00000000
_cell_angle_gamma   119.85594023
_symmetry_Int_Tables_number   1
_chemical_formula_structural   Ce2NdZn3CuPd2
_chemical_formula_sum   'Ce2 Nd1 Zn3 Cu1 Pd2'
_cell_volume   184.61587587
_cell_formula_units_Z   1
loop_
 _symmetry_equiv_pos_site_id
 _symmetry_equiv_pos_as_xyz
  1  'x, y, z'
loop_
 _atom_site_type_symbol
 _atom_site_label
 _atom_site_symmetry_multiplicity
 _atom_site_fract_x
 _atom_site_fract_y
 _atom_site_fract_z
 _atom_site_occupancy
  Ce  Ce0  1  0.589327  0.589585  0.000000  1
  Ce  Ce1  1  0.410673  0.000258  0.000000  1
  Nd  Nd2  1  0.000000  0.410356  0.000000  1
  Zn  Zn3  1  0.000000  0.764183  0.500000  1
  Zn  Zn4  1  0.234756  0.233750  0.500000  1
  Zn  Zn5  1  0.765244  0.998994  0.500000  1
  Cu  Cu6  1  0.000000  0.995804  0.000000  1
  Pd  Pd7  1  0.655250  0.331160  0.500000  1
  Pd  Pd8  1  0.344750  0.675910  0.500000  1
