# generated using pymatgen
data_Ce4NiPt3Pb2
_symmetry_space_group_name_H-M   'P 1'
_cell_length_a   7.91579495
_cell_length_b   7.91579362
_cell_length_c   3.70076200
_cell_angle_alpha   90.00000000
_cell_angle_beta   90.00000000
_cell_angle_gamma   89.38406078
_symmetry_Int_Tables_number   1
_chemical_formula_structural   Ce4NiPt3Pb2
_chemical_formula_sum   'Ce4 Ni1 Pt3 Pb2'
_cell_volume   231.87560427
_cell_formula_units_Z   1
loop_
 _symmetry_equiv_pos_site_id
 _symmetry_equiv_pos_as_xyz
  1  'x, y, z'
loop_
 _atom_site_type_symbol
 _atom_site_label
 _atom_site_symmetry_multiplicity
 _atom_site_fract_x
 _atom_site_fract_y
 _atom_site_fract_z
 _atom_site_occupancy
  Ce  Ce0  1  0.669034  0.173752  0.500000  1
  Ce  Ce1  1  0.180665  0.319335  0.500000  1
  Ce  Ce2  1  0.827249  0.672751  0.500000  1
  Ce  Ce3  1  0.326248  0.830966  0.500000  1
  Ni  Ni4  1  0.373338  0.126662  0.000000  1
  Pt  Pt5  1  0.128700  0.625652  0.000000  1
  Pt  Pt6  1  0.619030  0.880970  0.000000  1
  Pt  Pt7  1  0.874348  0.371300  0.000000  1
  Pb  Pb8  1  0.002852  0.001463  0.000000  1
  Pb  Pb9  1  0.498537  0.497148  0.000000  1
