# generated using pymatgen
data_Hf3Si3MoRu2
_symmetry_space_group_name_H-M   'P 1'
_cell_length_a   7.68600507
_cell_length_b   7.68600478
_cell_length_c   7.68600540
_cell_angle_alpha   126.51812133
_cell_angle_beta   125.32738746
_cell_angle_gamma   80.01882113
_symmetry_Int_Tables_number   1
_chemical_formula_structural   Hf3Si3MoRu2
_chemical_formula_sum   'Hf6 Si6 Mo2 Ru4'
_cell_volume   287.43593892
_cell_formula_units_Z   2
loop_
 _symmetry_equiv_pos_site_id
 _symmetry_equiv_pos_as_xyz
  1  'x, y, z'
loop_
 _atom_site_type_symbol
 _atom_site_label
 _atom_site_symmetry_multiplicity
 _atom_site_fract_x
 _atom_site_fract_y
 _atom_site_fract_z
 _atom_site_occupancy
  Hf  Hf0  1  0.458929  0.678926  0.719997  1
  Hf  Hf1  1  0.541071  0.261068  0.219997  1
  Hf  Hf2  1  0.746876  0.838729  0.591853  1
  Hf  Hf3  1  0.253124  0.844976  0.091853  1
  Hf  Hf4  1  0.054124  0.259526  0.705401  1
  Hf  Hf5  1  0.945876  0.651277  0.205401  1
  Si  Si6  1  0.265943  0.258290  0.492347  1
  Si  Si7  1  0.734057  0.226402  0.992347  1
  Si  Si8  1  0.326488  0.588337  0.251878  1
  Si  Si9  1  0.673512  0.925390  0.261849  1
  Si  Si10  1  0.163541  0.925390  0.751878  1
  Si  Si11  1  0.836459  0.588337  0.761849  1
  Mo  Mo12  1  0.500000  0.502511  0.002511  1
  Mo  Mo13  1  0.000000  0.502511  0.502511  1
  Ru  Ru14  1  0.105049  0.253008  0.106007  1
  Ru  Ru15  1  0.894951  0.000958  0.147960  1
  Ru  Ru16  1  0.352998  0.000958  0.606007  1
  Ru  Ru17  1  0.647002  0.253008  0.647960  1
