# generated using pymatgen
data_Pr2Nd5Th(MgIr)2
_symmetry_space_group_name_H-M   'P 1'
_cell_length_a   10.05239707
_cell_length_b   10.05104796
_cell_length_c   10.07817302
_cell_angle_alpha   59.89698524
_cell_angle_beta   59.84339828
_cell_angle_gamma   60.01689576
_symmetry_Int_Tables_number   1
_chemical_formula_structural   Pr2Nd5Th(MgIr)2
_chemical_formula_sum   'Pr4 Nd10 Th2 Mg4 Ir4'
_cell_volume   718.70043514
_cell_formula_units_Z   2
loop_
 _symmetry_equiv_pos_site_id
 _symmetry_equiv_pos_as_xyz
  1  'x, y, z'
loop_
 _atom_site_type_symbol
 _atom_site_label
 _atom_site_symmetry_multiplicity
 _atom_site_fract_x
 _atom_site_fract_y
 _atom_site_fract_z
 _atom_site_occupancy
  Pr  Pr0  1  0.561539  0.942447  0.563464  1
  Pr  Pr1  1  0.941467  0.559318  0.936369  1
  Pr  Pr2  1  0.562278  0.562162  0.939441  1
  Pr  Pr3  1  0.938717  0.938472  0.559624  1
  Nd  Nd4  1  0.348165  0.955882  0.348315  1
  Nd  Nd5  1  0.955671  0.348235  0.348440  1
  Nd  Nd6  1  0.812173  0.189210  0.186887  1
  Nd  Nd7  1  0.187751  0.812392  0.811264  1
  Nd  Nd8  1  0.189313  0.811822  0.187188  1
  Nd  Nd9  1  0.812373  0.187476  0.811077  1
  Nd  Nd10  1  0.187918  0.188035  0.812131  1
  Nd  Nd11  1  0.811196  0.811215  0.186789  1
  Nd  Nd12  1  0.943008  0.560504  0.562566  1
  Nd  Nd13  1  0.558325  0.942397  0.937538  1
  Th  Th14  1  0.342697  0.342476  0.346162  1
  Th  Th15  1  0.343933  0.344025  0.966695  1
  Mg  Mg16  1  0.578440  0.578176  0.580890  1
  Mg  Mg17  1  0.577346  0.577871  0.262892  1
  Mg  Mg18  1  0.576773  0.262363  0.579933  1
  Mg  Mg19  1  0.262409  0.576825  0.579445  1
  Ir  Ir20  1  0.146819  0.145757  0.137769  1
  Ir  Ir21  1  0.145164  0.146307  0.570558  1
  Ir  Ir22  1  0.149757  0.566718  0.142696  1
  Ir  Ir23  1  0.566769  0.149915  0.141868  1
