# generated using pymatgen
data_Nd3Er(P3Rh4)2
_symmetry_space_group_name_H-M   'P 1'
_cell_length_a   4.02182700
_cell_length_b   11.42875100
_cell_length_c   13.17225200
_cell_angle_alpha   90.00000000
_cell_angle_beta   90.00000000
_cell_angle_gamma   90.00000000
_symmetry_Int_Tables_number   1
_chemical_formula_structural   Nd3Er(P3Rh4)2
_chemical_formula_sum   'Nd6 Er2 P12 Rh16'
_cell_volume   605.45544158
_cell_formula_units_Z   2
loop_
 _symmetry_equiv_pos_site_id
 _symmetry_equiv_pos_as_xyz
  1  'x, y, z'
loop_
 _atom_site_type_symbol
 _atom_site_label
 _atom_site_symmetry_multiplicity
 _atom_site_fract_x
 _atom_site_fract_y
 _atom_site_fract_z
 _atom_site_occupancy
  Nd  Nd0  1  0.000000  0.500000  0.523271  1
  Nd  Nd1  1  0.500000  0.000000  0.476729  1
  Nd  Nd2  1  0.500000  0.821595  0.204785  1
  Nd  Nd3  1  0.500000  0.178405  0.204785  1
  Nd  Nd4  1  0.000000  0.678405  0.795215  1
  Nd  Nd5  1  0.000000  0.321595  0.795215  1
  Er  Er6  1  0.500000  0.500000  0.159200  1
  Er  Er7  1  0.000000  0.000000  0.840800  1
  P  P8  1  0.500000  0.500000  0.884068  1
  P  P9  1  0.000000  0.000000  0.115932  1
  P  P10  1  0.500000  0.500000  0.361819  1
  P  P11  1  0.000000  0.000000  0.638181  1
  P  P12  1  0.500000  0.309084  0.615032  1
  P  P13  1  0.500000  0.690916  0.615032  1
  P  P14  1  0.000000  0.190916  0.384968  1
  P  P15  1  0.000000  0.809084  0.384968  1
  P  P16  1  0.500000  0.839734  0.890945  1
  P  P17  1  0.500000  0.160266  0.890945  1
  P  P18  1  0.000000  0.660266  0.109055  1
  P  P19  1  0.000000  0.339734  0.109055  1
  Rh  Rh20  1  0.500000  0.500000  0.703600  1
  Rh  Rh21  1  0.000000  0.000000  0.296400  1
  Rh  Rh22  1  0.000000  0.500000  0.986112  1
  Rh  Rh23  1  0.500000  0.000000  0.013888  1
  Rh  Rh24  1  0.500000  0.331127  0.991900  1
  Rh  Rh25  1  0.500000  0.668873  0.991900  1
  Rh  Rh26  1  0.000000  0.168873  0.008100  1
  Rh  Rh27  1  0.000000  0.831127  0.008100  1
  Rh  Rh28  1  0.500000  0.290677  0.432829  1
  Rh  Rh29  1  0.500000  0.709323  0.432829  1
  Rh  Rh30  1  0.000000  0.209323  0.567171  1
  Rh  Rh31  1  0.000000  0.790677  0.567171  1
  Rh  Rh32  1  0.500000  0.874548  0.703946  1
  Rh  Rh33  1  0.500000  0.125452  0.703946  1
  Rh  Rh34  1  0.000000  0.625452  0.296054  1
  Rh  Rh35  1  0.000000  0.374548  0.296054  1
