# generated using pymatgen
data_Eu12Pd3Au
_symmetry_space_group_name_H-M   'P 1'
_cell_length_a   6.82843601
_cell_length_b   7.92691715
_cell_length_c   10.07158600
_cell_angle_alpha   90.00000000
_cell_angle_beta   90.00000000
_cell_angle_gamma   90.06197768
_symmetry_Int_Tables_number   1
_chemical_formula_structural   Eu12Pd3Au
_chemical_formula_sum   'Eu12 Pd3 Au1'
_cell_volume   545.15898493
_cell_formula_units_Z   1
loop_
 _symmetry_equiv_pos_site_id
 _symmetry_equiv_pos_as_xyz
  1  'x, y, z'
loop_
 _atom_site_type_symbol
 _atom_site_label
 _atom_site_symmetry_multiplicity
 _atom_site_fract_x
 _atom_site_fract_y
 _atom_site_fract_z
 _atom_site_occupancy
  Eu  Eu0  1  0.335919  0.676000  0.065098  1
  Eu  Eu1  1  0.163066  0.175768  0.436614  1
  Eu  Eu2  1  0.664205  0.320653  0.561161  1
  Eu  Eu3  1  0.840222  0.826227  0.938165  1
  Eu  Eu4  1  0.664205  0.320653  0.938839  1
  Eu  Eu5  1  0.840222  0.826227  0.561835  1
  Eu  Eu6  1  0.335919  0.676000  0.434902  1
  Eu  Eu7  1  0.163066  0.175768  0.063386  1
  Eu  Eu8  1  0.858288  0.534866  0.250000  1
  Eu  Eu9  1  0.641868  0.035027  0.250000  1
  Eu  Eu10  1  0.137232  0.462970  0.750000  1
  Eu  Eu11  1  0.354901  0.970443  0.750000  1
  Pd  Pd12  1  0.053944  0.879668  0.250000  1
  Pd  Pd13  1  0.445670  0.379955  0.250000  1
  Pd  Pd14  1  0.945550  0.120149  0.750000  1
  Au  Au15  1  0.555722  0.619627  0.750000  1
