# generated using pymatgen
data_RbBa3RuO6
_symmetry_space_group_name_H-M   'P 1'
_cell_length_a   7.34955543
_cell_length_b   7.34955443
_cell_length_c   7.34955500
_cell_angle_alpha   87.63665170
_cell_angle_beta   87.63665203
_cell_angle_gamma   87.63665029
_symmetry_Int_Tables_number   1
_chemical_formula_structural   RbBa3RuO6
_chemical_formula_sum   'Rb2 Ba6 Ru2 O12'
_cell_volume   396.00726376
_cell_formula_units_Z   2
loop_
 _symmetry_equiv_pos_site_id
 _symmetry_equiv_pos_as_xyz
  1  'x, y, z'
loop_
 _atom_site_type_symbol
 _atom_site_label
 _atom_site_symmetry_multiplicity
 _atom_site_fract_x
 _atom_site_fract_y
 _atom_site_fract_z
 _atom_site_occupancy
  Rb  Rb0  1  0.249999  0.250001  0.250000  1
  Rb  Rb1  1  0.750001  0.749999  0.750000  1
  Ba  Ba2  1  0.113665  0.750000  0.386335  1
  Ba  Ba3  1  0.386334  0.113666  0.750000  1
  Ba  Ba4  1  0.886335  0.250000  0.613665  1
  Ba  Ba5  1  0.613666  0.886334  0.250000  1
  Ba  Ba6  1  0.750001  0.386335  0.113665  1
  Ba  Ba7  1  0.249999  0.613665  0.886335  1
  Ru  Ru8  1  0.000000  0.000000  0.000000  1
  Ru  Ru9  1  0.500000  0.500000  0.500000  1
  O  O10  1  0.432570  0.760456  0.567336  1
  O  O11  1  0.567336  0.432570  0.760456  1
  O  O12  1  0.760456  0.567336  0.432570  1
  O  O13  1  0.067430  0.932664  0.739543  1
  O  O14  1  0.739543  0.067430  0.932663  1
  O  O15  1  0.932664  0.739542  0.067430  1
  O  O16  1  0.567430  0.239544  0.432664  1
  O  O17  1  0.432664  0.567430  0.239544  1
  O  O18  1  0.239544  0.432664  0.567430  1
  O  O19  1  0.932570  0.067336  0.260457  1
  O  O20  1  0.067336  0.260458  0.932570  1
  O  O21  1  0.260457  0.932570  0.067337  1
