# generated using pymatgen
data_Lu3ZrRe5Os3
_symmetry_space_group_name_H-M   'P 1'
_cell_length_a   5.31664265
_cell_length_b   5.20419992
_cell_length_c   8.88510737
_cell_angle_alpha   90.00000024
_cell_angle_beta   89.97111756
_cell_angle_gamma   119.30282465
_symmetry_Int_Tables_number   1
_chemical_formula_structural   Lu3ZrRe5Os3
_chemical_formula_sum   'Lu3 Zr1 Re5 Os3'
_cell_volume   214.38432041
_cell_formula_units_Z   1
loop_
 _symmetry_equiv_pos_site_id
 _symmetry_equiv_pos_as_xyz
  1  'x, y, z'
loop_
 _atom_site_type_symbol
 _atom_site_label
 _atom_site_symmetry_multiplicity
 _atom_site_fract_x
 _atom_site_fract_y
 _atom_site_fract_z
 _atom_site_occupancy
  Lu  Lu0  1  0.332403  0.666203  0.437912  1
  Lu  Lu1  1  0.670362  0.335180  0.563445  1
  Lu  Lu2  1  0.669813  0.334906  0.936457  1
  Zr  Zr3  1  0.330649  0.665325  0.065003  1
  Re  Re4  1  0.830185  0.170637  0.248250  1
  Re  Re5  1  0.830185  0.659549  0.248250  1
  Re  Re6  1  0.345680  0.172840  0.248313  1
  Re  Re7  1  0.164971  0.827798  0.751131  1
  Re  Re8  1  0.164971  0.337173  0.751131  1
  Os  Os9  1  0.006765  0.003382  0.500251  1
  Os  Os10  1  0.008866  0.004433  0.998280  1
  Os  Os11  1  0.645150  0.822574  0.751575  1
