# generated using pymatgen
data_HoFe2SiP
_symmetry_space_group_name_H-M   'P 1'
_cell_length_a   5.45395414
_cell_length_b   5.45395352
_cell_length_c   5.45395232
_cell_angle_alpha   138.25908761
_cell_angle_beta   138.25908096
_cell_angle_gamma   60.50643525
_symmetry_Int_Tables_number   1
_chemical_formula_structural   HoFe2SiP
_chemical_formula_sum   'Ho1 Fe2 Si1 P1'
_cell_volume   71.14364298
_cell_formula_units_Z   1
loop_
 _symmetry_equiv_pos_site_id
 _symmetry_equiv_pos_as_xyz
  1  'x, y, z'
loop_
 _atom_site_type_symbol
 _atom_site_label
 _atom_site_symmetry_multiplicity
 _atom_site_fract_x
 _atom_site_fract_y
 _atom_site_fract_z
 _atom_site_occupancy
  Ho  Ho0  1  0.001307  0.001307  0.000000  1
  Fe  Fe1  1  0.246789  0.746789  0.500000  1
  Fe  Fe2  1  0.746789  0.246789  0.500000  1
  Si  Si3  1  0.370242  0.370242  0.000000  1
  P  P4  1  0.634874  0.634874  0.000000  1
