# generated using pymatgen
data_Pr4LuUSe10
_symmetry_space_group_name_H-M   'P 1'
_cell_length_a   7.90998300
_cell_length_b   8.40350200
_cell_length_c   12.52364800
_cell_angle_alpha   90.00000000
_cell_angle_beta   90.00000000
_cell_angle_gamma   90.00000000
_symmetry_Int_Tables_number   1
_chemical_formula_structural   Pr4LuUSe10
_chemical_formula_sum   'Pr8 Lu2 U2 Se20'
_cell_volume   832.46639391
_cell_formula_units_Z   2
loop_
 _symmetry_equiv_pos_site_id
 _symmetry_equiv_pos_as_xyz
  1  'x, y, z'
loop_
 _atom_site_type_symbol
 _atom_site_label
 _atom_site_symmetry_multiplicity
 _atom_site_fract_x
 _atom_site_fract_y
 _atom_site_fract_z
 _atom_site_occupancy
  Pr  Pr0  1  0.528751  0.501460  0.322365  1
  Pr  Pr1  1  0.971249  0.998540  0.822365  1
  Pr  Pr2  1  0.475249  0.996487  0.677616  1
  Pr  Pr3  1  0.024751  0.503513  0.177616  1
  Pr  Pr4  1  0.475249  0.503513  0.677616  1
  Pr  Pr5  1  0.024751  0.996487  0.177616  1
  Pr  Pr6  1  0.528751  0.998540  0.322365  1
  Pr  Pr7  1  0.971249  0.501460  0.822365  1
  Lu  Lu8  1  0.071915  0.750000  0.494905  1
  Lu  Lu9  1  0.428085  0.750000  0.994905  1
  U  U10  1  0.939366  0.250000  0.506718  1
  U  U11  1  0.560634  0.250000  0.006718  1
  Se  Se12  1  0.834718  0.963374  0.593822  1
  Se  Se13  1  0.665282  0.536626  0.093822  1
  Se  Se14  1  0.162616  0.457767  0.407215  1
  Se  Se15  1  0.337384  0.042233  0.907215  1
  Se  Se16  1  0.162616  0.042233  0.407215  1
  Se  Se17  1  0.337384  0.457767  0.907215  1
  Se  Se18  1  0.834718  0.536626  0.593822  1
  Se  Se19  1  0.665282  0.963374  0.093822  1
  Se  Se20  1  0.833484  0.750000  0.316492  1
  Se  Se21  1  0.666516  0.750000  0.816492  1
  Se  Se22  1  0.167503  0.250000  0.683651  1
  Se  Se23  1  0.332497  0.250000  0.183651  1
  Se  Se24  1  0.450950  0.750000  0.496658  1
  Se  Se25  1  0.049050  0.750000  0.996658  1
  Se  Se26  1  0.550122  0.250000  0.499631  1
  Se  Se27  1  0.949878  0.250000  0.999631  1
  Se  Se28  1  0.189218  0.750000  0.710240  1
  Se  Se29  1  0.310782  0.750000  0.210240  1
  Se  Se30  1  0.809957  0.250000  0.289672  1
  Se  Se31  1  0.690043  0.250000  0.789672  1
