# generated using pymatgen
data_PrDy3Er2Ta2O14
_symmetry_space_group_name_H-M   'P 1'
_cell_length_a   6.49387576
_cell_length_b   6.49208542
_cell_length_c   7.52962730
_cell_angle_alpha   90.11099590
_cell_angle_beta   89.83652076
_cell_angle_gamma   108.79941118
_symmetry_Int_Tables_number   1
_chemical_formula_structural   PrDy3Er2Ta2O14
_chemical_formula_sum   'Pr1 Dy3 Er2 Ta2 O14'
_cell_volume   300.50401658
_cell_formula_units_Z   1
loop_
 _symmetry_equiv_pos_site_id
 _symmetry_equiv_pos_as_xyz
  1  'x, y, z'
loop_
 _atom_site_type_symbol
 _atom_site_label
 _atom_site_symmetry_multiplicity
 _atom_site_fract_x
 _atom_site_fract_y
 _atom_site_fract_z
 _atom_site_occupancy
  Pr  Pr0  1  0.488428  0.487971  0.001022  1
  Dy  Dy1  1  0.537265  0.536407  0.499374  1
  Dy  Dy2  1  0.000639  0.465509  0.741120  1
  Dy  Dy3  1  0.534247  0.001752  0.752784  1
  Er  Er4  1  0.001771  0.534197  0.247073  1
  Er  Er5  1  0.465337  0.999873  0.259188  1
  Ta  Ta6  1  0.002840  0.002996  0.499005  1
  Ta  Ta7  1  0.998648  0.998970  0.001086  1
  O  O8  1  0.934156  0.065456  0.750163  1
  O  O9  1  0.641051  0.359230  0.739848  1
  O  O10  1  0.309843  0.051944  0.539270  1
  O  O11  1  0.936332  0.683837  0.961697  1
  O  O12  1  0.634931  0.366049  0.260351  1
  O  O13  1  0.919088  0.672963  0.524823  1
  O  O14  1  0.324322  0.073555  0.973624  1
  O  O15  1  0.072188  0.323765  0.029629  1
  O  O16  1  0.673407  0.919573  0.471868  1
  O  O17  1  0.367646  0.633563  0.739425  1
  O  O18  1  0.684830  0.938805  0.042122  1
  O  O19  1  0.049037  0.308548  0.456829  1
  O  O20  1  0.356435  0.643188  0.259913  1
  O  O21  1  0.067560  0.931849  0.249785  1
