# generated using pymatgen
data_CaEu4Y5Sn8
_symmetry_space_group_name_H-M   'P 1'
_cell_length_a   8.07007300
_cell_length_b   8.37282900
_cell_length_c   15.79620200
_cell_angle_alpha   90.00000000
_cell_angle_beta   90.00000000
_cell_angle_gamma   90.00000000
_symmetry_Int_Tables_number   1
_chemical_formula_structural   CaEu4Y5Sn8
_chemical_formula_sum   'Ca2 Eu8 Y10 Sn16'
_cell_volume   1067.33896334
_cell_formula_units_Z   2
loop_
 _symmetry_equiv_pos_site_id
 _symmetry_equiv_pos_as_xyz
  1  'x, y, z'
loop_
 _atom_site_type_symbol
 _atom_site_label
 _atom_site_symmetry_multiplicity
 _atom_site_fract_x
 _atom_site_fract_y
 _atom_site_fract_z
 _atom_site_occupancy
  Ca  Ca0  1  0.161345  0.492350  0.750000  1
  Ca  Ca1  1  0.661452  0.007603  0.750000  1
  Eu  Eu2  1  0.493419  0.320718  0.907451  1
  Eu  Eu3  1  0.993429  0.179309  0.592557  1
  Eu  Eu4  1  0.503524  0.676415  0.405461  1
  Eu  Eu5  1  0.003562  0.823629  0.094503  1
  Eu  Eu6  1  0.503524  0.676415  0.094539  1
  Eu  Eu7  1  0.003562  0.823629  0.405497  1
  Eu  Eu8  1  0.493419  0.320718  0.592549  1
  Eu  Eu9  1  0.993429  0.179309  0.907443  1
  Y  Y10  1  0.329659  0.831123  0.877983  1
  Y  Y11  1  0.829603  0.668864  0.622049  1
  Y  Y12  1  0.672592  0.168711  0.375934  1
  Y  Y13  1  0.172582  0.331196  0.124103  1
  Y  Y14  1  0.672592  0.168711  0.124066  1
  Y  Y15  1  0.172582  0.331196  0.375897  1
  Y  Y16  1  0.329659  0.831123  0.622017  1
  Y  Y17  1  0.829603  0.668864  0.877951  1
  Y  Y18  1  0.839193  0.507496  0.250000  1
  Y  Y19  1  0.339367  0.992486  0.250000  1
  Sn  Sn20  1  0.335335  0.036051  0.043617  1
  Sn  Sn21  1  0.835349  0.463967  0.456340  1
  Sn  Sn22  1  0.666388  0.960736  0.538634  1
  Sn  Sn23  1  0.166440  0.539266  0.961383  1
  Sn  Sn24  1  0.666388  0.960736  0.961366  1
  Sn  Sn25  1  0.166440  0.539266  0.538617  1
  Sn  Sn26  1  0.335335  0.036051  0.456383  1
  Sn  Sn27  1  0.835349  0.463967  0.043660  1
  Sn  Sn28  1  0.530245  0.619780  0.750000  1
  Sn  Sn29  1  0.030064  0.879948  0.750000  1
  Sn  Sn30  1  0.473024  0.380058  0.250000  1
  Sn  Sn31  1  0.973206  0.120067  0.250000  1
  Sn  Sn32  1  0.286017  0.127521  0.750000  1
  Sn  Sn33  1  0.785981  0.372572  0.750000  1
  Sn  Sn34  1  0.708352  0.865507  0.250000  1
  Sn  Sn35  1  0.207992  0.634643  0.250000  1
