# generated using pymatgen
data_CeDy8Y(Al2Ru3)2
_symmetry_space_group_name_H-M   'P 1'
_cell_length_a   8.41124507
_cell_length_b   8.41446822
_cell_length_c   8.29371132
_cell_angle_alpha   110.08814313
_cell_angle_beta   109.23756781
_cell_angle_gamma   109.61896086
_symmetry_Int_Tables_number   1
_chemical_formula_structural   CeDy8Y(Al2Ru3)2
_chemical_formula_sum   'Ce1 Dy8 Y1 Al4 Ru6'
_cell_volume   448.86622323
_cell_formula_units_Z   1
loop_
 _symmetry_equiv_pos_site_id
 _symmetry_equiv_pos_as_xyz
  1  'x, y, z'
loop_
 _atom_site_type_symbol
 _atom_site_label
 _atom_site_symmetry_multiplicity
 _atom_site_fract_x
 _atom_site_fract_y
 _atom_site_fract_z
 _atom_site_occupancy
  Ce  Ce0  1  0.193662  0.943934  0.249940  1
  Dy  Dy1  1  0.781044  0.787407  0.784936  1
  Dy  Dy2  1  0.316600  0.566512  0.749771  1
  Dy  Dy3  1  0.754154  0.320373  0.569285  1
  Dy  Dy4  1  0.569013  0.748225  0.316578  1
  Dy  Dy5  1  0.715743  0.499605  0.997376  1
  Dy  Dy6  1  0.002280  0.718193  0.502445  1
  Dy  Dy7  1  0.502395  0.995945  0.715076  1
  Dy  Dy8  1  0.250938  0.184578  0.930731  1
  Y  Y9  1  0.930608  0.252273  0.182832  1
  Al  Al10  1  0.412634  0.413685  0.407799  1
  Al  Al11  1  0.092578  0.497624  0.005345  1
  Al  Al12  1  0.992662  0.087922  0.494916  1
  Al  Al13  1  0.506039  0.004920  0.092070  1
  Ru  Ru14  1  0.875982  0.125973  0.749835  1
  Ru  Ru15  1  0.739717  0.869781  0.117939  1
  Ru  Ru16  1  0.129840  0.763007  0.908085  1
  Ru  Ru17  1  0.253372  0.622669  0.382720  1
  Ru  Ru18  1  0.355436  0.221702  0.592375  1
  Ru  Ru19  1  0.625304  0.375671  0.249947  1
