# generated using pymatgen
data_Nd2Si3Ge(PRh4)3
_symmetry_space_group_name_H-M   'P 1'
_cell_length_a   9.78368100
_cell_length_b   9.78368027
_cell_length_c   3.90105600
_cell_angle_alpha   90.00000000
_cell_angle_beta   90.00000000
_cell_angle_gamma   120.00000767
_symmetry_Int_Tables_number   1
_chemical_formula_structural   Nd2Si3Ge(PRh4)3
_chemical_formula_sum   'Nd2 Si3 Ge1 P3 Rh12'
_cell_volume   323.38309874
_cell_formula_units_Z   1
loop_
 _symmetry_equiv_pos_site_id
 _symmetry_equiv_pos_as_xyz
  1  'x, y, z'
loop_
 _atom_site_type_symbol
 _atom_site_label
 _atom_site_symmetry_multiplicity
 _atom_site_fract_x
 _atom_site_fract_y
 _atom_site_fract_z
 _atom_site_occupancy
  Nd  Nd0  1  0.333333  0.666667  0.748132  1
  Nd  Nd1  1  0.666667  0.333333  0.246750  1
  Si  Si2  1  0.889105  0.600437  0.747459  1
  Si  Si3  1  0.399563  0.288668  0.747459  1
  Si  Si4  1  0.711332  0.110895  0.747459  1
  Ge  Ge5  1  0.000000  0.000000  0.548811  1
  P  P6  1  0.109956  0.400623  0.246344  1
  P  P7  1  0.599377  0.709334  0.246344  1
  P  P8  1  0.290666  0.890044  0.246344  1
  Rh  Rh9  1  0.617256  0.555673  0.748904  1
  Rh  Rh10  1  0.444327  0.061584  0.748904  1
  Rh  Rh11  1  0.938416  0.382744  0.748904  1
  Rh  Rh12  1  0.382581  0.444949  0.246584  1
  Rh  Rh13  1  0.555051  0.937631  0.246584  1
  Rh  Rh14  1  0.062369  0.617419  0.246584  1
  Rh  Rh15  1  0.125101  0.849980  0.748440  1
  Rh  Rh16  1  0.150020  0.275122  0.748440  1
  Rh  Rh17  1  0.724878  0.874899  0.748440  1
  Rh  Rh18  1  0.882917  0.148780  0.247706  1
  Rh  Rh19  1  0.851220  0.734136  0.247706  1
  Rh  Rh20  1  0.265864  0.117083  0.247706  1
