# generated using pymatgen
data_CeNd2Pa(Ni7P4)2
_symmetry_space_group_name_H-M   'P 1'
_cell_length_a   3.76197500
_cell_length_b   9.16621978
_cell_length_c   10.35006837
_cell_angle_alpha   89.79593266
_cell_angle_beta   90.00000000
_cell_angle_gamma   90.00000000
_symmetry_Int_Tables_number   1
_chemical_formula_structural   CeNd2Pa(Ni7P4)2
_chemical_formula_sum   'Ce1 Nd2 Pa1 Ni14 P8'
_cell_volume   356.90007184
_cell_formula_units_Z   1
loop_
 _symmetry_equiv_pos_site_id
 _symmetry_equiv_pos_as_xyz
  1  'x, y, z'
loop_
 _atom_site_type_symbol
 _atom_site_label
 _atom_site_symmetry_multiplicity
 _atom_site_fract_x
 _atom_site_fract_y
 _atom_site_fract_z
 _atom_site_occupancy
  Ce  Ce0  1  0.500000  0.058753  0.282951  1
  Nd  Nd1  1  0.000000  0.941021  0.780573  1
  Nd  Nd2  1  0.000000  0.561537  0.003487  1
  Pa  Pa3  1  0.500000  0.439446  0.500598  1
  Ni  Ni4  1  0.500000  0.303590  0.076349  1
  Ni  Ni5  1  0.500000  0.740427  0.403076  1
  Ni  Ni6  1  0.500000  0.419100  0.802147  1
  Ni  Ni7  1  0.500000  0.059911  0.979884  1
  Ni  Ni8  1  0.500000  0.684365  0.760994  1
  Ni  Ni9  1  0.000000  0.283323  0.667692  1
  Ni  Ni10  1  0.000000  0.253740  0.901403  1
  Ni  Ni11  1  0.000000  0.688384  0.563466  1
  Ni  Ni12  1  0.500000  0.102053  0.582437  1
  Ni  Ni13  1  0.000000  0.314519  0.268650  1
  Ni  Ni14  1  0.000000  0.578056  0.318893  1
  Ni  Ni15  1  0.000000  0.900250  0.082147  1
  Ni  Ni16  1  0.000000  0.941825  0.477539  1
  Ni  Ni17  1  0.500000  0.724040  0.172135  1
  P  P18  1  0.000000  0.815721  0.286479  1
  P  P19  1  0.000000  0.191798  0.467551  1
  P  P20  1  0.500000  0.183906  0.787920  1
  P  P21  1  0.000000  0.154253  0.090332  1
  P  P22  1  0.500000  0.473537  0.223601  1
  P  P23  1  0.500000  0.812514  0.969559  1
  P  P24  1  0.500000  0.846648  0.588114  1
  P  P25  1  0.000000  0.527285  0.717423  1
