# generated using pymatgen
data_Er9Tm3Tc3Rh
_symmetry_space_group_name_H-M   'P 1'
_cell_length_a   6.23462635
_cell_length_b   7.34095147
_cell_length_c   9.05246254
_cell_angle_alpha   90.01897883
_cell_angle_beta   90.03493415
_cell_angle_gamma   89.90276541
_symmetry_Int_Tables_number   1
_chemical_formula_structural   Er9Tm3Tc3Rh
_chemical_formula_sum   'Er9 Tm3 Tc3 Rh1'
_cell_volume   414.31321927
_cell_formula_units_Z   1
loop_
 _symmetry_equiv_pos_site_id
 _symmetry_equiv_pos_as_xyz
  1  'x, y, z'
loop_
 _atom_site_type_symbol
 _atom_site_label
 _atom_site_symmetry_multiplicity
 _atom_site_fract_x
 _atom_site_fract_y
 _atom_site_fract_z
 _atom_site_occupancy
  Er  Er0  1  0.336861  0.823890  0.562590  1
  Er  Er1  1  0.336801  0.824143  0.937482  1
  Er  Er2  1  0.836721  0.678753  0.060994  1
  Er  Er3  1  0.167854  0.323096  0.565034  1
  Er  Er4  1  0.662863  0.174080  0.439100  1
  Er  Er5  1  0.875722  0.961601  0.750120  1
  Er  Er6  1  0.369318  0.542131  0.249859  1
  Er  Er7  1  0.626287  0.459464  0.750156  1
  Er  Er8  1  0.127207  0.040953  0.249851  1
  Tm  Tm9  1  0.662749  0.173883  0.060744  1
  Tm  Tm10  1  0.168077  0.322951  0.934982  1
  Tm  Tm11  1  0.836632  0.678564  0.438901  1
  Tc  Tc12  1  0.037763  0.612641  0.749835  1
  Tc  Tc13  1  0.539646  0.884112  0.250097  1
  Tc  Tc14  1  0.460229  0.115387  0.750486  1
  Rh  Rh15  1  0.955270  0.384351  0.249769  1
