# generated using pymatgen
data_Pr15Th(HgRh)4
_symmetry_space_group_name_H-M   'P 1'
_cell_length_a   10.00388111
_cell_length_b   10.00388078
_cell_length_c   10.00388123
_cell_angle_alpha   59.92486123
_cell_angle_beta   59.92486278
_cell_angle_gamma   59.92486269
_symmetry_Int_Tables_number   1
_chemical_formula_structural   Pr15Th(HgRh)4
_chemical_formula_sum   'Pr15 Th1 Hg4 Rh4'
_cell_volume   706.72382175
_cell_formula_units_Z   1
loop_
 _symmetry_equiv_pos_site_id
 _symmetry_equiv_pos_as_xyz
  1  'x, y, z'
loop_
 _atom_site_type_symbol
 _atom_site_label
 _atom_site_symmetry_multiplicity
 _atom_site_fract_x
 _atom_site_fract_y
 _atom_site_fract_z
 _atom_site_occupancy
  Pr  Pr0  1  0.350531  0.350531  0.947963  1
  Pr  Pr1  1  0.350531  0.947963  0.350531  1
  Pr  Pr2  1  0.947963  0.350531  0.350531  1
  Pr  Pr3  1  0.810180  0.190307  0.190307  1
  Pr  Pr4  1  0.190066  0.808724  0.808723  1
  Pr  Pr5  1  0.190307  0.810180  0.190306  1
  Pr  Pr6  1  0.808723  0.190066  0.808723  1
  Pr  Pr7  1  0.190307  0.190307  0.810180  1
  Pr  Pr8  1  0.808724  0.808724  0.190065  1
  Pr  Pr9  1  0.939826  0.562576  0.562576  1
  Pr  Pr10  1  0.561530  0.938028  0.938028  1
  Pr  Pr11  1  0.562576  0.939826  0.562576  1
  Pr  Pr12  1  0.938028  0.561530  0.938028  1
  Pr  Pr13  1  0.562576  0.562576  0.939826  1
  Pr  Pr14  1  0.938028  0.938028  0.561530  1
  Th  Th15  1  0.344950  0.344950  0.344950  1
  Hg  Hg16  1  0.583532  0.583532  0.583532  1
  Hg  Hg17  1  0.582990  0.582990  0.248153  1
  Hg  Hg18  1  0.582990  0.248153  0.582990  1
  Hg  Hg19  1  0.248153  0.582990  0.582990  1
  Rh  Rh20  1  0.142121  0.142121  0.142121  1
  Rh  Rh21  1  0.148592  0.148592  0.568178  1
  Rh  Rh22  1  0.148592  0.568178  0.148592  1
  Rh  Rh23  1  0.568178  0.148592  0.148592  1
