# generated using pymatgen
data_Na3La2Cr2N7
_symmetry_space_group_name_H-M   'P 1'
_cell_length_a   6.00120006
_cell_length_b   8.55749106
_cell_length_c   8.62262500
_cell_angle_alpha   115.11161017
_cell_angle_beta   96.52764502
_cell_angle_gamma   89.62072277
_symmetry_Int_Tables_number   1
_chemical_formula_structural   Na3La2Cr2N7
_chemical_formula_sum   'Na6 La4 Cr4 N14'
_cell_volume   397.93691722
_cell_formula_units_Z   2
loop_
 _symmetry_equiv_pos_site_id
 _symmetry_equiv_pos_as_xyz
  1  'x, y, z'
loop_
 _atom_site_type_symbol
 _atom_site_label
 _atom_site_symmetry_multiplicity
 _atom_site_fract_x
 _atom_site_fract_y
 _atom_site_fract_z
 _atom_site_occupancy
  Na  Na0  1  0.405013  0.800922  0.918305  1
  Na  Na1  1  0.588213  0.188235  0.066766  1
  Na  Na2  1  0.159338  0.431997  0.667607  1
  Na  Na3  1  0.894313  0.852882  0.784274  1
  Na  Na4  1  0.098116  0.147536  0.230718  1
  Na  Na5  1  0.746690  0.018931  0.419537  1
  La  La6  1  0.853204  0.584976  0.339172  1
  La  La7  1  0.264133  0.004228  0.573466  1
  La  La8  1  0.723110  0.400802  0.840319  1
  La  La9  1  0.289218  0.592431  0.131619  1
  Cr  Cr10  1  0.573106  0.352496  0.464490  1
  Cr  Cr11  1  0.421305  0.645322  0.531630  1
  Cr  Cr12  1  0.123477  0.208607  0.917042  1
  Cr  Cr13  1  0.869708  0.787165  0.093152  1
  N  N14  1  0.528955  0.545309  0.664629  1
  N  N15  1  0.456899  0.456841  0.331117  1
  N  N16  1  0.162536  0.715826  0.571242  1
  N  N17  1  0.843913  0.324943  0.441433  1
  N  N18  1  0.429653  0.182148  0.460268  1
  N  N19  1  0.580852  0.805505  0.526795  1
  N  N20  1  0.941017  0.139986  0.724378  1
  N  N21  1  0.047623  0.839765  0.289726  1
  N  N22  1  0.223311  0.041869  0.948678  1
  N  N23  1  0.764402  0.954320  0.066215  1
  N  N24  1  0.360438  0.317231  0.889376  1
  N  N25  1  0.981943  0.358925  0.082294  1
  N  N26  1  0.016796  0.651027  0.926337  1
  N  N27  1  0.652718  0.649776  0.099414  1
