# generated using pymatgen
data_LaSm7(Si4Mo3)4
_symmetry_space_group_name_H-M   'P 1'
_cell_length_a   6.88854534
_cell_length_b   7.05271430
_cell_length_c   13.06488611
_cell_angle_alpha   90.12511889
_cell_angle_beta   90.02743652
_cell_angle_gamma   89.97240825
_symmetry_Int_Tables_number   1
_chemical_formula_structural   LaSm7(Si4Mo3)4
_chemical_formula_sum   'La1 Sm7 Si16 Mo12'
_cell_volume   634.72894798
_cell_formula_units_Z   1
loop_
 _symmetry_equiv_pos_site_id
 _symmetry_equiv_pos_as_xyz
  1  'x, y, z'
loop_
 _atom_site_type_symbol
 _atom_site_label
 _atom_site_symmetry_multiplicity
 _atom_site_fract_x
 _atom_site_fract_y
 _atom_site_fract_z
 _atom_site_occupancy
  La  La0  1  0.998480  0.163529  0.092429  1
  Sm  Sm1  1  0.496857  0.334553  0.094501  1
  Sm  Sm2  1  0.997772  0.165370  0.405763  1
  Sm  Sm3  1  0.503223  0.665596  0.594466  1
  Sm  Sm4  1  0.002441  0.835592  0.905546  1
  Sm  Sm5  1  0.503190  0.665236  0.905090  1
  Sm  Sm6  1  0.002001  0.834297  0.594518  1
  Sm  Sm7  1  0.496985  0.334830  0.406207  1
  Si  Si8  1  0.655926  0.045406  0.548754  1
  Si  Si9  1  0.157090  0.457646  0.949970  1
  Si  Si10  1  0.348158  0.952338  0.048566  1
  Si  Si11  1  0.844318  0.544338  0.451144  1
  Si  Si12  1  0.343998  0.954665  0.451303  1
  Si  Si13  1  0.842435  0.548035  0.048616  1
  Si  Si14  1  0.653190  0.045282  0.949950  1
  Si  Si15  1  0.156094  0.455411  0.548921  1
  Si  Si16  1  0.535593  0.360265  0.749892  1
  Si  Si17  1  0.036339  0.139505  0.750040  1
  Si  Si18  1  0.463990  0.639620  0.250020  1
  Si  Si19  1  0.963741  0.858490  0.251112  1
  Si  Si20  1  0.805703  0.621900  0.749977  1
  Si  Si21  1  0.305540  0.877444  0.749937  1
  Si  Si22  1  0.195331  0.380292  0.251052  1
  Si  Si23  1  0.691877  0.121572  0.251003  1
  Mo  Mo24  1  0.832104  0.334728  0.626184  1
  Mo  Mo25  1  0.331266  0.164845  0.873391  1
  Mo  Mo26  1  0.168307  0.665048  0.126706  1
  Mo  Mo27  1  0.668579  0.834541  0.374242  1
  Mo  Mo28  1  0.168599  0.665428  0.374506  1
  Mo  Mo29  1  0.668566  0.834553  0.126931  1
  Mo  Mo30  1  0.831594  0.335370  0.872908  1
  Mo  Mo31  1  0.330863  0.164733  0.626274  1
  Mo  Mo32  1  0.664860  0.003485  0.749563  1
  Mo  Mo33  1  0.165039  0.497099  0.749932  1
  Mo  Mo34  1  0.335177  0.995528  0.250517  1
  Mo  Mo35  1  0.834776  0.503429  0.250074  1
