# generated using pymatgen
data_PaGeS
_symmetry_space_group_name_H-M   'P 1'
_cell_length_a   8.65040582
_cell_length_b   8.65040589
_cell_length_c   8.65040662
_cell_angle_alpha   154.19208562
_cell_angle_beta   154.19196638
_cell_angle_gamma   36.82055946
_symmetry_Int_Tables_number   1
_chemical_formula_structural   PaGeS
_chemical_formula_sum   'Pa2 Ge2 S2'
_cell_volume   122.51810436
_cell_formula_units_Z   2
loop_
 _symmetry_equiv_pos_site_id
 _symmetry_equiv_pos_as_xyz
  1  'x, y, z'
loop_
 _atom_site_type_symbol
 _atom_site_label
 _atom_site_symmetry_multiplicity
 _atom_site_fract_x
 _atom_site_fract_y
 _atom_site_fract_z
 _atom_site_occupancy
  Pa  Pa0  1  0.856153  0.856153  0.000000  1
  Pa  Pa1  1  0.143847  0.143847  0.000000  1
  Ge  Ge2  1  0.500000  0.000000  0.500000  1
  Ge  Ge3  1  0.000000  0.500000  0.500000  1
  S  S4  1  0.317032  0.317032  0.000000  1
  S  S5  1  0.682968  0.682968  0.000000  1
