# generated using pymatgen
data_Be15Nb6(CoNi3)2
_symmetry_space_group_name_H-M   'P 1'
_cell_length_a   7.58496574
_cell_length_b   7.58496564
_cell_length_c   7.58496514
_cell_angle_alpha   59.90226117
_cell_angle_beta   59.90226469
_cell_angle_gamma   59.90226083
_symmetry_Int_Tables_number   1
_chemical_formula_structural   Be15Nb6(CoNi3)2
_chemical_formula_sum   'Be15 Nb6 Co2 Ni6'
_cell_volume   307.88022397
_cell_formula_units_Z   1
loop_
 _symmetry_equiv_pos_site_id
 _symmetry_equiv_pos_as_xyz
  1  'x, y, z'
loop_
 _atom_site_type_symbol
 _atom_site_label
 _atom_site_symmetry_multiplicity
 _atom_site_fract_x
 _atom_site_fract_y
 _atom_site_fract_z
 _atom_site_occupancy
  Be  Be0  1  0.327256  0.327256  0.327256  1
  Be  Be1  1  0.672744  0.672744  0.672744  1
  Be  Be2  1  0.325233  0.325233  0.022508  1
  Be  Be3  1  0.325233  0.022508  0.325233  1
  Be  Be4  1  0.674767  0.674767  0.977492  1
  Be  Be5  1  0.674767  0.977492  0.674767  1
  Be  Be6  1  0.022508  0.325233  0.325233  1
  Be  Be7  1  0.977492  0.674767  0.674767  1
  Be  Be8  1  0.500000  0.000000  0.000000  1
  Be  Be9  1  0.000000  0.500000  0.500000  1
  Be  Be10  1  0.000000  0.500000  0.000000  1
  Be  Be11  1  0.500000  0.000000  0.500000  1
  Be  Be12  1  0.000000  0.000000  0.500000  1
  Be  Be13  1  0.500000  0.500000  0.000000  1
  Be  Be14  1  0.000000  0.000000  0.000000  1
  Nb  Nb15  1  0.708083  0.295804  0.295804  1
  Nb  Nb16  1  0.291917  0.704196  0.704196  1
  Nb  Nb17  1  0.295804  0.708083  0.295804  1
  Nb  Nb18  1  0.704196  0.291917  0.704196  1
  Nb  Nb19  1  0.295804  0.295804  0.708083  1
  Nb  Nb20  1  0.704196  0.704196  0.291917  1
  Co  Co21  1  0.122484  0.122484  0.122484  1
  Co  Co22  1  0.877516  0.877516  0.877516  1
  Ni  Ni23  1  0.123077  0.123077  0.631435  1
  Ni  Ni24  1  0.123077  0.631435  0.123077  1
  Ni  Ni25  1  0.876923  0.876923  0.368565  1
  Ni  Ni26  1  0.876923  0.368565  0.876923  1
  Ni  Ni27  1  0.631435  0.123077  0.123077  1
  Ni  Ni28  1  0.368565  0.876923  0.876923  1
