# generated using pymatgen
data_Be6Co2OsW3
_symmetry_space_group_name_H-M   'P 1'
_cell_length_a   4.52177300
_cell_length_b   4.52177163
_cell_length_c   7.22441100
_cell_angle_alpha   90.00000000
_cell_angle_beta   90.00000000
_cell_angle_gamma   120.00000267
_symmetry_Int_Tables_number   1
_chemical_formula_structural   Be6Co2OsW3
_chemical_formula_sum   'Be6 Co2 Os1 W3'
_cell_volume   127.92353341
_cell_formula_units_Z   1
loop_
 _symmetry_equiv_pos_site_id
 _symmetry_equiv_pos_as_xyz
  1  'x, y, z'
loop_
 _atom_site_type_symbol
 _atom_site_label
 _atom_site_symmetry_multiplicity
 _atom_site_fract_x
 _atom_site_fract_y
 _atom_site_fract_z
 _atom_site_occupancy
  Be  Be0  1  0.832376  0.167624  0.252704  1
  Be  Be1  1  0.832376  0.664753  0.252704  1
  Be  Be2  1  0.335247  0.167624  0.252704  1
  Be  Be3  1  0.168237  0.831763  0.749464  1
  Be  Be4  1  0.168237  0.336474  0.749464  1
  Be  Be5  1  0.663526  0.831763  0.749464  1
  Co  Co6  1  0.000000  0.000000  0.500849  1
  Co  Co7  1  0.000000  0.000000  0.004357  1
  Os  Os8  1  0.333333  0.666667  0.424526  1
  W  W9  1  0.666667  0.333333  0.563043  1
  W  W10  1  0.666667  0.333333  0.930477  1
  W  W11  1  0.333333  0.666667  0.070243  1
