# generated using pymatgen
data_Ho3Er(B2Rh)4
_symmetry_space_group_name_H-M   'P 1'
_cell_length_a   5.27871300
_cell_length_b   5.93996236
_cell_length_c   6.43455600
_cell_angle_alpha   89.98005245
_cell_angle_beta   90.00000000
_cell_angle_gamma   90.00000000
_symmetry_Int_Tables_number   1
_chemical_formula_structural   Ho3Er(B2Rh)4
_chemical_formula_sum   'Ho3 Er1 B8 Rh4'
_cell_volume   201.75778526
_cell_formula_units_Z   1
loop_
 _symmetry_equiv_pos_site_id
 _symmetry_equiv_pos_as_xyz
  1  'x, y, z'
loop_
 _atom_site_type_symbol
 _atom_site_label
 _atom_site_symmetry_multiplicity
 _atom_site_fract_x
 _atom_site_fract_y
 _atom_site_fract_z
 _atom_site_occupancy
  Ho  Ho0  1  0.250000  0.010976  0.336926  1
  Ho  Ho1  1  0.250000  0.511034  0.162867  1
  Ho  Ho2  1  0.750000  0.988959  0.662809  1
  Er  Er3  1  0.750000  0.488918  0.836831  1
  B  B4  1  0.089596  0.375897  0.533246  1
  B  B5  1  0.410375  0.875993  0.966993  1
  B  B6  1  0.589736  0.623728  0.467630  1
  B  B7  1  0.910274  0.124435  0.032454  1
  B  B8  1  0.910264  0.623728  0.467630  1
  B  B9  1  0.589726  0.124435  0.032454  1
  B  B10  1  0.410404  0.375897  0.533246  1
  B  B11  1  0.089625  0.875993  0.966993  1
  Rh  Rh12  1  0.250000  0.190278  0.816182  1
  Rh  Rh13  1  0.250000  0.689780  0.684269  1
  Rh  Rh14  1  0.750000  0.809853  0.183891  1
  Rh  Rh15  1  0.750000  0.310095  0.315579  1
