# generated using pymatgen
data_PrY5(AlAu5)2
_symmetry_space_group_name_H-M   'P 1'
_cell_length_a   8.51110300
_cell_length_b   8.51110418
_cell_length_c   13.49848200
_cell_angle_alpha   90.00000000
_cell_angle_beta   90.00000000
_cell_angle_gamma   128.45054830
_symmetry_Int_Tables_number   1
_chemical_formula_structural   PrY5(AlAu5)2
_chemical_formula_sum   'Pr2 Y10 Al4 Au20'
_cell_volume   765.77106075
_cell_formula_units_Z   2
loop_
 _symmetry_equiv_pos_site_id
 _symmetry_equiv_pos_as_xyz
  1  'x, y, z'
loop_
 _atom_site_type_symbol
 _atom_site_label
 _atom_site_symmetry_multiplicity
 _atom_site_fract_x
 _atom_site_fract_y
 _atom_site_fract_z
 _atom_site_occupancy
  Pr  Pr0  1  0.321268  0.678732  0.250000  1
  Pr  Pr1  1  0.678732  0.321268  0.750000  1
  Y  Y2  1  0.927479  0.072521  0.250000  1
  Y  Y3  1  0.072521  0.927479  0.750000  1
  Y  Y4  1  0.629450  0.370550  0.464275  1
  Y  Y5  1  0.370550  0.629450  0.535725  1
  Y  Y6  1  0.629450  0.370550  0.035725  1
  Y  Y7  1  0.370550  0.629450  0.964275  1
  Y  Y8  1  0.884002  0.115998  0.950513  1
  Y  Y9  1  0.115998  0.884002  0.049487  1
  Y  Y10  1  0.884002  0.115998  0.549487  1
  Y  Y11  1  0.115998  0.884002  0.450513  1
  Al  Al12  1  0.719842  0.280158  0.250000  1
  Al  Al13  1  0.280158  0.719842  0.750000  1
  Al  Al14  1  0.533718  0.466282  0.250000  1
  Al  Al15  1  0.466282  0.533718  0.750000  1
  Au  Au16  1  0.322428  0.071595  0.250000  1
  Au  Au17  1  0.071595  0.322428  0.750000  1
  Au  Au18  1  0.677572  0.928405  0.750000  1
  Au  Au19  1  0.928405  0.677572  0.250000  1
  Au  Au20  1  0.576758  0.009450  0.399096  1
  Au  Au21  1  0.009450  0.576758  0.600904  1
  Au  Au22  1  0.576758  0.009450  0.100904  1
  Au  Au23  1  0.009450  0.576758  0.899096  1
  Au  Au24  1  0.423242  0.990550  0.600904  1
  Au  Au25  1  0.990550  0.423242  0.399096  1
  Au  Au26  1  0.423242  0.990550  0.899096  1
  Au  Au27  1  0.990550  0.423242  0.100904  1
  Au  Au28  1  0.687581  0.741638  0.394993  1
  Au  Au29  1  0.741638  0.687581  0.605007  1
  Au  Au30  1  0.687581  0.741638  0.105007  1
  Au  Au31  1  0.741638  0.687581  0.894993  1
  Au  Au32  1  0.312419  0.258362  0.605007  1
  Au  Au33  1  0.258362  0.312419  0.394993  1
  Au  Au34  1  0.312419  0.258362  0.894993  1
  Au  Au35  1  0.258362  0.312419  0.105007  1
