# generated using pymatgen
data_CaDyFe3Re14C3
_symmetry_space_group_name_H-M   'P 1'
_cell_length_a   6.92788304
_cell_length_b   6.92788373
_cell_length_c   6.92788318
_cell_angle_alpha   82.62875953
_cell_angle_beta   82.62876441
_cell_angle_gamma   82.62875449
_symmetry_Int_Tables_number   1
_chemical_formula_structural   CaDyFe3Re14C3
_chemical_formula_sum   'Ca1 Dy1 Fe3 Re14 C3'
_cell_volume   324.91338305
_cell_formula_units_Z   1
loop_
 _symmetry_equiv_pos_site_id
 _symmetry_equiv_pos_as_xyz
  1  'x, y, z'
loop_
 _atom_site_type_symbol
 _atom_site_label
 _atom_site_symmetry_multiplicity
 _atom_site_fract_x
 _atom_site_fract_y
 _atom_site_fract_z
 _atom_site_occupancy
  Ca  Ca0  1  0.648122  0.648122  0.648122  1
  Dy  Dy1  1  0.352113  0.352113  0.352113  1
  Fe  Fe2  1  0.997758  0.997758  0.500782  1
  Fe  Fe3  1  0.500782  0.997758  0.997758  1
  Fe  Fe4  1  0.997758  0.500782  0.997758  1
  Re  Re5  1  0.721219  0.278036  0.000298  1
  Re  Re6  1  0.000298  0.721219  0.278036  1
  Re  Re7  1  0.278036  0.000298  0.721219  1
  Re  Re8  1  0.000298  0.278036  0.721219  1
  Re  Re9  1  0.721219  0.000298  0.278036  1
  Re  Re10  1  0.278036  0.721219  0.000298  1
  Re  Re11  1  0.345268  0.345268  0.863764  1
  Re  Re12  1  0.863764  0.345268  0.345268  1
  Re  Re13  1  0.345268  0.863764  0.345268  1
  Re  Re14  1  0.654087  0.654087  0.139920  1
  Re  Re15  1  0.139920  0.654087  0.654087  1
  Re  Re16  1  0.654087  0.139920  0.654087  1
  Re  Re17  1  0.898756  0.898756  0.898756  1
  Re  Re18  1  0.102047  0.102047  0.102047  1
  C  C19  1  0.498575  0.498575  0.004015  1
  C  C20  1  0.004015  0.498575  0.498575  1
  C  C21  1  0.498575  0.004015  0.498575  1
