# generated using pymatgen
data_Tm20Bi11Au
_symmetry_space_group_name_H-M   'P 1'
_cell_length_a   8.10913020
_cell_length_b   9.40540800
_cell_length_c   11.87450041
_cell_angle_alpha   90.00000000
_cell_angle_beta   89.53760129
_cell_angle_gamma   90.00000000
_symmetry_Int_Tables_number   1
_chemical_formula_structural   Tm20Bi11Au
_chemical_formula_sum   'Tm20 Bi11 Au1'
_cell_volume   905.63483013
_cell_formula_units_Z   1
loop_
 _symmetry_equiv_pos_site_id
 _symmetry_equiv_pos_as_xyz
  1  'x, y, z'
loop_
 _atom_site_type_symbol
 _atom_site_label
 _atom_site_symmetry_multiplicity
 _atom_site_fract_x
 _atom_site_fract_y
 _atom_site_fract_z
 _atom_site_occupancy
  Tm  Tm0  1  0.038732  0.250000  0.507955  1
  Tm  Tm1  1  0.980173  0.750000  0.490527  1
  Tm  Tm2  1  0.475520  0.750000  0.010541  1
  Tm  Tm3  1  0.525726  0.250000  0.989686  1
  Tm  Tm4  1  0.358025  0.250000  0.295091  1
  Tm  Tm5  1  0.647669  0.750000  0.716518  1
  Tm  Tm6  1  0.149345  0.750000  0.782216  1
  Tm  Tm7  1  0.852518  0.250000  0.216082  1
  Tm  Tm8  1  0.195180  0.250000  0.778867  1
  Tm  Tm9  1  0.809819  0.750000  0.216849  1
  Tm  Tm10  1  0.313357  0.750000  0.281431  1
  Tm  Tm11  1  0.671230  0.250000  0.709583  1
  Tm  Tm12  1  0.193044  0.065990  0.061379  1
  Tm  Tm13  1  0.806322  0.934424  0.940433  1
  Tm  Tm14  1  0.309350  0.953319  0.559641  1
  Tm  Tm15  1  0.806322  0.565576  0.940433  1
  Tm  Tm16  1  0.684491  0.071499  0.445826  1
  Tm  Tm17  1  0.193044  0.434010  0.061379  1
  Tm  Tm18  1  0.684491  0.428501  0.445826  1
  Tm  Tm19  1  0.309350  0.546681  0.559641  1
  Bi  Bi20  1  0.594198  0.750000  0.456835  1
  Bi  Bi21  1  0.095336  0.750000  0.042323  1
  Bi  Bi22  1  0.906656  0.250000  0.954371  1
  Bi  Bi23  1  0.061735  0.001960  0.323619  1
  Bi  Bi24  1  0.934667  0.997934  0.675614  1
  Bi  Bi25  1  0.435566  0.996247  0.826086  1
  Bi  Bi26  1  0.934667  0.502066  0.675614  1
  Bi  Bi27  1  0.564828  0.004186  0.174483  1
  Bi  Bi28  1  0.061735  0.498040  0.323619  1
  Bi  Bi29  1  0.564828  0.495814  0.174483  1
  Bi  Bi30  1  0.435566  0.503753  0.826086  1
  Au  Au31  1  0.406506  0.250000  0.536962  1
