# generated using pymatgen
data_Tb2DyGa2Co9B4
_symmetry_space_group_name_H-M   'P 1'
_cell_length_a   5.15615814
_cell_length_b   5.15568210
_cell_length_c   9.58354301
_cell_angle_alpha   90.00461722
_cell_angle_beta   89.99802584
_cell_angle_gamma   119.99540808
_symmetry_Int_Tables_number   1
_chemical_formula_structural   Tb2DyGa2Co9B4
_chemical_formula_sum   'Tb2 Dy1 Ga2 Co9 B4'
_cell_volume   220.64250475
_cell_formula_units_Z   1
loop_
 _symmetry_equiv_pos_site_id
 _symmetry_equiv_pos_as_xyz
  1  'x, y, z'
loop_
 _atom_site_type_symbol
 _atom_site_label
 _atom_site_symmetry_multiplicity
 _atom_site_fract_x
 _atom_site_fract_y
 _atom_site_fract_z
 _atom_site_occupancy
  Tb  Tb0  1  0.999999  0.000017  0.000173  1
  Tb  Tb1  1  0.000000  0.000010  0.659399  1
  Dy  Dy2  1  0.999994  0.999997  0.340516  1
  Ga  Ga3  1  0.333391  0.666705  0.000071  1
  Ga  Ga4  1  0.666599  0.333304  0.000077  1
  Co  Co5  1  0.499995  0.999969  0.499852  1
  Co  Co6  1  0.499968  0.499997  0.499895  1
  Co  Co7  1  0.000026  0.500022  0.499873  1
  Co  Co8  1  0.499981  0.000003  0.207608  1
  Co  Co9  1  0.499979  0.499988  0.207575  1
  Co  Co10  1  0.000000  0.499974  0.207579  1
  Co  Co11  1  0.499972  0.999967  0.792527  1
  Co  Co12  1  0.499990  0.500016  0.792548  1
  Co  Co13  1  0.000000  0.499995  0.792531  1
  B  B14  1  0.333327  0.666619  0.349371  1
  B  B15  1  0.666690  0.333406  0.349345  1
  B  B16  1  0.666638  0.333339  0.650527  1
  B  B17  1  0.333350  0.666673  0.650537  1
