# generated using pymatgen
data_ErNF36
_symmetry_space_group_name_H-M   'P 1'
_cell_length_a   6.72622328
_cell_length_b   8.71636909
_cell_length_c   13.58063079
_cell_angle_alpha   108.48309271
_cell_angle_beta   84.33038907
_cell_angle_gamma   113.12373181
_symmetry_Int_Tables_number   1
_chemical_formula_structural   ErNF36
_chemical_formula_sum   'Er1 N1 F36'
_cell_volume   694.16756436
_cell_formula_units_Z   1
loop_
 _symmetry_equiv_pos_site_id
 _symmetry_equiv_pos_as_xyz
  1  'x, y, z'
loop_
 _atom_site_type_symbol
 _atom_site_label
 _atom_site_symmetry_multiplicity
 _atom_site_fract_x
 _atom_site_fract_y
 _atom_site_fract_z
 _atom_site_occupancy
  Er  Er0  1  0.111296  0.895089  0.229432  1
  N  N1  1  0.960464  0.047035  0.694145  1
  F  F2  1  0.675124  0.607008  0.383977  1
  F  F3  1  0.326068  0.419642  0.624133  1
  F  F4  1  0.030406  0.332327  0.362442  1
  F  F5  1  0.945963  0.643467  0.620665  1
  F  F6  1  0.072597  0.874928  0.909801  1
  F  F7  1  0.813697  0.096079  0.036607  1
  F  F8  1  0.842268  0.873885  0.333790  1
  F  F9  1  0.167207  0.102965  0.653152  1
  F  F10  1  0.149896  0.660447  0.199325  1
  F  F11  1  0.918472  0.200632  0.725236  1
  F  F12  1  0.549795  0.434847  0.390522  1
  F  F13  1  0.465960  0.590145  0.620300  1
  F  F14  1  0.066418  0.073557  0.160218  1
  F  F15  1  0.997054  0.917974  0.830371  1
  F  F16  1  0.141269  0.048852  0.391186  1
  F  F17  1  0.828446  0.947834  0.603550  1
  F  F18  1  0.071789  0.452993  0.304520  1
  F  F19  1  0.964302  0.557101  0.690438  1
  F  F20  1  0.772561  0.719873  0.100168  1
  F  F21  1  0.228318  0.303297  0.931586  1
  F  F22  1  0.820092  0.585630  0.021620  1
  F  F23  1  0.188854  0.439014  0.012704  1
  F  F24  1  0.541352  0.612900  0.855861  1
  F  F25  1  0.454910  0.411886  0.158985  1
  F  F26  1  0.623236  0.065802  0.282247  1
  F  F27  1  0.443880  0.959633  0.744575  1
  F  F28  1  0.253255  0.853373  0.469317  1
  F  F29  1  0.712473  0.149671  0.522805  1
  F  F30  1  0.257917  0.947120  0.087292  1
  F  F31  1  0.691425  0.107912  0.960854  1
  F  F32  1  0.445454  0.883320  0.249623  1
  F  F33  1  0.480998  0.129819  0.814520  1
  F  F34  1  0.612221  0.340012  0.159143  1
  F  F35  1  0.389965  0.693897  0.865272  1
  F  F36  1  0.351613  0.750108  0.492779  1
  F  F37  1  0.632984  0.269925  0.506838  1
