# generated using pymatgen
data_RbNp3TlSe6
_symmetry_space_group_name_H-M   'P 1'
_cell_length_a   7.49486539
_cell_length_b   7.49486766
_cell_length_c   8.07206300
_cell_angle_alpha   81.16898303
_cell_angle_beta   81.16898808
_cell_angle_gamma   120.09501062
_symmetry_Int_Tables_number   1
_chemical_formula_structural   RbNp3TlSe6
_chemical_formula_sum   'Rb1 Np3 Tl1 Se6'
_cell_volume   373.30139658
_cell_formula_units_Z   1
loop_
 _symmetry_equiv_pos_site_id
 _symmetry_equiv_pos_as_xyz
  1  'x, y, z'
loop_
 _atom_site_type_symbol
 _atom_site_label
 _atom_site_symmetry_multiplicity
 _atom_site_fract_x
 _atom_site_fract_y
 _atom_site_fract_z
 _atom_site_occupancy
  Rb  Rb0  1  0.833561  0.166439  0.500000  1
  Np  Np1  1  0.000186  0.999814  0.000000  1
  Np  Np2  1  0.333274  0.666726  0.000000  1
  Np  Np3  1  0.665882  0.334118  0.000000  1
  Tl  Tl4  1  0.167436  0.832564  0.500000  1
  Se  Se5  1  0.936805  0.606025  0.195490  1
  Se  Se6  1  0.266801  0.264092  0.195327  1
  Se  Se7  1  0.602035  0.935864  0.193592  1
  Se  Se8  1  0.735908  0.733199  0.804673  1
  Se  Se9  1  0.064136  0.397965  0.806408  1
  Se  Se10  1  0.393975  0.063195  0.804510  1
