# generated using pymatgen
data_Nb15V2(Si4W)3
_symmetry_space_group_name_H-M   'P 1'
_cell_length_a   7.49105655
_cell_length_b   7.49088671
_cell_length_c   14.12303107
_cell_angle_alpha   89.92855643
_cell_angle_beta   90.07093257
_cell_angle_gamma   140.83050930
_symmetry_Int_Tables_number   1
_chemical_formula_structural   Nb15V2(Si4W)3
_chemical_formula_sum   'Nb15 V2 Si12 W3'
_cell_volume   500.56139465
_cell_formula_units_Z   1
loop_
 _symmetry_equiv_pos_site_id
 _symmetry_equiv_pos_as_xyz
  1  'x, y, z'
loop_
 _atom_site_type_symbol
 _atom_site_label
 _atom_site_symmetry_multiplicity
 _atom_site_fract_x
 _atom_site_fract_y
 _atom_site_fract_z
 _atom_site_occupancy
  Nb  Nb0  1  0.070221  0.429624  0.398694  1
  Nb  Nb1  1  0.572384  0.928577  0.903204  1
  Nb  Nb2  1  0.429079  0.070756  0.600379  1
  Nb  Nb3  1  0.928892  0.571975  0.100236  1
  Nb  Nb4  1  0.850012  0.648136  0.678547  1
  Nb  Nb5  1  0.350108  0.150687  0.179166  1
  Nb  Nb6  1  0.648082  0.850038  0.321191  1
  Nb  Nb7  1  0.149876  0.350882  0.821953  1
  Nb  Nb8  1  0.648306  0.849873  0.678685  1
  Nb  Nb9  1  0.149127  0.351664  0.177294  1
  Nb  Nb10  1  0.850339  0.647826  0.320069  1
  Nb  Nb11  1  0.351163  0.149720  0.822543  1
  Nb  Nb12  1  0.428997  0.070887  0.398583  1
  Nb  Nb13  1  0.928648  0.572196  0.899803  1
  Nb  Nb14  1  0.070676  0.429173  0.600119  1
  V  V15  1  0.573668  0.927449  0.101151  1
  V  V16  1  0.000158  0.000055  0.499744  1
  Si  Si17  1  0.250768  0.750391  0.750678  1
  Si  Si18  1  0.747474  0.245520  0.247362  1
  Si  Si19  1  0.749668  0.249050  0.750683  1
  Si  Si20  1  0.254278  0.752584  0.247377  1
  Si  Si21  1  0.244252  0.244106  0.659986  1
  Si  Si22  1  0.747246  0.753534  0.161480  1
  Si  Si23  1  0.243589  0.244719  0.339819  1
  Si  Si24  1  0.750330  0.750564  0.837782  1
  Si  Si25  1  0.595512  0.915029  0.499779  1
  Si  Si26  1  0.087173  0.413630  0.000576  1
  Si  Si27  1  0.914903  0.595686  0.499452  1
  Si  Si28  1  0.415405  0.085211  0.003227  1
  W  W29  1  0.499888  0.500325  0.000350  1
  W  W30  1  0.499419  0.499340  0.499735  1
  W  W31  1  0.000358  0.000793  0.000351  1
