# generated using pymatgen
data_Sc4NbCo16(P4W)3
_symmetry_space_group_name_H-M   'P 1'
_cell_length_a   11.88393643
_cell_length_b   11.88393632
_cell_length_c   3.62763900
_cell_angle_alpha   90.00000000
_cell_angle_beta   90.00000000
_cell_angle_gamma   119.86760168
_symmetry_Int_Tables_number   1
_chemical_formula_structural   Sc4NbCo16(P4W)3
_chemical_formula_sum   'Sc4 Nb1 Co16 P12 W3'
_cell_volume   444.27634689
_cell_formula_units_Z   1
loop_
 _symmetry_equiv_pos_site_id
 _symmetry_equiv_pos_as_xyz
  1  'x, y, z'
loop_
 _atom_site_type_symbol
 _atom_site_label
 _atom_site_symmetry_multiplicity
 _atom_site_fract_x
 _atom_site_fract_y
 _atom_site_fract_z
 _atom_site_occupancy
  Sc  Sc0  1  0.820484  0.998821  0.500000  1
  Sc  Sc1  1  0.998821  0.820484  0.500000  1
  Sc  Sc2  1  0.333576  0.666825  0.000000  1
  Sc  Sc3  1  0.666825  0.333576  0.000000  1
  Nb  Nb4  1  0.181649  0.181649  0.500000  1
  Co  Co5  1  0.281033  0.003468  0.500000  1
  Co  Co6  1  0.003468  0.281033  0.500000  1
  Co  Co7  1  0.718285  0.718285  0.500000  1
  Co  Co8  1  0.627296  0.803907  0.000000  1
  Co  Co9  1  0.196739  0.824672  0.000000  1
  Co  Co10  1  0.175957  0.368994  0.000000  1
  Co  Co11  1  0.368994  0.175957  0.000000  1
  Co  Co12  1  0.803907  0.627296  0.000000  1
  Co  Co13  1  0.824672  0.196739  0.000000  1
  Co  Co14  1  0.516373  0.870790  0.500000  1
  Co  Co15  1  0.128809  0.646784  0.500000  1
  Co  Co16  1  0.351765  0.480464  0.500000  1
  Co  Co17  1  0.480464  0.351765  0.500000  1
  Co  Co18  1  0.870790  0.516373  0.500000  1
  Co  Co19  1  0.646784  0.128809  0.500000  1
  Co  Co20  1  0.001466  0.001466  0.000000  1
  P  P21  1  0.174398  0.999776  0.000000  1
  P  P22  1  0.999776  0.174398  0.000000  1
  P  P23  1  0.825920  0.825920  0.000000  1
  P  P24  1  0.516507  0.684476  0.500000  1
  P  P25  1  0.314426  0.832896  0.500000  1
  P  P26  1  0.168318  0.484119  0.500000  1
  P  P27  1  0.484119  0.168318  0.500000  1
  P  P28  1  0.684476  0.516507  0.500000  1
  P  P29  1  0.832896  0.314426  0.500000  1
  P  P30  1  0.646652  0.000169  0.000000  1
  P  P31  1  0.000169  0.646652  0.000000  1
  P  P32  1  0.353552  0.353552  0.000000  1
  W  W33  1  0.449213  0.001067  0.000000  1
  W  W34  1  0.001067  0.449213  0.000000  1
  W  W35  1  0.550355  0.550355  0.000000  1
