# generated using pymatgen
data_Tm2UPa3(Ni3Bi4)2
_symmetry_space_group_name_H-M   'P 1'
_cell_length_a   8.35917856
_cell_length_b   8.37758365
_cell_length_c   8.35554891
_cell_angle_alpha   109.54979626
_cell_angle_beta   109.24883416
_cell_angle_gamma   109.57045566
_symmetry_Int_Tables_number   1
_chemical_formula_structural   Tm2UPa3(Ni3Bi4)2
_chemical_formula_sum   'Tm2 U1 Pa3 Ni6 Bi8'
_cell_volume   450.68275781
_cell_formula_units_Z   1
loop_
 _symmetry_equiv_pos_site_id
 _symmetry_equiv_pos_as_xyz
  1  'x, y, z'
loop_
 _atom_site_type_symbol
 _atom_site_label
 _atom_site_symmetry_multiplicity
 _atom_site_fract_x
 _atom_site_fract_y
 _atom_site_fract_z
 _atom_site_occupancy
  Tm  Tm0  1  0.626468  0.749583  0.375625  1
  Tm  Tm1  1  0.251896  0.125472  0.876178  1
  U  U2  1  0.743911  0.372574  0.622447  1
  Pa  Pa3  1  0.125808  0.878748  0.251603  1
  Pa  Pa4  1  0.372353  0.623012  0.748321  1
  Pa  Pa5  1  0.873738  0.249918  0.122444  1
  Ni  Ni6  1  0.635505  0.368032  0.245873  1
  Ni  Ni7  1  0.878947  0.134146  0.770198  1
  Ni  Ni8  1  0.370100  0.248579  0.619488  1
  Ni  Ni9  1  0.129081  0.749814  0.877262  1
  Ni  Ni10  1  0.238681  0.617208  0.372460  1
  Ni  Ni11  1  0.753978  0.881954  0.120133  1
  Bi  Bi12  1  0.336421  0.336147  0.330821  1
  Bi  Bi13  1  0.170845  0.502841  0.001891  1
  Bi  Bi14  1  0.994756  0.162418  0.502483  1
  Bi  Bi15  1  0.835562  0.831494  0.830514  1
  Bi  Bi16  1  0.499775  0.999790  0.167031  1
  Bi  Bi17  1  0.663033  0.500462  0.999651  1
  Bi  Bi18  1  0.499725  0.996993  0.663938  1
  Bi  Bi19  1  0.999417  0.670814  0.501639  1
