# generated using pymatgen
data_Nd7As12IrPd16
_symmetry_space_group_name_H-M   'P 1'
_cell_length_a   12.76165577
_cell_length_b   12.76165540
_cell_length_c   13.95329774
_cell_angle_alpha   68.77703091
_cell_angle_beta   68.77703191
_cell_angle_gamma   18.86620268
_symmetry_Int_Tables_number   1
_chemical_formula_structural   Nd7As12IrPd16
_chemical_formula_sum   'Nd7 As12 Ir1 Pd16'
_cell_volume   683.54897836
_cell_formula_units_Z   1
loop_
 _symmetry_equiv_pos_site_id
 _symmetry_equiv_pos_as_xyz
  1  'x, y, z'
loop_
 _atom_site_type_symbol
 _atom_site_label
 _atom_site_symmetry_multiplicity
 _atom_site_fract_x
 _atom_site_fract_y
 _atom_site_fract_z
 _atom_site_occupancy
  Nd  Nd0  1  0.500195  0.500195  0.500442  1
  Nd  Nd1  1  0.365987  0.365987  0.005767  1
  Nd  Nd2  1  0.632127  0.632127  0.000361  1
  Nd  Nd3  1  0.235525  0.235525  0.310521  1
  Nd  Nd4  1  0.767379  0.767379  0.686625  1
  Nd  Nd5  1  0.415735  0.415735  0.259802  1
  Nd  Nd6  1  0.580749  0.580749  0.740529  1
  As  As7  1  0.062426  0.062426  0.924652  1
  As  As8  1  0.937208  0.937208  0.076525  1
  As  As9  1  0.885121  0.885121  0.829935  1
  As  As10  1  0.115232  0.115232  0.170804  1
  As  As11  1  0.189457  0.189457  0.619714  1
  As  As12  1  0.811794  0.811794  0.375268  1
  As  As13  1  0.365766  0.365766  0.579425  1
  As  As14  1  0.634736  0.634736  0.419658  1
  As  As15  1  0.012006  0.012006  0.668135  1
  As  As16  1  0.987749  0.987749  0.330446  1
  As  As17  1  0.233356  0.233356  0.883604  1
  As  As18  1  0.766966  0.766966  0.118407  1
  Ir  Ir19  1  0.838960  0.838960  0.191009  1
  Pd  Pd20  1  0.161742  0.161742  0.806152  1
  Pd  Pd21  1  0.024636  0.024636  0.127581  1
  Pd  Pd22  1  0.975087  0.975087  0.872942  1
  Pd  Pd23  1  0.887558  0.887558  0.459091  1
  Pd  Pd24  1  0.112641  0.112641  0.540568  1
  Pd  Pd25  1  0.498542  0.498542  0.001349  1
  Pd  Pd26  1  0.547676  0.547676  0.254607  1
  Pd  Pd27  1  0.451832  0.451832  0.746467  1
  Pd  Pd28  1  0.295065  0.295065  0.488272  1
  Pd  Pd29  1  0.705899  0.705899  0.508939  1
  Pd  Pd30  1  0.663981  0.663981  0.224288  1
  Pd  Pd31  1  0.336035  0.336035  0.775907  1
  Pd  Pd32  1  0.909819  0.909819  0.638386  1
  Pd  Pd33  1  0.090121  0.090121  0.361948  1
  Pd  Pd34  1  0.220608  0.220608  0.072246  1
  Pd  Pd35  1  0.780281  0.780281  0.929631  1
