# generated using pymatgen
data_LaHo(BIr)8
_symmetry_space_group_name_H-M   'P 1'
_cell_length_a   7.68831200
_cell_length_b   7.68831200
_cell_length_c   3.99060000
_cell_angle_alpha   90.00000000
_cell_angle_beta   90.00000000
_cell_angle_gamma   90.00000000
_symmetry_Int_Tables_number   1
_chemical_formula_structural   LaHo(BIr)8
_chemical_formula_sum   'La1 Ho1 B8 Ir8'
_cell_volume   235.88493031
_cell_formula_units_Z   1
loop_
 _symmetry_equiv_pos_site_id
 _symmetry_equiv_pos_as_xyz
  1  'x, y, z'
loop_
 _atom_site_type_symbol
 _atom_site_label
 _atom_site_symmetry_multiplicity
 _atom_site_fract_x
 _atom_site_fract_y
 _atom_site_fract_z
 _atom_site_occupancy
  La  La0  1  0.000000  0.000000  0.500000  1
  Ho  Ho1  1  0.500000  0.500000  0.000000  1
  B  B2  1  0.657129  0.775608  0.612875  1
  B  B3  1  0.158533  0.281682  0.893825  1
  B  B4  1  0.281682  0.841467  0.106175  1
  B  B5  1  0.718318  0.158533  0.106175  1
  B  B6  1  0.342871  0.224392  0.612875  1
  B  B7  1  0.841467  0.718318  0.893825  1
  B  B8  1  0.224392  0.657129  0.387125  1
  B  B9  1  0.775608  0.342871  0.387125  1
  Ir  Ir10  1  0.343624  0.110741  0.110746  1
  Ir  Ir11  1  0.656376  0.889259  0.110746  1
  Ir  Ir12  1  0.608409  0.163011  0.609942  1
  Ir  Ir13  1  0.110741  0.656376  0.889254  1
  Ir  Ir14  1  0.163011  0.391591  0.390058  1
  Ir  Ir15  1  0.836989  0.608409  0.390058  1
  Ir  Ir16  1  0.889259  0.343624  0.889254  1
  Ir  Ir17  1  0.391591  0.836989  0.609942  1
