# generated using pymatgen
data_Ho4MnRu6W
_symmetry_space_group_name_H-M   'P 1'
_cell_length_a   5.52956292
_cell_length_b   5.17839985
_cell_length_c   8.94720000
_cell_angle_alpha   90.00000000
_cell_angle_beta   90.00000000
_cell_angle_gamma   122.24675719
_symmetry_Int_Tables_number   1
_chemical_formula_structural   Ho4MnRu6W
_chemical_formula_sum   'Ho4 Mn1 Ru6 W1'
_cell_volume   216.68041409
_cell_formula_units_Z   1
loop_
 _symmetry_equiv_pos_site_id
 _symmetry_equiv_pos_as_xyz
  1  'x, y, z'
loop_
 _atom_site_type_symbol
 _atom_site_label
 _atom_site_symmetry_multiplicity
 _atom_site_fract_x
 _atom_site_fract_y
 _atom_site_fract_z
 _atom_site_occupancy
  Ho  Ho0  1  0.673081  0.346522  0.563668  1
  Ho  Ho1  1  0.331701  0.664267  0.432497  1
  Ho  Ho2  1  0.331701  0.664267  0.067503  1
  Ho  Ho3  1  0.673081  0.346522  0.936332  1
  Mn  Mn4  1  0.835084  0.669472  0.250000  1
  Ru  Ru5  1  0.006161  0.013219  0.495817  1
  Ru  Ru6  1  0.006161  0.013219  0.004183  1
  Ru  Ru7  1  0.171658  0.815672  0.750000  1
  Ru  Ru8  1  0.644684  0.816427  0.750000  1
  Ru  Ru9  1  0.823393  0.170383  0.250000  1
  Ru  Ru10  1  0.348805  0.170716  0.250000  1
  W  W11  1  0.154489  0.309314  0.750000  1
