# generated using pymatgen
data_PrEr2Rh9
_symmetry_space_group_name_H-M   'P 1'
_cell_length_a   5.30733122
_cell_length_b   5.30607453
_cell_length_c   17.45913100
_cell_angle_alpha   90.00000000
_cell_angle_beta   90.00000000
_cell_angle_gamma   120.00452890
_symmetry_Int_Tables_number   1
_chemical_formula_structural   PrEr2Rh9
_chemical_formula_sum   'Pr2 Er4 Rh18'
_cell_volume   425.77775947
_cell_formula_units_Z   2
loop_
 _symmetry_equiv_pos_site_id
 _symmetry_equiv_pos_as_xyz
  1  'x, y, z'
loop_
 _atom_site_type_symbol
 _atom_site_label
 _atom_site_symmetry_multiplicity
 _atom_site_fract_x
 _atom_site_fract_y
 _atom_site_fract_z
 _atom_site_occupancy
  Pr  Pr0  1  0.333318  0.666659  0.750000  1
  Pr  Pr1  1  0.666682  0.333341  0.250000  1
  Er  Er2  1  0.333331  0.666729  0.958678  1
  Er  Er3  1  0.666669  0.333271  0.041322  1
  Er  Er4  1  0.666669  0.333271  0.458678  1
  Er  Er5  1  0.333331  0.666729  0.541322  1
  Rh  Rh6  1  0.167611  0.832374  0.375683  1
  Rh  Rh7  1  0.167597  0.335219  0.375680  1
  Rh  Rh8  1  0.664727  0.832349  0.375676  1
  Rh  Rh9  1  0.832389  0.167626  0.624317  1
  Rh  Rh10  1  0.832403  0.664781  0.624320  1
  Rh  Rh11  1  0.335273  0.167651  0.624324  1
  Rh  Rh12  1  0.832389  0.167626  0.875683  1
  Rh  Rh13  1  0.832403  0.664781  0.875680  1
  Rh  Rh14  1  0.335273  0.167651  0.875676  1
  Rh  Rh15  1  0.167611  0.832374  0.124317  1
  Rh  Rh16  1  0.167597  0.335219  0.124320  1
  Rh  Rh17  1  0.664727  0.832349  0.124324  1
  Rh  Rh18  1  0.333257  0.666593  0.250000  1
  Rh  Rh19  1  0.666743  0.333407  0.750000  1
  Rh  Rh20  1  0.000017  0.999993  0.250000  1
  Rh  Rh21  1  0.999983  0.000007  0.750000  1
  Rh  Rh22  1  0.000000  0.000000  0.500000  1
  Rh  Rh23  1  0.000000  0.000000  0.000000  1
