# generated using pymatgen
data_La13Nd3Mg2(HgRu2)2
_symmetry_space_group_name_H-M   'P 1'
_cell_length_a   10.09553444
_cell_length_b   10.05307427
_cell_length_c   10.03128132
_cell_angle_alpha   60.08321498
_cell_angle_beta   59.93106347
_cell_angle_gamma   59.71721727
_symmetry_Int_Tables_number   1
_chemical_formula_structural   La13Nd3Mg2(HgRu2)2
_chemical_formula_sum   'La13 Nd3 Mg2 Hg2 Ru4'
_cell_volume   718.41928788
_cell_formula_units_Z   1
loop_
 _symmetry_equiv_pos_site_id
 _symmetry_equiv_pos_as_xyz
  1  'x, y, z'
loop_
 _atom_site_type_symbol
 _atom_site_label
 _atom_site_symmetry_multiplicity
 _atom_site_fract_x
 _atom_site_fract_y
 _atom_site_fract_z
 _atom_site_occupancy
  La  La0  1  0.189439  0.810561  0.810561  1
  La  La1  1  0.596761  0.596027  0.210864  1
  La  La2  1  0.441035  0.058965  0.058965  1
  La  La3  1  0.060946  0.438915  0.061576  1
  La  La4  1  0.438564  0.061576  0.438915  1
  La  La5  1  0.215784  0.593821  0.594608  1
  La  La6  1  0.062224  0.437776  0.437776  1
  La  La7  1  0.596349  0.210864  0.596027  1
  La  La8  1  0.595788  0.594608  0.593821  1
  La  La9  1  0.190246  0.812434  0.187007  1
  La  La10  1  0.810313  0.187007  0.812434  1
  La  La11  1  0.061493  0.061805  0.438710  1
  La  La12  1  0.437992  0.438710  0.061805  1
  Nd  Nd13  1  0.811385  0.188615  0.188615  1
  Nd  Nd14  1  0.190422  0.187065  0.812294  1
  Nd  Nd15  1  0.810219  0.812294  0.187065  1
  Mg  Mg16  1  0.824421  0.522721  0.828986  1
  Mg  Mg17  1  0.823872  0.828986  0.522721  1
  Hg  Hg18  1  0.836211  0.829249  0.830345  1
  Hg  Hg19  1  0.504197  0.830345  0.829249  1
  Ru  Ru20  1  0.840268  0.386400  0.386285  1
  Ru  Ru21  1  0.387047  0.386285  0.386400  1
  Ru  Ru22  1  0.387455  0.838512  0.386463  1
  Ru  Ru23  1  0.387568  0.386463  0.838512  1
