# generated using pymatgen
data_Ce3Zn3CuOsPd
_symmetry_space_group_name_H-M   'P 1'
_cell_length_a   7.20956700
_cell_length_b   7.20956660
_cell_length_c   3.97009400
_cell_angle_alpha   90.00000000
_cell_angle_beta   90.00000000
_cell_angle_gamma   119.99999724
_symmetry_Int_Tables_number   1
_chemical_formula_structural   Ce3Zn3CuOsPd
_chemical_formula_sum   'Ce3 Zn3 Cu1 Os1 Pd1'
_cell_volume   178.71037813
_cell_formula_units_Z   1
loop_
 _symmetry_equiv_pos_site_id
 _symmetry_equiv_pos_as_xyz
  1  'x, y, z'
loop_
 _atom_site_type_symbol
 _atom_site_label
 _atom_site_symmetry_multiplicity
 _atom_site_fract_x
 _atom_site_fract_y
 _atom_site_fract_z
 _atom_site_occupancy
  Ce  Ce0  1  0.987303  0.410551  0.000000  1
  Ce  Ce1  1  0.589449  0.576751  0.000000  1
  Ce  Ce2  1  0.423249  0.012697  0.000000  1
  Zn  Zn3  1  0.002322  0.765960  0.500000  1
  Zn  Zn4  1  0.234040  0.236362  0.500000  1
  Zn  Zn5  1  0.763638  0.997678  0.500000  1
  Cu  Cu6  1  0.000000  0.000000  0.000000  1
  Os  Os7  1  0.666667  0.333333  0.500000  1
  Pd  Pd8  1  0.333333  0.666667  0.500000  1
