# generated using pymatgen
data_DyPa(ZnCo)2
_symmetry_space_group_name_H-M   'P 1'
_cell_length_a   3.62693200
_cell_length_b   6.93151222
_cell_length_c   8.32816774
_cell_angle_alpha   92.56600874
_cell_angle_beta   90.00000000
_cell_angle_gamma   90.00000000
_symmetry_Int_Tables_number   1
_chemical_formula_structural   DyPa(ZnCo)2
_chemical_formula_sum   'Dy2 Pa2 Zn4 Co4'
_cell_volume   209.16122998
_cell_formula_units_Z   2
loop_
 _symmetry_equiv_pos_site_id
 _symmetry_equiv_pos_as_xyz
  1  'x, y, z'
loop_
 _atom_site_type_symbol
 _atom_site_label
 _atom_site_symmetry_multiplicity
 _atom_site_fract_x
 _atom_site_fract_y
 _atom_site_fract_z
 _atom_site_occupancy
  Dy  Dy0  1  0.250000  0.047205  0.315514  1
  Dy  Dy1  1  0.750000  0.952859  0.684517  1
  Pa  Pa2  1  0.250000  0.539331  0.189967  1
  Pa  Pa3  1  0.750000  0.460703  0.810002  1
  Zn  Zn4  1  0.250000  0.128756  0.945333  1
  Zn  Zn5  1  0.750000  0.871157  0.054654  1
  Zn  Zn6  1  0.250000  0.636928  0.550943  1
  Zn  Zn7  1  0.750000  0.363027  0.449083  1
  Co  Co8  1  0.750000  0.733792  0.340088  1
  Co  Co9  1  0.250000  0.266059  0.659809  1
  Co  Co10  1  0.750000  0.286119  0.133863  1
  Co  Co11  1  0.250000  0.714063  0.866227  1
