# generated using pymatgen
data_Sc8Be3Si13(Mo2W)4
_symmetry_space_group_name_H-M   'P 1'
_cell_length_a   6.51998411
_cell_length_b   6.69234329
_cell_length_c   12.66002500
_cell_angle_alpha   90.00000000
_cell_angle_beta   90.00000000
_cell_angle_gamma   89.85917446
_symmetry_Int_Tables_number   1
_chemical_formula_structural   Sc8Be3Si13(Mo2W)4
_chemical_formula_sum   'Sc8 Be3 Si13 Mo8 W4'
_cell_volume   552.40550658
_cell_formula_units_Z   1
loop_
 _symmetry_equiv_pos_site_id
 _symmetry_equiv_pos_as_xyz
  1  'x, y, z'
loop_
 _atom_site_type_symbol
 _atom_site_label
 _atom_site_symmetry_multiplicity
 _atom_site_fract_x
 _atom_site_fract_y
 _atom_site_fract_z
 _atom_site_occupancy
  Sc  Sc0  1  0.499873  0.670825  0.596024  1
  Sc  Sc1  1  0.998955  0.829658  0.903559  1
  Sc  Sc2  1  0.504448  0.331966  0.092394  1
  Sc  Sc3  1  0.002498  0.172994  0.405868  1
  Sc  Sc4  1  0.504448  0.331966  0.407606  1
  Sc  Sc5  1  0.002498  0.172994  0.094132  1
  Sc  Sc6  1  0.499873  0.670825  0.903976  1
  Sc  Sc7  1  0.998955  0.829658  0.596441  1
  Be  Be8  1  0.458582  0.378712  0.750000  1
  Be  Be9  1  0.958240  0.121434  0.750000  1
  Be  Be10  1  0.540347  0.621836  0.250000  1
  Si  Si11  1  0.668781  0.961780  0.458376  1
  Si  Si12  1  0.168105  0.537950  0.040794  1
  Si  Si13  1  0.331991  0.038886  0.958021  1
  Si  Si14  1  0.832070  0.459246  0.543236  1
  Si  Si15  1  0.331991  0.038886  0.541979  1
  Si  Si16  1  0.832070  0.459246  0.956764  1
  Si  Si17  1  0.668781  0.961780  0.041624  1
  Si  Si18  1  0.168105  0.537950  0.459206  1
  Si  Si19  1  0.035603  0.880864  0.250000  1
  Si  Si20  1  0.708905  0.866971  0.750000  1
  Si  Si21  1  0.208615  0.632319  0.750000  1
  Si  Si22  1  0.300973  0.143700  0.250000  1
  Si  Si23  1  0.790109  0.366498  0.250000  1
  Mo  Mo24  1  0.662203  0.168487  0.628093  1
  Mo  Mo25  1  0.163591  0.330399  0.872121  1
  Mo  Mo26  1  0.337084  0.829997  0.126416  1
  Mo  Mo27  1  0.831148  0.662260  0.375085  1
  Mo  Mo28  1  0.337084  0.829997  0.373584  1
  Mo  Mo29  1  0.831148  0.662260  0.124915  1
  Mo  Mo30  1  0.662203  0.168487  0.871907  1
  Mo  Mo31  1  0.163591  0.330399  0.627879  1
  W  W32  1  0.835381  0.488850  0.750000  1
  W  W33  1  0.333918  0.010284  0.750000  1
  W  W34  1  0.164431  0.504414  0.250000  1
  W  W35  1  0.663397  0.995223  0.250000  1
