# generated using pymatgen
data_Hf9ZrAlSn6Sb
_symmetry_space_group_name_H-M   'P 1'
_cell_length_a   8.73556003
_cell_length_b   8.73290638
_cell_length_c   5.88460002
_cell_angle_alpha   90.00480378
_cell_angle_beta   89.99039537
_cell_angle_gamma   120.01005995
_symmetry_Int_Tables_number   1
_chemical_formula_structural   Hf9ZrAlSn6Sb
_chemical_formula_sum   'Hf9 Zr1 Al1 Sn6 Sb1'
_cell_volume   388.73451083
_cell_formula_units_Z   1
loop_
 _symmetry_equiv_pos_site_id
 _symmetry_equiv_pos_as_xyz
  1  'x, y, z'
loop_
 _atom_site_type_symbol
 _atom_site_label
 _atom_site_symmetry_multiplicity
 _atom_site_fract_x
 _atom_site_fract_y
 _atom_site_fract_z
 _atom_site_occupancy
  Hf  Hf0  1  0.332797  0.666315  0.000177  1
  Hf  Hf1  1  0.666454  0.333575  0.499888  1
  Hf  Hf2  1  0.666483  0.333685  0.000177  1
  Hf  Hf3  1  0.332878  0.666425  0.499888  1
  Hf  Hf4  1  0.277621  0.000000  0.263029  1
  Hf  Hf5  1  0.276321  0.276877  0.737215  1
  Hf  Hf6  1  0.999444  0.723123  0.737215  1
  Hf  Hf7  1  0.000618  0.277825  0.262035  1
  Hf  Hf8  1  0.722793  0.722175  0.262035  1
  Zr  Zr9  1  0.724120  0.000000  0.738025  1
  Al  Al10  1  0.000313  0.000000  0.498882  1
  Sn  Sn11  1  0.612192  0.000000  0.247596  1
  Sn  Sn12  1  0.611596  0.611230  0.752251  1
  Sn  Sn13  1  0.000366  0.388770  0.752251  1
  Sn  Sn14  1  0.999947  0.612042  0.247693  1
  Sn  Sn15  1  0.387906  0.387958  0.247693  1
  Sn  Sn16  1  0.387334  0.000000  0.752443  1
  Sb  Sb17  1  0.000819  0.000000  0.001507  1
