# generated using pymatgen
data_U8PdSe17
_symmetry_space_group_name_H-M   'P 1'
_cell_length_a   8.24844450
_cell_length_b   8.24844473
_cell_length_c   10.86987714
_cell_angle_alpha   79.79539980
_cell_angle_beta   79.79540070
_cell_angle_gamma   64.45657194
_symmetry_Int_Tables_number   1
_chemical_formula_structural   U8PdSe17
_chemical_formula_sum   'U8 Pd1 Se17'
_cell_volume   652.46963917
_cell_formula_units_Z   1
loop_
 _symmetry_equiv_pos_site_id
 _symmetry_equiv_pos_as_xyz
  1  'x, y, z'
loop_
 _atom_site_type_symbol
 _atom_site_label
 _atom_site_symmetry_multiplicity
 _atom_site_fract_x
 _atom_site_fract_y
 _atom_site_fract_z
 _atom_site_occupancy
  U  U0  1  0.820179  0.305134  0.299638  1
  U  U1  1  0.305134  0.820179  0.299638  1
  U  U2  1  0.179821  0.694866  0.700362  1
  U  U3  1  0.694866  0.179821  0.700362  1
  U  U4  1  0.798672  0.798672  0.458363  1
  U  U5  1  0.201328  0.201328  0.541637  1
  U  U6  1  0.324469  0.324469  0.011147  1
  U  U7  1  0.675531  0.675531  0.988853  1
  Pd  Pd8  1  0.000000  0.000000  0.000000  1
  Se  Se9  1  0.181112  0.565240  0.463719  1
  Se  Se10  1  0.565240  0.181112  0.463719  1
  Se  Se11  1  0.818888  0.434760  0.536281  1
  Se  Se12  1  0.434760  0.818888  0.536281  1
  Se  Se13  1  0.952560  0.329111  0.028564  1
  Se  Se14  1  0.329111  0.952560  0.028564  1
  Se  Se15  1  0.047440  0.670889  0.971436  1
  Se  Se16  1  0.670889  0.047440  0.971436  1
  Se  Se17  1  0.947221  0.947221  0.230562  1
  Se  Se18  1  0.052779  0.052779  0.769438  1
  Se  Se19  1  0.784601  0.784601  0.723113  1
  Se  Se20  1  0.215399  0.215399  0.276887  1
  Se  Se21  1  0.701329  0.701329  0.245396  1
  Se  Se22  1  0.298671  0.298671  0.754604  1
  Se  Se23  1  0.479948  0.479948  0.170253  1
  Se  Se24  1  0.520052  0.520052  0.829747  1
  Se  Se25  1  0.000000  0.000000  0.500000  1
