# generated using pymatgen
data_Er3Zr2Sn3Cl
_symmetry_space_group_name_H-M   'P 1'
_cell_length_a   8.91053400
_cell_length_b   8.91053417
_cell_length_c   6.16706800
_cell_angle_alpha   90.00000000
_cell_angle_beta   90.00000000
_cell_angle_gamma   119.99999937
_symmetry_Int_Tables_number   1
_chemical_formula_structural   Er3Zr2Sn3Cl
_chemical_formula_sum   'Er6 Zr4 Sn6 Cl2'
_cell_volume   424.04978088
_cell_formula_units_Z   2
loop_
 _symmetry_equiv_pos_site_id
 _symmetry_equiv_pos_as_xyz
  1  'x, y, z'
loop_
 _atom_site_type_symbol
 _atom_site_label
 _atom_site_symmetry_multiplicity
 _atom_site_fract_x
 _atom_site_fract_y
 _atom_site_fract_z
 _atom_site_occupancy
  Er  Er0  1  0.737136  0.737136  0.750000  1
  Er  Er1  1  0.262864  0.000000  0.750000  1
  Er  Er2  1  0.000000  0.262864  0.750000  1
  Er  Er3  1  0.262864  0.262864  0.250000  1
  Er  Er4  1  0.737136  0.000000  0.250000  1
  Er  Er5  1  0.000000  0.737136  0.250000  1
  Zr  Zr6  1  0.666667  0.333333  0.000000  1
  Zr  Zr7  1  0.333333  0.666667  0.000000  1
  Zr  Zr8  1  0.333333  0.666667  0.500000  1
  Zr  Zr9  1  0.666667  0.333333  0.500000  1
  Sn  Sn10  1  0.395373  0.395373  0.750000  1
  Sn  Sn11  1  0.604627  0.000000  0.750000  1
  Sn  Sn12  1  0.000000  0.604627  0.750000  1
  Sn  Sn13  1  0.604627  0.604627  0.250000  1
  Sn  Sn14  1  0.395373  0.000000  0.250000  1
  Sn  Sn15  1  0.000000  0.395373  0.250000  1
  Cl  Cl16  1  0.000000  0.000000  0.000000  1
  Cl  Cl17  1  0.000000  0.000000  0.500000  1
