# generated using pymatgen
data_La8Ho12Tl15Si
_symmetry_space_group_name_H-M   'P 1'
_cell_length_a   8.10121300
_cell_length_b   8.41287940
_cell_length_c   16.20063300
_cell_angle_alpha   90.00000000
_cell_angle_beta   90.00000000
_cell_angle_gamma   89.91902332
_symmetry_Int_Tables_number   1
_chemical_formula_structural   La8Ho12Tl15Si
_chemical_formula_sum   'La8 Ho12 Tl15 Si1'
_cell_volume   1104.14539236
_cell_formula_units_Z   1
loop_
 _symmetry_equiv_pos_site_id
 _symmetry_equiv_pos_as_xyz
  1  'x, y, z'
loop_
 _atom_site_type_symbol
 _atom_site_label
 _atom_site_symmetry_multiplicity
 _atom_site_fract_x
 _atom_site_fract_y
 _atom_site_fract_z
 _atom_site_occupancy
  La  La0  1  0.990713  0.815753  0.094794  1
  La  La1  1  0.491996  0.681359  0.404605  1
  La  La2  1  0.508716  0.317890  0.906068  1
  La  La3  1  0.008927  0.175534  0.596121  1
  La  La4  1  0.008927  0.175534  0.903879  1
  La  La5  1  0.508716  0.317890  0.593932  1
  La  La6  1  0.491996  0.681359  0.095395  1
  La  La7  1  0.990713  0.815753  0.405206  1
  Ho  Ho8  1  0.659472  0.001148  0.250000  1
  Ho  Ho9  1  0.159482  0.498432  0.250000  1
  Ho  Ho10  1  0.839526  0.507085  0.750000  1
  Ho  Ho11  1  0.327366  0.993069  0.750000  1
  Ho  Ho12  1  0.687480  0.840027  0.873838  1
  Ho  Ho13  1  0.159670  0.675059  0.628080  1
  Ho  Ho14  1  0.827163  0.337029  0.122367  1
  Ho  Ho15  1  0.326803  0.162602  0.376933  1
  Ho  Ho16  1  0.326803  0.162602  0.123067  1
  Ho  Ho17  1  0.827163  0.337029  0.377633  1
  Ho  Ho18  1  0.159670  0.675059  0.871920  1
  Ho  Ho19  1  0.687480  0.840027  0.626162  1
  Tl  Tl20  1  0.787655  0.636419  0.250000  1
  Tl  Tl21  1  0.288076  0.861808  0.250000  1
  Tl  Tl22  1  0.716889  0.136305  0.750000  1
  Tl  Tl23  1  0.212965  0.363149  0.750000  1
  Tl  Tl24  1  0.021118  0.122001  0.250000  1
  Tl  Tl25  1  0.521450  0.376774  0.250000  1
  Tl  Tl26  1  0.476058  0.627197  0.750000  1
  Tl  Tl27  1  0.829850  0.537819  0.956418  1
  Tl  Tl28  1  0.331428  0.960606  0.543563  1
  Tl  Tl29  1  0.672307  0.036243  0.040997  1
  Tl  Tl30  1  0.173184  0.461124  0.461321  1
  Tl  Tl31  1  0.173184  0.461124  0.038679  1
  Tl  Tl32  1  0.672307  0.036243  0.459003  1
  Tl  Tl33  1  0.331428  0.960606  0.956437  1
  Tl  Tl34  1  0.829850  0.537819  0.543582  1
  Si  Si35  1  0.973467  0.874526  0.750000  1
