# generated using pymatgen
data_Er16Tm4(Ir3Rh)3
_symmetry_space_group_name_H-M   'P 1'
_cell_length_a   10.76306400
_cell_length_b   10.76306400
_cell_length_c   6.33021200
_cell_angle_alpha   90.00000000
_cell_angle_beta   90.00000000
_cell_angle_gamma   90.00000000
_symmetry_Int_Tables_number   1
_chemical_formula_structural   Er16Tm4(Ir3Rh)3
_chemical_formula_sum   'Er16 Tm4 Ir9 Rh3'
_cell_volume   733.31420924
_cell_formula_units_Z   1
loop_
 _symmetry_equiv_pos_site_id
 _symmetry_equiv_pos_as_xyz
  1  'x, y, z'
loop_
 _atom_site_type_symbol
 _atom_site_label
 _atom_site_symmetry_multiplicity
 _atom_site_fract_x
 _atom_site_fract_y
 _atom_site_fract_z
 _atom_site_occupancy
  Er  Er0  1  0.290320  0.088058  0.377844  1
  Er  Er1  1  0.290242  0.911705  0.877712  1
  Er  Er2  1  0.709758  0.088295  0.877712  1
  Er  Er3  1  0.709680  0.911942  0.377844  1
  Er  Er4  1  0.588295  0.790242  0.877712  1
  Er  Er5  1  0.588058  0.209680  0.377844  1
  Er  Er6  1  0.411942  0.790320  0.377844  1
  Er  Er7  1  0.411705  0.209758  0.877712  1
  Er  Er8  1  0.209054  0.411983  0.621172  1
  Er  Er9  1  0.209311  0.588220  0.123316  1
  Er  Er10  1  0.790689  0.411780  0.123316  1
  Er  Er11  1  0.790946  0.588017  0.621172  1
  Er  Er12  1  0.911780  0.709311  0.123316  1
  Er  Er13  1  0.911983  0.290946  0.621172  1
  Er  Er14  1  0.088017  0.709054  0.621172  1
  Er  Er15  1  0.088220  0.290689  0.123316  1
  Tm  Tm16  1  0.000000  0.000000  0.500326  1
  Tm  Tm17  1  0.000000  0.000000  0.000162  1
  Tm  Tm18  1  0.500000  0.500000  0.000162  1
  Tm  Tm19  1  0.500000  0.500000  0.500326  1
  Ir  Ir20  1  0.845875  0.153130  0.249755  1
  Ir  Ir21  1  0.846019  0.846626  0.749978  1
  Ir  Ir22  1  0.153981  0.153374  0.749978  1
  Ir  Ir23  1  0.154125  0.846870  0.249755  1
  Ir  Ir24  1  0.653374  0.346019  0.749978  1
  Ir  Ir25  1  0.653130  0.654125  0.249755  1
  Ir  Ir26  1  0.346870  0.345875  0.249755  1
  Ir  Ir27  1  0.346626  0.653981  0.749978  1
  Ir  Ir28  1  0.000000  0.500000  0.376805  1
  Rh  Rh29  1  0.500000  0.000000  0.122791  1
  Rh  Rh30  1  0.500000  0.000000  0.622903  1
  Rh  Rh31  1  0.000000  0.500000  0.877418  1
