# generated using pymatgen
data_CaYb3ScSn3
_symmetry_space_group_name_H-M   'P 1'
_cell_length_a   9.13490779
_cell_length_b   9.13503581
_cell_length_c   9.14013667
_cell_angle_alpha   96.90647555
_cell_angle_beta   96.89057253
_cell_angle_gamma   139.43188918
_symmetry_Int_Tables_number   1
_chemical_formula_structural   CaYb3ScSn3
_chemical_formula_sum   'Ca2 Yb6 Sc2 Sn6'
_cell_volume   465.31485548
_cell_formula_units_Z   2
loop_
 _symmetry_equiv_pos_site_id
 _symmetry_equiv_pos_as_xyz
  1  'x, y, z'
loop_
 _atom_site_type_symbol
 _atom_site_label
 _atom_site_symmetry_multiplicity
 _atom_site_fract_x
 _atom_site_fract_y
 _atom_site_fract_z
 _atom_site_occupancy
  Ca  Ca0  1  0.713934  0.584372  0.298322  1
  Ca  Ca1  1  0.286066  0.415628  0.701678  1
  Yb  Yb2  1  0.083939  0.213680  0.297618  1
  Yb  Yb3  1  0.916061  0.786320  0.702382  1
  Yb  Yb4  1  0.786165  0.084652  0.870823  1
  Yb  Yb5  1  0.415426  0.713946  0.129372  1
  Yb  Yb6  1  0.213835  0.915348  0.129177  1
  Yb  Yb7  1  0.584574  0.286054  0.870628  1
  Sc  Sc8  1  0.249856  0.749929  0.499981  1
  Sc  Sc9  1  0.750144  0.250071  0.500019  1
  Sn  Sn10  1  0.147198  0.647906  0.795093  1
  Sn  Sn11  1  0.852802  0.352094  0.204907  1
  Sn  Sn12  1  0.352909  0.147183  0.500087  1
  Sn  Sn13  1  0.647091  0.852817  0.499913  1
  Sn  Sn14  1  0.249278  0.249279  0.000005  1
  Sn  Sn15  1  0.750722  0.750721  0.999995  1
