# generated using pymatgen
data_CsRbNa16(GaP2)6
_symmetry_space_group_name_H-M   'P 1'
_cell_length_a   4.74353200
_cell_length_b   16.46235900
_cell_length_c   22.49531000
_cell_angle_alpha   90.00000000
_cell_angle_beta   90.00000000
_cell_angle_gamma   90.00000000
_symmetry_Int_Tables_number   1
_chemical_formula_structural   CsRbNa16(GaP2)6
_chemical_formula_sum   'Cs2 Rb2 Na32 Ga12 P24'
_cell_volume   1756.65261020
_cell_formula_units_Z   2
loop_
 _symmetry_equiv_pos_site_id
 _symmetry_equiv_pos_as_xyz
  1  'x, y, z'
loop_
 _atom_site_type_symbol
 _atom_site_label
 _atom_site_symmetry_multiplicity
 _atom_site_fract_x
 _atom_site_fract_y
 _atom_site_fract_z
 _atom_site_occupancy
  Cs  Cs0  1  0.250000  0.808020  0.499840  1
  Cs  Cs1  1  0.250000  0.691980  0.999840  1
  Rb  Rb2  1  0.750000  0.191858  0.499481  1
  Rb  Rb3  1  0.750000  0.308142  0.999481  1
  Na  Na4  1  0.250000  0.032743  0.552179  1
  Na  Na5  1  0.250000  0.467257  0.052179  1
  Na  Na6  1  0.750000  0.967909  0.447882  1
  Na  Na7  1  0.750000  0.532091  0.947882  1
  Na  Na8  1  0.250000  0.351021  0.556887  1
  Na  Na9  1  0.250000  0.148979  0.056887  1
  Na  Na10  1  0.750000  0.648703  0.443053  1
  Na  Na11  1  0.750000  0.851297  0.943053  1
  Na  Na12  1  0.250000  0.921889  0.680716  1
  Na  Na13  1  0.250000  0.578111  0.180716  1
  Na  Na14  1  0.750000  0.078265  0.319261  1
  Na  Na15  1  0.750000  0.421735  0.819261  1
  Na  Na16  1  0.250000  0.692525  0.680977  1
  Na  Na17  1  0.250000  0.807475  0.180977  1
  Na  Na18  1  0.750000  0.307333  0.319077  1
  Na  Na19  1  0.750000  0.192667  0.819077  1
  Na  Na20  1  0.250000  0.457034  0.691834  1
  Na  Na21  1  0.250000  0.042966  0.191834  1
  Na  Na22  1  0.750000  0.542976  0.308104  1
  Na  Na23  1  0.750000  0.957024  0.808104  1
  Na  Na24  1  0.250000  0.799770  0.836781  1
  Na  Na25  1  0.250000  0.700230  0.336781  1
  Na  Na26  1  0.750000  0.200228  0.162959  1
  Na  Na27  1  0.750000  0.299772  0.662959  1
  Na  Na28  1  0.250000  0.580336  0.840297  1
  Na  Na29  1  0.250000  0.919664  0.340297  1
  Na  Na30  1  0.750000  0.419584  0.159453  1
  Na  Na31  1  0.750000  0.080416  0.659453  1
  Na  Na32  1  0.250000  0.943586  0.039876  1
  Na  Na33  1  0.250000  0.556414  0.539876  1
  Na  Na34  1  0.750000  0.056634  0.960261  1
  Na  Na35  1  0.750000  0.443366  0.460261  1
  Ga  Ga36  1  0.250000  0.190798  0.716242  1
  Ga  Ga37  1  0.250000  0.309202  0.216242  1
  Ga  Ga38  1  0.750000  0.809319  0.283128  1
  Ga  Ga39  1  0.750000  0.690681  0.783128  1
  Ga  Ga40  1  0.250000  0.069004  0.864448  1
  Ga  Ga41  1  0.250000  0.430996  0.364448  1
  Ga  Ga42  1  0.750000  0.931386  0.135830  1
  Ga  Ga43  1  0.750000  0.568614  0.635830  1
  Ga  Ga44  1  0.250000  0.309573  0.872939  1
  Ga  Ga45  1  0.250000  0.190427  0.372939  1
  Ga  Ga46  1  0.750000  0.690211  0.127585  1
  Ga  Ga47  1  0.750000  0.809789  0.627585  1
  P  P48  1  0.250000  0.192059  0.615629  1
  P  P49  1  0.250000  0.307941  0.115629  1
  P  P50  1  0.750000  0.807942  0.383280  1
  P  P51  1  0.750000  0.692058  0.883280  1
  P  P52  1  0.250000  0.063966  0.761487  1
  P  P53  1  0.250000  0.436034  0.261487  1
  P  P54  1  0.750000  0.936330  0.238600  1
  P  P55  1  0.750000  0.563670  0.738600  1
  P  P56  1  0.250000  0.313444  0.768372  1
  P  P57  1  0.250000  0.186556  0.268372  1
  P  P58  1  0.750000  0.686460  0.231762  1
  P  P59  1  0.750000  0.813540  0.731762  1
  P  P60  1  0.250000  0.945374  0.910255  1
  P  P61  1  0.250000  0.554626  0.410255  1
  P  P62  1  0.750000  0.054644  0.089677  1
  P  P63  1  0.750000  0.445356  0.589677  1
  P  P64  1  0.250000  0.434605  0.916984  1
  P  P65  1  0.250000  0.065395  0.416984  1
  P  P66  1  0.750000  0.564666  0.084077  1
  P  P67  1  0.750000  0.935334  0.584077  1
  P  P68  1  0.250000  0.184518  0.924001  1
  P  P69  1  0.250000  0.315482  0.424001  1
  P  P70  1  0.750000  0.816095  0.076786  1
  P  P71  1  0.750000  0.683905  0.576786  1
