# generated using pymatgen
data_Li3TmLu2Si2Ge
_symmetry_space_group_name_H-M   'P 1'
_cell_length_a   6.88722025
_cell_length_b   6.88721998
_cell_length_c   4.20089200
_cell_angle_alpha   90.00000000
_cell_angle_beta   90.00000000
_cell_angle_gamma   120.29051001
_symmetry_Int_Tables_number   1
_chemical_formula_structural   Li3TmLu2Si2Ge
_chemical_formula_sum   'Li3 Tm1 Lu2 Si2 Ge1'
_cell_volume   172.06053734
_cell_formula_units_Z   1
loop_
 _symmetry_equiv_pos_site_id
 _symmetry_equiv_pos_as_xyz
  1  'x, y, z'
loop_
 _atom_site_type_symbol
 _atom_site_label
 _atom_site_symmetry_multiplicity
 _atom_site_fract_x
 _atom_site_fract_y
 _atom_site_fract_z
 _atom_site_occupancy
  Li  Li0  1  0.234306  0.999603  0.500000  1
  Li  Li1  1  0.999603  0.234306  0.500000  1
  Li  Li2  1  0.766148  0.766148  0.500000  1
  Tm  Tm3  1  0.430480  0.430480  0.000000  1
  Lu  Lu4  1  0.570618  0.000071  0.000000  1
  Lu  Lu5  1  0.000071  0.570618  0.000000  1
  Si  Si6  1  0.333050  0.667876  0.500000  1
  Si  Si7  1  0.667876  0.333050  0.500000  1
  Ge  Ge8  1  0.997847  0.997847  0.000000  1
