# generated using pymatgen
data_Ca3Pr16ErPb16
_symmetry_space_group_name_H-M   'P 1'
_cell_length_a   8.34808910
_cell_length_b   8.58510615
_cell_length_c   16.38208000
_cell_angle_alpha   90.00000000
_cell_angle_beta   90.00000000
_cell_angle_gamma   89.91885851
_symmetry_Int_Tables_number   1
_chemical_formula_structural   Ca3Pr16ErPb16
_chemical_formula_sum   'Ca3 Pr16 Er1 Pb16'
_cell_volume   1174.08989892
_cell_formula_units_Z   1
loop_
 _symmetry_equiv_pos_site_id
 _symmetry_equiv_pos_as_xyz
  1  'x, y, z'
loop_
 _atom_site_type_symbol
 _atom_site_label
 _atom_site_symmetry_multiplicity
 _atom_site_fract_x
 _atom_site_fract_y
 _atom_site_fract_z
 _atom_site_occupancy
  Ca  Ca0  1  0.307854  0.001144  0.750000  1
  Ca  Ca1  1  0.192099  0.501471  0.250000  1
  Ca  Ca2  1  0.692022  0.998495  0.250000  1
  Pr  Pr3  1  0.640118  0.161890  0.622220  1
  Pr  Pr4  1  0.140181  0.338511  0.877793  1
  Pr  Pr5  1  0.360820  0.837576  0.121948  1
  Pr  Pr6  1  0.860595  0.661018  0.378926  1
  Pr  Pr7  1  0.360820  0.837576  0.378052  1
  Pr  Pr8  1  0.860595  0.661018  0.121074  1
  Pr  Pr9  1  0.640118  0.161890  0.877780  1
  Pr  Pr10  1  0.140181  0.338511  0.622207  1
  Pr  Pr11  1  0.487742  0.682628  0.595782  1
  Pr  Pr12  1  0.988901  0.816410  0.904530  1
  Pr  Pr13  1  0.511039  0.316678  0.094989  1
  Pr  Pr14  1  0.010989  0.184299  0.405264  1
  Pr  Pr15  1  0.511039  0.316678  0.405011  1
  Pr  Pr16  1  0.010989  0.184299  0.094736  1
  Pr  Pr17  1  0.487742  0.682628  0.904218  1
  Pr  Pr18  1  0.988901  0.816410  0.595470  1
  Er  Er19  1  0.807381  0.499317  0.750000  1
  Pb  Pb20  1  0.702509  0.959979  0.459778  1
  Pb  Pb21  1  0.204561  0.539809  0.040316  1
  Pb  Pb22  1  0.296924  0.040149  0.959758  1
  Pb  Pb23  1  0.796310  0.461573  0.542687  1
  Pb  Pb24  1  0.296924  0.040149  0.540242  1
  Pb  Pb25  1  0.796310  0.461573  0.957313  1
  Pb  Pb26  1  0.702509  0.959979  0.040222  1
  Pb  Pb27  1  0.204561  0.539809  0.459684  1
  Pb  Pb28  1  0.445933  0.388957  0.750000  1
  Pb  Pb29  1  0.943178  0.116396  0.750000  1
  Pb  Pb30  1  0.557503  0.610700  0.250000  1
  Pb  Pb31  1  0.057001  0.888454  0.250000  1
  Pb  Pb32  1  0.681398  0.845266  0.750000  1
  Pb  Pb33  1  0.172469  0.648701  0.750000  1
  Pb  Pb34  1  0.320183  0.148238  0.250000  1
  Pb  Pb35  1  0.821599  0.351823  0.250000  1
