# generated using pymatgen
data_LuMgZr2(Al8Pt3)3
_symmetry_space_group_name_H-M   'P 1'
_cell_length_a   7.48585867
_cell_length_b   7.49077314
_cell_length_c   13.03970017
_cell_angle_alpha   84.59617986
_cell_angle_beta   79.07336980
_cell_angle_gamma   59.92741513
_symmetry_Int_Tables_number   1
_chemical_formula_structural   LuMgZr2(Al8Pt3)3
_chemical_formula_sum   'Lu1 Mg1 Zr2 Al24 Pt9'
_cell_volume   621.30164471
_cell_formula_units_Z   1
loop_
 _symmetry_equiv_pos_site_id
 _symmetry_equiv_pos_as_xyz
  1  'x, y, z'
loop_
 _atom_site_type_symbol
 _atom_site_label
 _atom_site_symmetry_multiplicity
 _atom_site_fract_x
 _atom_site_fract_y
 _atom_site_fract_z
 _atom_site_occupancy
  Lu  Lu0  1  0.266612  0.499145  0.191266  1
  Mg  Mg1  1  0.396258  0.170652  0.796852  1
  Zr  Zr2  1  0.605293  0.835373  0.188231  1
  Zr  Zr3  1  0.732741  0.497632  0.811819  1
  Al  Al4  1  0.678036  0.836578  0.939551  1
  Al  Al5  1  0.317017  0.165011  0.053030  1
  Al  Al6  1  0.146491  0.832161  0.563886  1
  Al  Al7  1  0.853217  0.167529  0.437581  1
  Al  Al8  1  0.480788  0.166527  0.558981  1
  Al  Al9  1  0.520173  0.833606  0.439792  1
  Al  Al10  1  0.220845  0.163372  0.325250  1
  Al  Al11  1  0.777867  0.834336  0.678267  1
  Al  Al12  1  0.438526  0.503818  0.678860  1
  Al  Al13  1  0.563450  0.496069  0.325288  1
  Al  Al14  1  0.107247  0.162374  0.677396  1
  Al  Al15  1  0.890080  0.839239  0.326366  1
  Al  Al16  1  0.356906  0.493411  0.939540  1
  Al  Al17  1  0.646260  0.502721  0.057224  1
  Al  Al18  1  0.020239  0.170628  0.946815  1
  Al  Al19  1  0.982114  0.832465  0.048579  1
  Al  Al20  1  0.186840  0.499299  0.441280  1
  Al  Al21  1  0.812715  0.500346  0.561250  1
  Al  Al22  1  0.734957  0.159792  0.183129  1
  Al  Al23  1  0.275491  0.829754  0.817881  1
  Al  Al24  1  0.054720  0.629365  0.817036  1
  Al  Al25  1  0.934987  0.373830  0.184898  1
  Al  Al26  1  0.853093  0.049257  0.817282  1
  Al  Al27  1  0.150224  0.956939  0.184628  1
  Pt  Pt28  1  0.121276  0.490218  0.640011  1
  Pt  Pt29  1  0.880155  0.509138  0.361503  1
  Pt  Pt30  1  0.656722  0.171868  0.001426  1
  Pt  Pt31  1  0.341816  0.824827  0.002886  1
  Pt  Pt32  1  0.536513  0.167288  0.359886  1
  Pt  Pt33  1  0.462573  0.834457  0.639089  1
  Pt  Pt34  1  0.779270  0.174974  0.637624  1
  Pt  Pt35  1  0.221556  0.822912  0.363301  1
  Pt  Pt36  1  0.996936  0.503090  0.002309  1
