# generated using pymatgen
data_Lu12Mn(GaTc)2
_symmetry_space_group_name_H-M   'P 1'
_cell_length_a   8.15483124
_cell_length_b   8.15483257
_cell_length_c   8.15483134
_cell_angle_alpha   109.12699005
_cell_angle_beta   109.12699797
_cell_angle_gamma   110.16188863
_symmetry_Int_Tables_number   1
_chemical_formula_structural   Lu12Mn(GaTc)2
_chemical_formula_sum   'Lu12 Mn1 Ga2 Tc2'
_cell_volume   417.42237423
_cell_formula_units_Z   1
loop_
 _symmetry_equiv_pos_site_id
 _symmetry_equiv_pos_as_xyz
  1  'x, y, z'
loop_
 _atom_site_type_symbol
 _atom_site_label
 _atom_site_symmetry_multiplicity
 _atom_site_fract_x
 _atom_site_fract_y
 _atom_site_fract_z
 _atom_site_occupancy
  Lu  Lu0  1  0.304104  0.304104  0.610809  1
  Lu  Lu1  1  0.693295  0.693295  0.389191  1
  Lu  Lu2  1  0.693295  0.304104  0.000000  1
  Lu  Lu3  1  0.304104  0.693295  0.000000  1
  Lu  Lu4  1  0.187259  0.433929  0.246670  1
  Lu  Lu5  1  0.811456  0.565977  0.754521  1
  Lu  Lu6  1  0.187259  0.940588  0.753330  1
  Lu  Lu7  1  0.940588  0.187259  0.753330  1
  Lu  Lu8  1  0.811456  0.056936  0.245479  1
  Lu  Lu9  1  0.056936  0.811456  0.245479  1
  Lu  Lu10  1  0.433929  0.187259  0.246670  1
  Lu  Lu11  1  0.565977  0.811456  0.754521  1
  Mn  Mn12  1  0.634538  0.634538  0.000000  1
  Ga  Ga13  1  0.998382  0.498382  0.500000  1
  Ga  Ga14  1  0.498382  0.998382  0.500000  1
  Tc  Tc15  1  0.379293  0.379293  0.000000  1
  Tc  Tc16  1  0.999746  0.999746  0.000000  1
