# generated using pymatgen
data_Tb5Sm3(Sc3Ga4)4
_symmetry_space_group_name_H-M   'P 1'
_cell_length_a   7.32949739
_cell_length_b   7.57914224
_cell_length_c   14.55648713
_cell_angle_alpha   90.02701331
_cell_angle_beta   90.03613117
_cell_angle_gamma   90.00951143
_symmetry_Int_Tables_number   1
_chemical_formula_structural   Tb5Sm3(Sc3Ga4)4
_chemical_formula_sum   'Tb5 Sm3 Sc12 Ga16'
_cell_volume   808.63156872
_cell_formula_units_Z   1
loop_
 _symmetry_equiv_pos_site_id
 _symmetry_equiv_pos_as_xyz
  1  'x, y, z'
loop_
 _atom_site_type_symbol
 _atom_site_label
 _atom_site_symmetry_multiplicity
 _atom_site_fract_x
 _atom_site_fract_y
 _atom_site_fract_z
 _atom_site_occupancy
  Tb  Tb0  1  0.988194  0.822440  0.595583  1
  Tb  Tb1  1  0.511844  0.322354  0.095801  1
  Tb  Tb2  1  0.011793  0.177578  0.404360  1
  Tb  Tb3  1  0.511886  0.322402  0.404442  1
  Tb  Tb4  1  0.488201  0.677594  0.595578  1
  Sm  Sm5  1  0.011749  0.177230  0.095488  1
  Sm  Sm6  1  0.988156  0.823125  0.904540  1
  Sm  Sm7  1  0.488153  0.676699  0.904797  1
  Sc  Sc8  1  0.161886  0.502008  0.749611  1
  Sc  Sc9  1  0.837890  0.497721  0.250176  1
  Sc  Sc10  1  0.338362  0.002403  0.250220  1
  Sc  Sc11  1  0.661776  0.998057  0.749603  1
  Sc  Sc12  1  0.329989  0.174073  0.624118  1
  Sc  Sc13  1  0.669913  0.825925  0.375682  1
  Sc  Sc14  1  0.170033  0.674151  0.375767  1
  Sc  Sc15  1  0.669466  0.825767  0.124745  1
  Sc  Sc16  1  0.830093  0.325817  0.624145  1
  Sc  Sc17  1  0.330513  0.174273  0.875487  1
  Sc  Sc18  1  0.830228  0.325809  0.875365  1
  Sc  Sc19  1  0.170203  0.673941  0.124676  1
  Ga  Ga20  1  0.031768  0.119026  0.749674  1
  Ga  Ga21  1  0.968230  0.881005  0.250267  1
  Ga  Ga22  1  0.468321  0.618531  0.250015  1
  Ga  Ga23  1  0.531741  0.380914  0.749690  1
  Ga  Ga24  1  0.284745  0.874430  0.749198  1
  Ga  Ga25  1  0.714695  0.126111  0.250446  1
  Ga  Ga26  1  0.215864  0.374252  0.250379  1
  Ga  Ga27  1  0.784804  0.625564  0.749270  1
  Ga  Ga28  1  0.160042  0.465001  0.540158  1
  Ga  Ga29  1  0.840011  0.534915  0.459840  1
  Ga  Ga30  1  0.339999  0.964940  0.459810  1
  Ga  Ga31  1  0.839815  0.535350  0.040381  1
  Ga  Ga32  1  0.659997  0.034997  0.540150  1
  Ga  Ga33  1  0.159590  0.463988  0.960000  1
  Ga  Ga34  1  0.658809  0.036555  0.960168  1
  Ga  Ga35  1  0.341237  0.965055  0.040368  1
