# generated using pymatgen
data_CaTbCeAs3
_symmetry_space_group_name_H-M   'P 1'
_cell_length_a   7.26549420
_cell_length_b   7.26549365
_cell_length_c   7.26549309
_cell_angle_alpha   146.17588506
_cell_angle_beta   131.98191472
_cell_angle_gamma   60.02339530
_symmetry_Int_Tables_number   1
_chemical_formula_structural   CaTbCeAs3
_chemical_formula_sum   'Ca1 Tb1 Ce1 As3'
_cell_volume   157.23565176
_cell_formula_units_Z   1
loop_
 _symmetry_equiv_pos_site_id
 _symmetry_equiv_pos_as_xyz
  1  'x, y, z'
loop_
 _atom_site_type_symbol
 _atom_site_label
 _atom_site_symmetry_multiplicity
 _atom_site_fract_x
 _atom_site_fract_y
 _atom_site_fract_z
 _atom_site_occupancy
  Ca  Ca0  1  0.667699  0.667699  0.000000  1
  Tb  Tb1  1  0.332535  0.332535  0.000000  1
  Ce  Ce2  1  0.001334  0.001334  0.000000  1
  As  As3  1  0.492411  0.992411  0.500000  1
  As  As4  1  0.163723  0.663723  0.500000  1
  As  As5  1  0.842299  0.342299  0.500000  1
