# generated using pymatgen
data_NaY3Ho3Co6Sn23
_symmetry_space_group_name_H-M   'P 1'
_cell_length_a   9.71152300
_cell_length_b   9.71152171
_cell_length_c   9.95252800
_cell_angle_alpha   90.00000000
_cell_angle_beta   90.00000000
_cell_angle_gamma   119.99999419
_symmetry_Int_Tables_number   1
_chemical_formula_structural   NaY3Ho3Co6Sn23
_chemical_formula_sum   'Na1 Y3 Ho3 Co6 Sn23'
_cell_volume   812.90293856
_cell_formula_units_Z   1
loop_
 _symmetry_equiv_pos_site_id
 _symmetry_equiv_pos_as_xyz
  1  'x, y, z'
loop_
 _atom_site_type_symbol
 _atom_site_label
 _atom_site_symmetry_multiplicity
 _atom_site_fract_x
 _atom_site_fract_y
 _atom_site_fract_z
 _atom_site_occupancy
  Na  Na0  1  0.000000  0.000000  0.000033  1
  Y  Y1  1  0.520538  0.479462  0.693930  1
  Y  Y2  1  0.520538  0.041077  0.693930  1
  Y  Y3  1  0.958923  0.479462  0.693930  1
  Ho  Ho4  1  0.040400  0.520200  0.305767  1
  Ho  Ho5  1  0.479800  0.959600  0.305767  1
  Ho  Ho6  1  0.479800  0.520200  0.305767  1
  Co  Co7  1  0.170312  0.829688  0.799365  1
  Co  Co8  1  0.170312  0.340624  0.799365  1
  Co  Co9  1  0.659376  0.829688  0.799365  1
  Co  Co10  1  0.340985  0.170492  0.200844  1
  Co  Co11  1  0.829508  0.659015  0.200844  1
  Co  Co12  1  0.829508  0.170492  0.200844  1
  Sn  Sn13  1  0.666667  0.333333  0.184528  1
  Sn  Sn14  1  0.666667  0.333333  0.883192  1
  Sn  Sn15  1  0.333333  0.666667  0.117824  1
  Sn  Sn16  1  0.343992  0.344060  0.000159  1
  Sn  Sn17  1  0.000069  0.656008  0.000159  1
  Sn  Sn18  1  0.655940  0.999931  0.000159  1
  Sn  Sn19  1  0.655940  0.656008  0.000159  1
  Sn  Sn20  1  0.333333  0.666667  0.815512  1
  Sn  Sn21  1  0.436549  0.218276  0.453036  1
  Sn  Sn22  1  0.218386  0.781614  0.546207  1
  Sn  Sn23  1  0.218386  0.436770  0.546207  1
  Sn  Sn24  1  0.563230  0.781614  0.546207  1
  Sn  Sn25  1  0.116374  0.883626  0.271752  1
  Sn  Sn26  1  0.781724  0.563451  0.453036  1
  Sn  Sn27  1  0.781724  0.218276  0.453036  1
  Sn  Sn28  1  0.343992  0.999931  0.000159  1
  Sn  Sn29  1  0.116374  0.232748  0.271752  1
  Sn  Sn30  1  0.767252  0.883626  0.271752  1
  Sn  Sn31  1  0.232134  0.116067  0.728454  1
  Sn  Sn32  1  0.883933  0.767866  0.728454  1
  Sn  Sn33  1  0.883933  0.116067  0.728454  1
  Sn  Sn34  1  0.000000  0.000000  0.499892  1
  Sn  Sn35  1  0.000069  0.344060  0.000159  1
