# generated using pymatgen
data_Dy5Cr3(Co4P3)4
_symmetry_space_group_name_H-M   'P 1'
_cell_length_a   11.99431600
_cell_length_b   11.99431606
_cell_length_c   3.67172300
_cell_angle_alpha   90.00000000
_cell_angle_beta   90.00000000
_cell_angle_gamma   119.99999433
_symmetry_Int_Tables_number   1
_chemical_formula_structural   Dy5Cr3(Co4P3)4
_chemical_formula_sum   'Dy5 Cr3 Co16 P12'
_cell_volume   457.45833140
_cell_formula_units_Z   1
loop_
 _symmetry_equiv_pos_site_id
 _symmetry_equiv_pos_as_xyz
  1  'x, y, z'
loop_
 _atom_site_type_symbol
 _atom_site_label
 _atom_site_symmetry_multiplicity
 _atom_site_fract_x
 _atom_site_fract_y
 _atom_site_fract_z
 _atom_site_occupancy
  Dy  Dy0  1  0.666667  0.333333  0.000000  1
  Dy  Dy1  1  0.333333  0.666667  0.000000  1
  Dy  Dy2  1  0.187082  0.187082  0.500000  1
  Dy  Dy3  1  0.812918  0.000000  0.500000  1
  Dy  Dy4  1  0.000000  0.812918  0.500000  1
  Cr  Cr5  1  0.554950  0.554950  0.000000  1
  Cr  Cr6  1  0.445050  0.000000  0.000000  1
  Cr  Cr7  1  0.000000  0.445050  0.000000  1
  Co  Co8  1  0.823111  0.200429  0.000000  1
  Co  Co9  1  0.799571  0.622682  0.000000  1
  Co  Co10  1  0.377318  0.176889  0.000000  1
  Co  Co11  1  0.200429  0.823111  0.000000  1
  Co  Co12  1  0.622682  0.799571  0.000000  1
  Co  Co13  1  0.176889  0.377318  0.000000  1
  Co  Co14  1  0.643893  0.125878  0.500000  1
  Co  Co15  1  0.874122  0.518015  0.500000  1
  Co  Co16  1  0.481985  0.356107  0.500000  1
  Co  Co17  1  0.125878  0.643893  0.500000  1
  Co  Co18  1  0.518015  0.874122  0.500000  1
  Co  Co19  1  0.356107  0.481985  0.500000  1
  Co  Co20  1  0.717322  0.717322  0.500000  1
  Co  Co21  1  0.282678  0.000000  0.500000  1
  Co  Co22  1  0.000000  0.282678  0.500000  1
  Co  Co23  1  0.000000  0.000000  0.000000  1
  P  P24  1  0.366972  0.366972  0.000000  1
  P  P25  1  0.633028  0.000000  0.000000  1
  P  P26  1  0.000000  0.633028  0.000000  1
  P  P27  1  0.837429  0.317334  0.500000  1
  P  P28  1  0.682666  0.520095  0.500000  1
  P  P29  1  0.479905  0.162571  0.500000  1
  P  P30  1  0.317334  0.837429  0.500000  1
  P  P31  1  0.520095  0.682666  0.500000  1
  P  P32  1  0.162571  0.479905  0.500000  1
  P  P33  1  0.820470  0.820470  0.000000  1
  P  P34  1  0.179530  0.000000  0.000000  1
  P  P35  1  0.000000  0.179530  0.000000  1
