# generated using pymatgen
data_SrTb3Ho3NiI12
_symmetry_space_group_name_H-M   'P 1'
_cell_length_a   9.79924188
_cell_length_b   9.79924237
_cell_length_c   9.79924432
_cell_angle_alpha   106.21446270
_cell_angle_beta   106.21446576
_cell_angle_gamma   106.21446420
_symmetry_Int_Tables_number   1
_chemical_formula_structural   SrTb3Ho3NiI12
_chemical_formula_sum   'Sr1 Tb3 Ho3 Ni1 I12'
_cell_volume   799.85075158
_cell_formula_units_Z   1
loop_
 _symmetry_equiv_pos_site_id
 _symmetry_equiv_pos_as_xyz
  1  'x, y, z'
loop_
 _atom_site_type_symbol
 _atom_site_label
 _atom_site_symmetry_multiplicity
 _atom_site_fract_x
 _atom_site_fract_y
 _atom_site_fract_z
 _atom_site_occupancy
  Sr  Sr0  1  0.499659  0.499659  0.499659  1
  Tb  Tb1  1  0.092049  0.019993  0.290637  1
  Tb  Tb2  1  0.290637  0.092049  0.019993  1
  Tb  Tb3  1  0.019993  0.290637  0.092049  1
  Ho  Ho4  1  0.907965  0.979495  0.712139  1
  Ho  Ho5  1  0.712139  0.907965  0.979495  1
  Ho  Ho6  1  0.979495  0.712139  0.907965  1
  Ni  Ni7  1  0.000121  0.000121  0.000121  1
  I  I8  1  0.925752  0.322383  0.776232  1
  I  I9  1  0.776232  0.925752  0.322383  1
  I  I10  1  0.322383  0.776232  0.925752  1
  I  I11  1  0.073238  0.676169  0.220416  1
  I  I12  1  0.220416  0.073238  0.676169  1
  I  I13  1  0.676169  0.220416  0.073238  1
  I  I14  1  0.552919  0.864868  0.632419  1
  I  I15  1  0.632419  0.552919  0.864868  1
  I  I16  1  0.864868  0.632419  0.552919  1
  I  I17  1  0.448878  0.135650  0.369017  1
  I  I18  1  0.369017  0.448878  0.135650  1
  I  I19  1  0.135650  0.369017  0.448878  1
