# generated using pymatgen
data_Dy9Tm(SnSb)4
_symmetry_space_group_name_H-M   'P 1'
_cell_length_a   8.72489104
_cell_length_b   8.72489167
_cell_length_c   8.14475548
_cell_angle_alpha   90.01244395
_cell_angle_beta   90.01244709
_cell_angle_gamma   124.71017411
_symmetry_Int_Tables_number   1
_chemical_formula_structural   Dy9Tm(SnSb)4
_chemical_formula_sum   'Dy9 Tm1 Sn4 Sb4'
_cell_volume   509.67409673
_cell_formula_units_Z   1
loop_
 _symmetry_equiv_pos_site_id
 _symmetry_equiv_pos_as_xyz
  1  'x, y, z'
loop_
 _atom_site_type_symbol
 _atom_site_label
 _atom_site_symmetry_multiplicity
 _atom_site_fract_x
 _atom_site_fract_y
 _atom_site_fract_z
 _atom_site_occupancy
  Dy  Dy0  1  0.030986  0.302262  0.334890  1
  Dy  Dy1  1  0.969014  0.697738  0.665110  1
  Dy  Dy2  1  0.469226  0.197211  0.835060  1
  Dy  Dy3  1  0.802789  0.530774  0.164940  1
  Dy  Dy4  1  0.530774  0.802789  0.164940  1
  Dy  Dy5  1  0.197211  0.469226  0.835060  1
  Dy  Dy6  1  0.697738  0.969014  0.665110  1
  Dy  Dy7  1  0.302262  0.030986  0.334890  1
  Dy  Dy8  1  0.500000  0.500000  0.500000  1
  Tm  Tm9  1  0.000000  0.000000  0.000000  1
  Sn  Sn10  1  0.364024  0.364024  0.134477  1
  Sn  Sn11  1  0.635976  0.635976  0.865523  1
  Sn  Sn12  1  0.134861  0.134861  0.636162  1
  Sn  Sn13  1  0.865139  0.865139  0.363838  1
  Sb  Sb14  1  0.798005  0.201995  0.000000  1
  Sb  Sb15  1  0.201995  0.798005  0.000000  1
  Sb  Sb16  1  0.702973  0.297027  0.500000  1
  Sb  Sb17  1  0.297027  0.702973  0.500000  1
