# generated using pymatgen
data_Tm4UP4S
_symmetry_space_group_name_H-M   'P 1'
_cell_length_a   16.25389861
_cell_length_b   16.25389871
_cell_length_c   16.25389869
_cell_angle_alpha   13.86108375
_cell_angle_beta   13.86108319
_cell_angle_gamma   13.86108498
_symmetry_Int_Tables_number   1
_chemical_formula_structural   Tm4UP4S
_chemical_formula_sum   'Tm4 U1 P4 S1'
_cell_volume   214.47473724
_cell_formula_units_Z   1
loop_
 _symmetry_equiv_pos_site_id
 _symmetry_equiv_pos_as_xyz
  1  'x, y, z'
loop_
 _atom_site_type_symbol
 _atom_site_label
 _atom_site_symmetry_multiplicity
 _atom_site_fract_x
 _atom_site_fract_y
 _atom_site_fract_z
 _atom_site_occupancy
  Tm  Tm0  1  0.599037  0.599037  0.599037  1
  Tm  Tm1  1  0.400963  0.400963  0.400963  1
  Tm  Tm2  1  0.201390  0.201390  0.201390  1
  Tm  Tm3  1  0.798610  0.798610  0.798610  1
  U  U4  1  0.000000  0.000000  0.000000  1
  P  P5  1  0.101099  0.101099  0.101099  1
  P  P6  1  0.700382  0.700382  0.700382  1
  P  P7  1  0.299618  0.299618  0.299618  1
  P  P8  1  0.898901  0.898901  0.898901  1
  S  S9  1  0.500000  0.500000  0.500000  1
