# generated using pymatgen
data_Sr5Pd
_symmetry_space_group_name_H-M   'P 1'
_cell_length_a   7.52396100
_cell_length_b   7.52396170
_cell_length_c   7.52396152
_cell_angle_alpha   99.38592851
_cell_angle_beta   99.38593160
_cell_angle_gamma   132.36355911
_symmetry_Int_Tables_number   1
_chemical_formula_structural   Sr5Pd
_chemical_formula_sum   'Sr5 Pd1'
_cell_volume   287.91016284
_cell_formula_units_Z   1
loop_
 _symmetry_equiv_pos_site_id
 _symmetry_equiv_pos_as_xyz
  1  'x, y, z'
loop_
 _atom_site_type_symbol
 _atom_site_label
 _atom_site_symmetry_multiplicity
 _atom_site_fract_x
 _atom_site_fract_y
 _atom_site_fract_z
 _atom_site_occupancy
  Sr  Sr0  1  0.500000  0.500000  0.000000  1
  Sr  Sr1  1  0.295458  0.906633  0.202091  1
  Sr  Sr2  1  0.093367  0.295458  0.388826  1
  Sr  Sr3  1  0.906633  0.704542  0.611175  1
  Sr  Sr4  1  0.704542  0.093367  0.797909  1
  Pd  Pd5  1  0.000000  0.000000  0.000000  1
