# generated using pymatgen
data_Tb3Pr2Dy(RuO7)2
_symmetry_space_group_name_H-M   'P 1'
_cell_length_a   6.47937354
_cell_length_b   6.47725359
_cell_length_c   7.53278600
_cell_angle_alpha   90.00000000
_cell_angle_beta   90.00000000
_cell_angle_gamma   110.19955748
_symmetry_Int_Tables_number   1
_chemical_formula_structural   Tb3Pr2Dy(RuO7)2
_chemical_formula_sum   'Tb3 Pr2 Dy1 Ru2 O14'
_cell_volume   296.69609518
_cell_formula_units_Z   1
loop_
 _symmetry_equiv_pos_site_id
 _symmetry_equiv_pos_as_xyz
  1  'x, y, z'
loop_
 _atom_site_type_symbol
 _atom_site_label
 _atom_site_symmetry_multiplicity
 _atom_site_fract_x
 _atom_site_fract_y
 _atom_site_fract_z
 _atom_site_occupancy
  Tb  Tb0  1  0.480787  0.927833  0.750000  1
  Tb  Tb1  1  0.519152  0.072074  0.250000  1
  Tb  Tb2  1  0.927894  0.480881  0.750000  1
  Pr  Pr3  1  0.000057  0.999991  0.499909  1
  Pr  Pr4  1  0.000057  0.999991  0.000091  1
  Dy  Dy5  1  0.071180  0.518748  0.250000  1
  Ru  Ru6  1  0.500028  0.500066  0.499848  1
  Ru  Ru7  1  0.500028  0.500066  0.000152  1
  O  O8  1  0.588689  0.588654  0.750000  1
  O  O9  1  0.410914  0.411446  0.250000  1
  O  O10  1  0.837402  0.116461  0.750000  1
  O  O11  1  0.162461  0.881994  0.250000  1
  O  O12  1  0.116563  0.837493  0.750000  1
  O  O13  1  0.884141  0.163884  0.250000  1
  O  O14  1  0.440834  0.183219  0.962831  1
  O  O15  1  0.559275  0.816844  0.462820  1
  O  O16  1  0.183188  0.441122  0.963455  1
  O  O17  1  0.817025  0.559024  0.462435  1
  O  O18  1  0.440834  0.183219  0.537169  1
  O  O19  1  0.559275  0.816844  0.037180  1
  O  O20  1  0.817025  0.559024  0.037565  1
  O  O21  1  0.183188  0.441122  0.536545  1
