# generated using pymatgen
data_Co2(SiRu)3
_symmetry_space_group_name_H-M   'P 1'
_cell_length_a   6.85866400
_cell_length_b   6.85866377
_cell_length_c   4.81232100
_cell_angle_alpha   90.00000000
_cell_angle_beta   90.00000000
_cell_angle_gamma   120.00000109
_symmetry_Int_Tables_number   1
_chemical_formula_structural   Co2(SiRu)3
_chemical_formula_sum   'Co4 Si6 Ru6'
_cell_volume   196.04883087
_cell_formula_units_Z   2
loop_
 _symmetry_equiv_pos_site_id
 _symmetry_equiv_pos_as_xyz
  1  'x, y, z'
loop_
 _atom_site_type_symbol
 _atom_site_label
 _atom_site_symmetry_multiplicity
 _atom_site_fract_x
 _atom_site_fract_y
 _atom_site_fract_z
 _atom_site_occupancy
  Co  Co0  1  0.666666  0.333334  0.000000  1
  Co  Co1  1  0.333334  0.666667  0.000000  1
  Co  Co2  1  0.666666  0.333334  0.500001  1
  Co  Co3  1  0.333334  0.666667  0.500001  1
  Si  Si4  1  0.596225  0.000000  0.250000  1
  Si  Si5  1  0.403775  0.403775  0.250000  1
  Si  Si6  1  0.000000  0.596225  0.250000  1
  Si  Si7  1  0.403775  0.000000  0.749999  1
  Si  Si8  1  0.000000  0.403775  0.749999  1
  Si  Si9  1  0.596225  0.596225  0.749999  1
  Ru  Ru10  1  0.245942  0.000000  0.250000  1
  Ru  Ru11  1  0.000000  0.245941  0.250000  1
  Ru  Ru12  1  0.754058  0.754058  0.250000  1
  Ru  Ru13  1  0.754058  0.000000  0.749999  1
  Ru  Ru14  1  0.245941  0.245941  0.749999  1
  Ru  Ru15  1  0.000000  0.754058  0.749999  1
