# generated using pymatgen
data_Pr12YThPt6
_symmetry_space_group_name_H-M   'P 1'
_cell_length_a   6.52378800
_cell_length_b   10.25760010
_cell_length_c   10.25759202
_cell_angle_alpha   119.99775150
_cell_angle_beta   90.00045737
_cell_angle_gamma   89.99956912
_symmetry_Int_Tables_number   1
_chemical_formula_structural   Pr12YThPt6
_chemical_formula_sum   'Pr12 Y1 Th1 Pt6'
_cell_volume   594.47212636
_cell_formula_units_Z   1
loop_
 _symmetry_equiv_pos_site_id
 _symmetry_equiv_pos_as_xyz
  1  'x, y, z'
loop_
 _atom_site_type_symbol
 _atom_site_label
 _atom_site_symmetry_multiplicity
 _atom_site_fract_x
 _atom_site_fract_y
 _atom_site_fract_z
 _atom_site_occupancy
  Pr  Pr0  1  0.248449  0.128642  0.871358  1
  Pr  Pr1  1  0.248441  0.742948  0.871481  1
  Pr  Pr2  1  0.248442  0.128519  0.257052  1
  Pr  Pr3  1  0.746329  0.871878  0.128122  1
  Pr  Pr4  1  0.746312  0.256005  0.127996  1
  Pr  Pr5  1  0.746312  0.872004  0.743995  1
  Pr  Pr6  1  0.446203  0.537775  0.462227  1
  Pr  Pr7  1  0.446147  0.924444  0.462276  1
  Pr  Pr8  1  0.446149  0.537725  0.075555  1
  Pr  Pr9  1  0.945444  0.461464  0.538534  1
  Pr  Pr10  1  0.945390  0.077086  0.538495  1
  Pr  Pr11  1  0.945389  0.461505  0.922914  1
  Y  Y12  1  0.466144  0.333367  0.666633  1
  Th  Th13  1  0.965984  0.666630  0.333370  1
  Pt  Pt14  1  0.182146  0.808544  0.191457  1
  Pt  Pt15  1  0.182010  0.382819  0.191436  1
  Pt  Pt16  1  0.182010  0.808563  0.617181  1
  Pt  Pt17  1  0.682977  0.191107  0.808892  1
  Pt  Pt18  1  0.682858  0.617875  0.808901  1
  Pt  Pt19  1  0.682858  0.191099  0.382125  1
