# generated using pymatgen
data_Pu2SbPt2
_symmetry_space_group_name_H-M   'P 1'
_cell_length_a   7.60855600
_cell_length_b   7.60855600
_cell_length_c   3.80069100
_cell_angle_alpha   90.00000000
_cell_angle_beta   90.00000000
_cell_angle_gamma   90.00000000
_symmetry_Int_Tables_number   1
_chemical_formula_structural   Pu2SbPt2
_chemical_formula_sum   'Pu4 Sb2 Pt4'
_cell_volume   220.02247482
_cell_formula_units_Z   2
loop_
 _symmetry_equiv_pos_site_id
 _symmetry_equiv_pos_as_xyz
  1  'x, y, z'
loop_
 _atom_site_type_symbol
 _atom_site_label
 _atom_site_symmetry_multiplicity
 _atom_site_fract_x
 _atom_site_fract_y
 _atom_site_fract_z
 _atom_site_occupancy
  Pu  Pu0  1  0.675768  0.175768  0.500000  1
  Pu  Pu1  1  0.175768  0.324232  0.500000  1
  Pu  Pu2  1  0.324232  0.824232  0.500000  1
  Pu  Pu3  1  0.824232  0.675768  0.500000  1
  Sb  Sb4  1  0.000000  0.000000  0.000000  1
  Sb  Sb5  1  0.500000  0.500000  0.000000  1
  Pt  Pt6  1  0.871553  0.371553  0.000000  1
  Pt  Pt7  1  0.628447  0.871553  0.000000  1
  Pt  Pt8  1  0.128447  0.628447  0.000000  1
  Pt  Pt9  1  0.371553  0.128447  0.000000  1
