# generated using pymatgen
data_Zr9Sc(HgBi3)2
_symmetry_space_group_name_H-M   'P 1'
_cell_length_a   8.93946100
_cell_length_b   8.96362650
_cell_length_c   6.07846700
_cell_angle_alpha   90.00000000
_cell_angle_beta   90.00000000
_cell_angle_gamma   119.91085496
_symmetry_Int_Tables_number   1
_chemical_formula_structural   Zr9Sc(HgBi3)2
_chemical_formula_sum   'Zr9 Sc1 Hg2 Bi6'
_cell_volume   422.19122302
_cell_formula_units_Z   1
loop_
 _symmetry_equiv_pos_site_id
 _symmetry_equiv_pos_as_xyz
  1  'x, y, z'
loop_
 _atom_site_type_symbol
 _atom_site_label
 _atom_site_symmetry_multiplicity
 _atom_site_fract_x
 _atom_site_fract_y
 _atom_site_fract_z
 _atom_site_occupancy
  Zr  Zr0  1  0.999785  0.720733  0.250000  1
  Zr  Zr1  1  0.279052  0.279267  0.250000  1
  Zr  Zr2  1  0.279603  0.000000  0.750000  1
  Zr  Zr3  1  0.999698  0.279096  0.750000  1
  Zr  Zr4  1  0.720602  0.720904  0.750000  1
  Zr  Zr5  1  0.332379  0.665413  0.500215  1
  Zr  Zr6  1  0.666967  0.334587  0.500215  1
  Zr  Zr7  1  0.666967  0.334587  0.999785  1
  Zr  Zr8  1  0.332379  0.665413  0.999785  1
  Sc  Sc9  1  0.722018  0.000000  0.250000  1
  Hg  Hg10  1  0.999230  0.000000  0.498460  1
  Hg  Hg11  1  0.999230  0.000000  0.001540  1
  Bi  Bi12  1  0.383578  0.000000  0.250000  1
  Bi  Bi13  1  0.998711  0.380475  0.250000  1
  Bi  Bi14  1  0.618236  0.619525  0.250000  1
  Bi  Bi15  1  0.619287  0.000000  0.750000  1
  Bi  Bi16  1  0.000187  0.618097  0.750000  1
  Bi  Bi17  1  0.382090  0.381903  0.750000  1
