# generated using pymatgen
data_Ce3Al2Ge3
_symmetry_space_group_name_H-M   'P 1'
_cell_length_a   8.01813389
_cell_length_b   8.01813448
_cell_length_c   8.01813433
_cell_angle_alpha   120.39397010
_cell_angle_beta   120.39396903
_cell_angle_gamma   89.31896079
_symmetry_Int_Tables_number   1
_chemical_formula_structural   Ce3Al2Ge3
_chemical_formula_sum   'Ce6 Al4 Ge6'
_cell_volume   362.30794170
_cell_formula_units_Z   2
loop_
 _symmetry_equiv_pos_site_id
 _symmetry_equiv_pos_as_xyz
  1  'x, y, z'
loop_
 _atom_site_type_symbol
 _atom_site_label
 _atom_site_symmetry_multiplicity
 _atom_site_fract_x
 _atom_site_fract_y
 _atom_site_fract_z
 _atom_site_occupancy
  Ce  Ce0  1  0.357526  0.178845  0.500000  1
  Ce  Ce1  1  0.678845  0.857526  0.500000  1
  Ce  Ce2  1  0.178845  0.678845  0.821319  1
  Ce  Ce3  1  0.857526  0.357526  0.178681  1
  Ce  Ce4  1  0.748037  0.748037  0.000000  1
  Ce  Ce5  1  0.248037  0.248037  0.000000  1
  Al  Al6  1  0.694184  0.462532  0.500000  1
  Al  Al7  1  0.962532  0.194184  0.500000  1
  Al  Al8  1  0.462532  0.962532  0.768348  1
  Al  Al9  1  0.194184  0.694184  0.231652  1
  Ge  Ge10  1  0.362950  0.559802  0.500000  1
  Ge  Ge11  1  0.059802  0.862950  0.500000  1
  Ge  Ge12  1  0.559802  0.059802  0.196853  1
  Ge  Ge13  1  0.862950  0.362950  0.803147  1
  Ge  Ge14  1  0.995535  0.995535  0.000000  1
  Ge  Ge15  1  0.495535  0.495535  0.000000  1
