# generated using pymatgen
data_LaFe3P12Ir
_symmetry_space_group_name_H-M   'P 1'
_cell_length_a   6.85160718
_cell_length_b   6.85160710
_cell_length_c   6.85160680
_cell_angle_alpha   109.51271479
_cell_angle_beta   109.51271225
_cell_angle_gamma   109.51272707
_symmetry_Int_Tables_number   1
_chemical_formula_structural   LaFe3P12Ir
_chemical_formula_sum   'La1 Fe3 P12 Ir1'
_cell_volume   247.22159214
_cell_formula_units_Z   1
loop_
 _symmetry_equiv_pos_site_id
 _symmetry_equiv_pos_as_xyz
  1  'x, y, z'
loop_
 _atom_site_type_symbol
 _atom_site_label
 _atom_site_symmetry_multiplicity
 _atom_site_fract_x
 _atom_site_fract_y
 _atom_site_fract_z
 _atom_site_occupancy
  La  La0  1  0.000000  0.000000  0.000000  1
  Fe  Fe1  1  0.000000  0.000000  0.500000  1
  Fe  Fe2  1  0.000000  0.500000  0.000000  1
  Fe  Fe3  1  0.500000  0.000000  0.000000  1
  P  P4  1  0.654965  0.497924  0.864050  1
  P  P5  1  0.151673  0.650405  0.801196  1
  P  P6  1  0.650405  0.801196  0.151673  1
  P  P7  1  0.135950  0.345035  0.502076  1
  P  P8  1  0.864050  0.654965  0.497924  1
  P  P9  1  0.848327  0.349595  0.198804  1
  P  P10  1  0.198804  0.848327  0.349595  1
  P  P11  1  0.801196  0.151673  0.650405  1
  P  P12  1  0.345035  0.502076  0.135950  1
  P  P13  1  0.502076  0.135950  0.345035  1
  P  P14  1  0.497924  0.864050  0.654965  1
  P  P15  1  0.349595  0.198804  0.848327  1
  Ir  Ir16  1  0.500000  0.500000  0.500000  1
