# generated using pymatgen
data_LiAc(BH4)4
_symmetry_space_group_name_H-M   'P 1'
_cell_length_a   6.59894000
_cell_length_b   6.59894000
_cell_length_c   6.43452300
_cell_angle_alpha   90.00000000
_cell_angle_beta   90.00000000
_cell_angle_gamma   90.00000000
_symmetry_Int_Tables_number   1
_chemical_formula_structural   LiAc(BH4)4
_chemical_formula_sum   'Li1 Ac1 B4 H16'
_cell_volume   280.19779726
_cell_formula_units_Z   1
loop_
 _symmetry_equiv_pos_site_id
 _symmetry_equiv_pos_as_xyz
  1  'x, y, z'
loop_
 _atom_site_type_symbol
 _atom_site_label
 _atom_site_symmetry_multiplicity
 _atom_site_fract_x
 _atom_site_fract_y
 _atom_site_fract_z
 _atom_site_occupancy
  Li  Li0  1  0.000000  0.000000  0.500000  1
  Ac  Ac1  1  0.500000  0.500000  0.500000  1
  B  B2  1  0.763704  0.763704  0.310467  1
  B  B3  1  0.236296  0.236296  0.310467  1
  B  B4  1  0.763704  0.236296  0.689533  1
  B  B5  1  0.236296  0.763704  0.689533  1
  H  H6  1  0.776336  0.776336  0.502936  1
  H  H7  1  0.223664  0.223664  0.502936  1
  H  H8  1  0.776336  0.223664  0.497064  1
  H  H9  1  0.223664  0.776336  0.497064  1
  H  H10  1  0.878418  0.878418  0.222121  1
  H  H11  1  0.121582  0.121582  0.222121  1
  H  H12  1  0.878418  0.121582  0.777879  1
  H  H13  1  0.121582  0.878418  0.777879  1
  H  H14  1  0.802468  0.585951  0.264449  1
  H  H15  1  0.197532  0.414049  0.264449  1
  H  H16  1  0.802468  0.414049  0.735551  1
  H  H17  1  0.197532  0.585951  0.735551  1
  H  H18  1  0.585951  0.197532  0.735551  1
  H  H19  1  0.414049  0.802468  0.735551  1
  H  H20  1  0.414049  0.197532  0.264449  1
  H  H21  1  0.585951  0.802468  0.264449  1
