# generated using pymatgen
data_Y3Lu3V2(Co4P3)4
_symmetry_space_group_name_H-M   'P 1'
_cell_length_a   3.67134400
_cell_length_b   10.51303332
_cell_length_c   12.19105139
_cell_angle_alpha   90.02856664
_cell_angle_beta   90.00000000
_cell_angle_gamma   90.00000000
_symmetry_Int_Tables_number   1
_chemical_formula_structural   Y3Lu3V2(Co4P3)4
_chemical_formula_sum   'Y3 Lu3 V2 Co16 P12'
_cell_volume   470.53748620
_cell_formula_units_Z   1
loop_
 _symmetry_equiv_pos_site_id
 _symmetry_equiv_pos_as_xyz
  1  'x, y, z'
loop_
 _atom_site_type_symbol
 _atom_site_label
 _atom_site_symmetry_multiplicity
 _atom_site_fract_x
 _atom_site_fract_y
 _atom_site_fract_z
 _atom_site_occupancy
  Y  Y0  1  0.000000  0.500300  0.523398  1
  Y  Y1  1  0.500000  0.000022  0.476117  1
  Y  Y2  1  0.000000  0.318962  0.795848  1
  Lu  Lu3  1  0.500000  0.819153  0.204382  1
  Lu  Lu4  1  0.500000  0.180763  0.203530  1
  Lu  Lu5  1  0.000000  0.681309  0.796144  1
  V  V6  1  0.500000  0.499896  0.154677  1
  V  V7  1  0.000000  0.999558  0.845653  1
  Co  Co8  1  0.500000  0.502002  0.703089  1
  Co  Co9  1  0.000000  0.999572  0.296256  1
  Co  Co10  1  0.000000  0.500922  0.987571  1
  Co  Co11  1  0.500000  0.999105  0.014008  1
  Co  Co12  1  0.500000  0.332270  0.993866  1
  Co  Co13  1  0.500000  0.668333  0.993399  1
  Co  Co14  1  0.000000  0.167035  0.008433  1
  Co  Co15  1  0.000000  0.832116  0.007721  1
  Co  Co16  1  0.500000  0.295493  0.429602  1
  Co  Co17  1  0.500000  0.704699  0.430758  1
  Co  Co18  1  0.000000  0.204235  0.567656  1
  Co  Co19  1  0.000000  0.795899  0.569211  1
  Co  Co20  1  0.500000  0.877504  0.708624  1
  Co  Co21  1  0.500000  0.120816  0.707225  1
  Co  Co22  1  0.000000  0.622231  0.291836  1
  Co  Co23  1  0.000000  0.377702  0.291155  1
  P  P24  1  0.500000  0.501723  0.882407  1
  P  P25  1  0.000000  0.999497  0.118888  1
  P  P26  1  0.500000  0.499962  0.346846  1
  P  P27  1  0.000000  0.000127  0.652898  1
  P  P28  1  0.500000  0.311435  0.615353  1
  P  P29  1  0.500000  0.689216  0.617476  1
  P  P30  1  0.000000  0.188273  0.381491  1
  P  P31  1  0.000000  0.811471  0.382507  1
  P  P32  1  0.500000  0.844675  0.891381  1
  P  P33  1  0.500000  0.153405  0.892399  1
  P  P34  1  0.000000  0.655477  0.109493  1
  P  P35  1  0.000000  0.344844  0.108706  1
