# generated using pymatgen
data_DyYGa9NiIr2
_symmetry_space_group_name_H-M   'P 1'
_cell_length_a   7.55918298
_cell_length_b   7.55907341
_cell_length_c   9.45014800
_cell_angle_alpha   90.00000000
_cell_angle_beta   90.00000000
_cell_angle_gamma   120.07880827
_symmetry_Int_Tables_number   1
_chemical_formula_structural   DyYGa9NiIr2
_chemical_formula_sum   'Dy2 Y2 Ga18 Ni2 Ir4'
_cell_volume   467.26928117
_cell_formula_units_Z   2
loop_
 _symmetry_equiv_pos_site_id
 _symmetry_equiv_pos_as_xyz
  1  'x, y, z'
loop_
 _atom_site_type_symbol
 _atom_site_label
 _atom_site_symmetry_multiplicity
 _atom_site_fract_x
 _atom_site_fract_y
 _atom_site_fract_z
 _atom_site_occupancy
  Dy  Dy0  1  0.660843  0.996802  0.250000  1
  Dy  Dy1  1  0.339157  0.003198  0.750000  1
  Y  Y2  1  0.996862  0.660892  0.250000  1
  Y  Y3  1  0.003138  0.339108  0.750000  1
  Ga  Ga4  1  0.110238  0.110342  0.250000  1
  Ga  Ga5  1  0.889762  0.889658  0.750000  1
  Ga  Ga6  1  0.999300  0.327554  0.078533  1
  Ga  Ga7  1  0.000700  0.672446  0.921467  1
  Ga  Ga8  1  0.000700  0.672446  0.578533  1
  Ga  Ga9  1  0.327727  0.999403  0.421534  1
  Ga  Ga10  1  0.999300  0.327554  0.421467  1
  Ga  Ga11  1  0.672273  0.000597  0.578466  1
  Ga  Ga12  1  0.672273  0.000597  0.921534  1
  Ga  Ga13  1  0.327727  0.999403  0.078466  1
  Ga  Ga14  1  0.326937  0.326810  0.564880  1
  Ga  Ga15  1  0.673063  0.673190  0.435120  1
  Ga  Ga16  1  0.673063  0.673190  0.064880  1
  Ga  Ga17  1  0.326937  0.326810  0.935120  1
  Ga  Ga18  1  0.338296  0.540993  0.250000  1
  Ga  Ga19  1  0.661704  0.459007  0.750000  1
  Ga  Ga20  1  0.540886  0.338076  0.250000  1
  Ga  Ga21  1  0.459114  0.661924  0.750000  1
  Ni  Ni22  1  0.000000  0.000000  0.000000  1
  Ni  Ni23  1  0.000000  0.000000  0.500000  1
  Ir  Ir24  1  0.671511  0.328320  0.999990  1
  Ir  Ir25  1  0.328489  0.671680  0.000010  1
  Ir  Ir26  1  0.328489  0.671680  0.499990  1
  Ir  Ir27  1  0.671511  0.328320  0.500010  1
