# generated using pymatgen
data_SmDy3Y2(Si3Ru)8
_symmetry_space_group_name_H-M   'P 1'
_cell_length_a   10.13603001
_cell_length_b   10.13602948
_cell_length_c   8.16335501
_cell_angle_alpha   90.04193888
_cell_angle_beta   89.95805501
_cell_angle_gamma   132.52436107
_symmetry_Int_Tables_number   1
_chemical_formula_structural   SmDy3Y2(Si3Ru)8
_chemical_formula_sum   'Sm1 Dy3 Y2 Si24 Ru8'
_cell_volume   618.11019346
_cell_formula_units_Z   1
loop_
 _symmetry_equiv_pos_site_id
 _symmetry_equiv_pos_as_xyz
  1  'x, y, z'
loop_
 _atom_site_type_symbol
 _atom_site_label
 _atom_site_symmetry_multiplicity
 _atom_site_fract_x
 _atom_site_fract_y
 _atom_site_fract_z
 _atom_site_occupancy
  Sm  Sm0  1  0.502762  0.002762  0.750000  1
  Dy  Dy1  1  0.997727  0.497727  0.250000  1
  Dy  Dy2  1  0.497407  0.997407  0.250000  1
  Dy  Dy3  1  0.002723  0.502723  0.750000  1
  Y  Y4  1  0.500000  0.500009  0.499884  1
  Y  Y5  1  0.000009  0.000000  0.000116  1
  Si  Si6  1  0.795555  0.206256  0.498959  1
  Si  Si7  1  0.293914  0.704575  0.000958  1
  Si  Si8  1  0.204575  0.793914  0.499042  1
  Si  Si9  1  0.706256  0.295555  0.001041  1
  Si  Si10  1  0.332740  0.332764  0.833116  1
  Si  Si11  1  0.667292  0.667264  0.166708  1
  Si  Si12  1  0.167264  0.167292  0.333292  1
  Si  Si13  1  0.832764  0.832740  0.666884  1
  Si  Si14  1  0.121596  0.887140  0.728201  1
  Si  Si15  1  0.112300  0.878234  0.271968  1
  Si  Si16  1  0.611371  0.377185  0.227987  1
  Si  Si17  1  0.623263  0.388575  0.771331  1
  Si  Si18  1  0.877185  0.111371  0.272013  1
  Si  Si19  1  0.888575  0.123263  0.728669  1
  Si  Si20  1  0.387140  0.621596  0.771799  1
  Si  Si21  1  0.378234  0.612300  0.228032  1
  Si  Si22  1  0.345607  0.111751  0.504151  1
  Si  Si23  1  0.888762  0.655439  0.494845  1
  Si  Si24  1  0.388207  0.153886  0.006467  1
  Si  Si25  1  0.844748  0.611412  0.994517  1
  Si  Si26  1  0.653886  0.888207  0.493533  1
  Si  Si27  1  0.111412  0.344748  0.505483  1
  Si  Si28  1  0.611751  0.845607  0.995849  1
  Si  Si29  1  0.155439  0.388762  0.005155  1
  Ru  Ru30  1  0.670432  0.332787  0.498763  1
  Ru  Ru31  1  0.167141  0.829520  0.000825  1
  Ru  Ru32  1  0.329520  0.667141  0.499175  1
  Ru  Ru33  1  0.832787  0.170432  0.001237  1
  Ru  Ru34  1  0.126307  0.126274  0.627122  1
  Ru  Ru35  1  0.873451  0.873619  0.373140  1
  Ru  Ru36  1  0.373619  0.373451  0.126860  1
  Ru  Ru37  1  0.626274  0.626307  0.872878  1
