# generated using pymatgen
data_ErHf7Ta4(TiSi2)8
_symmetry_space_group_name_H-M   'P 1'
_cell_length_a   6.83505615
_cell_length_b   6.83649165
_cell_length_c   12.58258244
_cell_angle_alpha   89.94822018
_cell_angle_beta   89.97983461
_cell_angle_gamma   89.92439599
_symmetry_Int_Tables_number   1
_chemical_formula_structural   ErHf7Ta4(TiSi2)8
_chemical_formula_sum   'Er1 Hf7 Ta4 Ti8 Si16'
_cell_volume   587.95566159
_cell_formula_units_Z   1
loop_
 _symmetry_equiv_pos_site_id
 _symmetry_equiv_pos_as_xyz
  1  'x, y, z'
loop_
 _atom_site_type_symbol
 _atom_site_label
 _atom_site_symmetry_multiplicity
 _atom_site_fract_x
 _atom_site_fract_y
 _atom_site_fract_z
 _atom_site_occupancy
  Er  Er0  1  0.998310  0.660538  0.031365  1
  Hf  Hf1  1  0.341024  0.997263  0.469304  1
  Hf  Hf2  1  0.502790  0.842317  0.717531  1
  Hf  Hf3  1  0.496329  0.159344  0.221294  1
  Hf  Hf4  1  0.841091  0.502686  0.281881  1
  Hf  Hf5  1  0.159395  0.496403  0.781231  1
  Hf  Hf6  1  0.654990  0.004971  0.967457  1
  Hf  Hf7  1  0.997102  0.342188  0.530968  1
  Ta  Ta8  1  0.332591  0.328278  0.999186  1
  Ta  Ta9  1  0.170771  0.831803  0.251242  1
  Ta  Ta10  1  0.830211  0.169343  0.748748  1
  Ta  Ta11  1  0.669875  0.669775  0.500021  1
  Ti  Ti12  1  0.155870  0.003861  0.870903  1
  Ti  Ti13  1  0.496222  0.651671  0.124388  1
  Ti  Ti14  1  0.504688  0.347386  0.622315  1
  Ti  Ti15  1  0.652598  0.492214  0.875539  1
  Ti  Ti16  1  0.347841  0.504095  0.378216  1
  Ti  Ti17  1  0.847322  0.995999  0.373989  1
  Ti  Ti18  1  0.006017  0.153068  0.128705  1
  Ti  Ti19  1  0.995584  0.848275  0.626060  1
  Si  Si20  1  0.207387  0.134699  0.676395  1
  Si  Si21  1  0.369778  0.707851  0.926028  1
  Si  Si22  1  0.634216  0.292763  0.426919  1
  Si  Si23  1  0.703960  0.361474  0.072702  1
  Si  Si24  1  0.292172  0.633963  0.573439  1
  Si  Si25  1  0.789461  0.870306  0.180271  1
  Si  Si26  1  0.133952  0.207261  0.324228  1
  Si  Si27  1  0.863842  0.794913  0.819396  1
  Si  Si28  1  0.298176  0.956545  0.063103  1
  Si  Si29  1  0.544133  0.795340  0.313680  1
  Si  Si30  1  0.454656  0.204080  0.811305  1
  Si  Si31  1  0.795991  0.545061  0.686777  1
  Si  Si32  1  0.206690  0.453267  0.188925  1
  Si  Si33  1  0.704438  0.045831  0.562246  1
  Si  Si34  1  0.954978  0.290080  0.936816  1
  Si  Si35  1  0.045553  0.705088  0.437428  1
