# generated using pymatgen
data_Ho3Er5In3Rh
_symmetry_space_group_name_H-M   'P 1'
_cell_length_a   10.36515800
_cell_length_b   10.36515738
_cell_length_c   6.99767100
_cell_angle_alpha   90.00000000
_cell_angle_beta   90.00000000
_cell_angle_gamma   119.99999561
_symmetry_Int_Tables_number   1
_chemical_formula_structural   Ho3Er5In3Rh
_chemical_formula_sum   'Ho6 Er10 In6 Rh2'
_cell_volume   651.08246341
_cell_formula_units_Z   2
loop_
 _symmetry_equiv_pos_site_id
 _symmetry_equiv_pos_as_xyz
  1  'x, y, z'
loop_
 _atom_site_type_symbol
 _atom_site_label
 _atom_site_symmetry_multiplicity
 _atom_site_fract_x
 _atom_site_fract_y
 _atom_site_fract_z
 _atom_site_occupancy
  Ho  Ho0  1  0.532825  0.065651  0.793889  1
  Ho  Ho1  1  0.934349  0.467175  0.793889  1
  Ho  Ho2  1  0.532825  0.467175  0.793889  1
  Ho  Ho3  1  0.467175  0.934349  0.293889  1
  Ho  Ho4  1  0.065651  0.532825  0.293889  1
  Ho  Ho5  1  0.467175  0.532825  0.293889  1
  Er  Er6  1  0.823552  0.647104  0.498923  1
  Er  Er7  1  0.352896  0.176448  0.498923  1
  Er  Er8  1  0.823552  0.176448  0.498923  1
  Er  Er9  1  0.176448  0.352896  0.998923  1
  Er  Er10  1  0.647104  0.823552  0.998923  1
  Er  Er11  1  0.176448  0.823552  0.998923  1
  Er  Er12  1  0.666667  0.333333  0.175276  1
  Er  Er13  1  0.333333  0.666667  0.675276  1
  Er  Er14  1  0.000000  0.000000  0.778921  1
  Er  Er15  1  0.000000  0.000000  0.278921  1
  In  In16  1  0.837344  0.674687  0.039014  1
  In  In17  1  0.325313  0.162656  0.039014  1
  In  In18  1  0.837344  0.162656  0.039014  1
  In  In19  1  0.162656  0.325313  0.539014  1
  In  In20  1  0.674687  0.837344  0.539014  1
  In  In21  1  0.162656  0.837344  0.539014  1
  Rh  Rh22  1  0.666667  0.333333  0.568278  1
  Rh  Rh23  1  0.333333  0.666667  0.068278  1
