# generated using pymatgen
data_Dy2Co9Re3Si7
_symmetry_space_group_name_H-M   'P 1'
_cell_length_a   9.17493900
_cell_length_b   9.17493903
_cell_length_c   3.74934400
_cell_angle_alpha   90.00000000
_cell_angle_beta   90.00000000
_cell_angle_gamma   120.00000349
_symmetry_Int_Tables_number   1
_chemical_formula_structural   Dy2Co9Re3Si7
_chemical_formula_sum   'Dy2 Co9 Re3 Si7'
_cell_volume   273.33313178
_cell_formula_units_Z   1
loop_
 _symmetry_equiv_pos_site_id
 _symmetry_equiv_pos_as_xyz
  1  'x, y, z'
loop_
 _atom_site_type_symbol
 _atom_site_label
 _atom_site_symmetry_multiplicity
 _atom_site_fract_x
 _atom_site_fract_y
 _atom_site_fract_z
 _atom_site_occupancy
  Dy  Dy0  1  0.333333  0.666667  0.743183  1
  Dy  Dy1  1  0.666667  0.333333  0.243229  1
  Co  Co2  1  0.626284  0.571357  0.743102  1
  Co  Co3  1  0.428643  0.054927  0.743102  1
  Co  Co4  1  0.945073  0.373716  0.743102  1
  Co  Co5  1  0.384268  0.434485  0.243116  1
  Co  Co6  1  0.565515  0.949783  0.243116  1
  Co  Co7  1  0.050217  0.615732  0.243116  1
  Co  Co8  1  0.123376  0.844570  0.742989  1
  Co  Co9  1  0.155430  0.278807  0.742989  1
  Co  Co10  1  0.721193  0.876624  0.742989  1
  Re  Re11  1  0.896065  0.112211  0.242927  1
  Re  Re12  1  0.887789  0.783853  0.242927  1
  Re  Re13  1  0.216147  0.103935  0.242927  1
  Si  Si14  1  0.000000  0.000000  0.742898  1
  Si  Si15  1  0.888277  0.589842  0.743102  1
  Si  Si16  1  0.410158  0.298434  0.743102  1
  Si  Si17  1  0.701566  0.111723  0.743102  1
  Si  Si18  1  0.114155  0.404749  0.243087  1
  Si  Si19  1  0.595251  0.709407  0.243087  1
  Si  Si20  1  0.290593  0.885845  0.243087  1
