# generated using pymatgen
data_Dy4Al4Pt3Rh
_symmetry_space_group_name_H-M   'P 1'
_cell_length_a   4.42199600
_cell_length_b   6.84201627
_cell_length_c   7.79077482
_cell_angle_alpha   90.11277070
_cell_angle_beta   90.00000000
_cell_angle_gamma   90.00000000
_symmetry_Int_Tables_number   1
_chemical_formula_structural   Dy4Al4Pt3Rh
_chemical_formula_sum   'Dy4 Al4 Pt3 Rh1'
_cell_volume   235.71230718
_cell_formula_units_Z   1
loop_
 _symmetry_equiv_pos_site_id
 _symmetry_equiv_pos_as_xyz
  1  'x, y, z'
loop_
 _atom_site_type_symbol
 _atom_site_label
 _atom_site_symmetry_multiplicity
 _atom_site_fract_x
 _atom_site_fract_y
 _atom_site_fract_z
 _atom_site_occupancy
  Dy  Dy0  1  0.250000  0.469341  0.180445  1
  Dy  Dy1  1  0.750000  0.531035  0.817481  1
  Dy  Dy2  1  0.750000  0.027649  0.680738  1
  Dy  Dy3  1  0.250000  0.966590  0.321943  1
  Al  Al4  1  0.250000  0.854079  0.936759  1
  Al  Al5  1  0.750000  0.145126  0.062631  1
  Al  Al6  1  0.750000  0.643850  0.438049  1
  Al  Al7  1  0.250000  0.360581  0.563338  1
  Pt  Pt8  1  0.750000  0.271007  0.381747  1
  Pt  Pt9  1  0.750000  0.771813  0.118399  1
  Pt  Pt10  1  0.250000  0.226335  0.882277  1
  Rh  Rh11  1  0.250000  0.732595  0.616193  1
