# generated using pymatgen
data_Yb7Y(OsC2)4
_symmetry_space_group_name_H-M   'P 1'
_cell_length_a   5.14405800
_cell_length_b   6.46426218
_cell_length_c   10.13907981
_cell_angle_alpha   90.25258670
_cell_angle_beta   90.00000000
_cell_angle_gamma   90.00000000
_symmetry_Int_Tables_number   1
_chemical_formula_structural   Yb7Y(OsC2)4
_chemical_formula_sum   'Yb7 Y1 Os4 C8'
_cell_volume   337.14687629
_cell_formula_units_Z   1
loop_
 _symmetry_equiv_pos_site_id
 _symmetry_equiv_pos_as_xyz
  1  'x, y, z'
loop_
 _atom_site_type_symbol
 _atom_site_label
 _atom_site_symmetry_multiplicity
 _atom_site_fract_x
 _atom_site_fract_y
 _atom_site_fract_z
 _atom_site_occupancy
  Yb  Yb0  1  0.750000  0.304149  0.450595  1
  Yb  Yb1  1  0.750000  0.805940  0.050243  1
  Yb  Yb2  1  0.250000  0.192268  0.949226  1
  Yb  Yb3  1  0.250000  0.532933  0.220226  1
  Yb  Yb4  1  0.750000  0.467196  0.778897  1
  Yb  Yb5  1  0.750000  0.968779  0.728426  1
  Yb  Yb6  1  0.250000  0.033575  0.273300  1
  Y  Y7  1  0.250000  0.686567  0.551539  1
  Os  Os8  1  0.250000  0.730570  0.853778  1
  Os  Os9  1  0.750000  0.267598  0.146760  1
  Os  Os10  1  0.750000  0.768762  0.354619  1
  Os  Os11  1  0.250000  0.229713  0.645065  1
  C  C12  1  0.250000  0.467749  0.756669  1
  C  C13  1  0.750000  0.532266  0.240875  1
  C  C14  1  0.750000  0.030353  0.259443  1
  C  C15  1  0.250000  0.963702  0.736556  1
  C  C16  1  0.250000  0.799932  0.030602  1
  C  C17  1  0.750000  0.201912  0.968637  1
  C  C18  1  0.750000  0.703029  0.535269  1
  C  C19  1  0.250000  0.313005  0.469274  1
