# generated using pymatgen
data_Ho5Hf3Mn6(Co5P6)2
_symmetry_space_group_name_H-M   'P 1'
_cell_length_a   12.41299300
_cell_length_b   12.41299078
_cell_length_c   3.71847100
_cell_angle_alpha   90.00000000
_cell_angle_beta   90.00000000
_cell_angle_gamma   120.00000325
_symmetry_Int_Tables_number   1
_chemical_formula_structural   Ho5Hf3Mn6(Co5P6)2
_chemical_formula_sum   'Ho5 Hf3 Mn6 Co10 P12'
_cell_volume   496.18994530
_cell_formula_units_Z   1
loop_
 _symmetry_equiv_pos_site_id
 _symmetry_equiv_pos_as_xyz
  1  'x, y, z'
loop_
 _atom_site_type_symbol
 _atom_site_label
 _atom_site_symmetry_multiplicity
 _atom_site_fract_x
 _atom_site_fract_y
 _atom_site_fract_z
 _atom_site_occupancy
  Ho  Ho0  1  0.666667  0.333333  0.000000  1
  Ho  Ho1  1  0.333333  0.666667  0.000000  1
  Ho  Ho2  1  0.822703  0.822703  0.500000  1
  Ho  Ho3  1  0.177297  0.000000  0.500000  1
  Ho  Ho4  1  0.000000  0.177297  0.500000  1
  Hf  Hf5  1  0.440967  0.440967  0.000000  1
  Hf  Hf6  1  0.559033  0.000000  0.000000  1
  Hf  Hf7  1  0.000000  0.559033  0.000000  1
  Mn  Mn8  1  0.879761  0.353499  0.500000  1
  Mn  Mn9  1  0.646501  0.526263  0.500000  1
  Mn  Mn10  1  0.473737  0.120239  0.500000  1
  Mn  Mn11  1  0.353499  0.879761  0.500000  1
  Mn  Mn12  1  0.526263  0.646501  0.500000  1
  Mn  Mn13  1  0.120239  0.473737  0.500000  1
  Co  Co14  1  0.806006  0.177831  0.000000  1
  Co  Co15  1  0.822169  0.628174  0.000000  1
  Co  Co16  1  0.371826  0.193994  0.000000  1
  Co  Co17  1  0.177831  0.806006  0.000000  1
  Co  Co18  1  0.628174  0.822169  0.000000  1
  Co  Co19  1  0.193994  0.371826  0.000000  1
  Co  Co20  1  0.276882  0.276882  0.500000  1
  Co  Co21  1  0.723118  0.000000  0.500000  1
  Co  Co22  1  0.000000  0.723118  0.500000  1
  Co  Co23  1  0.000000  0.000000  0.000000  1
  P  P24  1  0.690538  0.169097  0.500000  1
  P  P25  1  0.830903  0.521441  0.500000  1
  P  P26  1  0.478559  0.309462  0.500000  1
  P  P27  1  0.169097  0.690538  0.500000  1
  P  P28  1  0.521441  0.830903  0.500000  1
  P  P29  1  0.309462  0.478559  0.500000  1
  P  P30  1  0.178590  0.178590  0.000000  1
  P  P31  1  0.821410  0.000000  0.000000  1
  P  P32  1  0.000000  0.821410  0.000000  1
  P  P33  1  0.652204  0.652204  0.000000  1
  P  P34  1  0.347796  0.000000  0.000000  1
  P  P35  1  0.000000  0.347796  0.000000  1
