# generated using pymatgen
data_Nd10CoTcSb4
_symmetry_space_group_name_H-M   'P 1'
_cell_length_a   8.24016600
_cell_length_b   9.06589900
_cell_length_c   12.64459600
_cell_angle_alpha   90.00000000
_cell_angle_beta   90.00000000
_cell_angle_gamma   90.00000000
_symmetry_Int_Tables_number   1
_chemical_formula_structural   Nd10CoTcSb4
_chemical_formula_sum   'Nd20 Co2 Tc2 Sb8'
_cell_volume   944.60838246
_cell_formula_units_Z   2
loop_
 _symmetry_equiv_pos_site_id
 _symmetry_equiv_pos_as_xyz
  1  'x, y, z'
loop_
 _atom_site_type_symbol
 _atom_site_label
 _atom_site_symmetry_multiplicity
 _atom_site_fract_x
 _atom_site_fract_y
 _atom_site_fract_z
 _atom_site_occupancy
  Nd  Nd0  1  0.156326  0.750000  0.206819  1
  Nd  Nd1  1  0.656326  0.250000  0.293181  1
  Nd  Nd2  1  0.846452  0.250000  0.792546  1
  Nd  Nd3  1  0.346452  0.750000  0.707454  1
  Nd  Nd4  1  0.447519  0.750000  0.996356  1
  Nd  Nd5  1  0.947519  0.250000  0.503644  1
  Nd  Nd6  1  0.548505  0.250000  0.001422  1
  Nd  Nd7  1  0.048505  0.750000  0.498578  1
  Nd  Nd8  1  0.627526  0.750000  0.302261  1
  Nd  Nd9  1  0.127526  0.250000  0.197739  1
  Nd  Nd10  1  0.376004  0.250000  0.695470  1
  Nd  Nd11  1  0.876004  0.750000  0.804530  1
  Nd  Nd12  1  0.820282  0.961246  0.068102  1
  Nd  Nd13  1  0.320282  0.038754  0.431898  1
  Nd  Nd14  1  0.178989  0.466262  0.935165  1
  Nd  Nd15  1  0.678989  0.533738  0.564835  1
  Nd  Nd16  1  0.178989  0.033738  0.935165  1
  Nd  Nd17  1  0.678989  0.966262  0.564835  1
  Nd  Nd18  1  0.820282  0.538754  0.068102  1
  Nd  Nd19  1  0.320282  0.461246  0.431898  1
  Co  Co20  1  0.578468  0.250000  0.511033  1
  Co  Co21  1  0.078468  0.750000  0.988967  1
  Tc  Tc22  1  0.416979  0.750000  0.486317  1
  Tc  Tc23  1  0.916979  0.250000  0.013683  1
  Sb  Sb24  1  0.928114  0.993545  0.328439  1
  Sb  Sb25  1  0.428114  0.006455  0.171561  1
  Sb  Sb26  1  0.073727  0.493015  0.672971  1
  Sb  Sb27  1  0.573727  0.506985  0.827029  1
  Sb  Sb28  1  0.073727  0.006985  0.672971  1
  Sb  Sb29  1  0.573727  0.993015  0.827029  1
  Sb  Sb30  1  0.928114  0.506455  0.328439  1
  Sb  Sb31  1  0.428114  0.493545  0.171561  1
