# generated using pymatgen
data_Fe2PBrO4
_symmetry_space_group_name_H-M   'P 1'
_cell_length_a   4.93803000
_cell_length_b   8.22155900
_cell_length_c   11.47728200
_cell_angle_alpha   89.99702994
_cell_angle_beta   90.00055142
_cell_angle_gamma   90.00042986
_symmetry_Int_Tables_number   1
_chemical_formula_structural   Fe2PBrO4
_chemical_formula_sum   'Fe8 P4 Br4 O16'
_cell_volume   465.95819476
_cell_formula_units_Z   4
loop_
 _symmetry_equiv_pos_site_id
 _symmetry_equiv_pos_as_xyz
  1  'x, y, z'
loop_
 _atom_site_type_symbol
 _atom_site_label
 _atom_site_symmetry_multiplicity
 _atom_site_fract_x
 _atom_site_fract_y
 _atom_site_fract_z
 _atom_site_occupancy
  Fe  Fe0  1  0.505306  0.104685  0.121106  1
  Fe  Fe1  1  0.005325  0.604596  0.378903  1
  Fe  Fe2  1  0.003236  0.338661  0.867301  1
  Fe  Fe3  1  0.503510  0.838609  0.632761  1
  Fe  Fe4  1  0.005308  0.895304  0.878920  1
  Fe  Fe5  1  0.505327  0.395393  0.621065  1
  Fe  Fe6  1  0.003294  0.161378  0.367251  1
  Fe  Fe7  1  0.503452  0.661503  0.132696  1
  P  P8  1  0.547294  0.379743  0.337605  1
  P  P9  1  0.047324  0.879721  0.162405  1
  P  P10  1  0.547340  0.120248  0.837611  1
  P  P11  1  0.047354  0.620272  0.662389  1
  Br  Br12  1  0.721708  0.625083  0.933017  1
  Br  Br13  1  0.221688  0.125115  0.566969  1
  Br  Br14  1  0.221690  0.374869  0.066978  1
  Br  Br15  1  0.721668  0.874885  0.433021  1
  O  O16  1  0.649665  0.224421  0.272776  1
  O  O17  1  0.149680  0.724397  0.227232  1
  O  O18  1  0.149683  0.775578  0.727242  1
  O  O19  1  0.649733  0.275576  0.772782  1
  O  O20  1  0.153797  0.035645  0.224718  1
  O  O21  1  0.653759  0.535653  0.275262  1
  O  O22  1  0.653878  0.964340  0.775280  1
  O  O23  1  0.153818  0.464340  0.724710  1
  O  O24  1  0.191371  0.621000  0.540983  1
  O  O25  1  0.191380  0.879034  0.041008  1
  O  O26  1  0.691384  0.379082  0.458999  1
  O  O27  1  0.691427  0.120899  0.959009  1
  O  O28  1  0.734593  0.881732  0.152809  1
  O  O29  1  0.234621  0.118255  0.847185  1
  O  O30  1  0.234572  0.381701  0.347198  1
  O  O31  1  0.734617  0.618279  0.652810  1
