# generated using pymatgen
data_Np4CoNi5Ge2
_symmetry_space_group_name_H-M   'P 1'
_cell_length_a   5.09604200
_cell_length_b   5.24439368
_cell_length_c   7.68609000
_cell_angle_alpha   90.00000000
_cell_angle_beta   90.00000000
_cell_angle_gamma   119.06856876
_symmetry_Int_Tables_number   1
_chemical_formula_structural   Np4CoNi5Ge2
_chemical_formula_sum   'Np4 Co1 Ni5 Ge2'
_cell_volume   179.54135704
_cell_formula_units_Z   1
loop_
 _symmetry_equiv_pos_site_id
 _symmetry_equiv_pos_as_xyz
  1  'x, y, z'
loop_
 _atom_site_type_symbol
 _atom_site_label
 _atom_site_symmetry_multiplicity
 _atom_site_fract_x
 _atom_site_fract_y
 _atom_site_fract_z
 _atom_site_occupancy
  Np  Np0  1  0.672220  0.344439  0.420989  1
  Np  Np1  1  0.325616  0.651233  0.574952  1
  Np  Np2  1  0.325616  0.651233  0.925048  1
  Np  Np3  1  0.672220  0.344439  0.079011  1
  Co  Co4  1  0.178587  0.357175  0.250000  1
  Ni  Ni5  1  0.821063  0.162190  0.750000  1
  Ni  Ni6  1  0.177992  0.839258  0.250000  1
  Ni  Ni7  1  0.341128  0.162190  0.750000  1
  Ni  Ni8  1  0.661266  0.839258  0.250000  1
  Ni  Ni9  1  0.824002  0.648005  0.750000  1
  Ge  Ge10  1  0.000144  0.000289  0.999740  1
  Ge  Ge11  1  0.000144  0.000289  0.500260  1
