# generated using pymatgen
data_ThU(As2Pd)2
_symmetry_space_group_name_H-M   'P 1'
_cell_length_a   4.05112700
_cell_length_b   4.05119700
_cell_length_c   9.69687300
_cell_angle_alpha   90.00000000
_cell_angle_beta   90.00000000
_cell_angle_gamma   90.00000000
_symmetry_Int_Tables_number   1
_chemical_formula_structural   ThU(As2Pd)2
_chemical_formula_sum   'Th1 U1 As4 Pd2'
_cell_volume   159.14424137
_cell_formula_units_Z   1
loop_
 _symmetry_equiv_pos_site_id
 _symmetry_equiv_pos_as_xyz
  1  'x, y, z'
loop_
 _atom_site_type_symbol
 _atom_site_label
 _atom_site_symmetry_multiplicity
 _atom_site_fract_x
 _atom_site_fract_y
 _atom_site_fract_z
 _atom_site_occupancy
  Th  Th0  1  0.500000  0.000000  0.765592  1
  U  U1  1  0.000000  0.500000  0.240387  1
  As  As2  1  0.500000  0.500000  0.014947  1
  As  As3  1  0.000000  0.000000  0.014947  1
  As  As4  1  0.500000  0.000000  0.306817  1
  As  As5  1  0.000000  0.500000  0.672423  1
  Pd  Pd6  1  0.500000  0.500000  0.492443  1
  Pd  Pd7  1  0.000000  0.000000  0.492443  1
