# generated using pymatgen
data_DyErB(Pt2Rh)2
_symmetry_space_group_name_H-M   'P 1'
_cell_length_a   4.22284000
_cell_length_b   4.22284000
_cell_length_c   8.11692700
_cell_angle_alpha   90.00000000
_cell_angle_beta   90.00000000
_cell_angle_gamma   90.00000000
_symmetry_Int_Tables_number   1
_chemical_formula_structural   DyErB(Pt2Rh)2
_chemical_formula_sum   'Dy1 Er1 B1 Pt4 Rh2'
_cell_volume   144.74410775
_cell_formula_units_Z   1
loop_
 _symmetry_equiv_pos_site_id
 _symmetry_equiv_pos_as_xyz
  1  'x, y, z'
loop_
 _atom_site_type_symbol
 _atom_site_label
 _atom_site_symmetry_multiplicity
 _atom_site_fract_x
 _atom_site_fract_y
 _atom_site_fract_z
 _atom_site_occupancy
  Dy  Dy0  1  0.000000  0.000000  0.998564  1
  Er  Er1  1  0.000000  0.000000  0.501754  1
  B  B2  1  0.500000  0.500000  0.249883  1
  Pt  Pt3  1  0.500000  0.500000  0.990280  1
  Pt  Pt4  1  0.500000  0.500000  0.509473  1
  Pt  Pt5  1  0.500000  0.000000  0.749257  1
  Pt  Pt6  1  0.000000  0.500000  0.749257  1
  Rh  Rh7  1  0.500000  0.000000  0.250765  1
  Rh  Rh8  1  0.000000  0.500000  0.250765  1
