# generated using pymatgen
data_Ca11Y(SiIr)8
_symmetry_space_group_name_H-M   'P 1'
_cell_length_a   5.82258804
_cell_length_b   7.65550238
_cell_length_c   13.37088500
_cell_angle_alpha   90.00000000
_cell_angle_beta   90.00000000
_cell_angle_gamma   90.05060181
_symmetry_Int_Tables_number   1
_chemical_formula_structural   Ca11Y(SiIr)8
_chemical_formula_sum   'Ca11 Y1 Si8 Ir8'
_cell_volume   596.00478162
_cell_formula_units_Z   1
loop_
 _symmetry_equiv_pos_site_id
 _symmetry_equiv_pos_as_xyz
  1  'x, y, z'
loop_
 _atom_site_type_symbol
 _atom_site_label
 _atom_site_symmetry_multiplicity
 _atom_site_fract_x
 _atom_site_fract_y
 _atom_site_fract_z
 _atom_site_occupancy
  Ca  Ca0  1  0.131846  0.609714  0.100895  1
  Ca  Ca1  1  0.131592  0.892865  0.899980  1
  Ca  Ca2  1  0.869044  0.109309  0.398235  1
  Ca  Ca3  1  0.870609  0.386738  0.600817  1
  Ca  Ca4  1  0.870609  0.386738  0.899183  1
  Ca  Ca5  1  0.869044  0.109309  0.101765  1
  Ca  Ca6  1  0.131592  0.892865  0.600020  1
  Ca  Ca7  1  0.131846  0.609714  0.399105  1
  Ca  Ca8  1  0.367481  0.274164  0.250000  1
  Ca  Ca9  1  0.368635  0.231728  0.750000  1
  Ca  Ca10  1  0.633060  0.773626  0.250000  1
  Y  Y11  1  0.622908  0.727328  0.750000  1
  Si  Si12  1  0.838577  0.425124  0.250000  1
  Si  Si13  1  0.837299  0.073889  0.750000  1
  Si  Si14  1  0.163040  0.924236  0.250000  1
  Si  Si15  1  0.149881  0.584616  0.750000  1
  Si  Si16  1  0.421157  0.249097  0.998246  1
  Si  Si17  1  0.579479  0.748848  0.499796  1
  Si  Si18  1  0.579479  0.748848  0.000204  1
  Si  Si19  1  0.421157  0.249097  0.501754  1
  Ir  Ir20  1  0.638274  0.475043  0.090103  1
  Ir  Ir21  1  0.638563  0.018853  0.907725  1
  Ir  Ir22  1  0.364292  0.976284  0.408765  1
  Ir  Ir23  1  0.364703  0.525895  0.593225  1
  Ir  Ir24  1  0.364703  0.525895  0.906775  1
  Ir  Ir25  1  0.364292  0.976284  0.091235  1
  Ir  Ir26  1  0.638563  0.018853  0.592275  1
  Ir  Ir27  1  0.638274  0.475043  0.409897  1
