# generated using pymatgen
data_ErPa(Co3Si2)2
_symmetry_space_group_name_H-M   'P 1'
_cell_length_a   6.24518552
_cell_length_b   6.24518622
_cell_length_c   6.24518622
_cell_angle_alpha   130.18925951
_cell_angle_beta   113.20961390
_cell_angle_gamma   87.74134757
_symmetry_Int_Tables_number   1
_chemical_formula_structural   ErPa(Co3Si2)2
_chemical_formula_sum   'Er1 Pa1 Co6 Si4'
_cell_volume   162.80521180
_cell_formula_units_Z   1
loop_
 _symmetry_equiv_pos_site_id
 _symmetry_equiv_pos_as_xyz
  1  'x, y, z'
loop_
 _atom_site_type_symbol
 _atom_site_label
 _atom_site_symmetry_multiplicity
 _atom_site_fract_x
 _atom_site_fract_y
 _atom_site_fract_z
 _atom_site_occupancy
  Er  Er0  1  0.750000  0.458448  0.708448  1
  Pa  Pa1  1  0.250000  0.547225  0.297225  1
  Co  Co2  1  0.015662  0.000026  0.515688  1
  Co  Co3  1  0.484338  0.000026  0.984364  1
  Co  Co4  1  0.714267  0.991587  0.712440  1
  Co  Co5  1  0.220853  0.498173  0.712440  1
  Co  Co6  1  0.279147  0.991587  0.277320  1
  Co  Co7  1  0.785733  0.498173  0.277320  1
  Si  Si8  1  0.072107  0.877337  0.805230  1
  Si  Si9  1  0.906015  0.108163  0.202147  1
  Si  Si10  1  0.593985  0.796133  0.202147  1
  Si  Si11  1  0.427893  0.233121  0.805230  1
