# generated using pymatgen
data_Sc3AlGe2Ru3
_symmetry_space_group_name_H-M   'P 1'
_cell_length_a   7.04574500
_cell_length_b   7.04574598
_cell_length_c   3.41805000
_cell_angle_alpha   90.00000000
_cell_angle_beta   90.00000000
_cell_angle_gamma   120.00000010
_symmetry_Int_Tables_number   1
_chemical_formula_structural   Sc3AlGe2Ru3
_chemical_formula_sum   'Sc3 Al1 Ge2 Ru3'
_cell_volume   146.94775152
_cell_formula_units_Z   1
loop_
 _symmetry_equiv_pos_site_id
 _symmetry_equiv_pos_as_xyz
  1  'x, y, z'
loop_
 _atom_site_type_symbol
 _atom_site_label
 _atom_site_symmetry_multiplicity
 _atom_site_fract_x
 _atom_site_fract_y
 _atom_site_fract_z
 _atom_site_occupancy
  Sc  Sc0  1  0.399472  0.399472  0.000000  1
  Sc  Sc1  1  0.600528  0.000000  0.000000  1
  Sc  Sc2  1  0.000000  0.600528  0.000000  1
  Al  Al3  1  0.000000  0.000000  0.000000  1
  Ge  Ge4  1  0.666667  0.333333  0.500000  1
  Ge  Ge5  1  0.333333  0.666667  0.500000  1
  Ru  Ru6  1  0.000000  0.258798  0.500000  1
  Ru  Ru7  1  0.741202  0.741202  0.500000  1
  Ru  Ru8  1  0.258798  0.000000  0.500000  1
