# generated using pymatgen
data_Ce6Al24Re3Ir3Ru2
_symmetry_space_group_name_H-M   'P 1'
_cell_length_a   8.92021500
_cell_length_b   8.92397253
_cell_length_c   9.56071521
_cell_angle_alpha   91.04419129
_cell_angle_beta   90.00000000
_cell_angle_gamma   119.98606870
_symmetry_Int_Tables_number   1
_chemical_formula_structural   Ce6Al24Re3Ir3Ru2
_chemical_formula_sum   'Ce6 Al24 Re3 Ir3 Ru2'
_cell_volume   659.05151597
_cell_formula_units_Z   1
loop_
 _symmetry_equiv_pos_site_id
 _symmetry_equiv_pos_as_xyz
  1  'x, y, z'
loop_
 _atom_site_type_symbol
 _atom_site_label
 _atom_site_symmetry_multiplicity
 _atom_site_fract_x
 _atom_site_fract_y
 _atom_site_fract_z
 _atom_site_occupancy
  Ce  Ce0  1  0.804934  0.609869  0.760601  1
  Ce  Ce1  1  0.194485  0.806313  0.251007  1
  Ce  Ce2  1  0.611829  0.806313  0.251007  1
  Ce  Ce3  1  0.388171  0.193687  0.748993  1
  Ce  Ce4  1  0.805515  0.193687  0.748993  1
  Ce  Ce5  1  0.195066  0.390131  0.239399  1
  Al  Al6  1  0.332364  0.664727  0.486101  1
  Al  Al7  1  0.665572  0.331144  0.991229  1
  Al  Al8  1  0.667636  0.335273  0.513899  1
  Al  Al9  1  0.334428  0.668856  0.008771  1
  Al  Al10  1  0.161840  0.323681  0.573139  1
  Al  Al11  1  0.676809  0.838011  0.578512  1
  Al  Al12  1  0.161201  0.838011  0.578512  1
  Al  Al13  1  0.837602  0.161406  0.076990  1
  Al  Al14  1  0.838799  0.161989  0.421488  1
  Al  Al15  1  0.838500  0.676999  0.083818  1
  Al  Al16  1  0.323804  0.161406  0.076990  1
  Al  Al17  1  0.676196  0.838594  0.923010  1
  Al  Al18  1  0.161500  0.323001  0.916182  1
  Al  Al19  1  0.838160  0.676319  0.426861  1
  Al  Al20  1  0.000760  0.001521  0.250160  1
  Al  Al21  1  0.999240  0.998479  0.749840  1
  Al  Al22  1  0.562596  0.125192  0.250950  1
  Al  Al23  1  0.437374  0.562280  0.748604  1
  Al  Al24  1  0.124907  0.562280  0.748604  1
  Al  Al25  1  0.875093  0.437720  0.251396  1
  Al  Al26  1  0.562626  0.437720  0.251396  1
  Al  Al27  1  0.437404  0.874808  0.749050  1
  Al  Al28  1  0.162398  0.838594  0.923010  1
  Al  Al29  1  0.323191  0.161989  0.421488  1
  Re  Re30  1  0.500000  0.000000  0.500000  1
  Re  Re31  1  0.500000  0.500000  0.000000  1
  Re  Re32  1  0.000000  0.500000  0.000000  1
  Ir  Ir33  1  0.000000  0.500000  0.500000  1
  Ir  Ir34  1  0.500000  0.500000  0.500000  1
  Ir  Ir35  1  0.500000  0.000000  0.000000  1
  Ru  Ru36  1  0.000000  0.000000  0.500000  1
  Ru  Ru37  1  0.000000  0.000000  0.000000  1
