# generated using pymatgen
data_NdSm5Mg2(Co4P3)4
_symmetry_space_group_name_H-M   'P 1'
_cell_length_a   3.77310400
_cell_length_b   10.71352200
_cell_length_c   12.41174600
_cell_angle_alpha   90.00000000
_cell_angle_beta   90.00000000
_cell_angle_gamma   90.00000000
_symmetry_Int_Tables_number   1
_chemical_formula_structural   NdSm5Mg2(Co4P3)4
_chemical_formula_sum   'Nd1 Sm5 Mg2 Co16 P12'
_cell_volume   501.72289692
_cell_formula_units_Z   1
loop_
 _symmetry_equiv_pos_site_id
 _symmetry_equiv_pos_as_xyz
  1  'x, y, z'
loop_
 _atom_site_type_symbol
 _atom_site_label
 _atom_site_symmetry_multiplicity
 _atom_site_fract_x
 _atom_site_fract_y
 _atom_site_fract_z
 _atom_site_occupancy
  Nd  Nd0  1  0.500000  0.000000  0.473960  1
  Sm  Sm1  1  0.000000  0.500000  0.525430  1
  Sm  Sm2  1  0.500000  0.821060  0.206197  1
  Sm  Sm3  1  0.500000  0.178940  0.206197  1
  Sm  Sm4  1  0.000000  0.678649  0.793676  1
  Sm  Sm5  1  0.000000  0.321351  0.793676  1
  Mg  Mg6  1  0.500000  0.500000  0.154790  1
  Mg  Mg7  1  0.000000  0.000000  0.845981  1
  Co  Co8  1  0.500000  0.500000  0.705669  1
  Co  Co9  1  0.000000  0.000000  0.293164  1
  Co  Co10  1  0.000000  0.500000  0.988496  1
  Co  Co11  1  0.500000  0.000000  0.011345  1
  Co  Co12  1  0.500000  0.332731  0.996786  1
  Co  Co13  1  0.500000  0.667269  0.996786  1
  Co  Co14  1  0.000000  0.167428  0.003182  1
  Co  Co15  1  0.000000  0.832572  0.003182  1
  Co  Co16  1  0.500000  0.297734  0.431597  1
  Co  Co17  1  0.500000  0.702266  0.431597  1
  Co  Co18  1  0.000000  0.204134  0.568588  1
  Co  Co19  1  0.000000  0.795866  0.568588  1
  Co  Co20  1  0.500000  0.878948  0.706227  1
  Co  Co21  1  0.500000  0.121052  0.706227  1
  Co  Co22  1  0.000000  0.620417  0.294093  1
  Co  Co23  1  0.000000  0.379583  0.294093  1
  P  P24  1  0.500000  0.500000  0.886587  1
  P  P25  1  0.000000  0.000000  0.113126  1
  P  P26  1  0.500000  0.500000  0.352417  1
  P  P27  1  0.000000  0.000000  0.648927  1
  P  P28  1  0.500000  0.306766  0.614197  1
  P  P29  1  0.500000  0.693234  0.614197  1
  P  P30  1  0.000000  0.195101  0.385566  1
  P  P31  1  0.000000  0.804899  0.385566  1
  P  P32  1  0.500000  0.840016  0.895476  1
  P  P33  1  0.500000  0.159984  0.895476  1
  P  P34  1  0.000000  0.659730  0.104469  1
  P  P35  1  0.000000  0.340270  0.104469  1
