# generated using pymatgen
data_Tb2Dy5Lu13Sn16
_symmetry_space_group_name_H-M   'P 1'
_cell_length_a   7.94064896
_cell_length_b   8.06806241
_cell_length_c   15.24080111
_cell_angle_alpha   90.01558028
_cell_angle_beta   90.22564848
_cell_angle_gamma   89.90459296
_symmetry_Int_Tables_number   1
_chemical_formula_structural   Tb2Dy5Lu13Sn16
_chemical_formula_sum   'Tb2 Dy5 Lu13 Sn16'
_cell_volume   976.40288964
_cell_formula_units_Z   1
loop_
 _symmetry_equiv_pos_site_id
 _symmetry_equiv_pos_as_xyz
  1  'x, y, z'
loop_
 _atom_site_type_symbol
 _atom_site_label
 _atom_site_symmetry_multiplicity
 _atom_site_fract_x
 _atom_site_fract_y
 _atom_site_fract_z
 _atom_site_occupancy
  Tb  Tb0  1  0.019476  0.179186  0.596459  1
  Tb  Tb1  1  0.480708  0.678913  0.404469  1
  Dy  Dy2  1  0.979412  0.820861  0.095936  1
  Dy  Dy3  1  0.479330  0.678056  0.095851  1
  Dy  Dy4  1  0.980537  0.821288  0.404411  1
  Dy  Dy5  1  0.518527  0.321775  0.595440  1
  Dy  Dy6  1  0.020377  0.179168  0.903764  1
  Lu  Lu7  1  0.364933  0.838291  0.876415  1
  Lu  Lu8  1  0.863439  0.662227  0.624010  1
  Lu  Lu9  1  0.635768  0.162183  0.376048  1
  Lu  Lu10  1  0.134060  0.338218  0.123186  1
  Lu  Lu11  1  0.634208  0.161846  0.123158  1
  Lu  Lu12  1  0.135941  0.337973  0.376281  1
  Lu  Lu13  1  0.364266  0.838425  0.624509  1
  Lu  Lu14  1  0.865977  0.661294  0.876663  1
  Lu  Lu15  1  0.522820  0.321281  0.903130  1
  Lu  Lu16  1  0.195849  0.504839  0.750511  1
  Lu  Lu17  1  0.695263  0.995140  0.750563  1
  Lu  Lu18  1  0.804369  0.494718  0.249726  1
  Lu  Lu19  1  0.304398  0.005120  0.249792  1
  Sn  Sn20  1  0.295988  0.039333  0.041623  1
  Sn  Sn21  1  0.797617  0.459377  0.458700  1
  Sn  Sn22  1  0.701561  0.960514  0.541311  1
  Sn  Sn23  1  0.207185  0.537283  0.957752  1
  Sn  Sn24  1  0.702939  0.960903  0.958170  1
  Sn  Sn25  1  0.201698  0.541116  0.541498  1
  Sn  Sn26  1  0.297959  0.040278  0.458629  1
  Sn  Sn27  1  0.794902  0.458954  0.040421  1
  Sn  Sn28  1  0.561454  0.619671  0.750467  1
  Sn  Sn29  1  0.061146  0.879464  0.750288  1
  Sn  Sn30  1  0.438713  0.380019  0.249598  1
  Sn  Sn31  1  0.938647  0.120070  0.249816  1
  Sn  Sn32  1  0.331616  0.151510  0.750973  1
  Sn  Sn33  1  0.828964  0.350411  0.750229  1
  Sn  Sn34  1  0.670024  0.850374  0.250097  1
  Sn  Sn35  1  0.169925  0.649923  0.250108  1
