# generated using pymatgen
data_Tb4Zn(InAu5)2
_symmetry_space_group_name_H-M   'P 1'
_cell_length_a   8.53547010
_cell_length_b   8.53547057
_cell_length_c   10.20538400
_cell_angle_alpha   90.00000000
_cell_angle_beta   90.00000000
_cell_angle_gamma   107.33073110
_symmetry_Int_Tables_number   1
_chemical_formula_structural   Tb4Zn(InAu5)2
_chemical_formula_sum   'Tb8 Zn2 In4 Au20'
_cell_volume   709.75134522
_cell_formula_units_Z   2
loop_
 _symmetry_equiv_pos_site_id
 _symmetry_equiv_pos_as_xyz
  1  'x, y, z'
loop_
 _atom_site_type_symbol
 _atom_site_label
 _atom_site_symmetry_multiplicity
 _atom_site_fract_x
 _atom_site_fract_y
 _atom_site_fract_z
 _atom_site_occupancy
  Tb  Tb0  1  0.699506  0.300494  0.000000  1
  Tb  Tb1  1  0.199506  0.800494  0.500000  1
  Tb  Tb2  1  0.799333  0.799333  0.297217  1
  Tb  Tb3  1  0.299333  0.299333  0.202783  1
  Tb  Tb4  1  0.800494  0.199506  0.500000  1
  Tb  Tb5  1  0.300494  0.699506  0.000000  1
  Tb  Tb6  1  0.700667  0.700667  0.797217  1
  Tb  Tb7  1  0.200667  0.200667  0.702783  1
  Zn  Zn8  1  0.000000  0.000000  0.000000  1
  Zn  Zn9  1  0.500000  0.500000  0.500000  1
  In  In10  1  0.515792  0.015792  0.250000  1
  In  In11  1  0.984208  0.484208  0.750000  1
  In  In12  1  0.015792  0.515792  0.250000  1
  In  In13  1  0.484208  0.984208  0.750000  1
  Au  Au14  1  0.165357  0.432291  0.482173  1
  Au  Au15  1  0.904442  0.904442  0.595447  1
  Au  Au16  1  0.567709  0.834643  0.517827  1
  Au  Au17  1  0.886485  0.162007  0.207286  1
  Au  Au18  1  0.386485  0.662007  0.292714  1
  Au  Au19  1  0.662007  0.386485  0.292714  1
  Au  Au20  1  0.404442  0.404442  0.904553  1
  Au  Au21  1  0.932291  0.665357  0.017827  1
  Au  Au22  1  0.337993  0.613515  0.707286  1
  Au  Au23  1  0.334643  0.067709  0.982173  1
  Au  Au24  1  0.595558  0.595558  0.095447  1
  Au  Au25  1  0.665357  0.932291  0.017827  1
  Au  Au26  1  0.095558  0.095558  0.404553  1
  Au  Au27  1  0.613515  0.337993  0.707286  1
  Au  Au28  1  0.113515  0.837993  0.792714  1
  Au  Au29  1  0.067709  0.334643  0.982173  1
  Au  Au30  1  0.834643  0.567709  0.517827  1
  Au  Au31  1  0.162007  0.886485  0.207286  1
  Au  Au32  1  0.432291  0.165357  0.482173  1
  Au  Au33  1  0.837993  0.113515  0.792714  1
