# generated using pymatgen
data_Th2GeP3Rh4
_symmetry_space_group_name_H-M   'P 1'
_cell_length_a   4.23579000
_cell_length_b   4.23579000
_cell_length_c   9.67408200
_cell_angle_alpha   90.00000000
_cell_angle_beta   90.00000000
_cell_angle_gamma   90.00000000
_symmetry_Int_Tables_number   1
_chemical_formula_structural   Th2GeP3Rh4
_chemical_formula_sum   'Th2 Ge1 P3 Rh4'
_cell_volume   173.57157556
_cell_formula_units_Z   1
loop_
 _symmetry_equiv_pos_site_id
 _symmetry_equiv_pos_as_xyz
  1  'x, y, z'
loop_
 _atom_site_type_symbol
 _atom_site_label
 _atom_site_symmetry_multiplicity
 _atom_site_fract_x
 _atom_site_fract_y
 _atom_site_fract_z
 _atom_site_occupancy
  Th  Th0  1  0.000000  0.500000  0.259031  1
  Th  Th1  1  0.500000  0.000000  0.744365  1
  Ge  Ge2  1  0.500000  0.000000  0.139068  1
  P  P3  1  0.000000  0.000000  0.503042  1
  P  P4  1  0.500000  0.500000  0.503042  1
  P  P5  1  0.000000  0.500000  0.860056  1
  Rh  Rh6  1  0.000000  0.000000  0.991346  1
  Rh  Rh7  1  0.500000  0.500000  0.991346  1
  Rh  Rh8  1  0.000000  0.500000  0.610248  1
  Rh  Rh9  1  0.500000  0.000000  0.398455  1
