# generated using pymatgen
data_Y5V2Co17P12
_symmetry_space_group_name_H-M   'P 1'
_cell_length_a   12.06815332
_cell_length_b   12.02049336
_cell_length_c   3.68026500
_cell_angle_alpha   90.00000000
_cell_angle_beta   90.00000000
_cell_angle_gamma   119.86943753
_symmetry_Int_Tables_number   1
_chemical_formula_structural   Y5V2Co17P12
_chemical_formula_sum   'Y5 V2 Co17 P12'
_cell_volume   462.95918557
_cell_formula_units_Z   1
loop_
 _symmetry_equiv_pos_site_id
 _symmetry_equiv_pos_as_xyz
  1  'x, y, z'
loop_
 _atom_site_type_symbol
 _atom_site_label
 _atom_site_symmetry_multiplicity
 _atom_site_fract_x
 _atom_site_fract_y
 _atom_site_fract_z
 _atom_site_occupancy
  Y  Y0  1  0.665303  0.332319  0.000000  1
  Y  Y1  1  0.334697  0.667017  0.000000  1
  Y  Y2  1  0.186888  0.185815  0.500000  1
  Y  Y3  1  0.813112  0.998927  0.500000  1
  Y  Y4  1  0.000000  0.811919  0.500000  1
  V  V5  1  0.557284  0.557169  0.000000  1
  V  V6  1  0.442716  0.999885  0.000000  1
  Co  Co7  1  0.000000  0.448559  0.000000  1
  Co  Co8  1  0.824128  0.202453  0.000000  1
  Co  Co9  1  0.800882  0.622460  0.000000  1
  Co  Co10  1  0.375546  0.176680  0.000000  1
  Co  Co11  1  0.199118  0.821580  0.000000  1
  Co  Co12  1  0.624454  0.801133  0.000000  1
  Co  Co13  1  0.175872  0.378325  0.000000  1
  Co  Co14  1  0.644049  0.124993  0.500000  1
  Co  Co15  1  0.873804  0.515983  0.500000  1
  Co  Co16  1  0.482138  0.355582  0.500000  1
  Co  Co17  1  0.126196  0.642179  0.500000  1
  Co  Co18  1  0.517862  0.873445  0.500000  1
  Co  Co19  1  0.355951  0.480944  0.500000  1
  Co  Co20  1  0.718190  0.718006  0.500000  1
  Co  Co21  1  0.281810  0.999817  0.500000  1
  Co  Co22  1  0.000000  0.285359  0.500000  1
  Co  Co23  1  0.000000  0.001574  0.000000  1
  P  P24  1  0.364228  0.365658  0.000000  1
  P  P25  1  0.635772  0.001430  0.000000  1
  P  P26  1  0.000000  0.632418  0.000000  1
  P  P27  1  0.835137  0.314961  0.500000  1
  P  P28  1  0.684814  0.519854  0.500000  1
  P  P29  1  0.479210  0.163474  0.500000  1
  P  P30  1  0.315186  0.835040  0.500000  1
  P  P31  1  0.520790  0.684264  0.500000  1
  P  P32  1  0.164863  0.479825  0.500000  1
  P  P33  1  0.820903  0.820096  0.000000  1
  P  P34  1  0.179097  0.999192  0.000000  1
  P  P35  1  0.000000  0.181663  0.000000  1
