# generated using pymatgen
data_Pr3NdSc4(ReB6)4
_symmetry_space_group_name_H-M   'P 1'
_cell_length_a   3.65380700
_cell_length_b   9.10441100
_cell_length_c   11.58059700
_cell_angle_alpha   89.99723018
_cell_angle_beta   90.00000000
_cell_angle_gamma   90.00000000
_symmetry_Int_Tables_number   1
_chemical_formula_structural   Pr3NdSc4(ReB6)4
_chemical_formula_sum   'Pr3 Nd1 Sc4 Re4 B24'
_cell_volume   385.23736768
_cell_formula_units_Z   1
loop_
 _symmetry_equiv_pos_site_id
 _symmetry_equiv_pos_as_xyz
  1  'x, y, z'
loop_
 _atom_site_type_symbol
 _atom_site_label
 _atom_site_symmetry_multiplicity
 _atom_site_fract_x
 _atom_site_fract_y
 _atom_site_fract_z
 _atom_site_occupancy
  Pr  Pr0  1  0.000000  0.321590  0.414994  1
  Pr  Pr1  1  0.000000  0.678402  0.585047  1
  Pr  Pr2  1  0.000000  0.821644  0.084950  1
  Nd  Nd3  1  0.000000  0.178279  0.914937  1
  Sc  Sc4  1  0.000000  0.943934  0.369424  1
  Sc  Sc5  1  0.000000  0.056091  0.630662  1
  Sc  Sc6  1  0.000000  0.443900  0.130377  1
  Sc  Sc7  1  0.000000  0.555909  0.869578  1
  Re  Re8  1  0.000000  0.641754  0.316687  1
  Re  Re9  1  0.000000  0.358072  0.683595  1
  Re  Re10  1  0.000000  0.141795  0.183016  1
  Re  Re11  1  0.000000  0.858557  0.816760  1
  B  B12  1  0.500000  0.556680  0.429068  1
  B  B13  1  0.500000  0.443277  0.570976  1
  B  B14  1  0.500000  0.056813  0.070520  1
  B  B15  1  0.500000  0.943798  0.929141  1
  B  B16  1  0.500000  0.755140  0.415006  1
  B  B17  1  0.500000  0.244855  0.585089  1
  B  B18  1  0.500000  0.255074  0.084582  1
  B  B19  1  0.500000  0.744935  0.914978  1
  B  B20  1  0.500000  0.794866  0.265658  1
  B  B21  1  0.500000  0.205027  0.734664  1
  B  B22  1  0.500000  0.294814  0.234235  1
  B  B23  1  0.500000  0.705183  0.765691  1
  B  B24  1  0.500000  0.627993  0.183623  1
  B  B25  1  0.500000  0.371671  0.816638  1
  B  B26  1  0.500000  0.128029  0.316300  1
  B  B27  1  0.500000  0.872076  0.683726  1
  B  B28  1  0.500000  0.983163  0.215338  1
  B  B29  1  0.500000  0.017232  0.784821  1
  B  B30  1  0.500000  0.483077  0.284574  1
  B  B31  1  0.500000  0.516809  0.715467  1
  B  B32  1  0.500000  0.593094  0.024925  1
  B  B33  1  0.500000  0.406453  0.974940  1
  B  B34  1  0.500000  0.093103  0.475071  1
  B  B35  1  0.500000  0.906912  0.524942  1
