# generated using pymatgen
data_NaSr(InAu)2
_symmetry_space_group_name_H-M   'P 1'
_cell_length_a   4.56310100
_cell_length_b   7.82422993
_cell_length_c   8.73122463
_cell_angle_alpha   87.35082462
_cell_angle_beta   90.00000000
_cell_angle_gamma   90.00000000
_symmetry_Int_Tables_number   1
_chemical_formula_structural   NaSr(InAu)2
_chemical_formula_sum   'Na2 Sr2 In4 Au4'
_cell_volume   311.39558823
_cell_formula_units_Z   2
loop_
 _symmetry_equiv_pos_site_id
 _symmetry_equiv_pos_as_xyz
  1  'x, y, z'
loop_
 _atom_site_type_symbol
 _atom_site_label
 _atom_site_symmetry_multiplicity
 _atom_site_fract_x
 _atom_site_fract_y
 _atom_site_fract_z
 _atom_site_occupancy
  Na  Na0  1  0.750000  0.980728  0.676122  1
  Na  Na1  1  0.250000  0.019272  0.323878  1
  Sr  Sr2  1  0.750000  0.475501  0.810607  1
  Sr  Sr3  1  0.250000  0.524499  0.189393  1
  In  In4  1  0.750000  0.324086  0.432498  1
  In  In5  1  0.250000  0.141062  0.932078  1
  In  In6  1  0.250000  0.675914  0.567502  1
  In  In7  1  0.750000  0.858938  0.067922  1
  Au  Au8  1  0.250000  0.776558  0.877657  1
  Au  Au9  1  0.250000  0.280045  0.619113  1
  Au  Au10  1  0.750000  0.719955  0.380887  1
  Au  Au11  1  0.750000  0.223442  0.122343  1
