# generated using pymatgen
data_Th4Al24CoPt8
_symmetry_space_group_name_H-M   'P 1'
_cell_length_a   7.60065020
_cell_length_b   7.60327022
_cell_length_c   13.20800940
_cell_angle_alpha   84.35616178
_cell_angle_beta   78.89977619
_cell_angle_gamma   60.00062332
_symmetry_Int_Tables_number   1
_chemical_formula_structural   Th4Al24CoPt8
_chemical_formula_sum   'Th4 Al24 Co1 Pt8'
_cell_volume   648.66253426
_cell_formula_units_Z   1
loop_
 _symmetry_equiv_pos_site_id
 _symmetry_equiv_pos_as_xyz
  1  'x, y, z'
loop_
 _atom_site_type_symbol
 _atom_site_label
 _atom_site_symmetry_multiplicity
 _atom_site_fract_x
 _atom_site_fract_y
 _atom_site_fract_z
 _atom_site_occupancy
  Th  Th0  1  0.396022  0.165482  0.807719  1
  Th  Th1  1  0.603978  0.834518  0.192281  1
  Th  Th2  1  0.732021  0.497562  0.807609  1
  Th  Th3  1  0.267979  0.502438  0.192391  1
  Al  Al4  1  0.694741  0.824164  0.947835  1
  Al  Al5  1  0.305259  0.175836  0.052165  1
  Al  Al6  1  0.145801  0.833383  0.560608  1
  Al  Al7  1  0.854199  0.166617  0.439392  1
  Al  Al8  1  0.481602  0.166944  0.557539  1
  Al  Al9  1  0.518398  0.833056  0.442461  1
  Al  Al10  1  0.210399  0.166591  0.334852  1
  Al  Al11  1  0.789601  0.833409  0.665148  1
  Al  Al12  1  0.433942  0.510745  0.665163  1
  Al  Al13  1  0.566058  0.489255  0.334837  1
  Al  Al14  1  0.111989  0.155482  0.663539  1
  Al  Al15  1  0.888011  0.844518  0.336461  1
  Al  Al16  1  0.339904  0.501541  0.947869  1
  Al  Al17  1  0.660096  0.498459  0.052131  1
  Al  Al18  1  0.013477  0.173560  0.959270  1
  Al  Al19  1  0.986523  0.826440  0.040730  1
  Al  Al20  1  0.186463  0.499255  0.442674  1
  Al  Al21  1  0.813537  0.500745  0.557326  1
  Al  Al22  1  0.740288  0.164595  0.182441  1
  Al  Al23  1  0.259712  0.835405  0.817559  1
  Al  Al24  1  0.059358  0.627131  0.821197  1
  Al  Al25  1  0.940642  0.372869  0.178803  1
  Al  Al26  1  0.861228  0.034894  0.817287  1
  Al  Al27  1  0.138772  0.965106  0.182713  1
  Co  Co28  1  0.000000  0.500000  0.000000  1
  Pt  Pt29  1  0.119981  0.491502  0.639659  1
  Pt  Pt30  1  0.880019  0.508498  0.360341  1
  Pt  Pt31  1  0.655735  0.172109  0.999959  1
  Pt  Pt32  1  0.344265  0.827891  0.000041  1
  Pt  Pt33  1  0.536855  0.166920  0.360928  1
  Pt  Pt34  1  0.463145  0.833080  0.639072  1
  Pt  Pt35  1  0.778057  0.175673  0.638094  1
  Pt  Pt36  1  0.221943  0.824327  0.361906  1
