# generated using pymatgen
data_CaLaRh2O7
_symmetry_space_group_name_H-M   'P 1'
_cell_length_a   7.35667421
_cell_length_b   7.42641980
_cell_length_c   7.35667394
_cell_angle_alpha   59.68588158
_cell_angle_beta   59.61187252
_cell_angle_gamma   59.68588804
_symmetry_Int_Tables_number   1
_chemical_formula_structural   CaLaRh2O7
_chemical_formula_sum   'Ca2 La2 Rh4 O14'
_cell_volume   282.01434767
_cell_formula_units_Z   2
loop_
 _symmetry_equiv_pos_site_id
 _symmetry_equiv_pos_as_xyz
  1  'x, y, z'
loop_
 _atom_site_type_symbol
 _atom_site_label
 _atom_site_symmetry_multiplicity
 _atom_site_fract_x
 _atom_site_fract_y
 _atom_site_fract_z
 _atom_site_occupancy
  Ca  Ca0  1  0.625000  0.125000  0.125000  1
  Ca  Ca1  1  0.125000  0.125000  0.625000  1
  La  La2  1  0.125000  0.125000  0.125000  1
  La  La3  1  0.125000  0.625000  0.125000  1
  Rh  Rh4  1  0.625000  0.625000  0.125000  1
  Rh  Rh5  1  0.625000  0.625000  0.625000  1
  Rh  Rh6  1  0.625000  0.125000  0.625000  1
  Rh  Rh7  1  0.125000  0.625000  0.625000  1
  O  O8  1  0.698825  0.299171  0.298463  1
  O  O9  1  0.698825  0.703542  0.298463  1
  O  O10  1  0.296534  0.703466  0.296534  1
  O  O11  1  0.997267  0.002733  0.997267  1
  O  O12  1  0.698524  0.301476  0.698524  1
  O  O13  1  0.951537  0.546458  0.551175  1
  O  O14  1  0.298463  0.703542  0.698825  1
  O  O15  1  0.551476  0.948524  0.551476  1
  O  O16  1  0.252733  0.247267  0.252733  1
  O  O17  1  0.953466  0.546534  0.953466  1
  O  O18  1  0.551175  0.546458  0.951537  1
  O  O19  1  0.951537  0.950829  0.551175  1
  O  O20  1  0.551175  0.950829  0.951537  1
  O  O21  1  0.298463  0.299171  0.698825  1
