# generated using pymatgen
data_Nd4YP12Ru13Rh6
_symmetry_space_group_name_H-M   'P 1'
_cell_length_a   12.66732500
_cell_length_b   12.66732627
_cell_length_c   3.99504400
_cell_angle_alpha   90.00000000
_cell_angle_beta   90.00000000
_cell_angle_gamma   119.99999408
_symmetry_Int_Tables_number   1
_chemical_formula_structural   Nd4YP12Ru13Rh6
_chemical_formula_sum   'Nd4 Y1 P12 Ru13 Rh6'
_cell_volume   555.16502017
_cell_formula_units_Z   1
loop_
 _symmetry_equiv_pos_site_id
 _symmetry_equiv_pos_as_xyz
  1  'x, y, z'
loop_
 _atom_site_type_symbol
 _atom_site_label
 _atom_site_symmetry_multiplicity
 _atom_site_fract_x
 _atom_site_fract_y
 _atom_site_fract_z
 _atom_site_occupancy
  Nd  Nd0  1  0.999978  0.183274  0.500000  1
  Nd  Nd1  1  0.816726  0.816704  0.500000  1
  Nd  Nd2  1  0.183296  0.000022  0.500000  1
  Nd  Nd3  1  0.666667  0.333333  0.000000  1
  Y  Y4  1  0.333333  0.666667  0.000000  1
  P  P5  1  0.003819  0.815251  0.000000  1
  P  P6  1  0.184749  0.188568  0.000000  1
  P  P7  1  0.811432  0.996181  0.000000  1
  P  P8  1  0.690158  0.170652  0.500000  1
  P  P9  1  0.829348  0.519507  0.500000  1
  P  P10  1  0.480493  0.309842  0.500000  1
  P  P11  1  0.177880  0.697124  0.500000  1
  P  P12  1  0.519245  0.822120  0.500000  1
  P  P13  1  0.302876  0.480755  0.500000  1
  P  P14  1  0.003637  0.373834  0.000000  1
  P  P15  1  0.626166  0.629802  0.000000  1
  P  P16  1  0.370198  0.996363  0.000000  1
  Ru  Ru17  1  0.999847  0.711369  0.500000  1
  Ru  Ru18  1  0.288631  0.288478  0.500000  1
  Ru  Ru19  1  0.711522  0.000153  0.500000  1
  Ru  Ru20  1  0.184231  0.801839  0.000000  1
  Ru  Ru21  1  0.617609  0.815769  0.000000  1
  Ru  Ru22  1  0.198161  0.382391  0.000000  1
  Ru  Ru23  1  0.873739  0.361700  0.500000  1
  Ru  Ru24  1  0.638300  0.512039  0.500000  1
  Ru  Ru25  1  0.487961  0.126261  0.500000  1
  Ru  Ru26  1  0.369641  0.876510  0.500000  1
  Ru  Ru27  1  0.506869  0.630359  0.500000  1
  Ru  Ru28  1  0.123490  0.493131  0.500000  1
  Ru  Ru29  1  0.000000  0.000000  0.000000  1
  Rh  Rh30  1  0.992954  0.548346  0.000000  1
  Rh  Rh31  1  0.451654  0.444609  0.000000  1
  Rh  Rh32  1  0.555391  0.007046  0.000000  1
  Rh  Rh33  1  0.808212  0.184145  0.000000  1
  Rh  Rh34  1  0.815855  0.624069  0.000000  1
  Rh  Rh35  1  0.375931  0.191788  0.000000  1
