# generated using pymatgen
data_Dy5Co19Si11P
_symmetry_space_group_name_H-M   'P 1'
_cell_length_a   12.12463105
_cell_length_b   12.15542972
_cell_length_c   3.72502500
_cell_angle_alpha   90.00000000
_cell_angle_beta   90.00000000
_cell_angle_gamma   120.08405306
_symmetry_Int_Tables_number   1
_chemical_formula_structural   Dy5Co19Si11P
_chemical_formula_sum   'Dy5 Co19 Si11 P1'
_cell_volume   475.04003497
_cell_formula_units_Z   1
loop_
 _symmetry_equiv_pos_site_id
 _symmetry_equiv_pos_as_xyz
  1  'x, y, z'
loop_
 _atom_site_type_symbol
 _atom_site_label
 _atom_site_symmetry_multiplicity
 _atom_site_fract_x
 _atom_site_fract_y
 _atom_site_fract_z
 _atom_site_occupancy
  Dy  Dy0  1  0.667035  0.333340  0.000000  1
  Dy  Dy1  1  0.332965  0.666307  0.000000  1
  Dy  Dy2  1  0.184724  0.185857  0.500000  1
  Dy  Dy3  1  0.815276  0.001133  0.500000  1
  Dy  Dy4  1  0.000000  0.814204  0.500000  1
  Co  Co5  1  0.558496  0.558771  0.000000  1
  Co  Co6  1  0.441504  0.000275  0.000000  1
  Co  Co7  1  0.000000  0.441542  0.000000  1
  Co  Co8  1  0.823452  0.197837  0.000000  1
  Co  Co9  1  0.802191  0.621935  0.000000  1
  Co  Co10  1  0.377984  0.180241  0.000000  1
  Co  Co11  1  0.197809  0.819744  0.000000  1
  Co  Co12  1  0.622016  0.802257  0.000000  1
  Co  Co13  1  0.176548  0.374386  0.000000  1
  Co  Co14  1  0.644537  0.123330  0.500000  1
  Co  Co15  1  0.877229  0.520242  0.500000  1
  Co  Co16  1  0.479153  0.356655  0.500000  1
  Co  Co17  1  0.122771  0.643014  0.500000  1
  Co  Co18  1  0.520847  0.877502  0.500000  1
  Co  Co19  1  0.355463  0.478793  0.500000  1
  Co  Co20  1  0.717840  0.717761  0.500000  1
  Co  Co21  1  0.282160  0.999921  0.500000  1
  Co  Co22  1  0.000000  0.279009  0.500000  1
  Co  Co23  1  0.000000  0.004732  0.000000  1
  Si  Si24  1  0.371053  0.371310  0.000000  1
  Si  Si25  1  0.628947  0.000258  0.000000  1
  Si  Si26  1  0.000000  0.628743  0.000000  1
  Si  Si27  1  0.839771  0.317899  0.500000  1
  Si  Si28  1  0.682643  0.521673  0.500000  1
  Si  Si29  1  0.478691  0.161204  0.500000  1
  Si  Si30  1  0.317357  0.839030  0.500000  1
  Si  Si31  1  0.521309  0.682514  0.500000  1
  Si  Si32  1  0.160229  0.478128  0.500000  1
  Si  Si33  1  0.816207  0.816059  0.000000  1
  Si  Si34  1  0.183793  0.999852  0.000000  1
  P  P35  1  0.000000  0.184544  0.000000  1
