# generated using pymatgen
data_Ho2Tm3P12Ir10Ru9
_symmetry_space_group_name_H-M   'P 1'
_cell_length_a   12.62314803
_cell_length_b   12.62168078
_cell_length_c   3.94246800
_cell_angle_alpha   90.00000000
_cell_angle_beta   90.00000000
_cell_angle_gamma   119.99614822
_symmetry_Int_Tables_number   1
_chemical_formula_structural   Ho2Tm3P12Ir10Ru9
_chemical_formula_sum   'Ho2 Tm3 P12 Ir10 Ru9'
_cell_volume   544.00204330
_cell_formula_units_Z   1
loop_
 _symmetry_equiv_pos_site_id
 _symmetry_equiv_pos_as_xyz
  1  'x, y, z'
loop_
 _atom_site_type_symbol
 _atom_site_label
 _atom_site_symmetry_multiplicity
 _atom_site_fract_x
 _atom_site_fract_y
 _atom_site_fract_z
 _atom_site_occupancy
  Ho  Ho0  1  0.187536  0.187510  0.000000  1
  Ho  Ho1  1  0.812464  0.999973  0.000000  1
  Tm  Tm2  1  0.333372  0.666690  0.500000  1
  Tm  Tm3  1  0.666628  0.333318  0.500000  1
  Tm  Tm4  1  0.000000  0.812461  0.000000  1
  P  P5  1  0.308390  0.827164  0.000000  1
  P  P6  1  0.172853  0.481245  0.000000  1
  P  P7  1  0.518882  0.691642  0.000000  1
  P  P8  1  0.827147  0.308392  0.000000  1
  P  P9  1  0.481118  0.172760  0.000000  1
  P  P10  1  0.691610  0.518774  0.000000  1
  P  P11  1  0.362568  0.362566  0.500000  1
  P  P12  1  0.637432  0.999997  0.500000  1
  P  P13  1  0.000000  0.637846  0.500000  1
  P  P14  1  0.819101  0.818835  0.500000  1
  P  P15  1  0.180899  0.999734  0.500000  1
  P  P16  1  0.000000  0.180964  0.500000  1
  Ir  Ir17  1  0.130689  0.636641  0.000000  1
  Ir  Ir18  1  0.363470  0.494149  0.000000  1
  Ir  Ir19  1  0.505903  0.869325  0.000000  1
  Ir  Ir20  1  0.636530  0.130679  0.000000  1
  Ir  Ir21  1  0.494097  0.363423  0.000000  1
  Ir  Ir22  1  0.869311  0.505953  0.000000  1
  Ir  Ir23  1  0.714058  0.713866  0.000000  1
  Ir  Ir24  1  0.285942  0.999808  0.000000  1
  Ir  Ir25  1  0.000000  0.286210  0.000000  1
  Ir  Ir26  1  0.000000  0.999527  0.500000  1
  Ru  Ru27  1  0.195382  0.817901  0.500000  1
  Ru  Ru28  1  0.182014  0.378041  0.500000  1
  Ru  Ru29  1  0.621985  0.803949  0.500000  1
  Ru  Ru30  1  0.817986  0.196027  0.500000  1
  Ru  Ru31  1  0.378015  0.181964  0.500000  1
  Ru  Ru32  1  0.804618  0.622519  0.500000  1
  Ru  Ru33  1  0.546930  0.546898  0.500000  1
  Ru  Ru34  1  0.453070  0.999968  0.500000  1
  Ru  Ru35  1  0.000000  0.453283  0.500000  1
