# generated using pymatgen
data_Gd5Lu(SnIr)6
_symmetry_space_group_name_H-M   'P 1'
_cell_length_a   7.45433500
_cell_length_b   7.45217298
_cell_length_c   7.92896300
_cell_angle_alpha   90.00000000
_cell_angle_beta   90.00000000
_cell_angle_gamma   119.37834847
_symmetry_Int_Tables_number   1
_chemical_formula_structural   Gd5Lu(SnIr)6
_chemical_formula_sum   'Gd5 Lu1 Sn6 Ir6'
_cell_volume   383.81806361
_cell_formula_units_Z   1
loop_
 _symmetry_equiv_pos_site_id
 _symmetry_equiv_pos_as_xyz
  1  'x, y, z'
loop_
 _atom_site_type_symbol
 _atom_site_label
 _atom_site_symmetry_multiplicity
 _atom_site_fract_x
 _atom_site_fract_y
 _atom_site_fract_z
 _atom_site_occupancy
  Gd  Gd0  1  0.406804  0.999346  0.250000  1
  Gd  Gd1  1  0.592541  0.592206  0.250000  1
  Gd  Gd2  1  0.999015  0.406120  0.250000  1
  Gd  Gd3  1  0.998653  0.406439  0.750000  1
  Gd  Gd4  1  0.405920  0.998373  0.750000  1
  Lu  Lu5  1  0.597800  0.598120  0.750000  1
  Sn  Sn6  1  0.257464  0.257268  0.503591  1
  Sn  Sn7  1  0.257464  0.257268  0.996409  1
  Sn  Sn8  1  0.741131  0.999821  0.999215  1
  Sn  Sn9  1  0.999949  0.741378  0.500440  1
  Sn  Sn10  1  0.741131  0.999821  0.500785  1
  Sn  Sn11  1  0.999949  0.741378  0.999560  1
  Ir  Ir12  1  0.664928  0.337341  0.504864  1
  Ir  Ir13  1  0.664928  0.337341  0.995136  1
  Ir  Ir14  1  0.337742  0.665768  0.995906  1
  Ir  Ir15  1  0.337742  0.665768  0.504094  1
  Ir  Ir16  1  0.996282  0.995903  0.750000  1
  Ir  Ir17  1  0.000557  0.000335  0.250000  1
