# generated using pymatgen
data_Tb4LuInAu4
_symmetry_space_group_name_H-M   'P 1'
_cell_length_a   8.07721400
_cell_length_b   8.07721400
_cell_length_c   3.77654100
_cell_angle_alpha   90.00000000
_cell_angle_beta   90.00000000
_cell_angle_gamma   90.00000000
_symmetry_Int_Tables_number   1
_chemical_formula_structural   Tb4LuInAu4
_chemical_formula_sum   'Tb4 Lu1 In1 Au4'
_cell_volume   246.38676913
_cell_formula_units_Z   1
loop_
 _symmetry_equiv_pos_site_id
 _symmetry_equiv_pos_as_xyz
  1  'x, y, z'
loop_
 _atom_site_type_symbol
 _atom_site_label
 _atom_site_symmetry_multiplicity
 _atom_site_fract_x
 _atom_site_fract_y
 _atom_site_fract_z
 _atom_site_occupancy
  Tb  Tb0  1  0.683389  0.145985  0.500000  1
  Tb  Tb1  1  0.316611  0.854015  0.500000  1
  Tb  Tb2  1  0.145985  0.316611  0.500000  1
  Tb  Tb3  1  0.854015  0.683389  0.500000  1
  Lu  Lu4  1  0.500000  0.500000  0.000000  1
  In  In5  1  0.000000  0.000000  0.000000  1
  Au  Au6  1  0.147498  0.617986  0.000000  1
  Au  Au7  1  0.852502  0.382014  0.000000  1
  Au  Au8  1  0.617986  0.852502  0.000000  1
  Au  Au9  1  0.382014  0.147498  0.000000  1
