# generated using pymatgen
data_Ta12Al5Ga3(CoN)4
_symmetry_space_group_name_H-M   'P 1'
_cell_length_a   8.15886473
_cell_length_b   8.15886572
_cell_length_c   8.15937217
_cell_angle_alpha   60.01712108
_cell_angle_beta   60.01711841
_cell_angle_gamma   60.04397197
_symmetry_Int_Tables_number   1
_chemical_formula_structural   Ta12Al5Ga3(CoN)4
_chemical_formula_sum   'Ta12 Al5 Ga3 Co4 N4'
_cell_volume   384.28885196
_cell_formula_units_Z   1
loop_
 _symmetry_equiv_pos_site_id
 _symmetry_equiv_pos_as_xyz
  1  'x, y, z'
loop_
 _atom_site_type_symbol
 _atom_site_label
 _atom_site_symmetry_multiplicity
 _atom_site_fract_x
 _atom_site_fract_y
 _atom_site_fract_z
 _atom_site_occupancy
  Ta  Ta0  1  0.560812  0.939221  0.561682  1
  Ta  Ta1  1  0.311172  0.688434  0.690225  1
  Ta  Ta2  1  0.688001  0.310901  0.310599  1
  Ta  Ta3  1  0.310901  0.688001  0.310599  1
  Ta  Ta4  1  0.690205  0.690205  0.310192  1
  Ta  Ta5  1  0.311663  0.311663  0.687949  1
  Ta  Ta6  1  0.561385  0.561385  0.938735  1
  Ta  Ta7  1  0.939221  0.560812  0.561682  1
  Ta  Ta8  1  0.559269  0.939974  0.939215  1
  Ta  Ta9  1  0.940010  0.940010  0.559244  1
  Ta  Ta10  1  0.688434  0.311172  0.690225  1
  Ta  Ta11  1  0.939974  0.559269  0.939215  1
  Al  Al12  1  0.331412  0.331412  0.004710  1
  Al  Al13  1  0.917888  0.245651  0.917828  1
  Al  Al14  1  0.917689  0.917689  0.246014  1
  Al  Al15  1  0.245651  0.917888  0.917828  1
  Al  Al16  1  0.331326  0.331326  0.332304  1
  Ga  Ga17  1  0.916690  0.916690  0.916884  1
  Ga  Ga18  1  0.999708  0.333625  0.333251  1
  Ga  Ga19  1  0.333625  0.999708  0.333251  1
  Co  Co20  1  0.124323  0.124323  0.122688  1
  Co  Co21  1  0.623971  0.128002  0.125261  1
  Co  Co22  1  0.128002  0.623971  0.125261  1
  Co  Co23  1  0.126359  0.126359  0.626009  1
  N  N24  1  0.625321  0.625321  0.624056  1
  N  N25  1  0.124737  0.626424  0.625023  1
  N  N26  1  0.626424  0.124737  0.625023  1
  N  N27  1  0.625825  0.625825  0.125047  1
