# generated using pymatgen
data_Eu3MnVC6
_symmetry_space_group_name_H-M   'P 1'
_cell_length_a   8.30725800
_cell_length_b   8.30725796
_cell_length_c   5.17766200
_cell_angle_alpha   90.00000000
_cell_angle_beta   90.00000000
_cell_angle_gamma   119.99999907
_symmetry_Int_Tables_number   1
_chemical_formula_structural   Eu3MnVC6
_chemical_formula_sum   'Eu6 Mn2 V2 C12'
_cell_volume   309.44233337
_cell_formula_units_Z   2
loop_
 _symmetry_equiv_pos_site_id
 _symmetry_equiv_pos_as_xyz
  1  'x, y, z'
loop_
 _atom_site_type_symbol
 _atom_site_label
 _atom_site_symmetry_multiplicity
 _atom_site_fract_x
 _atom_site_fract_y
 _atom_site_fract_z
 _atom_site_occupancy
  Eu  Eu0  1  0.607934  0.685510  0.750000  1
  Eu  Eu1  1  0.922425  0.607934  0.250000  1
  Eu  Eu2  1  0.685510  0.077575  0.250000  1
  Eu  Eu3  1  0.314490  0.922425  0.750000  1
  Eu  Eu4  1  0.077575  0.392066  0.750000  1
  Eu  Eu5  1  0.392066  0.314490  0.250000  1
  Mn  Mn6  1  0.666667  0.333333  0.750000  1
  Mn  Mn7  1  0.333333  0.666667  0.250000  1
  V  V8  1  0.000000  0.000000  0.500000  1
  V  V9  1  0.000000  0.000000  0.000000  1
  C  C10  1  0.948943  0.765702  0.750000  1
  C  C11  1  0.183241  0.948943  0.250000  1
  C  C12  1  0.765702  0.816759  0.250000  1
  C  C13  1  0.234298  0.183241  0.750000  1
  C  C14  1  0.816759  0.051057  0.750000  1
  C  C15  1  0.051057  0.234298  0.250000  1
  C  C16  1  0.853401  0.575812  0.750000  1
  C  C17  1  0.277589  0.853401  0.250000  1
  C  C18  1  0.575812  0.722411  0.250000  1
  C  C19  1  0.424188  0.277589  0.750000  1
  C  C20  1  0.146599  0.424188  0.250000  1
  C  C21  1  0.722411  0.146599  0.750000  1
