# generated using pymatgen
data_YbSm2Mg3AgPb2
_symmetry_space_group_name_H-M   'P 1'
_cell_length_a   7.68575262
_cell_length_b   7.70184438
_cell_length_c   4.63530600
_cell_angle_alpha   90.00000000
_cell_angle_beta   90.00000000
_cell_angle_gamma   120.06928333
_symmetry_Int_Tables_number   1
_chemical_formula_structural   YbSm2Mg3AgPb2
_chemical_formula_sum   'Yb1 Sm2 Mg3 Ag1 Pb2'
_cell_volume   237.45786470
_cell_formula_units_Z   1
loop_
 _symmetry_equiv_pos_site_id
 _symmetry_equiv_pos_as_xyz
  1  'x, y, z'
loop_
 _atom_site_type_symbol
 _atom_site_label
 _atom_site_symmetry_multiplicity
 _atom_site_fract_x
 _atom_site_fract_y
 _atom_site_fract_z
 _atom_site_occupancy
  Yb  Yb0  1  0.000000  0.410830  0.500000  1
  Sm  Sm1  1  0.586176  0.587974  0.500000  1
  Sm  Sm2  1  0.413824  0.001798  0.500000  1
  Mg  Mg3  1  0.000000  0.767629  0.000000  1
  Mg  Mg4  1  0.234364  0.233731  0.000000  1
  Mg  Mg5  1  0.765636  0.999368  0.000000  1
  Ag  Ag6  1  0.000000  0.999454  0.500000  1
  Pb  Pb7  1  0.335585  0.667402  0.000000  1
  Pb  Pb8  1  0.664415  0.331815  0.000000  1
