# generated using pymatgen
data_BaAlZn4
_symmetry_space_group_name_H-M   'P 1'
_cell_length_a   6.88016501
_cell_length_b   6.88016462
_cell_length_c   5.41130800
_cell_angle_alpha   90.00000000
_cell_angle_beta   90.00000000
_cell_angle_gamma   104.24117090
_symmetry_Int_Tables_number   1
_chemical_formula_structural   BaAlZn4
_chemical_formula_sum   'Ba2 Al2 Zn8'
_cell_volume   248.28139908
_cell_formula_units_Z   2
loop_
 _symmetry_equiv_pos_site_id
 _symmetry_equiv_pos_as_xyz
  1  'x, y, z'
loop_
 _atom_site_type_symbol
 _atom_site_label
 _atom_site_symmetry_multiplicity
 _atom_site_fract_x
 _atom_site_fract_y
 _atom_site_fract_z
 _atom_site_occupancy
  Ba  Ba0  1  0.670332  0.670332  0.250000  1
  Ba  Ba1  1  0.329668  0.329668  0.750000  1
  Al  Al2  1  0.796090  0.203910  0.500000  1
  Al  Al3  1  0.203910  0.796090  0.000000  1
  Zn  Zn4  1  0.918029  0.918029  0.750000  1
  Zn  Zn5  1  0.081971  0.081971  0.250000  1
  Zn  Zn6  1  0.535639  0.914993  0.751367  1
  Zn  Zn7  1  0.464361  0.085007  0.251367  1
  Zn  Zn8  1  0.914993  0.535639  0.748633  1
  Zn  Zn9  1  0.085007  0.464361  0.248633  1
  Zn  Zn10  1  0.794613  0.205387  0.000000  1
  Zn  Zn11  1  0.205387  0.794613  0.500000  1
