# generated using pymatgen
data_Y4Ho4CrOs3C8
_symmetry_space_group_name_H-M   'P 1'
_cell_length_a   5.09715900
_cell_length_b   6.49494015
_cell_length_c   9.75136311
_cell_angle_alpha   90.11945136
_cell_angle_beta   90.00000000
_cell_angle_gamma   90.00000000
_symmetry_Int_Tables_number   1
_chemical_formula_structural   Y4Ho4CrOs3C8
_chemical_formula_sum   'Y4 Ho4 Cr1 Os3 C8'
_cell_volume   322.82541613
_cell_formula_units_Z   1
loop_
 _symmetry_equiv_pos_site_id
 _symmetry_equiv_pos_as_xyz
  1  'x, y, z'
loop_
 _atom_site_type_symbol
 _atom_site_label
 _atom_site_symmetry_multiplicity
 _atom_site_fract_x
 _atom_site_fract_y
 _atom_site_fract_z
 _atom_site_occupancy
  Y  Y0  1  0.250000  0.530168  0.212109  1
  Y  Y1  1  0.750000  0.471307  0.783273  1
  Y  Y2  1  0.750000  0.973825  0.716199  1
  Y  Y3  1  0.250000  0.030195  0.287137  1
  Ho  Ho4  1  0.250000  0.682131  0.557837  1
  Ho  Ho5  1  0.750000  0.322219  0.445798  1
  Ho  Ho6  1  0.750000  0.819877  0.052833  1
  Ho  Ho7  1  0.250000  0.176142  0.944734  1
  Cr  Cr8  1  0.250000  0.727061  0.862443  1
  Os  Os9  1  0.750000  0.275763  0.135251  1
  Os  Os10  1  0.750000  0.776665  0.364200  1
  Os  Os11  1  0.250000  0.227345  0.637955  1
  C  C12  1  0.250000  0.465250  0.764468  1
  C  C13  1  0.750000  0.541571  0.241024  1
  C  C14  1  0.750000  0.040888  0.258043  1
  C  C15  1  0.250000  0.954621  0.743466  1
  C  C16  1  0.250000  0.815592  0.041711  1
  C  C17  1  0.750000  0.172435  0.949588  1
  C  C18  1  0.750000  0.673173  0.550836  1
  C  C19  1  0.250000  0.323771  0.451096  1
