# generated using pymatgen
data_Pa8ZnCd3O24
_symmetry_space_group_name_H-M   'P 1'
_cell_length_a   5.41708100
_cell_length_b   5.39638179
_cell_length_c   16.38509345
_cell_angle_alpha   89.91942204
_cell_angle_beta   90.00000000
_cell_angle_gamma   90.00000000
_symmetry_Int_Tables_number   1
_chemical_formula_structural   Pa8ZnCd3O24
_chemical_formula_sum   'Pa8 Zn1 Cd3 O24'
_cell_volume   478.97902005
_cell_formula_units_Z   1
loop_
 _symmetry_equiv_pos_site_id
 _symmetry_equiv_pos_as_xyz
  1  'x, y, z'
loop_
 _atom_site_type_symbol
 _atom_site_label
 _atom_site_symmetry_multiplicity
 _atom_site_fract_x
 _atom_site_fract_y
 _atom_site_fract_z
 _atom_site_occupancy
  Pa  Pa0  1  0.253884  0.464829  0.657817  1
  Pa  Pa1  1  0.249081  0.963475  0.835477  1
  Pa  Pa2  1  0.249081  0.036525  0.164523  1
  Pa  Pa3  1  0.253884  0.535171  0.342183  1
  Pa  Pa4  1  0.749530  0.037515  0.341883  1
  Pa  Pa5  1  0.752956  0.536958  0.164220  1
  Pa  Pa6  1  0.752956  0.463042  0.835780  1
  Pa  Pa7  1  0.749530  0.962485  0.658117  1
  Zn  Zn8  1  0.776121  0.500000  0.500000  1
  Cd  Cd9  1  0.275582  0.500000  0.000000  1
  Cd  Cd10  1  0.218853  0.000000  0.500000  1
  Cd  Cd11  1  0.723366  0.000000  0.000000  1
  O  O12  1  0.039374  0.670340  0.902149  1
  O  O13  1  0.450616  0.160843  0.597701  1
  O  O14  1  0.450616  0.839157  0.402299  1
  O  O15  1  0.039374  0.329660  0.097851  1
  O  O16  1  0.959663  0.831014  0.099332  1
  O  O17  1  0.553539  0.342076  0.411458  1
  O  O18  1  0.553539  0.657924  0.588542  1
  O  O19  1  0.959663  0.168986  0.900668  1
  O  O20  1  0.024513  0.784583  0.255979  1
  O  O21  1  0.479453  0.282526  0.254472  1
  O  O22  1  0.479453  0.717474  0.745528  1
  O  O23  1  0.024513  0.215417  0.744021  1
  O  O24  1  0.978788  0.716735  0.747538  1
  O  O25  1  0.525043  0.216587  0.750123  1
  O  O26  1  0.525043  0.783413  0.249877  1
  O  O27  1  0.978788  0.283265  0.252462  1
  O  O28  1  0.042809  0.746373  0.592583  1
  O  O29  1  0.460992  0.240718  0.906742  1
  O  O30  1  0.460992  0.759282  0.093258  1
  O  O31  1  0.042809  0.253627  0.407417  1
  O  O32  1  0.944944  0.742398  0.414912  1
  O  O33  1  0.537855  0.258449  0.095891  1
  O  O34  1  0.537855  0.741551  0.904109  1
  O  O35  1  0.944944  0.257602  0.585088  1
