# generated using pymatgen
data_Tb3HoTmSn3
_symmetry_space_group_name_H-M   'P 1'
_cell_length_a   8.97099500
_cell_length_b   8.97099512
_cell_length_c   6.53321500
_cell_angle_alpha   90.00000000
_cell_angle_beta   90.00000000
_cell_angle_gamma   119.99999585
_symmetry_Int_Tables_number   1
_chemical_formula_structural   Tb3HoTmSn3
_chemical_formula_sum   'Tb6 Ho2 Tm2 Sn6'
_cell_volume   455.34317940
_cell_formula_units_Z   2
loop_
 _symmetry_equiv_pos_site_id
 _symmetry_equiv_pos_as_xyz
  1  'x, y, z'
loop_
 _atom_site_type_symbol
 _atom_site_label
 _atom_site_symmetry_multiplicity
 _atom_site_fract_x
 _atom_site_fract_y
 _atom_site_fract_z
 _atom_site_occupancy
  Tb  Tb0  1  0.000000  0.760786  0.750000  1
  Tb  Tb1  1  0.000000  0.239214  0.250000  1
  Tb  Tb2  1  0.760786  0.760786  0.250000  1
  Tb  Tb3  1  0.760786  0.000000  0.750000  1
  Tb  Tb4  1  0.239214  0.239214  0.750000  1
  Tb  Tb5  1  0.239214  0.000000  0.250000  1
  Ho  Ho6  1  0.666667  0.333333  0.500000  1
  Ho  Ho7  1  0.333333  0.666667  0.000000  1
  Tm  Tm8  1  0.333333  0.666667  0.500000  1
  Tm  Tm9  1  0.666667  0.333333  0.000000  1
  Sn  Sn10  1  0.395814  0.000000  0.750000  1
  Sn  Sn11  1  0.395814  0.395814  0.250000  1
  Sn  Sn12  1  0.000000  0.604186  0.250000  1
  Sn  Sn13  1  0.000000  0.395814  0.750000  1
  Sn  Sn14  1  0.604186  0.604186  0.750000  1
  Sn  Sn15  1  0.604186  0.000000  0.250000  1
