# generated using pymatgen
data_KVPS5
_symmetry_space_group_name_H-M   'P 1'
_cell_length_a   6.53766150
_cell_length_b   7.01075125
_cell_length_c   9.48728000
_cell_angle_alpha   111.68580815
_cell_angle_beta   98.32513638
_cell_angle_gamma   90.00820086
_symmetry_Int_Tables_number   1
_chemical_formula_structural   KVPS5
_chemical_formula_sum   'K2 V2 P2 S10'
_cell_volume   399.12411474
_cell_formula_units_Z   2
loop_
 _symmetry_equiv_pos_site_id
 _symmetry_equiv_pos_as_xyz
  1  'x, y, z'
loop_
 _atom_site_type_symbol
 _atom_site_label
 _atom_site_symmetry_multiplicity
 _atom_site_fract_x
 _atom_site_fract_y
 _atom_site_fract_z
 _atom_site_occupancy
  K  K0  1  0.733548  0.231113  0.462440  1
  K  K1  1  0.266454  0.768864  0.537559  1
  V  V2  1  0.499987  0.210317  0.000042  1
  V  V3  1  0.500012  0.789755  0.999958  1
  P  P4  1  0.706290  0.632357  0.264681  1
  P  P5  1  0.293710  0.367635  0.735319  1
  S  S6  1  0.328206  0.061419  0.122832  1
  S  S7  1  0.398197  0.581149  0.162437  1
  S  S8  1  0.821184  0.347245  0.167591  1
  S  S9  1  0.821195  0.820332  0.167539  1
  S  S10  1  0.756769  0.747183  0.494256  1
  S  S11  1  0.243230  0.252796  0.505745  1
  S  S12  1  0.178810  0.179665  0.832481  1
  S  S13  1  0.178812  0.652736  0.832393  1
  S  S14  1  0.601803  0.418812  0.837565  1
  S  S15  1  0.671792  0.938627  0.877165  1
