# generated using pymatgen
data_Dy11Y6Ho3(Cd3Ru)2
_symmetry_space_group_name_H-M   'P 1'
_cell_length_a   9.61250801
_cell_length_b   9.61305316
_cell_length_c   9.84721500
_cell_angle_alpha   89.99999754
_cell_angle_beta   89.99759157
_cell_angle_gamma   120.00188046
_symmetry_Int_Tables_number   1
_chemical_formula_structural   Dy11Y6Ho3(Cd3Ru)2
_chemical_formula_sum   'Dy11 Y6 Ho3 Cd6 Ru2'
_cell_volume   788.01390389
_cell_formula_units_Z   1
loop_
 _symmetry_equiv_pos_site_id
 _symmetry_equiv_pos_as_xyz
  1  'x, y, z'
loop_
 _atom_site_type_symbol
 _atom_site_label
 _atom_site_symmetry_multiplicity
 _atom_site_fract_x
 _atom_site_fract_y
 _atom_site_fract_z
 _atom_site_occupancy
  Dy  Dy0  1  0.209841  0.790175  0.439831  1
  Dy  Dy1  1  0.209841  0.419666  0.439831  1
  Dy  Dy2  1  0.580299  0.790150  0.439786  1
  Dy  Dy3  1  0.790168  0.209831  0.560171  1
  Dy  Dy4  1  0.790168  0.580337  0.560171  1
  Dy  Dy5  1  0.419669  0.209834  0.560159  1
  Dy  Dy6  1  0.790147  0.209790  0.939849  1
  Dy  Dy7  1  0.790147  0.580357  0.939849  1
  Dy  Dy8  1  0.419669  0.209835  0.939841  1
  Dy  Dy9  1  0.209904  0.790161  0.060177  1
  Dy  Dy10  1  0.209904  0.419743  0.060177  1
  Y  Y11  1  0.541203  0.458852  0.249970  1
  Y  Y12  1  0.541203  0.082350  0.249970  1
  Y  Y13  1  0.917592  0.458795  0.249997  1
  Y  Y14  1  0.458814  0.541237  0.750042  1
  Y  Y15  1  0.458814  0.917578  0.750042  1
  Y  Y16  1  0.082409  0.541205  0.750008  1
  Ho  Ho17  1  0.999999  0.000000  0.500014  1
  Ho  Ho18  1  0.999940  0.999970  0.000005  1
  Ho  Ho19  1  0.580293  0.790146  0.060163  1
  Cd  Cd20  1  0.885464  0.114508  0.249979  1
  Cd  Cd21  1  0.885464  0.770957  0.249979  1
  Cd  Cd22  1  0.229038  0.114519  0.249989  1
  Cd  Cd23  1  0.114515  0.885472  0.750014  1
  Cd  Cd24  1  0.114515  0.229042  0.750014  1
  Cd  Cd25  1  0.770935  0.885467  0.750031  1
  Ru  Ru26  1  0.333380  0.666690  0.249949  1
  Ru  Ru27  1  0.666667  0.333333  0.749994  1
