# generated using pymatgen
data_YErCo2(P3Ir4)2
_symmetry_space_group_name_H-M   'P 1'
_cell_length_a   3.92565000
_cell_length_b   10.71367700
_cell_length_c   12.38294300
_cell_angle_alpha   90.00000000
_cell_angle_beta   90.00000000
_cell_angle_gamma   90.00000000
_symmetry_Int_Tables_number   1
_chemical_formula_structural   YErCo2(P3Ir4)2
_chemical_formula_sum   'Y2 Er2 Co4 P12 Ir16'
_cell_volume   520.80362603
_cell_formula_units_Z   2
loop_
 _symmetry_equiv_pos_site_id
 _symmetry_equiv_pos_as_xyz
  1  'x, y, z'
loop_
 _atom_site_type_symbol
 _atom_site_label
 _atom_site_symmetry_multiplicity
 _atom_site_fract_x
 _atom_site_fract_y
 _atom_site_fract_z
 _atom_site_occupancy
  Y  Y0  1  0.250000  0.585084  0.709950  1
  Y  Y1  1  0.250000  0.914916  0.209950  1
  Er  Er2  1  0.750000  0.414903  0.290082  1
  Er  Er3  1  0.750000  0.085097  0.790082  1
  Co  Co4  1  0.250000  0.460936  0.934182  1
  Co  Co5  1  0.250000  0.039064  0.434182  1
  Co  Co6  1  0.750000  0.538789  0.066145  1
  Co  Co7  1  0.750000  0.961211  0.566145  1
  P  P8  1  0.250000  0.426456  0.105816  1
  P  P9  1  0.250000  0.073544  0.605816  1
  P  P10  1  0.750000  0.573498  0.894564  1
  P  P11  1  0.750000  0.926502  0.394564  1
  P  P12  1  0.250000  0.270383  0.871185  1
  P  P13  1  0.250000  0.229617  0.371185  1
  P  P14  1  0.750000  0.729202  0.128485  1
  P  P15  1  0.750000  0.770798  0.628485  1
  P  P16  1  0.250000  0.594446  0.384732  1
  P  P17  1  0.250000  0.905554  0.884732  1
  P  P18  1  0.750000  0.405240  0.615087  1
  P  P19  1  0.750000  0.094760  0.115087  1
  Ir  Ir20  1  0.250000  0.720807  0.980711  1
  Ir  Ir21  1  0.250000  0.779193  0.480711  1
  Ir  Ir22  1  0.750000  0.279268  0.019322  1
  Ir  Ir23  1  0.750000  0.220732  0.519322  1
  Ir  Ir24  1  0.250000  0.407572  0.477693  1
  Ir  Ir25  1  0.250000  0.092428  0.977693  1
  Ir  Ir26  1  0.750000  0.592321  0.521348  1
  Ir  Ir27  1  0.750000  0.907679  0.021348  1
  Ir  Ir28  1  0.250000  0.232880  0.180113  1
  Ir  Ir29  1  0.250000  0.267120  0.680113  1
  Ir  Ir30  1  0.750000  0.767879  0.820214  1
  Ir  Ir31  1  0.750000  0.732121  0.320214  1
  Ir  Ir32  1  0.250000  0.886484  0.699185  1
  Ir  Ir33  1  0.250000  0.613516  0.199185  1
  Ir  Ir34  1  0.750000  0.114554  0.301186  1
  Ir  Ir35  1  0.750000  0.385446  0.801186  1
