# generated using pymatgen
data_Dy2Ho4FeBr10
_symmetry_space_group_name_H-M   'P 1'
_cell_length_a   7.42447461
_cell_length_b   9.11988933
_cell_length_c   9.33430400
_cell_angle_alpha   108.54652375
_cell_angle_beta   96.82493065
_cell_angle_gamma   103.33003636
_symmetry_Int_Tables_number   1
_chemical_formula_structural   Dy2Ho4FeBr10
_chemical_formula_sum   'Dy2 Ho4 Fe1 Br10'
_cell_volume   570.27084947
_cell_formula_units_Z   1
loop_
 _symmetry_equiv_pos_site_id
 _symmetry_equiv_pos_as_xyz
  1  'x, y, z'
loop_
 _atom_site_type_symbol
 _atom_site_label
 _atom_site_symmetry_multiplicity
 _atom_site_fract_x
 _atom_site_fract_y
 _atom_site_fract_z
 _atom_site_occupancy
  Dy  Dy0  1  0.466304  0.767906  0.581872  1
  Dy  Dy1  1  0.533696  0.232094  0.418128  1
  Ho  Ho2  1  0.377687  0.452688  0.745163  1
  Ho  Ho3  1  0.622313  0.547312  0.254837  1
  Ho  Ho4  1  0.853757  0.626540  0.676014  1
  Ho  Ho5  1  0.146243  0.373460  0.323986  1
  Fe  Fe6  1  0.500000  0.500000  0.500000  1
  Br  Br7  1  0.416116  0.134961  0.667833  1
  Br  Br8  1  0.583884  0.865039  0.332167  1
  Br  Br9  1  0.048360  0.679807  0.419874  1
  Br  Br10  1  0.951640  0.320193  0.580126  1
  Br  Br11  1  0.277759  0.748121  0.838832  1
  Br  Br12  1  0.722241  0.251879  0.161168  1
  Br  Br13  1  0.256191  0.416869  0.045391  1
  Br  Br14  1  0.743809  0.583131  0.954609  1
  Br  Br15  1  0.835734  0.939280  0.767026  1
  Br  Br16  1  0.164266  0.060720  0.232974  1
