# generated using pymatgen
data_Ta5NbGa4(FeC)2
_symmetry_space_group_name_H-M   'P 1'
_cell_length_a   8.19836971
_cell_length_b   8.19819976
_cell_length_c   8.19328648
_cell_angle_alpha   59.94531395
_cell_angle_beta   59.94630680
_cell_angle_gamma   59.96080975
_symmetry_Int_Tables_number   1
_chemical_formula_structural   Ta5NbGa4(FeC)2
_chemical_formula_sum   'Ta10 Nb2 Ga8 Fe4 C4'
_cell_volume   388.95946862
_cell_formula_units_Z   2
loop_
 _symmetry_equiv_pos_site_id
 _symmetry_equiv_pos_as_xyz
  1  'x, y, z'
loop_
 _atom_site_type_symbol
 _atom_site_label
 _atom_site_symmetry_multiplicity
 _atom_site_fract_x
 _atom_site_fract_y
 _atom_site_fract_z
 _atom_site_occupancy
  Ta  Ta0  1  0.693939  0.305704  0.306292  1
  Ta  Ta1  1  0.305274  0.694628  0.305177  1
  Ta  Ta2  1  0.694511  0.694502  0.305723  1
  Ta  Ta3  1  0.305740  0.305075  0.694304  1
  Ta  Ta4  1  0.555470  0.555522  0.944276  1
  Ta  Ta5  1  0.946107  0.553753  0.554126  1
  Ta  Ta6  1  0.555363  0.944701  0.944828  1
  Ta  Ta7  1  0.944954  0.944228  0.555691  1
  Ta  Ta8  1  0.696249  0.303926  0.695841  1
  Ta  Ta9  1  0.944326  0.556060  0.943700  1
  Nb  Nb10  1  0.555288  0.944146  0.555817  1
  Nb  Nb11  1  0.305820  0.694716  0.694235  1
  Ga  Ga12  1  0.917303  0.915260  0.916385  1
  Ga  Ga13  1  0.998628  0.333694  0.332814  1
  Ga  Ga14  1  0.333644  0.998932  0.334551  1
  Ga  Ga15  1  0.332858  0.334790  0.998518  1
  Ga  Ga16  1  0.916294  0.251408  0.917169  1
  Ga  Ga17  1  0.915207  0.917140  0.251486  1
  Ga  Ga18  1  0.251035  0.916366  0.915462  1
  Ga  Ga19  1  0.334738  0.332693  0.333618  1
  Fe  Fe20  1  0.124944  0.125057  0.124995  1
  Fe  Fe21  1  0.625201  0.126554  0.121716  1
  Fe  Fe22  1  0.123443  0.624802  0.128282  1
  Fe  Fe23  1  0.120302  0.129699  0.625000  1
  C  C24  1  0.627832  0.622169  0.624998  1
  C  C25  1  0.124388  0.624160  0.624371  1
  C  C26  1  0.625838  0.125617  0.625629  1
  C  C27  1  0.625305  0.624699  0.124994  1
