# generated using pymatgen
data_Er2Tm8CuIrPb6
_symmetry_space_group_name_H-M   'P 1'
_cell_length_a   9.11050200
_cell_length_b   9.11050235
_cell_length_c   6.69015300
_cell_angle_alpha   90.00000000
_cell_angle_beta   90.00000000
_cell_angle_gamma   120.00000599
_symmetry_Int_Tables_number   1
_chemical_formula_structural   Er2Tm8CuIrPb6
_chemical_formula_sum   'Er2 Tm8 Cu1 Ir1 Pb6'
_cell_volume   480.89613619
_cell_formula_units_Z   1
loop_
 _symmetry_equiv_pos_site_id
 _symmetry_equiv_pos_as_xyz
  1  'x, y, z'
loop_
 _atom_site_type_symbol
 _atom_site_label
 _atom_site_symmetry_multiplicity
 _atom_site_fract_x
 _atom_site_fract_y
 _atom_site_fract_z
 _atom_site_occupancy
  Er  Er0  1  0.666667  0.333333  0.500000  1
  Er  Er1  1  0.333333  0.666667  0.500000  1
  Tm  Tm2  1  0.243801  0.000000  0.238169  1
  Tm  Tm3  1  0.756199  0.000000  0.761831  1
  Tm  Tm4  1  0.000000  0.243801  0.238169  1
  Tm  Tm5  1  0.000000  0.756199  0.761831  1
  Tm  Tm6  1  0.756199  0.756199  0.238169  1
  Tm  Tm7  1  0.243801  0.243801  0.761831  1
  Tm  Tm8  1  0.333333  0.666667  0.000000  1
  Tm  Tm9  1  0.666667  0.333333  0.000000  1
  Cu  Cu10  1  0.000000  0.000000  0.500000  1
  Ir  Ir11  1  0.000000  0.000000  0.000000  1
  Pb  Pb12  1  0.602272  0.000000  0.253235  1
  Pb  Pb13  1  0.397728  0.000000  0.746765  1
  Pb  Pb14  1  0.000000  0.602272  0.253235  1
  Pb  Pb15  1  0.000000  0.397728  0.746765  1
  Pb  Pb16  1  0.397728  0.397728  0.253235  1
  Pb  Pb17  1  0.602272  0.602272  0.746765  1
