# generated using pymatgen
data_Yb3Cu7Ni6BC
_symmetry_space_group_name_H-M   'P 1'
_cell_length_a   5.00800800
_cell_length_b   5.00800837
_cell_length_c   10.75143000
_cell_angle_alpha   90.00000000
_cell_angle_beta   90.00000000
_cell_angle_gamma   120.00001077
_symmetry_Int_Tables_number   1
_chemical_formula_structural   Yb3Cu7Ni6BC
_chemical_formula_sum   'Yb3 Cu7 Ni6 B1 C1'
_cell_volume   233.52150248
_cell_formula_units_Z   1
loop_
 _symmetry_equiv_pos_site_id
 _symmetry_equiv_pos_as_xyz
  1  'x, y, z'
loop_
 _atom_site_type_symbol
 _atom_site_label
 _atom_site_symmetry_multiplicity
 _atom_site_fract_x
 _atom_site_fract_y
 _atom_site_fract_z
 _atom_site_occupancy
  Yb  Yb0  1  0.000000  0.000000  0.000000  1
  Yb  Yb1  1  0.000000  0.000000  0.312666  1
  Yb  Yb2  1  0.000000  0.000000  0.687334  1
  Cu  Cu3  1  0.666667  0.333333  0.310963  1
  Cu  Cu4  1  0.333333  0.666667  0.313099  1
  Cu  Cu5  1  0.999361  0.499681  0.500000  1
  Cu  Cu6  1  0.500319  0.000639  0.500000  1
  Cu  Cu7  1  0.500319  0.499681  0.500000  1
  Cu  Cu8  1  0.333333  0.666667  0.686901  1
  Cu  Cu9  1  0.666667  0.333333  0.689037  1
  Ni  Ni10  1  0.498249  0.501751  0.123576  1
  Ni  Ni11  1  0.003503  0.501751  0.123576  1
  Ni  Ni12  1  0.498249  0.996497  0.123576  1
  Ni  Ni13  1  0.498249  0.996497  0.876424  1
  Ni  Ni14  1  0.003503  0.501751  0.876424  1
  Ni  Ni15  1  0.498249  0.501751  0.876424  1
  B  B16  1  0.666667  0.333333  0.000000  1
  C  C17  1  0.333333  0.666667  0.000000  1
