# generated using pymatgen
data_Ho8Er4Co6Ir
_symmetry_space_group_name_H-M   'P 1'
_cell_length_a   11.20643800
_cell_length_b   8.28257891
_cell_length_c   11.02561395
_cell_angle_alpha   54.52523294
_cell_angle_beta   90.00000000
_cell_angle_gamma   90.00000000
_symmetry_Int_Tables_number   1
_chemical_formula_structural   Ho8Er4Co6Ir
_chemical_formula_sum   'Ho16 Er8 Co12 Ir2'
_cell_volume   833.40931980
_cell_formula_units_Z   2
loop_
 _symmetry_equiv_pos_site_id
 _symmetry_equiv_pos_as_xyz
  1  'x, y, z'
loop_
 _atom_site_type_symbol
 _atom_site_label
 _atom_site_symmetry_multiplicity
 _atom_site_fract_x
 _atom_site_fract_y
 _atom_site_fract_z
 _atom_site_occupancy
  Ho  Ho0  1  0.997449  0.161318  0.644556  1
  Ho  Ho1  1  0.497449  0.838682  0.855444  1
  Ho  Ho2  1  0.794406  0.237280  0.039095  1
  Ho  Ho3  1  0.294406  0.762720  0.460905  1
  Ho  Ho4  1  0.929397  0.768364  0.088197  1
  Ho  Ho5  1  0.429397  0.231636  0.411803  1
  Ho  Ho6  1  0.070940  0.232265  0.912083  1
  Ho  Ho7  1  0.570940  0.767735  0.587917  1
  Ho  Ho8  1  0.300896  0.243944  0.678506  1
  Ho  Ho9  1  0.800896  0.756056  0.821494  1
  Ho  Ho10  1  0.699427  0.756592  0.321048  1
  Ho  Ho11  1  0.199427  0.243408  0.178952  1
  Ho  Ho12  1  0.930321  0.258750  0.313348  1
  Ho  Ho13  1  0.430321  0.741250  0.186652  1
  Ho  Ho14  1  0.069302  0.740623  0.687493  1
  Ho  Ho15  1  0.569302  0.259377  0.812507  1
  Er  Er16  1  0.705497  0.237051  0.539226  1
  Er  Er17  1  0.205497  0.762949  0.960774  1
  Er  Er18  1  0.840065  0.503725  0.657363  1
  Er  Er19  1  0.340065  0.496275  0.842637  1
  Er  Er20  1  0.159907  0.496798  0.341674  1
  Er  Er21  1  0.659907  0.503202  0.158326  1
  Er  Er22  1  0.003016  0.838558  0.355717  1
  Er  Er23  1  0.503016  0.161442  0.144283  1
  Co  Co24  1  0.680064  0.907629  0.024673  1
  Co  Co25  1  0.180064  0.092371  0.475327  1
  Co  Co26  1  0.319492  0.091998  0.975313  1
  Co  Co27  1  0.819492  0.908002  0.524687  1
  Co  Co28  1  0.400343  0.494446  0.099352  1
  Co  Co29  1  0.900343  0.505554  0.400648  1
  Co  Co30  1  0.600137  0.504720  0.900414  1
  Co  Co31  1  0.100137  0.495280  0.599586  1
  Co  Co32  1  0.813797  0.101629  0.839397  1
  Co  Co33  1  0.313797  0.898371  0.660603  1
  Co  Co34  1  0.185077  0.898205  0.159931  1
  Co  Co35  1  0.685077  0.101795  0.340069  1
  Ir  Ir36  1  0.500467  0.499779  0.498863  1
  Ir  Ir37  1  0.000467  0.500221  0.001137  1
