# generated using pymatgen
data_LiGd17(ZrIr6)2
_symmetry_space_group_name_H-M   'P 1'
_cell_length_a   10.86937000
_cell_length_b   10.86937000
_cell_length_c   6.29185300
_cell_angle_alpha   90.00000000
_cell_angle_beta   90.00000000
_cell_angle_gamma   90.00000000
_symmetry_Int_Tables_number   1
_chemical_formula_structural   LiGd17(ZrIr6)2
_chemical_formula_sum   'Li1 Gd17 Zr2 Ir12'
_cell_volume   743.33967376
_cell_formula_units_Z   1
loop_
 _symmetry_equiv_pos_site_id
 _symmetry_equiv_pos_as_xyz
  1  'x, y, z'
loop_
 _atom_site_type_symbol
 _atom_site_label
 _atom_site_symmetry_multiplicity
 _atom_site_fract_x
 _atom_site_fract_y
 _atom_site_fract_z
 _atom_site_occupancy
  Li  Li0  1  0.000000  0.000000  0.500000  1
  Gd  Gd1  1  0.279116  0.082365  0.377595  1
  Gd  Gd2  1  0.292713  0.910724  0.876495  1
  Gd  Gd3  1  0.707287  0.089276  0.876495  1
  Gd  Gd4  1  0.720884  0.917635  0.377595  1
  Gd  Gd5  1  0.589638  0.788212  0.875962  1
  Gd  Gd6  1  0.584105  0.211975  0.373992  1
  Gd  Gd7  1  0.415895  0.788025  0.373992  1
  Gd  Gd8  1  0.410362  0.211788  0.875962  1
  Gd  Gd9  1  0.211975  0.415895  0.626008  1
  Gd  Gd10  1  0.211788  0.589638  0.124038  1
  Gd  Gd11  1  0.788212  0.410362  0.124038  1
  Gd  Gd12  1  0.788025  0.584105  0.626008  1
  Gd  Gd13  1  0.910724  0.707287  0.123505  1
  Gd  Gd14  1  0.917635  0.279116  0.622405  1
  Gd  Gd15  1  0.082365  0.720884  0.622405  1
  Gd  Gd16  1  0.089276  0.292713  0.123505  1
  Gd  Gd17  1  0.000000  0.000000  0.000000  1
  Zr  Zr18  1  0.500000  0.500000  0.000000  1
  Zr  Zr19  1  0.500000  0.500000  0.500000  1
  Ir  Ir20  1  0.843742  0.156394  0.243271  1
  Ir  Ir21  1  0.843606  0.843742  0.756729  1
  Ir  Ir22  1  0.156394  0.156258  0.756729  1
  Ir  Ir23  1  0.156258  0.843606  0.243271  1
  Ir  Ir24  1  0.642343  0.356320  0.748652  1
  Ir  Ir25  1  0.643680  0.642343  0.251348  1
  Ir  Ir26  1  0.356320  0.357657  0.251348  1
  Ir  Ir27  1  0.357657  0.643680  0.748652  1
  Ir  Ir28  1  0.500000  0.000000  0.123870  1
  Ir  Ir29  1  0.500000  0.000000  0.615793  1
  Ir  Ir30  1  0.000000  0.500000  0.876130  1
  Ir  Ir31  1  0.000000  0.500000  0.384207  1
