# generated using pymatgen
data_CsErCd(H6Ir)2
_symmetry_space_group_name_H-M   'P 1'
_cell_length_a   4.93855700
_cell_length_b   4.93855691
_cell_length_c   9.62665900
_cell_angle_alpha   90.00000000
_cell_angle_beta   90.00000000
_cell_angle_gamma   119.99999393
_symmetry_Int_Tables_number   1
_chemical_formula_structural   CsErCd(H6Ir)2
_chemical_formula_sum   'Cs1 Er1 Cd1 H12 Ir2'
_cell_volume   203.33230301
_cell_formula_units_Z   1
loop_
 _symmetry_equiv_pos_site_id
 _symmetry_equiv_pos_as_xyz
  1  'x, y, z'
loop_
 _atom_site_type_symbol
 _atom_site_label
 _atom_site_symmetry_multiplicity
 _atom_site_fract_x
 _atom_site_fract_y
 _atom_site_fract_z
 _atom_site_occupancy
  Cs  Cs0  1  0.000000  0.000000  0.003472  1
  Er  Er1  1  0.333333  0.666667  0.613176  1
  Cd  Cd2  1  0.666667  0.333333  0.347796  1
  H  H3  1  0.169984  0.830016  0.404185  1
  H  H4  1  0.660030  0.830016  0.404185  1
  H  H5  1  0.169984  0.339970  0.404185  1
  H  H6  1  0.834748  0.165252  0.608380  1
  H  H7  1  0.330506  0.165252  0.608380  1
  H  H8  1  0.834748  0.669494  0.608380  1
  H  H9  1  0.509624  0.019248  0.803712  1
  H  H10  1  0.509624  0.490376  0.803712  1
  H  H11  1  0.980752  0.490376  0.803712  1
  H  H12  1  0.478790  0.957582  0.192755  1
  H  H13  1  0.478790  0.521210  0.192755  1
  H  H14  1  0.042418  0.521210  0.192755  1
  Ir  Ir15  1  0.666667  0.333333  0.699034  1
  Ir  Ir16  1  0.333333  0.666667  0.309427  1
