# generated using pymatgen
data_TbDy2HoCo4
_symmetry_space_group_name_H-M   'P 1'
_cell_length_a   3.96366400
_cell_length_b   3.86651200
_cell_length_c   10.31312200
_cell_angle_alpha   90.00000000
_cell_angle_beta   90.00000000
_cell_angle_gamma   90.00000000
_symmetry_Int_Tables_number   1
_chemical_formula_structural   TbDy2HoCo4
_chemical_formula_sum   'Tb1 Dy2 Ho1 Co4'
_cell_volume   158.05431245
_cell_formula_units_Z   1
loop_
 _symmetry_equiv_pos_site_id
 _symmetry_equiv_pos_as_xyz
  1  'x, y, z'
loop_
 _atom_site_type_symbol
 _atom_site_label
 _atom_site_symmetry_multiplicity
 _atom_site_fract_x
 _atom_site_fract_y
 _atom_site_fract_z
 _atom_site_occupancy
  Tb  Tb0  1  0.000000  0.500000  0.856385  1
  Dy  Dy1  1  0.000000  0.000000  0.145336  1
  Dy  Dy2  1  0.500000  0.000000  0.642607  1
  Ho  Ho3  1  0.500000  0.500000  0.356469  1
  Co  Co4  1  0.500000  0.500000  0.061350  1
  Co  Co5  1  0.000000  0.500000  0.558485  1
  Co  Co6  1  0.000000  0.000000  0.438900  1
  Co  Co7  1  0.500000  0.000000  0.940468  1
