# generated using pymatgen
data_Nd2Y6Si12Ir3Rh
_symmetry_space_group_name_H-M   'P 1'
_cell_length_a   8.20394900
_cell_length_b   8.20394940
_cell_length_c   8.07087300
_cell_angle_alpha   90.00000000
_cell_angle_beta   90.00000000
_cell_angle_gamma   119.99999434
_symmetry_Int_Tables_number   1
_chemical_formula_structural   Nd2Y6Si12Ir3Rh
_chemical_formula_sum   'Nd2 Y6 Si12 Ir3 Rh1'
_cell_volume   470.43225911
_cell_formula_units_Z   1
loop_
 _symmetry_equiv_pos_site_id
 _symmetry_equiv_pos_as_xyz
  1  'x, y, z'
loop_
 _atom_site_type_symbol
 _atom_site_label
 _atom_site_symmetry_multiplicity
 _atom_site_fract_x
 _atom_site_fract_y
 _atom_site_fract_z
 _atom_site_occupancy
  Nd  Nd0  1  0.000000  0.000000  0.249178  1
  Nd  Nd1  1  0.000000  0.000000  0.750247  1
  Y  Y2  1  0.509091  0.490909  0.250197  1
  Y  Y3  1  0.509091  0.018182  0.250197  1
  Y  Y4  1  0.981818  0.490909  0.250197  1
  Y  Y5  1  0.491405  0.508595  0.749853  1
  Y  Y6  1  0.491405  0.982811  0.749853  1
  Y  Y7  1  0.017189  0.508595  0.749853  1
  Si  Si8  1  0.168158  0.831842  0.500330  1
  Si  Si9  1  0.168158  0.336315  0.500330  1
  Si  Si10  1  0.663685  0.831842  0.500330  1
  Si  Si11  1  0.831918  0.168082  0.499268  1
  Si  Si12  1  0.831918  0.663836  0.499268  1
  Si  Si13  1  0.336164  0.168082  0.499268  1
  Si  Si14  1  0.832068  0.167932  0.000687  1
  Si  Si15  1  0.832068  0.664136  0.000687  1
  Si  Si16  1  0.335864  0.167932  0.000687  1
  Si  Si17  1  0.168522  0.831478  0.998865  1
  Si  Si18  1  0.168522  0.337043  0.998865  1
  Si  Si19  1  0.662957  0.831478  0.998865  1
  Ir  Ir20  1  0.333333  0.666667  0.468517  1
  Ir  Ir21  1  0.666667  0.333333  0.532712  1
  Ir  Ir22  1  0.666667  0.333333  0.966685  1
  Rh  Rh23  1  0.333333  0.666667  0.035060  1
