# generated using pymatgen
data_CeSm5Cu2(SiSe7)2
_symmetry_space_group_name_H-M   'P 1'
_cell_length_a   10.57489373
_cell_length_b   10.53738423
_cell_length_c   6.07134372
_cell_angle_alpha   90.05387908
_cell_angle_beta   89.95557999
_cell_angle_gamma   119.87161360
_symmetry_Int_Tables_number   1
_chemical_formula_structural   CeSm5Cu2(SiSe7)2
_chemical_formula_sum   'Ce1 Sm5 Cu2 Si2 Se14'
_cell_volume   586.65727200
_cell_formula_units_Z   1
loop_
 _symmetry_equiv_pos_site_id
 _symmetry_equiv_pos_as_xyz
  1  'x, y, z'
loop_
 _atom_site_type_symbol
 _atom_site_label
 _atom_site_symmetry_multiplicity
 _atom_site_fract_x
 _atom_site_fract_y
 _atom_site_fract_z
 _atom_site_occupancy
  Ce  Ce0  1  0.355817  0.226136  0.754474  1
  Sm  Sm1  1  0.128219  0.355170  0.254951  1
  Sm  Sm2  1  0.870091  0.644009  0.755090  1
  Sm  Sm3  1  0.645446  0.774730  0.255854  1
  Sm  Sm4  1  0.225200  0.869693  0.254048  1
  Sm  Sm5  1  0.773180  0.129060  0.754507  1
  Cu  Cu6  1  0.000257  0.000215  0.285779  1
  Cu  Cu7  1  0.998023  0.998832  0.786201  1
  Si  Si8  1  0.333376  0.667816  0.666392  1
  Si  Si9  1  0.668502  0.334075  0.167400  1
  Se  Se10  1  0.333417  0.666592  0.040799  1
  Se  Se11  1  0.671550  0.335253  0.541319  1
  Se  Se12  1  0.090884  0.255851  0.773638  1
  Se  Se13  1  0.906505  0.743106  0.277575  1
  Se  Se14  1  0.741040  0.835821  0.776143  1
  Se  Se15  1  0.160285  0.903331  0.777320  1
  Se  Se16  1  0.837044  0.094087  0.275776  1
  Se  Se17  1  0.256987  0.163179  0.271728  1
  Se  Se18  1  0.416965  0.522816  0.514123  1
  Se  Se19  1  0.584931  0.480281  0.018806  1
  Se  Se20  1  0.477400  0.896520  0.514932  1
  Se  Se21  1  0.104544  0.582505  0.515079  1
  Se  Se22  1  0.896036  0.417277  0.013811  1
  Se  Se23  1  0.524301  0.103643  0.020249  1
