# generated using pymatgen
data_Pu4NbMo3N8
_symmetry_space_group_name_H-M   'P 1'
_cell_length_a   3.25645900
_cell_length_b   5.64532114
_cell_length_c   10.79917926
_cell_angle_alpha   90.07347629
_cell_angle_beta   90.00000000
_cell_angle_gamma   90.00000000
_symmetry_Int_Tables_number   1
_chemical_formula_structural   Pu4NbMo3N8
_chemical_formula_sum   'Pu4 Nb1 Mo3 N8'
_cell_volume   198.52932227
_cell_formula_units_Z   1
loop_
 _symmetry_equiv_pos_site_id
 _symmetry_equiv_pos_as_xyz
  1  'x, y, z'
loop_
 _atom_site_type_symbol
 _atom_site_label
 _atom_site_symmetry_multiplicity
 _atom_site_fract_x
 _atom_site_fract_y
 _atom_site_fract_z
 _atom_site_occupancy
  Pu  Pu0  1  0.250000  0.575245  0.854910  1
  Pu  Pu1  1  0.750000  0.421472  0.143646  1
  Pu  Pu2  1  0.750000  0.925134  0.359106  1
  Pu  Pu3  1  0.250000  0.076499  0.644576  1
  Nb  Nb4  1  0.250000  0.924957  0.097576  1
  Mo  Mo5  1  0.750000  0.074393  0.900182  1
  Mo  Mo6  1  0.750000  0.573021  0.598805  1
  Mo  Mo7  1  0.250000  0.428213  0.401317  1
  N  N8  1  0.250000  0.658666  0.245618  1
  N  N9  1  0.750000  0.339793  0.754108  1
  N  N10  1  0.750000  0.838617  0.745238  1
  N  N11  1  0.250000  0.163351  0.257489  1
  N  N12  1  0.250000  0.756104  0.504607  1
  N  N13  1  0.750000  0.246344  0.495964  1
  N  N14  1  0.750000  0.739517  0.003826  1
  N  N15  1  0.250000  0.258675  0.993034  1
