# generated using pymatgen
data_Dy3Er3Al24Co5Ru3
_symmetry_space_group_name_H-M   'P 1'
_cell_length_a   8.69246500
_cell_length_b   8.69246567
_cell_length_c   9.38693300
_cell_angle_alpha   90.00000000
_cell_angle_beta   90.00000000
_cell_angle_gamma   120.00000124
_symmetry_Int_Tables_number   1
_chemical_formula_structural   Dy3Er3Al24Co5Ru3
_chemical_formula_sum   'Dy3 Er3 Al24 Co5 Ru3'
_cell_volume   614.24308968
_cell_formula_units_Z   1
loop_
 _symmetry_equiv_pos_site_id
 _symmetry_equiv_pos_as_xyz
  1  'x, y, z'
loop_
 _atom_site_type_symbol
 _atom_site_label
 _atom_site_symmetry_multiplicity
 _atom_site_fract_x
 _atom_site_fract_y
 _atom_site_fract_z
 _atom_site_occupancy
  Dy  Dy0  1  0.805770  0.194230  0.747812  1
  Dy  Dy1  1  0.805770  0.611539  0.747812  1
  Dy  Dy2  1  0.388461  0.194230  0.747812  1
  Er  Er3  1  0.195254  0.804746  0.251933  1
  Er  Er4  1  0.195254  0.390508  0.251933  1
  Er  Er5  1  0.609492  0.804746  0.251933  1
  Al  Al6  1  0.560005  0.439995  0.257124  1
  Al  Al7  1  0.560005  0.120010  0.257124  1
  Al  Al8  1  0.879990  0.439995  0.257124  1
  Al  Al9  1  0.439317  0.560683  0.743059  1
  Al  Al10  1  0.439317  0.878635  0.743059  1
  Al  Al11  1  0.121365  0.560683  0.743059  1
  Al  Al12  1  0.324170  0.162085  0.424154  1
  Al  Al13  1  0.837915  0.162085  0.424154  1
  Al  Al14  1  0.837915  0.675830  0.424154  1
  Al  Al15  1  0.674859  0.837430  0.573778  1
  Al  Al16  1  0.162570  0.837430  0.573778  1
  Al  Al17  1  0.162570  0.325141  0.573778  1
  Al  Al18  1  0.679442  0.839721  0.922434  1
  Al  Al19  1  0.160279  0.839721  0.922434  1
  Al  Al20  1  0.160279  0.320558  0.922434  1
  Al  Al21  1  0.319934  0.159967  0.079746  1
  Al  Al22  1  0.840033  0.159967  0.079746  1
  Al  Al23  1  0.840033  0.680066  0.079746  1
  Al  Al24  1  0.666667  0.333333  0.518547  1
  Al  Al25  1  0.333333  0.666667  0.479833  1
  Al  Al26  1  0.333333  0.666667  0.017455  1
  Al  Al27  1  0.666667  0.333333  0.983958  1
  Al  Al28  1  0.000000  0.000000  0.250225  1
  Al  Al29  1  0.000000  0.000000  0.750030  1
  Co  Co30  1  0.000000  0.000000  0.500236  1
  Co  Co31  1  0.000000  0.000000  0.000007  1
  Co  Co32  1  0.499473  0.500527  0.499091  1
  Co  Co33  1  0.499473  0.998946  0.499091  1
  Co  Co34  1  0.001054  0.500527  0.499091  1
  Ru  Ru35  1  0.499812  0.500188  0.000772  1
  Ru  Ru36  1  0.499812  0.999624  0.000772  1
  Ru  Ru37  1  0.000376  0.500188  0.000772  1
