# generated using pymatgen
data_Na12Li8Cr(SnAs4)3
_symmetry_space_group_name_H-M   'P 1'
_cell_length_a   9.77117329
_cell_length_b   9.77117209
_cell_length_c   14.21558600
_cell_angle_alpha   89.99930009
_cell_angle_beta   89.99930229
_cell_angle_gamma   143.73946068
_symmetry_Int_Tables_number   1
_chemical_formula_structural   Na12Li8Cr(SnAs4)3
_chemical_formula_sum   'Na12 Li8 Cr1 Sn3 As12'
_cell_volume   802.75319100
_cell_formula_units_Z   1
loop_
 _symmetry_equiv_pos_site_id
 _symmetry_equiv_pos_as_xyz
  1  'x, y, z'
loop_
 _atom_site_type_symbol
 _atom_site_label
 _atom_site_symmetry_multiplicity
 _atom_site_fract_x
 _atom_site_fract_y
 _atom_site_fract_z
 _atom_site_occupancy
  Na  Na0  1  0.592905  0.933798  0.821509  1
  Na  Na1  1  0.267830  0.268428  0.323271  1
  Na  Na2  1  0.235775  0.236009  0.819186  1
  Na  Na3  1  0.731572  0.732170  0.676729  1
  Na  Na4  1  0.439793  0.099830  0.671567  1
  Na  Na5  1  0.900170  0.560207  0.328433  1
  Na  Na6  1  0.066202  0.407095  0.178491  1
  Na  Na7  1  0.409326  0.067423  0.182719  1
  Na  Na8  1  0.568416  0.907941  0.324197  1
  Na  Na9  1  0.092059  0.431584  0.675803  1
  Na  Na10  1  0.932577  0.590674  0.817281  1
  Na  Na11  1  0.763991  0.764225  0.180814  1
  Li  Li12  1  0.083935  0.916065  0.000000  1
  Li  Li13  1  0.583293  0.416707  0.500000  1
  Li  Li14  1  0.916489  0.083511  0.000000  1
  Li  Li15  1  0.755285  0.244715  0.000000  1
  Li  Li16  1  0.745278  0.254722  0.500000  1
  Li  Li17  1  0.244264  0.755736  0.000000  1
  Li  Li18  1  0.252704  0.747296  0.500000  1
  Li  Li19  1  0.416585  0.583415  0.500000  1
  Cr  Cr20  1  0.087951  0.912049  0.500000  1
  Sn  Sn21  1  0.407573  0.592427  0.000000  1
  Sn  Sn22  1  0.911550  0.088450  0.500000  1
  Sn  Sn23  1  0.592947  0.407053  0.000000  1
  As  As24  1  0.081799  0.414885  0.386928  1
  As  As25  1  0.916564  0.582332  0.115598  1
  As  As26  1  0.417668  0.083436  0.884402  1
  As  As27  1  0.585115  0.918201  0.613072  1
  As  As28  1  0.936912  0.618144  0.601494  1
  As  As29  1  0.082652  0.417339  0.885755  1
  As  As30  1  0.582661  0.917348  0.114245  1
  As  As31  1  0.381856  0.063088  0.398506  1
  As  As32  1  0.234400  0.218717  0.600750  1
  As  As33  1  0.739313  0.738693  0.893290  1
  As  As34  1  0.261307  0.260687  0.106710  1
  As  As35  1  0.781283  0.765600  0.399250  1
