# generated using pymatgen
data_Li15Zn4Si6Pd
_symmetry_space_group_name_H-M   'P 1'
_cell_length_a   9.14883610
_cell_length_b   9.14885777
_cell_length_c   9.14887342
_cell_angle_alpha   47.60168812
_cell_angle_beta   47.60173144
_cell_angle_gamma   47.60175774
_symmetry_Int_Tables_number   1
_chemical_formula_structural   Li15Zn4Si6Pd
_chemical_formula_sum   'Li15 Zn4 Si6 Pd1'
_cell_volume   382.24818476
_cell_formula_units_Z   1
loop_
 _symmetry_equiv_pos_site_id
 _symmetry_equiv_pos_as_xyz
  1  'x, y, z'
loop_
 _atom_site_type_symbol
 _atom_site_label
 _atom_site_symmetry_multiplicity
 _atom_site_fract_x
 _atom_site_fract_y
 _atom_site_fract_z
 _atom_site_occupancy
  Li  Li0  1  0.294785  0.621594  0.955363  1
  Li  Li1  1  0.563126  0.563126  0.563129  1
  Li  Li2  1  0.223510  0.921536  0.535650  1
  Li  Li3  1  0.621578  0.955380  0.294807  1
  Li  Li4  1  0.059164  0.407682  0.725830  1
  Li  Li5  1  0.921548  0.535609  0.223528  1
  Li  Li6  1  0.809099  0.430204  0.111088  1
  Li  Li7  1  0.955377  0.294788  0.621582  1
  Li  Li8  1  0.535598  0.223531  0.921568  1
  Li  Li9  1  0.430206  0.111111  0.809082  1
  Li  Li10  1  0.725874  0.059162  0.407652  1
  Li  Li11  1  0.111121  0.809069  0.430215  1
  Li  Li12  1  0.460598  0.460571  0.460571  1
  Li  Li13  1  0.919791  0.919836  0.919859  1
  Li  Li14  1  0.407677  0.725846  0.059159  1
  Zn  Zn15  1  0.680063  0.680080  0.680066  1
  Zn  Zn16  1  0.340939  0.340941  0.340929  1
  Zn  Zn17  1  0.817157  0.817156  0.817160  1
  Zn  Zn18  1  0.169590  0.169584  0.169604  1
  Si  Si19  1  0.176804  0.518471  0.833224  1
  Si  Si20  1  0.678350  0.335123  0.006990  1
  Si  Si21  1  0.833226  0.176799  0.518487  1
  Si  Si22  1  0.335124  0.007006  0.678343  1
  Si  Si23  1  0.007004  0.678351  0.335115  1
  Si  Si24  1  0.518479  0.833223  0.176808  1
  Pd  Pd25  1  0.020952  0.020964  0.020937  1
