# generated using pymatgen
data_Dy11TmInCo4Os
_symmetry_space_group_name_H-M   'P 1'
_cell_length_a   8.27239997
_cell_length_b   8.27671599
_cell_length_c   8.27671514
_cell_angle_alpha   111.49755975
_cell_angle_beta   110.53906951
_cell_angle_gamma   106.44070407
_symmetry_Int_Tables_number   1
_chemical_formula_structural   Dy11TmInCo4Os
_chemical_formula_sum   'Dy11 Tm1 In1 Co4 Os1'
_cell_volume   435.18660844
_cell_formula_units_Z   1
loop_
 _symmetry_equiv_pos_site_id
 _symmetry_equiv_pos_as_xyz
  1  'x, y, z'
loop_
 _atom_site_type_symbol
 _atom_site_label
 _atom_site_symmetry_multiplicity
 _atom_site_fract_x
 _atom_site_fract_y
 _atom_site_fract_z
 _atom_site_occupancy
  Dy  Dy0  1  0.586046  0.779506  0.806539  1
  Dy  Dy1  1  0.027337  0.220233  0.807103  1
  Dy  Dy2  1  0.973450  0.779975  0.193476  1
  Dy  Dy3  1  0.181839  0.281018  0.462404  1
  Dy  Dy4  1  0.817971  0.718306  0.536703  1
  Dy  Dy5  1  0.181839  0.719434  0.900821  1
  Dy  Dy6  1  0.817971  0.281269  0.099665  1
  Dy  Dy7  1  0.315398  0.620528  0.305895  1
  Dy  Dy8  1  0.684486  0.378833  0.693365  1
  Dy  Dy9  1  0.315398  0.009502  0.694870  1
  Dy  Dy10  1  0.684486  0.991122  0.305653  1
  Tm  Tm11  1  0.413161  0.219744  0.193418  1
  In  In12  1  0.500057  0.499736  0.000321  1
  Co  Co13  1  0.375996  0.000329  0.375667  1
  Co  Co14  1  0.624087  0.000095  0.623992  1
  Co  Co15  1  0.111187  0.611372  0.499815  1
  Co  Co16  1  0.887849  0.388264  0.499584  1
  Os  Os17  1  0.001441  0.000732  0.000709  1
