# generated using pymatgen
data_Rb2LiVTe4
_symmetry_space_group_name_H-M   'P 1'
_cell_length_a   14.94918369
_cell_length_b   13.43947307
_cell_length_c   8.01287216
_cell_angle_alpha   84.31170432
_cell_angle_beta   63.45499386
_cell_angle_gamma   32.23329410
_symmetry_Int_Tables_number   1
_chemical_formula_structural   Rb2LiVTe4
_chemical_formula_sum   'Rb4 Li2 V2 Te8'
_cell_volume   623.23439675
_cell_formula_units_Z   2
loop_
 _symmetry_equiv_pos_site_id
 _symmetry_equiv_pos_as_xyz
  1  'x, y, z'
loop_
 _atom_site_type_symbol
 _atom_site_label
 _atom_site_symmetry_multiplicity
 _atom_site_fract_x
 _atom_site_fract_y
 _atom_site_fract_z
 _atom_site_occupancy
  Rb  Rb0  1  0.679329  0.679329  0.320671  1
  Rb  Rb1  1  0.929329  0.929329  0.570671  1
  Rb  Rb2  1  0.570671  0.570671  0.929329  1
  Rb  Rb3  1  0.320671  0.320671  0.679329  1
  Li  Li4  1  0.000000  0.000000  0.000000  1
  Li  Li5  1  0.250000  0.250000  0.250000  1
  V  V6  1  0.500000  0.500000  0.500000  1
  V  V7  1  0.750000  0.750000  0.750000  1
  Te  Te8  1  0.927701  0.683932  0.372892  1
  Te  Te9  1  0.322299  0.566068  0.877108  1
  Te  Te10  1  0.683932  0.927701  0.015474  1
  Te  Te11  1  0.877108  0.234526  0.322299  1
  Te  Te12  1  0.566068  0.322299  0.234526  1
  Te  Te13  1  0.234526  0.877108  0.566068  1
  Te  Te14  1  0.372892  0.015474  0.927701  1
  Te  Te15  1  0.015474  0.372892  0.683932  1
