# generated using pymatgen
data_TaTi2Al2CoN
_symmetry_space_group_name_H-M   'P 1'
_cell_length_a   8.06822400
_cell_length_b   8.07883056
_cell_length_c   8.06822453
_cell_angle_alpha   59.96475821
_cell_angle_beta   60.06084509
_cell_angle_gamma   59.96475348
_symmetry_Int_Tables_number   1
_chemical_formula_structural   TaTi2Al2CoN
_chemical_formula_sum   'Ta4 Ti8 Al8 Co4 N4'
_cell_volume   371.84072826
_cell_formula_units_Z   4
loop_
 _symmetry_equiv_pos_site_id
 _symmetry_equiv_pos_as_xyz
  1  'x, y, z'
loop_
 _atom_site_type_symbol
 _atom_site_label
 _atom_site_symmetry_multiplicity
 _atom_site_fract_x
 _atom_site_fract_y
 _atom_site_fract_z
 _atom_site_occupancy
  Ta  Ta0  1  0.560876  0.938946  0.941144  1
  Ta  Ta1  1  0.941144  0.938946  0.560876  1
  Ta  Ta2  1  0.689581  0.312598  0.689581  1
  Ta  Ta3  1  0.939564  0.561795  0.939564  1
  Ti  Ti4  1  0.561193  0.936980  0.561193  1
  Ti  Ti5  1  0.312588  0.688122  0.689398  1
  Ti  Ti6  1  0.688344  0.312416  0.310789  1
  Ti  Ti7  1  0.311568  0.687488  0.311568  1
  Ti  Ti8  1  0.689398  0.688122  0.312588  1
  Ti  Ti9  1  0.310789  0.312416  0.688344  1
  Ti  Ti10  1  0.560494  0.561339  0.938639  1
  Ti  Ti11  1  0.938639  0.561339  0.560494  1
  Al  Al12  1  0.919204  0.917725  0.919204  1
  Al  Al13  1  0.002747  0.334089  0.330938  1
  Al  Al14  1  0.333584  0.001133  0.333584  1
  Al  Al15  1  0.330938  0.334089  0.002747  1
  Al  Al16  1  0.916898  0.247967  0.916898  1
  Al  Al17  1  0.916777  0.916536  0.247260  1
  Al  Al18  1  0.247260  0.916536  0.916777  1
  Al  Al19  1  0.332538  0.332406  0.332538  1
  Co  Co20  1  0.124998  0.124370  0.124998  1
  Co  Co21  1  0.624545  0.125119  0.123611  1
  Co  Co22  1  0.124674  0.624800  0.124674  1
  Co  Co23  1  0.123611  0.125119  0.624545  1
  N  N24  1  0.625012  0.628783  0.625012  1
  N  N25  1  0.129948  0.621971  0.621652  1
  N  N26  1  0.621435  0.126882  0.621435  1
  N  N27  1  0.621652  0.621971  0.129948  1
