# generated using pymatgen
data_Ti6Nb2Al15Ir7
_symmetry_space_group_name_H-M   'P 1'
_cell_length_a   8.66699467
_cell_length_b   8.66779438
_cell_length_c   8.66699419
_cell_angle_alpha   120.01581422
_cell_angle_beta   119.98923011
_cell_angle_gamma   89.99298929
_symmetry_Int_Tables_number   1
_chemical_formula_structural   Ti6Nb2Al15Ir7
_chemical_formula_sum   'Ti6 Nb2 Al15 Ir7'
_cell_volume   460.38807711
_cell_formula_units_Z   1
loop_
 _symmetry_equiv_pos_site_id
 _symmetry_equiv_pos_as_xyz
  1  'x, y, z'
loop_
 _atom_site_type_symbol
 _atom_site_label
 _atom_site_symmetry_multiplicity
 _atom_site_fract_x
 _atom_site_fract_y
 _atom_site_fract_z
 _atom_site_occupancy
  Ti  Ti0  1  0.208286  0.708104  0.499818  1
  Ti  Ti1  1  0.216758  0.717730  0.926428  1
  Ti  Ti2  1  0.791302  0.717730  0.500971  1
  Ti  Ti3  1  0.783800  0.281243  0.497443  1
  Ti  Ti4  1  0.379334  0.124399  0.745065  1
  Ti  Ti5  1  0.379572  0.636063  0.256490  1
  Nb  Nb6  1  0.793874  0.293184  0.081024  1
  Nb  Nb7  1  0.212160  0.293184  0.499310  1
  Al  Al8  1  0.996554  0.504276  0.507722  1
  Al  Al9  1  0.156284  0.340567  0.184281  1
  Al  Al10  1  0.154982  0.965773  0.810791  1
  Al  Al11  1  0.151249  0.344428  0.806496  1
  Al  Al12  1  0.537931  0.344428  0.193179  1
  Al  Al13  1  0.845248  0.652263  0.807016  1
  Al  Al14  1  0.842981  0.029742  0.186760  1
  Al  Al15  1  0.840952  0.656416  0.184221  1
  Al  Al16  1  0.472195  0.656416  0.815464  1
  Al  Al17  1  0.379076  0.121456  0.257490  1
  Al  Al18  1  0.863967  0.121456  0.742379  1
  Al  Al19  1  0.621380  0.878640  0.257260  1
  Al  Al20  1  0.621507  0.364392  0.742885  1
  Al  Al21  1  0.621387  0.878182  0.743091  1
  Al  Al22  1  0.135090  0.878182  0.256795  1
  Ir  Ir23  1  0.999986  0.997978  0.500762  1
  Ir  Ir24  1  0.497216  0.997978  0.997993  1
  Ir  Ir25  1  0.497083  0.499242  0.002159  1
  Ir  Ir26  1  0.498704  0.499910  0.497823  1
  Ir  Ir27  1  0.002087  0.499910  0.001207  1
  Ir  Ir28  1  0.999603  0.996916  0.997312  1
  Ir  Ir29  1  0.499446  0.999813  0.500367  1
