# generated using pymatgen
data_YSi4(PtRh)3
_symmetry_space_group_name_H-M   'P 1'
_cell_length_a   7.10879400
_cell_length_b   7.10879333
_cell_length_c   3.82342600
_cell_angle_alpha   90.00000000
_cell_angle_beta   90.00000000
_cell_angle_gamma   119.99999380
_symmetry_Int_Tables_number   1
_chemical_formula_structural   YSi4(PtRh)3
_chemical_formula_sum   'Y1 Si4 Pt3 Rh3'
_cell_volume   167.33052197
_cell_formula_units_Z   1
loop_
 _symmetry_equiv_pos_site_id
 _symmetry_equiv_pos_as_xyz
  1  'x, y, z'
loop_
 _atom_site_type_symbol
 _atom_site_label
 _atom_site_symmetry_multiplicity
 _atom_site_fract_x
 _atom_site_fract_y
 _atom_site_fract_z
 _atom_site_occupancy
  Y  Y0  1  0.000000  0.000000  0.000000  1
  Si  Si1  1  0.333333  0.666667  0.000000  1
  Si  Si2  1  0.799336  0.200664  0.500000  1
  Si  Si3  1  0.799336  0.598672  0.500000  1
  Si  Si4  1  0.401328  0.200664  0.500000  1
  Pt  Pt5  1  0.193795  0.806205  0.500000  1
  Pt  Pt6  1  0.193795  0.387591  0.500000  1
  Pt  Pt7  1  0.612409  0.806205  0.500000  1
  Rh  Rh8  1  0.533445  0.466555  0.000000  1
  Rh  Rh9  1  0.533445  0.066889  0.000000  1
  Rh  Rh10  1  0.933111  0.466555  0.000000  1
