# generated using pymatgen
data_PuCoB4
_symmetry_space_group_name_H-M   'P 1'
_cell_length_a   3.34039100
_cell_length_b   5.91510100
_cell_length_c   11.46838700
_cell_angle_alpha   90.00000000
_cell_angle_beta   90.00000000
_cell_angle_gamma   90.00000000
_symmetry_Int_Tables_number   1
_chemical_formula_structural   PuCoB4
_chemical_formula_sum   'Pu4 Co4 B16'
_cell_volume   226.60099329
_cell_formula_units_Z   4
loop_
 _symmetry_equiv_pos_site_id
 _symmetry_equiv_pos_as_xyz
  1  'x, y, z'
loop_
 _atom_site_type_symbol
 _atom_site_label
 _atom_site_symmetry_multiplicity
 _atom_site_fract_x
 _atom_site_fract_y
 _atom_site_fract_z
 _atom_site_occupancy
  Pu  Pu0  1  0.000000  0.626142  0.349680  1
  Pu  Pu1  1  0.000000  0.373858  0.650320  1
  Pu  Pu2  1  0.000000  0.126142  0.150320  1
  Pu  Pu3  1  0.000000  0.873858  0.849680  1
  Co  Co4  1  0.000000  0.633376  0.088144  1
  Co  Co5  1  0.000000  0.366624  0.911856  1
  Co  Co6  1  0.000000  0.133376  0.411856  1
  Co  Co7  1  0.000000  0.866624  0.588144  1
  B  B8  1  0.500000  0.781202  0.184799  1
  B  B9  1  0.500000  0.218798  0.815201  1
  B  B10  1  0.500000  0.281202  0.315201  1
  B  B11  1  0.500000  0.718798  0.684799  1
  B  B12  1  0.500000  0.861804  0.033757  1
  B  B13  1  0.500000  0.138196  0.966243  1
  B  B14  1  0.500000  0.361804  0.466243  1
  B  B15  1  0.500000  0.638196  0.533757  1
  B  B16  1  0.500000  0.887362  0.453870  1
  B  B17  1  0.500000  0.112638  0.546130  1
  B  B18  1  0.500000  0.387362  0.046130  1
  B  B19  1  0.500000  0.612638  0.953870  1
  B  B20  1  0.500000  0.976590  0.309707  1
  B  B21  1  0.500000  0.023410  0.690293  1
  B  B22  1  0.500000  0.476590  0.190293  1
  B  B23  1  0.500000  0.523410  0.809707  1
