# generated using pymatgen
data_Lu3Sc3(Zn3C)2
_symmetry_space_group_name_H-M   'P 1'
_cell_length_a   8.81624960
_cell_length_b   8.81624915
_cell_length_c   8.81625000
_cell_angle_alpha   59.99999682
_cell_angle_beta   59.99999849
_cell_angle_gamma   59.99999733
_symmetry_Int_Tables_number   1
_chemical_formula_structural   Lu3Sc3(Zn3C)2
_chemical_formula_sum   'Lu6 Sc6 Zn12 C4'
_cell_volume   484.54777871
_cell_formula_units_Z   2
loop_
 _symmetry_equiv_pos_site_id
 _symmetry_equiv_pos_as_xyz
  1  'x, y, z'
loop_
 _atom_site_type_symbol
 _atom_site_label
 _atom_site_symmetry_multiplicity
 _atom_site_fract_x
 _atom_site_fract_y
 _atom_site_fract_z
 _atom_site_occupancy
  Lu  Lu0  1  0.802751  0.802751  0.197249  1
  Lu  Lu1  1  0.197249  0.802751  0.197249  1
  Lu  Lu2  1  0.802751  0.197249  0.197249  1
  Lu  Lu3  1  0.197249  0.197249  0.802751  1
  Lu  Lu4  1  0.802751  0.197249  0.802751  1
  Lu  Lu5  1  0.197249  0.802751  0.802751  1
  Sc  Sc6  1  0.442189  0.442189  0.057811  1
  Sc  Sc7  1  0.057811  0.442189  0.057811  1
  Sc  Sc8  1  0.442189  0.057811  0.057811  1
  Sc  Sc9  1  0.057811  0.057811  0.442189  1
  Sc  Sc10  1  0.442189  0.057811  0.442189  1
  Sc  Sc11  1  0.057811  0.442189  0.442189  1
  Zn  Zn12  1  0.828165  0.828165  0.515507  1
  Zn  Zn13  1  0.828165  0.515507  0.828165  1
  Zn  Zn14  1  0.515507  0.828165  0.828165  1
  Zn  Zn15  1  0.828165  0.828165  0.828165  1
  Zn  Zn16  1  0.420893  0.420893  0.737320  1
  Zn  Zn17  1  0.420893  0.737320  0.420893  1
  Zn  Zn18  1  0.737320  0.420893  0.420893  1
  Zn  Zn19  1  0.420893  0.420893  0.420893  1
  Zn  Zn20  1  0.624916  0.624916  0.125253  1
  Zn  Zn21  1  0.624916  0.125253  0.624916  1
  Zn  Zn22  1  0.125253  0.624916  0.624916  1
  Zn  Zn23  1  0.624916  0.624916  0.624916  1
  C  C24  1  0.131288  0.131288  0.606136  1
  C  C25  1  0.131288  0.606136  0.131288  1
  C  C26  1  0.606136  0.131288  0.131288  1
  C  C27  1  0.131288  0.131288  0.131288  1
