# generated using pymatgen
data_Lu20Si12P
_symmetry_space_group_name_H-M   'P 1'
_cell_length_a   6.16467814
_cell_length_b   8.29136521
_cell_length_c   14.42080300
_cell_angle_alpha   90.00000691
_cell_angle_beta   90.00000000
_cell_angle_gamma   89.94229351
_symmetry_Int_Tables_number   1
_chemical_formula_structural   Lu20Si12P
_chemical_formula_sum   'Lu20 Si12 P1'
_cell_volume   737.09875173
_cell_formula_units_Z   1
loop_
 _symmetry_equiv_pos_site_id
 _symmetry_equiv_pos_as_xyz
  1  'x, y, z'
loop_
 _atom_site_type_symbol
 _atom_site_label
 _atom_site_symmetry_multiplicity
 _atom_site_fract_x
 _atom_site_fract_y
 _atom_site_fract_z
 _atom_site_occupancy
  Lu  Lu0  1  0.500001  0.999998  0.335420  1
  Lu  Lu1  1  0.500003  0.500003  0.829629  1
  Lu  Lu2  1  0.500003  0.500003  0.170371  1
  Lu  Lu3  1  0.500001  0.999998  0.664580  1
  Lu  Lu4  1  0.999997  0.499999  0.165839  1
  Lu  Lu5  1  0.000001  0.000000  0.666402  1
  Lu  Lu6  1  0.000001  0.000000  0.333598  1
  Lu  Lu7  1  0.999997  0.499999  0.834161  1
  Lu  Lu8  1  0.749136  0.253957  0.000000  1
  Lu  Lu9  1  0.749042  0.743257  0.500000  1
  Lu  Lu10  1  0.751793  0.378553  0.380085  1
  Lu  Lu11  1  0.749796  0.872340  0.872174  1
  Lu  Lu12  1  0.749796  0.872340  0.127826  1
  Lu  Lu13  1  0.751793  0.378553  0.619915  1
  Lu  Lu14  1  0.250858  0.746040  0.000000  1
  Lu  Lu15  1  0.250952  0.256746  0.500000  1
  Lu  Lu16  1  0.250209  0.127660  0.127827  1
  Lu  Lu17  1  0.248208  0.621449  0.619914  1
  Lu  Lu18  1  0.248208  0.621449  0.380086  1
  Lu  Lu19  1  0.250209  0.127660  0.872173  1
  Si  Si20  1  0.744442  0.606600  0.000000  1
  Si  Si21  1  0.751784  0.106367  0.500000  1
  Si  Si22  1  0.749033  0.197423  0.198998  1
  Si  Si23  1  0.753172  0.694843  0.694933  1
  Si  Si24  1  0.753172  0.694843  0.305067  1
  Si  Si25  1  0.749033  0.197423  0.801002  1
  Si  Si26  1  0.255555  0.393399  0.000000  1
  Si  Si27  1  0.248216  0.893633  0.500000  1
  Si  Si28  1  0.246830  0.305157  0.305068  1
  Si  Si29  1  0.250965  0.802577  0.801002  1
  Si  Si30  1  0.250965  0.802577  0.198998  1
  Si  Si31  1  0.246830  0.305157  0.694932  1
  P  P32  1  0.499998  0.000003  0.000000  1
