# generated using pymatgen
data_ThFe2(CoB2)2
_symmetry_space_group_name_H-M   'P 1'
_cell_length_a   7.08076500
_cell_length_b   7.08076500
_cell_length_c   3.81273400
_cell_angle_alpha   90.00000000
_cell_angle_beta   90.00000000
_cell_angle_gamma   90.00000000
_symmetry_Int_Tables_number   1
_chemical_formula_structural   ThFe2(CoB2)2
_chemical_formula_sum   'Th2 Fe4 Co4 B8'
_cell_volume   191.15993287
_cell_formula_units_Z   2
loop_
 _symmetry_equiv_pos_site_id
 _symmetry_equiv_pos_as_xyz
  1  'x, y, z'
loop_
 _atom_site_type_symbol
 _atom_site_label
 _atom_site_symmetry_multiplicity
 _atom_site_fract_x
 _atom_site_fract_y
 _atom_site_fract_z
 _atom_site_occupancy
  Th  Th0  1  0.000000  0.000000  0.002442  1
  Th  Th1  1  0.500000  0.500000  0.502442  1
  Fe  Fe2  1  0.635908  0.113552  0.396562  1
  Fe  Fe3  1  0.364092  0.886448  0.396562  1
  Fe  Fe4  1  0.613552  0.864092  0.896562  1
  Fe  Fe5  1  0.386448  0.135908  0.896562  1
  Co  Co6  1  0.857110  0.385447  0.105198  1
  Co  Co7  1  0.142890  0.614553  0.105198  1
  Co  Co8  1  0.885447  0.642890  0.605198  1
  Co  Co9  1  0.114553  0.357110  0.605198  1
  B  B10  1  0.337626  0.797267  0.895263  1
  B  B11  1  0.662374  0.202733  0.895263  1
  B  B12  1  0.297267  0.162374  0.395263  1
  B  B13  1  0.702733  0.837626  0.395263  1
  B  B14  1  0.162323  0.707041  0.601755  1
  B  B15  1  0.837677  0.292959  0.601755  1
  B  B16  1  0.207041  0.337677  0.101755  1
  B  B17  1  0.792959  0.662323  0.101755  1
