# generated using pymatgen
data_Eu3YH10
_symmetry_space_group_name_H-M   'P 1'
_cell_length_a   6.59701301
_cell_length_b   6.59701240
_cell_length_c   6.59701304
_cell_angle_alpha   130.83902640
_cell_angle_beta   131.28555309
_cell_angle_gamma   71.71473676
_symmetry_Int_Tables_number   1
_chemical_formula_structural   Eu3YH10
_chemical_formula_sum   'Eu3 Y1 H10'
_cell_volume   159.68002015
_cell_formula_units_Z   1
loop_
 _symmetry_equiv_pos_site_id
 _symmetry_equiv_pos_as_xyz
  1  'x, y, z'
loop_
 _atom_site_type_symbol
 _atom_site_label
 _atom_site_symmetry_multiplicity
 _atom_site_fract_x
 _atom_site_fract_y
 _atom_site_fract_z
 _atom_site_occupancy
  Eu  Eu0  1  0.487095  0.987095  0.500000  1
  Eu  Eu1  1  0.736329  0.736329  0.000000  1
  Eu  Eu2  1  0.015006  0.515006  0.500000  1
  Y  Y3  1  0.266284  0.266284  0.000000  1
  H  H4  1  0.369922  0.342542  0.453769  1
  H  H5  1  0.888774  0.916153  0.546231  1
  H  H6  1  0.642878  0.130868  0.032898  1
  H  H7  1  0.097970  0.609980  0.967102  1
  H  H8  1  0.369922  0.916153  0.027379  1
  H  H9  1  0.888774  0.342542  0.972621  1
  H  H10  1  0.642878  0.609980  0.512010  1
  H  H11  1  0.097970  0.130868  0.487990  1
  H  H12  1  0.251907  0.751907  0.500000  1
  H  H13  1  0.494289  0.494289  0.000000  1
