# generated using pymatgen
data_YbEr3Mn3FeB16
_symmetry_space_group_name_H-M   'P 1'
_cell_length_a   3.36891000
_cell_length_b   5.89027707
_cell_length_c   11.39519041
_cell_angle_alpha   90.02856625
_cell_angle_beta   90.00000000
_cell_angle_gamma   90.00000000
_symmetry_Int_Tables_number   1
_chemical_formula_structural   YbEr3Mn3FeB16
_chemical_formula_sum   'Yb1 Er3 Mn3 Fe1 B16'
_cell_volume   226.12400303
_cell_formula_units_Z   1
loop_
 _symmetry_equiv_pos_site_id
 _symmetry_equiv_pos_as_xyz
  1  'x, y, z'
loop_
 _atom_site_type_symbol
 _atom_site_label
 _atom_site_symmetry_multiplicity
 _atom_site_fract_x
 _atom_site_fract_y
 _atom_site_fract_z
 _atom_site_occupancy
  Yb  Yb0  1  0.000000  0.626774  0.349743  1
  Er  Er1  1  0.000000  0.374490  0.650591  1
  Er  Er2  1  0.000000  0.126807  0.150269  1
  Er  Er3  1  0.000000  0.873856  0.849406  1
  Mn  Mn4  1  0.000000  0.627967  0.082778  1
  Mn  Mn5  1  0.000000  0.372119  0.915315  1
  Mn  Mn6  1  0.000000  0.129833  0.415917  1
  Fe  Fe7  1  0.000000  0.871503  0.586411  1
  B  B8  1  0.500000  0.780941  0.183628  1
  B  B9  1  0.500000  0.218169  0.815644  1
  B  B10  1  0.500000  0.282350  0.315748  1
  B  B11  1  0.500000  0.718989  0.683225  1
  B  B12  1  0.500000  0.862562  0.031439  1
  B  B13  1  0.500000  0.137695  0.967613  1
  B  B14  1  0.500000  0.362839  0.468820  1
  B  B15  1  0.500000  0.638634  0.532824  1
  B  B16  1  0.500000  0.885096  0.454538  1
  B  B17  1  0.500000  0.110873  0.547829  1
  B  B18  1  0.500000  0.387202  0.046043  1
  B  B19  1  0.500000  0.612302  0.952774  1
  B  B20  1  0.500000  0.974864  0.309007  1
  B  B21  1  0.500000  0.024016  0.691416  1
  B  B22  1  0.500000  0.475198  0.190755  1
  B  B23  1  0.500000  0.524921  0.808265  1
