# generated using pymatgen
data_Tb12CoTcNi3Pb
_symmetry_space_group_name_H-M   'P 1'
_cell_length_a   8.36657115
_cell_length_b   8.36631284
_cell_length_c   8.36657056
_cell_angle_alpha   111.37244222
_cell_angle_beta   109.49293372
_cell_angle_gamma   107.57182791
_symmetry_Int_Tables_number   1
_chemical_formula_structural   Tb12CoTcNi3Pb
_chemical_formula_sum   'Tb12 Co1 Tc1 Ni3 Pb1'
_cell_volume   450.32138227
_cell_formula_units_Z   1
loop_
 _symmetry_equiv_pos_site_id
 _symmetry_equiv_pos_as_xyz
  1  'x, y, z'
loop_
 _atom_site_type_symbol
 _atom_site_label
 _atom_site_symmetry_multiplicity
 _atom_site_fract_x
 _atom_site_fract_y
 _atom_site_fract_z
 _atom_site_occupancy
  Tb  Tb0  1  0.817801  0.711400  0.532200  1
  Tb  Tb1  1  0.179201  0.285598  0.467794  1
  Tb  Tb2  1  0.179199  0.711400  0.893599  1
  Tb  Tb3  1  0.817803  0.285598  0.106396  1
  Tb  Tb4  1  0.685256  0.376883  0.691626  1
  Tb  Tb5  1  0.318985  0.625307  0.306322  1
  Tb  Tb6  1  0.685249  0.993638  0.308389  1
  Tb  Tb7  1  0.318992  0.012659  0.693667  1
  Tb  Tb8  1  0.591841  0.783225  0.808593  1
  Tb  Tb9  1  0.407461  0.215798  0.191676  1
  Tb  Tb10  1  0.974631  0.783225  0.191383  1
  Tb  Tb11  1  0.024123  0.215798  0.808339  1
  Co  Co12  1  0.885351  0.385356  0.500005  1
  Tc  Tc13  1  0.998427  0.998427  0.000000  1
  Ni  Ni14  1  0.634665  0.999319  0.635359  1
  Ni  Ni15  1  0.363960  0.999319  0.364653  1
  Ni  Ni16  1  0.117587  0.617573  0.499986  1
  Pb  Pb17  1  0.499467  0.499479  0.000012  1
