# generated using pymatgen
data_U4GaRe7P5
_symmetry_space_group_name_H-M   'P 1'
_cell_length_a   7.10403064
_cell_length_b   7.10124204
_cell_length_c   7.10288446
_cell_angle_alpha   109.65062228
_cell_angle_beta   109.11283391
_cell_angle_gamma   109.65611035
_symmetry_Int_Tables_number   1
_chemical_formula_structural   U4GaRe7P5
_chemical_formula_sum   'U4 Ga1 Re7 P5'
_cell_volume   275.81043911
_cell_formula_units_Z   1
loop_
 _symmetry_equiv_pos_site_id
 _symmetry_equiv_pos_as_xyz
  1  'x, y, z'
loop_
 _atom_site_type_symbol
 _atom_site_label
 _atom_site_symmetry_multiplicity
 _atom_site_fract_x
 _atom_site_fract_y
 _atom_site_fract_z
 _atom_site_occupancy
  U  U0  1  0.999532  0.000008  0.511385  1
  U  U1  1  0.511377  0.000006  0.999522  1
  U  U2  1  0.999634  0.488292  0.999632  1
  U  U3  1  0.511318  0.511751  0.511324  1
  Ga  Ga4  1  0.298069  0.000094  0.298117  1
  Re  Re5  1  0.752825  0.499966  0.252845  1
  Re  Re6  1  0.501928  0.747333  0.249306  1
  Re  Re7  1  0.501988  0.252659  0.754609  1
  Re  Re8  1  0.754558  0.252665  0.501937  1
  Re  Re9  1  0.249370  0.747351  0.501986  1
  Re  Re10  1  0.252887  0.500046  0.752870  1
  Re  Re11  1  0.978533  0.999991  0.978537  1
  P  P12  1  0.003067  0.309497  0.312547  1
  P  P13  1  0.002971  0.690470  0.693473  1
  P  P14  1  0.312534  0.309481  0.003032  1
  P  P15  1  0.693480  0.690453  0.002965  1
  P  P16  1  0.675928  0.999939  0.675913  1
