# generated using pymatgen
data_PaO4F5
_symmetry_space_group_name_H-M   'P 1'
_cell_length_a   4.59369811
_cell_length_b   6.49926152
_cell_length_c   8.95428804
_cell_angle_alpha   101.48104996
_cell_angle_beta   94.39522722
_cell_angle_gamma   70.29215135
_symmetry_Int_Tables_number   1
_chemical_formula_structural   PaO4F5
_chemical_formula_sum   'Pa1 O4 F5'
_cell_volume   246.62765278
_cell_formula_units_Z   1
loop_
 _symmetry_equiv_pos_site_id
 _symmetry_equiv_pos_as_xyz
  1  'x, y, z'
loop_
 _atom_site_type_symbol
 _atom_site_label
 _atom_site_symmetry_multiplicity
 _atom_site_fract_x
 _atom_site_fract_y
 _atom_site_fract_z
 _atom_site_occupancy
  Pa  Pa0  1  0.023585  0.524350  0.916663  1
  O  O1  1  0.803808  0.977393  0.574555  1
  O  O2  1  0.691231  0.231923  0.267785  1
  O  O3  1  0.940576  0.804354  0.487213  1
  O  O4  1  0.541733  0.319148  0.385825  1
  F  F5  1  0.001908  0.644516  0.146603  1
  F  F6  1  0.864613  0.843069  0.876627  1
  F  F7  1  0.046515  0.406726  0.686462  1
  F  F8  1  0.522920  0.525322  0.914922  1
  F  F9  1  0.180887  0.207202  0.960322  1
