# generated using pymatgen
data_Tb9HoAlBi5
_symmetry_space_group_name_H-M   'P 1'
_cell_length_a   9.13387934
_cell_length_b   9.13437528
_cell_length_c   6.43555221
_cell_angle_alpha   89.99722714
_cell_angle_beta   90.02689082
_cell_angle_gamma   119.80021397
_symmetry_Int_Tables_number   1
_chemical_formula_structural   Tb9HoAlBi5
_chemical_formula_sum   'Tb9 Ho1 Al1 Bi5'
_cell_volume   465.93068026
_cell_formula_units_Z   1
loop_
 _symmetry_equiv_pos_site_id
 _symmetry_equiv_pos_as_xyz
  1  'x, y, z'
loop_
 _atom_site_type_symbol
 _atom_site_label
 _atom_site_symmetry_multiplicity
 _atom_site_fract_x
 _atom_site_fract_y
 _atom_site_fract_z
 _atom_site_occupancy
  Tb  Tb0  1  0.335463  0.659839  0.996998  1
  Tb  Tb1  1  0.335524  0.659685  0.503100  1
  Tb  Tb2  1  0.659613  0.335512  0.503256  1
  Tb  Tb3  1  0.750207  0.750083  0.750134  1
  Tb  Tb4  1  0.243853  0.012729  0.750148  1
  Tb  Tb5  1  0.012708  0.243774  0.750140  1
  Tb  Tb6  1  0.240074  0.239946  0.249826  1
  Tb  Tb7  1  0.758230  0.000336  0.249912  1
  Tb  Tb8  1  0.000549  0.758238  0.249892  1
  Ho  Ho9  1  0.659379  0.335556  0.996517  1
  Al  Al10  1  0.396214  0.395625  0.750518  1
  Bi  Bi11  1  0.611661  0.003189  0.750439  1
  Bi  Bi12  1  0.002087  0.611059  0.750434  1
  Bi  Bi13  1  0.608101  0.607494  0.249441  1
  Bi  Bi14  1  0.390829  0.996598  0.249619  1
  Bi  Bi15  1  0.995509  0.390338  0.249626  1
