# generated using pymatgen
data_Ho16MgHg3IrRh3
_symmetry_space_group_name_H-M   'P 1'
_cell_length_a   9.62201578
_cell_length_b   9.58024873
_cell_length_c   9.58024919
_cell_angle_alpha   59.52458194
_cell_angle_beta   59.77826838
_cell_angle_gamma   59.77826914
_symmetry_Int_Tables_number   1
_chemical_formula_structural   Ho16MgHg3IrRh3
_chemical_formula_sum   'Ho16 Mg1 Hg3 Ir1 Rh3'
_cell_volume   620.10707851
_cell_formula_units_Z   1
loop_
 _symmetry_equiv_pos_site_id
 _symmetry_equiv_pos_as_xyz
  1  'x, y, z'
loop_
 _atom_site_type_symbol
 _atom_site_label
 _atom_site_symmetry_multiplicity
 _atom_site_fract_x
 _atom_site_fract_y
 _atom_site_fract_z
 _atom_site_occupancy
  Ho  Ho0  1  0.808752  0.190629  0.190629  1
  Ho  Ho1  1  0.184767  0.812020  0.812020  1
  Ho  Ho2  1  0.187426  0.811815  0.188017  1
  Ho  Ho3  1  0.807326  0.189535  0.808979  1
  Ho  Ho4  1  0.187426  0.188017  0.811815  1
  Ho  Ho5  1  0.807326  0.808979  0.189535  1
  Ho  Ho6  1  0.935743  0.563507  0.563507  1
  Ho  Ho7  1  0.560874  0.936553  0.936553  1
  Ho  Ho8  1  0.562741  0.937356  0.564655  1
  Ho  Ho9  1  0.937162  0.560149  0.938201  1
  Ho  Ho10  1  0.562741  0.564655  0.937356  1
  Ho  Ho11  1  0.937162  0.938201  0.560149  1
  Ho  Ho12  1  0.349453  0.348410  0.348410  1
  Ho  Ho13  1  0.351684  0.348425  0.954245  1
  Ho  Ho14  1  0.351684  0.954245  0.348425  1
  Ho  Ho15  1  0.940536  0.353862  0.353862  1
  Mg  Mg16  1  0.285022  0.570923  0.570923  1
  Hg  Hg17  1  0.582882  0.586482  0.586482  1
  Hg  Hg18  1  0.583129  0.586606  0.242188  1
  Hg  Hg19  1  0.583129  0.242188  0.586606  1
  Ir  Ir20  1  0.138199  0.145207  0.145207  1
  Rh  Rh21  1  0.140021  0.145591  0.573555  1
  Rh  Rh22  1  0.140021  0.573555  0.145591  1
  Rh  Rh23  1  0.574798  0.143091  0.143091  1
