# generated using pymatgen
data_TbHo3Al12Pd
_symmetry_space_group_name_H-M   'P 1'
_cell_length_a   7.48320258
_cell_length_b   7.49311991
_cell_length_c   7.49311982
_cell_angle_alpha   109.49801490
_cell_angle_beta   109.44441332
_cell_angle_gamma   109.44441534
_symmetry_Int_Tables_number   1
_chemical_formula_structural   TbHo3Al12Pd
_chemical_formula_sum   'Tb1 Ho3 Al12 Pd1'
_cell_volume   323.54488140
_cell_formula_units_Z   1
loop_
 _symmetry_equiv_pos_site_id
 _symmetry_equiv_pos_as_xyz
  1  'x, y, z'
loop_
 _atom_site_type_symbol
 _atom_site_label
 _atom_site_symmetry_multiplicity
 _atom_site_fract_x
 _atom_site_fract_y
 _atom_site_fract_z
 _atom_site_occupancy
  Tb  Tb0  1  0.500000  0.000000  0.000000  1
  Ho  Ho1  1  0.000000  0.000000  0.500000  1
  Ho  Ho2  1  0.000000  0.500000  0.000000  1
  Ho  Ho3  1  0.500000  0.500000  0.500000  1
  Al  Al4  1  0.750143  0.250143  0.500285  1
  Al  Al5  1  0.750143  0.500285  0.250143  1
  Al  Al6  1  0.500000  0.250143  0.749857  1
  Al  Al7  1  0.249857  0.499715  0.749857  1
  Al  Al8  1  0.249857  0.749857  0.499715  1
  Al  Al9  1  0.500000  0.749857  0.250143  1
  Al  Al10  1  0.706362  0.706085  0.000000  1
  Al  Al11  1  0.293638  0.000000  0.293915  1
  Al  Al12  1  0.000277  0.293915  0.293915  1
  Al  Al13  1  0.293638  0.293915  0.000000  1
  Al  Al14  1  0.706362  0.000000  0.706085  1
  Al  Al15  1  0.999723  0.706085  0.706085  1
  Pd  Pd16  1  0.000000  0.000000  0.000000  1
