# generated using pymatgen
data_YbDy(YB8)2
_symmetry_space_group_name_H-M   'P 1'
_cell_length_a   7.11293801
_cell_length_b   7.11293823
_cell_length_c   4.02779400
_cell_angle_alpha   90.00000000
_cell_angle_beta   90.00000000
_cell_angle_gamma   89.95821794
_symmetry_Int_Tables_number   1
_chemical_formula_structural   YbDy(YB8)2
_chemical_formula_sum   'Yb1 Dy1 Y2 B16'
_cell_volume   203.78170736
_cell_formula_units_Z   1
loop_
 _symmetry_equiv_pos_site_id
 _symmetry_equiv_pos_as_xyz
  1  'x, y, z'
loop_
 _atom_site_type_symbol
 _atom_site_label
 _atom_site_symmetry_multiplicity
 _atom_site_fract_x
 _atom_site_fract_y
 _atom_site_fract_z
 _atom_site_occupancy
  Yb  Yb0  1  0.682801  0.817199  0.000000  1
  Dy  Dy1  1  0.318667  0.181333  0.000000  1
  Y  Y2  1  0.817459  0.317645  0.000000  1
  Y  Y3  1  0.182355  0.682541  0.000000  1
  B  B4  1  0.500524  0.501574  0.797061  1
  B  B5  1  0.998426  0.999476  0.797061  1
  B  B6  1  0.500524  0.501574  0.202939  1
  B  B7  1  0.998426  0.999476  0.202939  1
  B  B8  1  0.913376  0.586624  0.500000  1
  B  B9  1  0.087114  0.412886  0.500000  1
  B  B10  1  0.413016  0.913673  0.500000  1
  B  B11  1  0.586327  0.086984  0.500000  1
  B  B12  1  0.675934  0.538304  0.500000  1
  B  B13  1  0.324650  0.461113  0.500000  1
  B  B14  1  0.176539  0.962251  0.500000  1
  B  B15  1  0.823549  0.038019  0.500000  1
  B  B16  1  0.461981  0.676451  0.500000  1
  B  B17  1  0.537749  0.323461  0.500000  1
  B  B18  1  0.038887  0.175350  0.500000  1
  B  B19  1  0.961696  0.824066  0.500000  1
