# generated using pymatgen
data_Er(ScZn4)3
_symmetry_space_group_name_H-M   'P 1'
_cell_length_a   4.27612100
_cell_length_b   6.53499646
_cell_length_c   9.85714857
_cell_angle_alpha   89.46569271
_cell_angle_beta   90.00000000
_cell_angle_gamma   90.00000000
_symmetry_Int_Tables_number   1
_chemical_formula_structural   Er(ScZn4)3
_chemical_formula_sum   'Er1 Sc3 Zn12'
_cell_volume   275.44047653
_cell_formula_units_Z   1
loop_
 _symmetry_equiv_pos_site_id
 _symmetry_equiv_pos_as_xyz
  1  'x, y, z'
loop_
 _atom_site_type_symbol
 _atom_site_label
 _atom_site_symmetry_multiplicity
 _atom_site_fract_x
 _atom_site_fract_y
 _atom_site_fract_z
 _atom_site_occupancy
  Er  Er0  1  0.750000  0.219872  0.169872  1
  Sc  Sc1  1  0.250000  0.278043  0.665540  1
  Sc  Sc2  1  0.750000  0.723665  0.336497  1
  Sc  Sc3  1  0.250000  0.781570  0.833113  1
  Zn  Zn4  1  0.250000  0.533093  0.096357  1
  Zn  Zn5  1  0.750000  0.462901  0.896072  1
  Zn  Zn6  1  0.250000  0.040181  0.399305  1
  Zn  Zn7  1  0.750000  0.963021  0.598175  1
  Zn  Zn8  1  0.750000  0.297338  0.464290  1
  Zn  Zn9  1  0.250000  0.712719  0.543676  1
  Zn  Zn10  1  0.750000  0.780213  0.042012  1
  Zn  Zn11  1  0.250000  0.209078  0.952733  1
  Zn  Zn12  1  0.750000  0.577879  0.653361  1
  Zn  Zn13  1  0.250000  0.433194  0.352284  1
  Zn  Zn14  1  0.750000  0.074503  0.844658  1
  Zn  Zn15  1  0.250000  0.912731  0.152057  1
