# generated using pymatgen
data_Ba6HoLu3(WO9)2
_symmetry_space_group_name_H-M   'P 1'
_cell_length_a   10.44797325
_cell_length_b   10.44797418
_cell_length_c   10.44797379
_cell_angle_alpha   146.46043081
_cell_angle_beta   131.70848012
_cell_angle_gamma   60.07636608
_symmetry_Int_Tables_number   1
_chemical_formula_structural   Ba6HoLu3(WO9)2
_chemical_formula_sum   'Ba6 Ho1 Lu3 W2 O18'
_cell_volume   466.11414645
_cell_formula_units_Z   1
loop_
 _symmetry_equiv_pos_site_id
 _symmetry_equiv_pos_as_xyz
  1  'x, y, z'
loop_
 _atom_site_type_symbol
 _atom_site_label
 _atom_site_symmetry_multiplicity
 _atom_site_fract_x
 _atom_site_fract_y
 _atom_site_fract_z
 _atom_site_occupancy
  Ba  Ba0  1  0.579322  0.839330  0.739991  1
  Ba  Ba1  1  0.266750  0.500000  0.766750  1
  Ba  Ba2  1  0.900659  0.160670  0.739991  1
  Ba  Ba3  1  0.099341  0.839330  0.260009  1
  Ba  Ba4  1  0.733250  0.500000  0.233250  1
  Ba  Ba5  1  0.420678  0.160670  0.260009  1
  Ho  Ho6  1  0.000000  0.000000  0.000000  1
  Lu  Lu7  1  0.330324  0.330324  0.000000  1
  Lu  Lu8  1  0.669676  0.669676  0.000000  1
  Lu  Lu9  1  0.500000  0.000000  0.500000  1
  W  W10  1  0.166282  0.666282  0.500000  1
  W  W11  1  0.833718  0.333718  0.500000  1
  O  O12  1  0.599010  0.330726  0.268282  1
  O  O13  1  0.249689  0.000000  0.249689  1
  O  O14  1  0.937555  0.669274  0.268282  1
  O  O15  1  0.910695  0.639659  0.728964  1
  O  O16  1  0.588656  0.340126  0.751470  1
  O  O17  1  0.241720  0.975457  0.733737  1
  O  O18  1  0.758280  0.492019  0.733737  1
  O  O19  1  0.411344  0.162816  0.751470  1
  O  O20  1  0.089305  0.818269  0.728964  1
  O  O21  1  0.062445  0.330726  0.731718  1
  O  O22  1  0.750311  0.000000  0.750311  1
  O  O23  1  0.400990  0.669274  0.731718  1
  O  O24  1  0.758280  0.024543  0.266263  1
  O  O25  1  0.411344  0.659874  0.248530  1
  O  O26  1  0.089305  0.360341  0.271036  1
  O  O27  1  0.910695  0.181731  0.271036  1
  O  O28  1  0.588656  0.837184  0.248530  1
  O  O29  1  0.241720  0.507981  0.266263  1
