# generated using pymatgen
data_Hf3Zr3Pb5
_symmetry_space_group_name_H-M   'P 1'
_cell_length_a   9.97406300
_cell_length_b   9.97406280
_cell_length_c   6.10489200
_cell_angle_alpha   90.00000000
_cell_angle_beta   90.00000000
_cell_angle_gamma   119.99999733
_symmetry_Int_Tables_number   1
_chemical_formula_structural   Hf3Zr3Pb5
_chemical_formula_sum   'Hf6 Zr6 Pb10'
_cell_volume   525.96014248
_cell_formula_units_Z   2
loop_
 _symmetry_equiv_pos_site_id
 _symmetry_equiv_pos_as_xyz
  1  'x, y, z'
loop_
 _atom_site_type_symbol
 _atom_site_label
 _atom_site_symmetry_multiplicity
 _atom_site_fract_x
 _atom_site_fract_y
 _atom_site_fract_z
 _atom_site_occupancy
  Hf  Hf0  1  0.500000  0.000000  0.500000  1
  Hf  Hf1  1  0.500000  0.500000  0.000000  1
  Hf  Hf2  1  0.000000  0.500000  0.000000  1
  Hf  Hf3  1  0.000000  0.500000  0.500000  1
  Hf  Hf4  1  0.500000  0.000000  0.000000  1
  Hf  Hf5  1  0.500000  0.500000  0.500000  1
  Zr  Zr6  1  0.844793  0.689586  0.750000  1
  Zr  Zr7  1  0.155207  0.844793  0.250000  1
  Zr  Zr8  1  0.689586  0.844793  0.250000  1
  Zr  Zr9  1  0.310414  0.155207  0.750000  1
  Zr  Zr10  1  0.844793  0.155207  0.750000  1
  Zr  Zr11  1  0.155207  0.310414  0.250000  1
  Pb  Pb12  1  0.206652  0.413305  0.750000  1
  Pb  Pb13  1  0.793348  0.206652  0.250000  1
  Pb  Pb14  1  0.413305  0.206652  0.250000  1
  Pb  Pb15  1  0.586695  0.793348  0.750000  1
  Pb  Pb16  1  0.206652  0.793348  0.750000  1
  Pb  Pb17  1  0.793348  0.586695  0.250000  1
  Pb  Pb18  1  0.666667  0.333333  0.750000  1
  Pb  Pb19  1  0.333333  0.666667  0.250000  1
  Pb  Pb20  1  0.000000  0.000000  0.500000  1
  Pb  Pb21  1  0.000000  0.000000  0.000000  1
