# generated using pymatgen
data_TaTi6Mn12W5
_symmetry_space_group_name_H-M   'P 1'
_cell_length_a   4.20894800
_cell_length_b   5.98727100
_cell_length_c   12.72894100
_cell_angle_alpha   90.00000000
_cell_angle_beta   90.00004523
_cell_angle_gamma   90.00000000
_symmetry_Int_Tables_number   1
_chemical_formula_structural   TaTi6Mn12W5
_chemical_formula_sum   'Ta1 Ti6 Mn12 W5'
_cell_volume   320.77074267
_cell_formula_units_Z   1
loop_
 _symmetry_equiv_pos_site_id
 _symmetry_equiv_pos_as_xyz
  1  'x, y, z'
loop_
 _atom_site_type_symbol
 _atom_site_label
 _atom_site_symmetry_multiplicity
 _atom_site_fract_x
 _atom_site_fract_y
 _atom_site_fract_z
 _atom_site_occupancy
  Ta  Ta0  1  0.000001  0.500001  0.999972  1
  Ti  Ti1  1  0.000001  0.000000  0.999965  1
  Ti  Ti2  1  0.500007  0.500001  0.167606  1
  Ti  Ti3  1  0.000008  0.000000  0.333221  1
  Ti  Ti4  1  0.500001  0.500001  0.500006  1
  Ti  Ti5  1  0.999994  0.000000  0.666788  1
  Ti  Ti6  1  0.499994  0.500001  0.832373  1
  Mn  Mn7  1  0.500001  0.246007  0.999964  1
  Mn  Mn8  1  0.500001  0.753992  0.999964  1
  Mn  Mn9  1  0.000011  0.247683  0.169164  1
  Mn  Mn10  1  0.000011  0.752316  0.169164  1
  Mn  Mn11  1  0.500012  0.250184  0.334192  1
  Mn  Mn12  1  0.500012  0.749816  0.334192  1
  Mn  Mn13  1  0.000001  0.249599  0.500088  1
  Mn  Mn14  1  0.000001  0.750401  0.500088  1
  Mn  Mn15  1  0.499985  0.250399  0.665813  1
  Mn  Mn16  1  0.499985  0.749601  0.665813  1
  Mn  Mn17  1  0.999991  0.247595  0.830824  1
  Mn  Mn18  1  0.999991  0.752404  0.830824  1
  W  W19  1  0.500007  0.000000  0.166404  1
  W  W20  1  0.000007  0.500001  0.333756  1
  W  W21  1  0.500001  0.000000  0.500010  1
  W  W22  1  0.999994  0.500001  0.666249  1
  W  W23  1  0.499994  0.000000  0.833559  1
