# generated using pymatgen
data_Ho20Bi8Pd3Ru
_symmetry_space_group_name_H-M   'P 1'
_cell_length_a   8.02412571
_cell_length_b   9.01861300
_cell_length_c   12.38524700
_cell_angle_alpha   90.00000000
_cell_angle_beta   89.89801306
_cell_angle_gamma   90.00000000
_symmetry_Int_Tables_number   1
_chemical_formula_structural   Ho20Bi8Pd3Ru
_chemical_formula_sum   'Ho20 Bi8 Pd3 Ru1'
_cell_volume   896.27536466
_cell_formula_units_Z   1
loop_
 _symmetry_equiv_pos_site_id
 _symmetry_equiv_pos_as_xyz
  1  'x, y, z'
loop_
 _atom_site_type_symbol
 _atom_site_label
 _atom_site_symmetry_multiplicity
 _atom_site_fract_x
 _atom_site_fract_y
 _atom_site_fract_z
 _atom_site_occupancy
  Ho  Ho0  1  0.842763  0.750000  0.795576  1
  Ho  Ho1  1  0.161901  0.250000  0.210397  1
  Ho  Ho2  1  0.335747  0.250000  0.712514  1
  Ho  Ho3  1  0.667217  0.750000  0.284708  1
  Ho  Ho4  1  0.373602  0.750000  0.696414  1
  Ho  Ho5  1  0.626957  0.250000  0.302473  1
  Ho  Ho6  1  0.873440  0.250000  0.800404  1
  Ho  Ho7  1  0.122064  0.750000  0.195178  1
  Ho  Ho8  1  0.952820  0.750000  0.500188  1
  Ho  Ho9  1  0.045679  0.250000  0.501987  1
  Ho  Ho10  1  0.452288  0.250000  0.999550  1
  Ho  Ho11  1  0.551115  0.750000  0.000627  1
  Ho  Ho12  1  0.678643  0.047122  0.567029  1
  Ho  Ho13  1  0.319305  0.953789  0.431559  1
  Ho  Ho14  1  0.176840  0.947505  0.935579  1
  Ho  Ho15  1  0.319305  0.546211  0.431559  1
  Ho  Ho16  1  0.822431  0.039043  0.065472  1
  Ho  Ho17  1  0.678643  0.452878  0.567029  1
  Ho  Ho18  1  0.822431  0.460957  0.065472  1
  Ho  Ho19  1  0.176840  0.552495  0.935579  1
  Bi  Bi20  1  0.568588  0.490661  0.826796  1
  Bi  Bi21  1  0.430768  0.508970  0.173051  1
  Bi  Bi22  1  0.070082  0.510351  0.672894  1
  Bi  Bi23  1  0.430768  0.991030  0.173051  1
  Bi  Bi24  1  0.930195  0.488955  0.328666  1
  Bi  Bi25  1  0.568588  0.009339  0.826796  1
  Bi  Bi26  1  0.930195  0.011045  0.328666  1
  Bi  Bi27  1  0.070082  0.989649  0.672894  1
  Pd  Pd28  1  0.575841  0.750000  0.509109  1
  Pd  Pd29  1  0.422510  0.250000  0.488421  1
  Pd  Pd30  1  0.079508  0.250000  0.986541  1
  Ru  Ru31  1  0.922848  0.750000  0.013826  1
