# generated using pymatgen
data_ErTm2AuO6
_symmetry_space_group_name_H-M   'P 1'
_cell_length_a   3.53591890
_cell_length_b   5.51992014
_cell_length_c   7.03579527
_cell_angle_alpha   89.51572193
_cell_angle_beta   102.48836547
_cell_angle_gamma   91.18486983
_symmetry_Int_Tables_number   1
_chemical_formula_structural   ErTm2AuO6
_chemical_formula_sum   'Er1 Tm2 Au1 O6'
_cell_volume   134.04569047
_cell_formula_units_Z   1
loop_
 _symmetry_equiv_pos_site_id
 _symmetry_equiv_pos_as_xyz
  1  'x, y, z'
loop_
 _atom_site_type_symbol
 _atom_site_label
 _atom_site_symmetry_multiplicity
 _atom_site_fract_x
 _atom_site_fract_y
 _atom_site_fract_z
 _atom_site_occupancy
  Er  Er0  1  0.611517  0.530449  0.762266  1
  Tm  Tm1  1  0.388175  0.469159  0.237980  1
  Tm  Tm2  1  0.999584  0.999577  0.499025  1
  Au  Au3  1  0.999924  0.999973  0.000704  1
  O  O4  1  0.834542  0.677333  0.106473  1
  O  O5  1  0.166993  0.321508  0.895619  1
  O  O6  1  0.523031  0.255220  0.530114  1
  O  O7  1  0.476184  0.744223  0.467492  1
  O  O8  1  0.125286  0.800404  0.782631  1
  O  O9  1  0.874763  0.202154  0.217696  1
