# generated using pymatgen
data_Tb13Er3(InIr)4
_symmetry_space_group_name_H-M   'P 1'
_cell_length_a   9.70258498
_cell_length_b   9.68679781
_cell_length_c   9.68160269
_cell_angle_alpha   60.04419193
_cell_angle_beta   59.92964454
_cell_angle_gamma   59.98688750
_symmetry_Int_Tables_number   1
_chemical_formula_structural   Tb13Er3(InIr)4
_chemical_formula_sum   'Tb13 Er3 In4 Ir4'
_cell_volume   643.23569930
_cell_formula_units_Z   1
loop_
 _symmetry_equiv_pos_site_id
 _symmetry_equiv_pos_as_xyz
  1  'x, y, z'
loop_
 _atom_site_type_symbol
 _atom_site_label
 _atom_site_symmetry_multiplicity
 _atom_site_fract_x
 _atom_site_fract_y
 _atom_site_fract_z
 _atom_site_occupancy
  Tb  Tb0  1  0.309881  0.690414  0.310752  1
  Tb  Tb1  1  0.940163  0.559372  0.558905  1
  Tb  Tb2  1  0.310141  0.311211  0.690085  1
  Tb  Tb3  1  0.097519  0.098636  0.098404  1
  Tb  Tb4  1  0.558782  0.558888  0.940075  1
  Tb  Tb5  1  0.099592  0.100022  0.702392  1
  Tb  Tb6  1  0.690134  0.310870  0.689492  1
  Tb  Tb7  1  0.690658  0.689765  0.310301  1
  Tb  Tb8  1  0.690567  0.310776  0.310541  1
  Tb  Tb9  1  0.309313  0.690613  0.690796  1
  Tb  Tb10  1  0.559425  0.939692  0.558981  1
  Tb  Tb11  1  0.702882  0.099753  0.099696  1
  Tb  Tb12  1  0.559327  0.940111  0.940298  1
  Er  Er13  1  0.099272  0.703723  0.099629  1
  Er  Er14  1  0.940949  0.939912  0.558886  1
  Er  Er15  1  0.941285  0.558749  0.940460  1
  In  In16  1  0.332583  0.333156  0.332863  1
  In  In17  1  0.001595  0.332914  0.332716  1
  In  In18  1  0.332643  0.001538  0.332827  1
  In  In19  1  0.332644  0.333083  0.001389  1
  Ir  Ir20  1  0.892625  0.888898  0.890890  1
  Ir  Ir21  1  0.891930  0.890741  0.326025  1
  Ir  Ir22  1  0.325006  0.890081  0.891963  1
  Ir  Ir23  1  0.891084  0.327081  0.891634  1
