# generated using pymatgen
data_La3Nd5CdNi2Hg
_symmetry_space_group_name_H-M   'P 1'
_cell_length_a   9.89940046
_cell_length_b   9.94876308
_cell_length_c   9.92595599
_cell_angle_alpha   59.74730753
_cell_angle_beta   60.24080654
_cell_angle_gamma   60.37988651
_symmetry_Int_Tables_number   1
_chemical_formula_structural   La3Nd5CdNi2Hg
_chemical_formula_sum   'La6 Nd10 Cd2 Ni4 Hg2'
_cell_volume   693.12493166
_cell_formula_units_Z   2
loop_
 _symmetry_equiv_pos_site_id
 _symmetry_equiv_pos_as_xyz
  1  'x, y, z'
loop_
 _atom_site_type_symbol
 _atom_site_label
 _atom_site_symmetry_multiplicity
 _atom_site_fract_x
 _atom_site_fract_y
 _atom_site_fract_z
 _atom_site_occupancy
  La  La0  1  0.595698  0.598686  0.598876  1
  La  La1  1  0.598686  0.595698  0.206739  1
  La  La2  1  0.600933  0.200593  0.596998  1
  La  La3  1  0.200593  0.600933  0.601475  1
  La  La4  1  0.061982  0.437866  0.439772  1
  La  La5  1  0.437866  0.061982  0.060380  1
  Nd  Nd6  1  0.440483  0.059112  0.441685  1
  Nd  Nd7  1  0.059112  0.440483  0.058720  1
  Nd  Nd8  1  0.439631  0.439631  0.060369  1
  Nd  Nd9  1  0.056393  0.056393  0.443607  1
  Nd  Nd10  1  0.187934  0.814009  0.817030  1
  Nd  Nd11  1  0.814009  0.187934  0.181027  1
  Nd  Nd12  1  0.812158  0.188844  0.815297  1
  Nd  Nd13  1  0.188844  0.812158  0.183701  1
  Nd  Nd14  1  0.813124  0.813124  0.186876  1
  Nd  Nd15  1  0.185042  0.185042  0.814958  1
  Cd  Cd16  1  0.828467  0.511397  0.830904  1
  Cd  Cd17  1  0.511397  0.828467  0.829233  1
  Ni  Ni18  1  0.387299  0.395017  0.394317  1
  Ni  Ni19  1  0.395017  0.387299  0.823367  1
  Ni  Ni20  1  0.392736  0.824639  0.388945  1
  Ni  Ni21  1  0.824639  0.392736  0.393680  1
  Hg  Hg22  1  0.834620  0.833337  0.835668  1
  Hg  Hg23  1  0.833337  0.834620  0.496376  1
