# generated using pymatgen
data_Dy4Lu4Tc3B24Os
_symmetry_space_group_name_H-M   'P 1'
_cell_length_a   3.63891200
_cell_length_b   9.09180452
_cell_length_c   11.48134501
_cell_angle_alpha   89.95196350
_cell_angle_beta   90.00000000
_cell_angle_gamma   90.00000000
_symmetry_Int_Tables_number   1
_chemical_formula_structural   Dy4Lu4Tc3B24Os
_chemical_formula_sum   'Dy4 Lu4 Tc3 B24 Os1'
_cell_volume   379.85186037
_cell_formula_units_Z   1
loop_
 _symmetry_equiv_pos_site_id
 _symmetry_equiv_pos_as_xyz
  1  'x, y, z'
loop_
 _atom_site_type_symbol
 _atom_site_label
 _atom_site_symmetry_multiplicity
 _atom_site_fract_x
 _atom_site_fract_y
 _atom_site_fract_z
 _atom_site_occupancy
  Dy  Dy0  1  0.000000  0.323038  0.413770  1
  Dy  Dy1  1  0.000000  0.676025  0.584487  1
  Dy  Dy2  1  0.000000  0.822376  0.087286  1
  Dy  Dy3  1  0.000000  0.178505  0.914490  1
  Lu  Lu4  1  0.000000  0.942875  0.370310  1
  Lu  Lu5  1  0.000000  0.057803  0.629656  1
  Lu  Lu6  1  0.000000  0.443335  0.129927  1
  Lu  Lu7  1  0.000000  0.556556  0.869824  1
  Tc  Tc8  1  0.000000  0.639003  0.319816  1
  Tc  Tc9  1  0.000000  0.360920  0.680763  1
  Tc  Tc10  1  0.000000  0.138647  0.179248  1
  B  B11  1  0.500000  0.553464  0.432641  1
  B  B12  1  0.500000  0.446485  0.567207  1
  B  B13  1  0.500000  0.053441  0.067167  1
  B  B14  1  0.500000  0.945913  0.932591  1
  B  B15  1  0.500000  0.750255  0.418572  1
  B  B16  1  0.500000  0.249467  0.581499  1
  B  B17  1  0.500000  0.250849  0.081459  1
  B  B18  1  0.500000  0.749753  0.918239  1
  B  B19  1  0.500000  0.792689  0.265626  1
  B  B20  1  0.500000  0.207456  0.734955  1
  B  B21  1  0.500000  0.292638  0.234599  1
  B  B22  1  0.500000  0.708077  0.765281  1
  B  B23  1  0.500000  0.630251  0.184932  1
  B  B24  1  0.500000  0.369706  0.815630  1
  B  B25  1  0.500000  0.129779  0.314836  1
  B  B26  1  0.500000  0.869739  0.684956  1
  B  B27  1  0.500000  0.981388  0.212589  1
  B  B28  1  0.500000  0.017442  0.787411  1
  B  B29  1  0.500000  0.481667  0.287233  1
  B  B30  1  0.500000  0.518192  0.712637  1
  B  B31  1  0.500000  0.599888  0.027382  1
  B  B32  1  0.500000  0.401245  0.972474  1
  B  B33  1  0.500000  0.099478  0.472544  1
  B  B34  1  0.500000  0.900582  0.527887  1
  Os  Os35  1  0.000000  0.861073  0.820077  1
