# generated using pymatgen
data_LiYCo4As3
_symmetry_space_group_name_H-M   'P 1'
_cell_length_a   3.84398000
_cell_length_b   10.71615300
_cell_length_c   12.37287600
_cell_angle_alpha   90.00000000
_cell_angle_beta   90.00000000
_cell_angle_gamma   90.00000000
_symmetry_Int_Tables_number   1
_chemical_formula_structural   LiYCo4As3
_chemical_formula_sum   'Li4 Y4 Co16 As12'
_cell_volume   509.67189464
_cell_formula_units_Z   4
loop_
 _symmetry_equiv_pos_site_id
 _symmetry_equiv_pos_as_xyz
  1  'x, y, z'
loop_
 _atom_site_type_symbol
 _atom_site_label
 _atom_site_symmetry_multiplicity
 _atom_site_fract_x
 _atom_site_fract_y
 _atom_site_fract_z
 _atom_site_occupancy
  Li  Li0  1  0.250000  0.699208  0.993793  1
  Li  Li1  1  0.250000  0.800792  0.493793  1
  Li  Li2  1  0.750000  0.300792  0.006207  1
  Li  Li3  1  0.750000  0.199208  0.506207  1
  Y  Y4  1  0.250000  0.575753  0.700779  1
  Y  Y5  1  0.250000  0.924247  0.200779  1
  Y  Y6  1  0.750000  0.424247  0.299221  1
  Y  Y7  1  0.750000  0.075753  0.799221  1
  Co  Co8  1  0.250000  0.407858  0.485200  1
  Co  Co9  1  0.250000  0.092142  0.985200  1
  Co  Co10  1  0.750000  0.592142  0.514800  1
  Co  Co11  1  0.750000  0.907858  0.014800  1
  Co  Co12  1  0.250000  0.216642  0.174262  1
  Co  Co13  1  0.250000  0.283358  0.674262  1
  Co  Co14  1  0.750000  0.783358  0.825738  1
  Co  Co15  1  0.750000  0.716642  0.325738  1
  Co  Co16  1  0.250000  0.878763  0.699428  1
  Co  Co17  1  0.250000  0.621237  0.199428  1
  Co  Co18  1  0.750000  0.121237  0.300572  1
  Co  Co19  1  0.750000  0.378763  0.800572  1
  Co  Co20  1  0.250000  0.466701  0.931826  1
  Co  Co21  1  0.250000  0.033299  0.431826  1
  Co  Co22  1  0.750000  0.533299  0.068174  1
  Co  Co23  1  0.750000  0.966701  0.568174  1
  As  As24  1  0.250000  0.421925  0.116152  1
  As  As25  1  0.250000  0.078075  0.616152  1
  As  As26  1  0.750000  0.578075  0.883848  1
  As  As27  1  0.750000  0.921925  0.383848  1
  As  As28  1  0.250000  0.267226  0.862179  1
  As  As29  1  0.250000  0.232774  0.362179  1
  As  As30  1  0.750000  0.732774  0.137821  1
  As  As31  1  0.750000  0.767226  0.637821  1
  As  As32  1  0.250000  0.604240  0.393772  1
  As  As33  1  0.250000  0.895760  0.893772  1
  As  As34  1  0.750000  0.395760  0.606228  1
  As  As35  1  0.750000  0.104240  0.106228  1
