# generated using pymatgen
data_Dy2Th2(Al8Pt3)3
_symmetry_space_group_name_H-M   'P 1'
_cell_length_a   7.58424873
_cell_length_b   7.59822462
_cell_length_c   13.20144250
_cell_angle_alpha   84.51242056
_cell_angle_beta   78.97339577
_cell_angle_gamma   59.95184586
_symmetry_Int_Tables_number   1
_chemical_formula_structural   Dy2Th2(Al8Pt3)3
_chemical_formula_sum   'Dy2 Th2 Al24 Pt9'
_cell_volume   646.35795871
_cell_formula_units_Z   1
loop_
 _symmetry_equiv_pos_site_id
 _symmetry_equiv_pos_as_xyz
  1  'x, y, z'
loop_
 _atom_site_type_symbol
 _atom_site_label
 _atom_site_symmetry_multiplicity
 _atom_site_fract_x
 _atom_site_fract_y
 _atom_site_fract_z
 _atom_site_occupancy
  Dy  Dy0  1  0.733523  0.498523  0.806915  1
  Dy  Dy1  1  0.266477  0.501477  0.193085  1
  Th  Th2  1  0.395020  0.168007  0.806666  1
  Th  Th3  1  0.604980  0.831993  0.193334  1
  Al  Al4  1  0.687798  0.830602  0.944007  1
  Al  Al5  1  0.312202  0.169398  0.055993  1
  Al  Al6  1  0.145725  0.832931  0.561446  1
  Al  Al7  1  0.854275  0.167069  0.438554  1
  Al  Al8  1  0.480959  0.167248  0.557465  1
  Al  Al9  1  0.519041  0.832752  0.442535  1
  Al  Al10  1  0.212474  0.168966  0.333539  1
  Al  Al11  1  0.787526  0.831034  0.666461  1
  Al  Al12  1  0.438455  0.510413  0.666906  1
  Al  Al13  1  0.561545  0.489587  0.333094  1
  Al  Al14  1  0.107828  0.159995  0.665219  1
  Al  Al15  1  0.892172  0.840005  0.334781  1
  Al  Al16  1  0.352018  0.502211  0.946019  1
  Al  Al17  1  0.647982  0.497789  0.053981  1
  Al  Al18  1  0.012633  0.167554  0.954537  1
  Al  Al19  1  0.987367  0.832446  0.045463  1
  Al  Al20  1  0.186162  0.500114  0.441034  1
  Al  Al21  1  0.813838  0.499886  0.558966  1
  Al  Al22  1  0.734565  0.167412  0.183640  1
  Al  Al23  1  0.265435  0.832588  0.816360  1
  Al  Al24  1  0.059342  0.633949  0.814789  1
  Al  Al25  1  0.940658  0.366051  0.185211  1
  Al  Al26  1  0.859732  0.041136  0.815770  1
  Al  Al27  1  0.140268  0.958864  0.184230  1
  Pt  Pt28  1  0.120746  0.491570  0.638595  1
  Pt  Pt29  1  0.879254  0.508430  0.361405  1
  Pt  Pt30  1  0.656664  0.170991  0.999863  1
  Pt  Pt31  1  0.343336  0.829009  0.000137  1
  Pt  Pt32  1  0.537754  0.166035  0.361289  1
  Pt  Pt33  1  0.462246  0.833965  0.638711  1
  Pt  Pt34  1  0.778444  0.175075  0.637566  1
  Pt  Pt35  1  0.221556  0.824925  0.362434  1
  Pt  Pt36  1  0.000000  0.500000  0.000000  1
