# generated using pymatgen
data_Y5Er11(CdPd)4
_symmetry_space_group_name_H-M   'P 1'
_cell_length_a   9.64419760
_cell_length_b   9.63961880
_cell_length_c   9.63961848
_cell_angle_alpha   60.00653300
_cell_angle_beta   59.98428367
_cell_angle_gamma   59.98428474
_symmetry_Int_Tables_number   1
_chemical_formula_structural   Y5Er11(CdPd)4
_chemical_formula_sum   'Y5 Er11 Cd4 Pd4'
_cell_volume   633.56186754
_cell_formula_units_Z   1
loop_
 _symmetry_equiv_pos_site_id
 _symmetry_equiv_pos_as_xyz
  1  'x, y, z'
loop_
 _atom_site_type_symbol
 _atom_site_label
 _atom_site_symmetry_multiplicity
 _atom_site_fract_x
 _atom_site_fract_y
 _atom_site_fract_z
 _atom_site_occupancy
  Y  Y0  1  0.563562  0.936438  0.936438  1
  Y  Y1  1  0.565738  0.934597  0.564098  1
  Y  Y2  1  0.935566  0.564098  0.934597  1
  Y  Y3  1  0.565738  0.564098  0.934597  1
  Y  Y4  1  0.935566  0.934597  0.564098  1
  Er  Er5  1  0.350910  0.354021  0.354021  1
  Er  Er6  1  0.353781  0.356565  0.935873  1
  Er  Er7  1  0.353781  0.935873  0.356565  1
  Er  Er8  1  0.941049  0.354021  0.354021  1
  Er  Er9  1  0.810004  0.189996  0.189996  1
  Er  Er10  1  0.188232  0.811768  0.811768  1
  Er  Er11  1  0.188742  0.811063  0.189470  1
  Er  Er12  1  0.810725  0.189470  0.811063  1
  Er  Er13  1  0.188742  0.189470  0.811063  1
  Er  Er14  1  0.810725  0.811063  0.189470  1
  Er  Er15  1  0.934983  0.565017  0.565017  1
  Cd  Cd16  1  0.583291  0.581357  0.581357  1
  Cd  Cd17  1  0.582251  0.581067  0.254433  1
  Cd  Cd18  1  0.582251  0.254433  0.581067  1
  Cd  Cd19  1  0.253995  0.581357  0.581357  1
  Pd  Pd20  1  0.146020  0.144404  0.144404  1
  Pd  Pd21  1  0.144589  0.143569  0.567253  1
  Pd  Pd22  1  0.144589  0.567253  0.143569  1
  Pd  Pd23  1  0.565171  0.144404  0.144404  1
