# generated using pymatgen
data_Dy7Tm3Ir5Au
_symmetry_space_group_name_H-M   'P 1'
_cell_length_a   11.00915260
_cell_length_b   10.94366800
_cell_length_c   6.31115537
_cell_angle_alpha   90.00000000
_cell_angle_beta   89.92016669
_cell_angle_gamma   90.00000000
_symmetry_Int_Tables_number   1
_chemical_formula_structural   Dy7Tm3Ir5Au
_chemical_formula_sum   'Dy14 Tm6 Ir10 Au2'
_cell_volume   760.37048616
_cell_formula_units_Z   2
loop_
 _symmetry_equiv_pos_site_id
 _symmetry_equiv_pos_as_xyz
  1  'x, y, z'
loop_
 _atom_site_type_symbol
 _atom_site_label
 _atom_site_symmetry_multiplicity
 _atom_site_fract_x
 _atom_site_fract_y
 _atom_site_fract_z
 _atom_site_occupancy
  Dy  Dy0  1  0.290419  0.088679  0.370357  1
  Dy  Dy1  1  0.290419  0.911321  0.870357  1
  Dy  Dy2  1  0.698435  0.091715  0.865422  1
  Dy  Dy3  1  0.698435  0.908285  0.365422  1
  Dy  Dy4  1  0.577762  0.788279  0.876522  1
  Dy  Dy5  1  0.577762  0.211721  0.376522  1
  Dy  Dy6  1  0.408573  0.789626  0.376288  1
  Dy  Dy7  1  0.408573  0.210374  0.876288  1
  Dy  Dy8  1  0.210936  0.412084  0.621579  1
  Dy  Dy9  1  0.210936  0.587916  0.121579  1
  Dy  Dy10  1  0.789202  0.419642  0.123619  1
  Dy  Dy11  1  0.789202  0.580358  0.623619  1
  Dy  Dy12  1  0.918671  0.706539  0.139389  1
  Dy  Dy13  1  0.918671  0.293461  0.639389  1
  Tm  Tm14  1  0.095579  0.702521  0.623573  1
  Tm  Tm15  1  0.095579  0.297479  0.123573  1
  Tm  Tm16  1  0.009318  0.997011  0.500779  1
  Tm  Tm17  1  0.009318  0.002989  0.000779  1
  Tm  Tm18  1  0.500160  0.498727  0.000914  1
  Tm  Tm19  1  0.500160  0.501273  0.500914  1
  Ir  Ir20  1  0.151588  0.153180  0.752167  1
  Ir  Ir21  1  0.151588  0.846820  0.252167  1
  Ir  Ir22  1  0.654200  0.347717  0.748601  1
  Ir  Ir23  1  0.654200  0.652283  0.248601  1
  Ir  Ir24  1  0.347596  0.347720  0.251133  1
  Ir  Ir25  1  0.347596  0.652280  0.751133  1
  Ir  Ir26  1  0.498978  0.999644  0.119850  1
  Ir  Ir27  1  0.498978  0.000356  0.619850  1
  Ir  Ir28  1  0.001042  0.500868  0.879618  1
  Ir  Ir29  1  0.001042  0.499132  0.379618  1
  Au  Au30  1  0.847541  0.153702  0.250187  1
  Au  Au31  1  0.847541  0.846298  0.750187  1
