# generated using pymatgen
data_Lu2H2C
_symmetry_space_group_name_H-M   'P 1'
_cell_length_a   3.55385500
_cell_length_b   3.55385550
_cell_length_c   5.81564000
_cell_angle_alpha   90.00000000
_cell_angle_beta   90.00000000
_cell_angle_gamma   120.00000465
_symmetry_Int_Tables_number   1
_chemical_formula_structural   Lu2H2C
_chemical_formula_sum   'Lu2 H2 C1'
_cell_volume   63.61032229
_cell_formula_units_Z   1
loop_
 _symmetry_equiv_pos_site_id
 _symmetry_equiv_pos_as_xyz
  1  'x, y, z'
loop_
 _atom_site_type_symbol
 _atom_site_label
 _atom_site_symmetry_multiplicity
 _atom_site_fract_x
 _atom_site_fract_y
 _atom_site_fract_z
 _atom_site_occupancy
  Lu  Lu0  1  0.333334  0.666668  0.223995  1
  Lu  Lu1  1  0.666666  0.333334  0.776004  1
  H  H2  1  0.666666  0.333334  0.390285  1
  H  H3  1  0.333334  0.666668  0.609714  1
  C  C4  1  0.000000  0.000000  0.000000  1
