# generated using pymatgen
data_Pr4ZnGa3Pd4
_symmetry_space_group_name_H-M   'P 1'
_cell_length_a   4.57236000
_cell_length_b   7.15855456
_cell_length_c   7.89141268
_cell_angle_alpha   89.95352313
_cell_angle_beta   90.00000000
_cell_angle_gamma   90.00000000
_symmetry_Int_Tables_number   1
_chemical_formula_structural   Pr4ZnGa3Pd4
_chemical_formula_sum   'Pr4 Zn1 Ga3 Pd4'
_cell_volume   258.29759868
_cell_formula_units_Z   1
loop_
 _symmetry_equiv_pos_site_id
 _symmetry_equiv_pos_as_xyz
  1  'x, y, z'
loop_
 _atom_site_type_symbol
 _atom_site_label
 _atom_site_symmetry_multiplicity
 _atom_site_fract_x
 _atom_site_fract_y
 _atom_site_fract_z
 _atom_site_occupancy
  Pr  Pr0  1  0.250000  0.028878  0.692460  1
  Pr  Pr1  1  0.250000  0.531465  0.809835  1
  Pr  Pr2  1  0.750000  0.970315  0.308755  1
  Pr  Pr3  1  0.750000  0.469098  0.189623  1
  Zn  Zn4  1  0.250000  0.161702  0.071093  1
  Ga  Ga5  1  0.250000  0.663293  0.430142  1
  Ga  Ga6  1  0.750000  0.840303  0.930893  1
  Ga  Ga7  1  0.750000  0.339668  0.569031  1
  Pd  Pd8  1  0.250000  0.283638  0.396674  1
  Pd  Pd9  1  0.250000  0.776150  0.107224  1
  Pd  Pd10  1  0.750000  0.717739  0.605866  1
  Pd  Pd11  1  0.750000  0.217752  0.888403  1
