# generated using pymatgen
data_CsSnPIr2
_symmetry_space_group_name_H-M   'P 1'
_cell_length_a   8.47181003
_cell_length_b   8.47181002
_cell_length_c   8.47180905
_cell_angle_alpha   152.24582300
_cell_angle_beta   152.24582444
_cell_angle_gamma   39.65442615
_symmetry_Int_Tables_number   1
_chemical_formula_structural   CsSnPIr2
_chemical_formula_sum   'Cs1 Sn1 P1 Ir2'
_cell_volume   131.61079547
_cell_formula_units_Z   1
loop_
 _symmetry_equiv_pos_site_id
 _symmetry_equiv_pos_as_xyz
  1  'x, y, z'
loop_
 _atom_site_type_symbol
 _atom_site_label
 _atom_site_symmetry_multiplicity
 _atom_site_fract_x
 _atom_site_fract_y
 _atom_site_fract_z
 _atom_site_occupancy
  Cs  Cs0  1  0.017106  0.017106  0.000000  1
  Sn  Sn1  1  0.346435  0.346435  0.000000  1
  P  P2  1  0.665755  0.665755  0.000000  1
  Ir  Ir3  1  0.735352  0.235352  0.500000  1
  Ir  Ir4  1  0.235352  0.735352  0.500000  1
