# generated using pymatgen
data_Ce(SeCl6)2
_symmetry_space_group_name_H-M   'P 1'
_cell_length_a   13.38433154
_cell_length_b   13.16577952
_cell_length_c   9.28442701
_cell_angle_alpha   70.80028959
_cell_angle_beta   68.27285996
_cell_angle_gamma   40.92685390
_symmetry_Int_Tables_number   1
_chemical_formula_structural   Ce(SeCl6)2
_chemical_formula_sum   'Ce2 Se4 Cl24'
_cell_volume   992.37600715
_cell_formula_units_Z   2
loop_
 _symmetry_equiv_pos_site_id
 _symmetry_equiv_pos_as_xyz
  1  'x, y, z'
loop_
 _atom_site_type_symbol
 _atom_site_label
 _atom_site_symmetry_multiplicity
 _atom_site_fract_x
 _atom_site_fract_y
 _atom_site_fract_z
 _atom_site_occupancy
  Ce  Ce0  1  0.123483  0.123483  0.376517  1
  Ce  Ce1  1  0.873483  0.873483  0.126517  1
  Se  Se2  1  0.234995  0.676292  0.312873  1
  Se  Se3  1  0.474160  0.937127  0.573708  1
  Se  Se4  1  0.937127  0.474160  0.015005  1
  Se  Se5  1  0.676292  0.234995  0.775840  1
  Cl  Cl6  1  0.986538  0.103036  0.655973  1
  Cl  Cl7  1  0.454086  0.312204  0.894241  1
  Cl  Cl8  1  0.697089  0.707991  0.013358  1
  Cl  Cl9  1  0.752456  0.157729  0.066289  1
  Cl  Cl10  1  0.829165  0.927193  0.843251  1
  Cl  Cl11  1  0.312204  0.454086  0.339469  1
  Cl  Cl12  1  0.584144  0.466048  0.746625  1
  Cl  Cl13  1  0.406749  0.849610  0.420835  1
  Cl  Cl14  1  0.707991  0.697089  0.581561  1
  Cl  Cl15  1  0.995547  0.594027  0.146964  1
  Cl  Cl16  1  0.849610  0.406749  0.322807  1
  Cl  Cl17  1  0.103036  0.986538  0.254453  1
  Cl  Cl18  1  0.157729  0.752456  0.023526  1
  Cl  Cl19  1  0.046818  0.503375  0.783952  1
  Cl  Cl20  1  0.466048  0.584144  0.203182  1
  Cl  Cl21  1  0.927193  0.829165  0.400390  1
  Cl  Cl22  1  0.594027  0.995547  0.263462  1
  Cl  Cl23  1  0.183711  0.226474  0.497544  1
  Cl  Cl24  1  0.910531  0.355759  0.937796  1
  Cl  Cl25  1  0.236642  0.668439  0.552911  1
  Cl  Cl26  1  0.503375  0.046818  0.665856  1
  Cl  Cl27  1  0.226474  0.183711  0.092271  1
  Cl  Cl28  1  0.668439  0.236642  0.542009  1
  Cl  Cl29  1  0.355759  0.910531  0.795914  1
