# generated using pymatgen
data_NbCd(Ni7B2)3
_symmetry_space_group_name_H-M   'P 1'
_cell_length_a   7.43526443
_cell_length_b   7.43581683
_cell_length_c   7.43525702
_cell_angle_alpha   59.99803126
_cell_angle_beta   60.00561194
_cell_angle_gamma   59.99767819
_symmetry_Int_Tables_number   1
_chemical_formula_structural   NbCd(Ni7B2)3
_chemical_formula_sum   'Nb1 Cd1 Ni21 B6'
_cell_volume   290.67683408
_cell_formula_units_Z   1
loop_
 _symmetry_equiv_pos_site_id
 _symmetry_equiv_pos_as_xyz
  1  'x, y, z'
loop_
 _atom_site_type_symbol
 _atom_site_label
 _atom_site_symmetry_multiplicity
 _atom_site_fract_x
 _atom_site_fract_y
 _atom_site_fract_z
 _atom_site_occupancy
  Nb  Nb0  1  0.750017  0.749965  0.750034  1
  Cd  Cd1  1  0.249978  0.250089  0.249960  1
  Ni  Ni2  1  0.340720  0.997584  0.997520  1
  Ni  Ni3  1  0.664172  0.997569  0.997519  1
  Ni  Ni4  1  0.997561  0.340742  0.664097  1
  Ni  Ni5  1  0.997582  0.664124  0.340718  1
  Ni  Ni6  1  0.997526  0.340812  0.997534  1
  Ni  Ni7  1  0.664214  0.997542  0.340701  1
  Ni  Ni8  1  0.997574  0.664048  0.997581  1
  Ni  Ni9  1  0.340670  0.997570  0.664219  1
  Ni  Ni10  1  0.997519  0.997600  0.340729  1
  Ni  Ni11  1  0.997513  0.997581  0.664201  1
  Ni  Ni12  1  0.664135  0.340778  0.997510  1
  Ni  Ni13  1  0.340730  0.664115  0.997564  1
  Ni  Ni14  1  0.388119  0.388212  0.388154  1
  Ni  Ni15  1  0.617043  0.616978  0.617072  1
  Ni  Ni16  1  0.388151  0.388232  0.835453  1
  Ni  Ni17  1  0.388245  0.835445  0.388194  1
  Ni  Ni18  1  0.617161  0.616983  0.148851  1
  Ni  Ni19  1  0.617068  0.148903  0.617077  1
  Ni  Ni20  1  0.835453  0.388228  0.388134  1
  Ni  Ni21  1  0.148818  0.616960  0.617174  1
  Ni  Ni22  1  0.000019  0.000007  0.999988  1
  B  B23  1  0.729669  0.270327  0.270348  1
  B  B24  1  0.270357  0.729645  0.729665  1
  B  B25  1  0.270317  0.729647  0.270334  1
  B  B26  1  0.729691  0.270325  0.729676  1
  B  B27  1  0.270330  0.270337  0.729644  1
  B  B28  1  0.729649  0.729652  0.270351  1
