# generated using pymatgen
data_Ho3ErZr2MoO12
_symmetry_space_group_name_H-M   'P 1'
_cell_length_a   6.29630318
_cell_length_b   6.38561088
_cell_length_c   6.56113836
_cell_angle_alpha   100.36443741
_cell_angle_beta   98.51095763
_cell_angle_gamma   99.26052298
_symmetry_Int_Tables_number   1
_chemical_formula_structural   Ho3ErZr2MoO12
_chemical_formula_sum   'Ho3 Er1 Zr2 Mo1 O12'
_cell_volume   251.81941258
_cell_formula_units_Z   1
loop_
 _symmetry_equiv_pos_site_id
 _symmetry_equiv_pos_as_xyz
  1  'x, y, z'
loop_
 _atom_site_type_symbol
 _atom_site_label
 _atom_site_symmetry_multiplicity
 _atom_site_fract_x
 _atom_site_fract_y
 _atom_site_fract_z
 _atom_site_occupancy
  Ho  Ho0  1  0.386677  0.700418  0.865628  1
  Ho  Ho1  1  0.700580  0.866406  0.390733  1
  Ho  Ho2  1  0.612952  0.299036  0.134147  1
  Er  Er3  1  0.299687  0.133825  0.609343  1
  Zr  Zr4  1  0.846975  0.395893  0.671607  1
  Zr  Zr5  1  0.153084  0.603970  0.328887  1
  Mo  Mo6  1  0.000186  0.000183  0.999946  1
  O  O7  1  0.022311  0.683222  0.889908  1
  O  O8  1  0.689734  0.932957  0.057712  1
  O  O9  1  0.925188  0.087102  0.693105  1
  O  O10  1  0.977598  0.316731  0.109853  1
  O  O11  1  0.310066  0.067312  0.941350  1
  O  O12  1  0.076193  0.913869  0.307247  1
  O  O13  1  0.585116  0.186776  0.432737  1
  O  O14  1  0.174970  0.432254  0.577439  1
  O  O15  1  0.417916  0.585025  0.177596  1
  O  O16  1  0.413502  0.814140  0.567957  1
  O  O17  1  0.825772  0.566667  0.422479  1
  O  O18  1  0.581490  0.414215  0.822326  1
