# generated using pymatgen
data_La7PaIr6
_symmetry_space_group_name_H-M   'P 1'
_cell_length_a   7.63165969
_cell_length_b   7.83247843
_cell_length_c   7.83247721
_cell_angle_alpha   109.98475469
_cell_angle_beta   108.95267513
_cell_angle_gamma   108.95266941
_symmetry_Int_Tables_number   1
_chemical_formula_structural   La7PaIr6
_chemical_formula_sum   'La7 Pa1 Ir6'
_cell_volume   362.68936188
_cell_formula_units_Z   1
loop_
 _symmetry_equiv_pos_site_id
 _symmetry_equiv_pos_as_xyz
  1  'x, y, z'
loop_
 _atom_site_type_symbol
 _atom_site_label
 _atom_site_symmetry_multiplicity
 _atom_site_fract_x
 _atom_site_fract_y
 _atom_site_fract_z
 _atom_site_occupancy
  La  La0  1  0.503297  0.001080  0.612309  1
  La  La1  1  0.385273  0.391258  0.401801  1
  La  La2  1  0.983473  0.098199  0.489457  1
  La  La3  1  0.890988  0.887691  0.888772  1
  La  La4  1  0.002217  0.611228  0.498920  1
  La  La5  1  0.638827  0.500000  0.000000  1
  La  La6  1  0.494016  0.010543  0.108742  1
  Pa  Pa7  1  0.131127  0.500000  0.000000  1
  Ir  Ir8  1  0.898838  0.265844  0.122174  1
  Ir  Ir9  1  0.132994  0.856331  0.234156  1
  Ir  Ir10  1  0.347416  0.604201  0.775759  1
  Ir  Ir11  1  0.243214  0.171557  0.895799  1
  Ir  Ir12  1  0.776664  0.377826  0.643669  1
  Ir  Ir13  1  0.571657  0.724241  0.328443  1
