# generated using pymatgen
data_Rb2AsOF5
_symmetry_space_group_name_H-M   'P 1'
_cell_length_a   6.26993549
_cell_length_b   6.26191324
_cell_length_c   6.09823493
_cell_angle_alpha   60.94727132
_cell_angle_beta   60.81557947
_cell_angle_gamma   58.23715319
_symmetry_Int_Tables_number   1
_chemical_formula_structural   Rb2AsOF5
_chemical_formula_sum   'Rb2 As1 O1 F5'
_cell_volume   169.06419701
_cell_formula_units_Z   1
loop_
 _symmetry_equiv_pos_site_id
 _symmetry_equiv_pos_as_xyz
  1  'x, y, z'
loop_
 _atom_site_type_symbol
 _atom_site_label
 _atom_site_symmetry_multiplicity
 _atom_site_fract_x
 _atom_site_fract_y
 _atom_site_fract_z
 _atom_site_occupancy
  Rb  Rb0  1  0.243397  0.243397  0.256603  1
  Rb  Rb1  1  0.743399  0.743397  0.756602  1
  As  As2  1  0.006637  0.006637  0.993363  1
  O  O3  1  0.191908  0.191909  0.808091  1
  F  F4  1  0.802590  0.802590  0.197409  1
  F  F5  1  0.195235  0.770844  0.229155  1
  F  F6  1  0.770254  0.195803  0.229745  1
  F  F7  1  0.195803  0.770255  0.804196  1
  F  F8  1  0.770844  0.195235  0.804764  1
