# generated using pymatgen
data_YbEu3Ta3SnO14
_symmetry_space_group_name_H-M   'P 1'
_cell_length_a   7.52237480
_cell_length_b   7.52237455
_cell_length_c   7.50460529
_cell_angle_alpha   59.92164420
_cell_angle_beta   59.92163954
_cell_angle_gamma   59.99999927
_symmetry_Int_Tables_number   1
_chemical_formula_structural   YbEu3Ta3SnO14
_chemical_formula_sum   'Yb1 Eu3 Ta3 Sn1 O14'
_cell_volume   299.92135488
_cell_formula_units_Z   1
loop_
 _symmetry_equiv_pos_site_id
 _symmetry_equiv_pos_as_xyz
  1  'x, y, z'
loop_
 _atom_site_type_symbol
 _atom_site_label
 _atom_site_symmetry_multiplicity
 _atom_site_fract_x
 _atom_site_fract_y
 _atom_site_fract_z
 _atom_site_occupancy
  Yb  Yb0  1  0.625000  0.625000  0.125000  1
  Eu  Eu1  1  0.625000  0.125000  0.625000  1
  Eu  Eu2  1  0.125000  0.625000  0.625000  1
  Eu  Eu3  1  0.625000  0.625000  0.625000  1
  Ta  Ta4  1  0.125000  0.625000  0.125000  1
  Ta  Ta5  1  0.625000  0.125000  0.125000  1
  Ta  Ta6  1  0.125000  0.125000  0.125000  1
  Sn  Sn7  1  0.125000  0.125000  0.625000  1
  O  O8  1  0.746448  0.746448  0.760656  1
  O  O9  1  0.503552  0.503552  0.489344  1
  O  O10  1  0.054509  0.440378  0.064734  1
  O  O11  1  0.794217  0.199435  0.806914  1
  O  O12  1  0.050565  0.050565  0.443086  1
  O  O13  1  0.440378  0.054509  0.064734  1
  O  O14  1  0.050565  0.455783  0.443086  1
  O  O15  1  0.440378  0.440378  0.064734  1
  O  O16  1  0.455783  0.050565  0.443086  1
  O  O17  1  0.199435  0.794217  0.806914  1
  O  O18  1  0.809622  0.195491  0.185266  1
  O  O19  1  0.195491  0.809622  0.185266  1
  O  O20  1  0.809622  0.809622  0.185266  1
  O  O21  1  0.199435  0.199435  0.806914  1
