# generated using pymatgen
data_Pr16In4CoOs3
_symmetry_space_group_name_H-M   'P 1'
_cell_length_a   10.05592791
_cell_length_b   9.97782924
_cell_length_c   10.05592800
_cell_angle_alpha   59.74073779
_cell_angle_beta   59.99999970
_cell_angle_gamma   59.74073981
_symmetry_Int_Tables_number   1
_chemical_formula_structural   Pr16In4CoOs3
_chemical_formula_sum   'Pr16 In4 Co1 Os3'
_cell_volume   710.64438528
_cell_formula_units_Z   1
loop_
 _symmetry_equiv_pos_site_id
 _symmetry_equiv_pos_as_xyz
  1  'x, y, z'
loop_
 _atom_site_type_symbol
 _atom_site_label
 _atom_site_symmetry_multiplicity
 _atom_site_fract_x
 _atom_site_fract_y
 _atom_site_fract_z
 _atom_site_occupancy
  Pr  Pr0  1  0.287974  0.900794  0.905617  1
  Pr  Pr1  1  0.686488  0.693473  0.310020  1
  Pr  Pr2  1  0.905617  0.900794  0.287974  1
  Pr  Pr3  1  0.310020  0.693473  0.310020  1
  Pr  Pr4  1  0.692537  0.308055  0.306870  1
  Pr  Pr5  1  0.058693  0.444052  0.438562  1
  Pr  Pr6  1  0.441575  0.059466  0.057383  1
  Pr  Pr7  1  0.057383  0.059466  0.441575  1
  Pr  Pr8  1  0.306870  0.308055  0.692537  1
  Pr  Pr9  1  0.441575  0.059466  0.441575  1
  Pr  Pr10  1  0.905617  0.900794  0.905617  1
  Pr  Pr11  1  0.438562  0.444052  0.058693  1
  Pr  Pr12  1  0.310020  0.693473  0.686488  1
  Pr  Pr13  1  0.692537  0.308055  0.692537  1
  Pr  Pr14  1  0.058693  0.444052  0.058693  1
  Pr  Pr15  1  0.904090  0.287731  0.904090  1
  In  In16  1  0.669751  0.669923  0.990576  1
  In  In17  1  0.990576  0.669923  0.669751  1
  In  In18  1  0.670087  0.989740  0.670087  1
  In  In19  1  0.669751  0.669923  0.669751  1
  Co  Co20  1  0.111698  0.664904  0.111698  1
  Os  Os21  1  0.111568  0.110112  0.111568  1
  Os  Os22  1  0.111568  0.110112  0.666750  1
  Os  Os23  1  0.666750  0.110112  0.111568  1
