# generated using pymatgen
data_TbMn5P3
_symmetry_space_group_name_H-M   'P 1'
_cell_length_a   3.60056400
_cell_length_b   10.72380800
_cell_length_c   12.22586300
_cell_angle_alpha   90.00000000
_cell_angle_beta   90.00000000
_cell_angle_gamma   90.00000000
_symmetry_Int_Tables_number   1
_chemical_formula_structural   TbMn5P3
_chemical_formula_sum   'Tb4 Mn20 P12'
_cell_volume   472.06205161
_cell_formula_units_Z   4
loop_
 _symmetry_equiv_pos_site_id
 _symmetry_equiv_pos_as_xyz
  1  'x, y, z'
loop_
 _atom_site_type_symbol
 _atom_site_label
 _atom_site_symmetry_multiplicity
 _atom_site_fract_x
 _atom_site_fract_y
 _atom_site_fract_z
 _atom_site_occupancy
  Tb  Tb0  1  0.250000  0.586956  0.705761  1
  Tb  Tb1  1  0.750000  0.413044  0.294239  1
  Tb  Tb2  1  0.750000  0.086956  0.794239  1
  Tb  Tb3  1  0.250000  0.913044  0.205761  1
  Mn  Mn4  1  0.250000  0.409652  0.493592  1
  Mn  Mn5  1  0.750000  0.711835  0.319556  1
  Mn  Mn6  1  0.750000  0.788165  0.819556  1
  Mn  Mn7  1  0.250000  0.288165  0.680444  1
  Mn  Mn8  1  0.250000  0.617325  0.192434  1
  Mn  Mn9  1  0.750000  0.382675  0.807566  1
  Mn  Mn10  1  0.750000  0.117325  0.307566  1
  Mn  Mn11  1  0.250000  0.882675  0.692434  1
  Mn  Mn12  1  0.250000  0.033454  0.434667  1
  Mn  Mn13  1  0.750000  0.966546  0.565333  1
  Mn  Mn14  1  0.750000  0.533454  0.065333  1
  Mn  Mn15  1  0.250000  0.466546  0.934667  1
  Mn  Mn16  1  0.750000  0.909652  0.006408  1
  Mn  Mn17  1  0.250000  0.090348  0.993592  1
  Mn  Mn18  1  0.250000  0.717838  0.982423  1
  Mn  Mn19  1  0.750000  0.282162  0.017577  1
  Mn  Mn20  1  0.750000  0.217838  0.517577  1
  Mn  Mn21  1  0.250000  0.782162  0.482423  1
  Mn  Mn22  1  0.250000  0.211835  0.180444  1
  Mn  Mn23  1  0.750000  0.590348  0.506408  1
  P  P24  1  0.250000  0.591586  0.383349  1
  P  P25  1  0.750000  0.408414  0.616651  1
  P  P26  1  0.750000  0.091586  0.116651  1
  P  P27  1  0.250000  0.908414  0.883349  1
  P  P28  1  0.750000  0.765393  0.624533  1
  P  P29  1  0.250000  0.234607  0.375467  1
  P  P30  1  0.250000  0.410613  0.114966  1
  P  P31  1  0.750000  0.589387  0.885034  1
  P  P32  1  0.750000  0.910613  0.385034  1
  P  P33  1  0.250000  0.089387  0.614966  1
  P  P34  1  0.250000  0.265393  0.875467  1
  P  P35  1  0.750000  0.734607  0.124533  1
