# generated using pymatgen
data_Tb2Y6AlCdPd2
_symmetry_space_group_name_H-M   'P 1'
_cell_length_a   9.69289845
_cell_length_b   9.69289956
_cell_length_c   9.70138900
_cell_angle_alpha   59.97102660
_cell_angle_beta   59.97102279
_cell_angle_gamma   60.02652802
_symmetry_Int_Tables_number   1
_chemical_formula_structural   Tb2Y6AlCdPd2
_chemical_formula_sum   'Tb4 Y12 Al2 Cd2 Pd4'
_cell_volume   644.35154027
_cell_formula_units_Z   2
loop_
 _symmetry_equiv_pos_site_id
 _symmetry_equiv_pos_as_xyz
  1  'x, y, z'
loop_
 _atom_site_type_symbol
 _atom_site_label
 _atom_site_symmetry_multiplicity
 _atom_site_fract_x
 _atom_site_fract_y
 _atom_site_fract_z
 _atom_site_occupancy
  Tb  Tb0  1  0.354829  0.354829  0.352086  1
  Tb  Tb1  1  0.354829  0.354829  0.938256  1
  Tb  Tb2  1  0.357635  0.932982  0.354692  1
  Tb  Tb3  1  0.932982  0.357635  0.354692  1
  Y  Y4  1  0.808725  0.192749  0.190144  1
  Y  Y5  1  0.192749  0.808725  0.808383  1
  Y  Y6  1  0.192749  0.808725  0.190144  1
  Y  Y7  1  0.808725  0.192749  0.808383  1
  Y  Y8  1  0.189289  0.189289  0.810711  1
  Y  Y9  1  0.806274  0.806274  0.193726  1
  Y  Y10  1  0.932731  0.565584  0.565530  1
  Y  Y11  1  0.565584  0.932731  0.936156  1
  Y  Y12  1  0.565584  0.932731  0.565530  1
  Y  Y13  1  0.932731  0.565584  0.936156  1
  Y  Y14  1  0.566140  0.566140  0.933860  1
  Y  Y15  1  0.936536  0.936536  0.563464  1
  Al  Al16  1  0.581730  0.581730  0.579663  1
  Al  Al17  1  0.581730  0.581730  0.256878  1
  Cd  Cd18  1  0.581168  0.258237  0.580298  1
  Cd  Cd19  1  0.258237  0.581168  0.580298  1
  Pd  Pd20  1  0.144858  0.144858  0.146357  1
  Pd  Pd21  1  0.144858  0.144858  0.563926  1
  Pd  Pd22  1  0.143265  0.566064  0.145335  1
  Pd  Pd23  1  0.566064  0.143265  0.145335  1
