# generated using pymatgen
data_Dy2Ho3MoRuO12
_symmetry_space_group_name_H-M   'P 1'
_cell_length_a   6.81515024
_cell_length_b   6.81385725
_cell_length_c   7.50736333
_cell_angle_alpha   73.74754654
_cell_angle_beta   73.74229994
_cell_angle_gamma   49.64373009
_symmetry_Int_Tables_number   1
_chemical_formula_structural   Dy2Ho3MoRuO12
_chemical_formula_sum   'Dy2 Ho3 Mo1 Ru1 O12'
_cell_volume   252.71236847
_cell_formula_units_Z   1
loop_
 _symmetry_equiv_pos_site_id
 _symmetry_equiv_pos_as_xyz
  1  'x, y, z'
loop_
 _atom_site_type_symbol
 _atom_site_label
 _atom_site_symmetry_multiplicity
 _atom_site_fract_x
 _atom_site_fract_y
 _atom_site_fract_z
 _atom_site_occupancy
  Dy  Dy0  1  0.692255  0.680611  0.174952  1
  Dy  Dy1  1  0.007809  0.992067  0.500184  1
  Ho  Ho2  1  0.315686  0.291635  0.359720  1
  Ho  Ho3  1  0.708322  0.684231  0.640820  1
  Ho  Ho4  1  0.319400  0.307838  0.824655  1
  Mo  Mo5  1  0.201790  0.798223  0.999944  1
  Ru  Ru6  1  0.762902  0.237173  0.999736  1
  O  O7  1  0.913873  0.428335  0.913615  1
  O  O8  1  0.413243  0.907348  0.916340  1
  O  O9  1  0.093827  0.586013  0.082938  1
  O  O10  1  0.570438  0.087930  0.085414  1
  O  O11  1  0.107258  0.587977  0.571853  1
  O  O12  1  0.598121  0.088361  0.577009  1
  O  O13  1  0.912272  0.401209  0.424044  1
  O  O14  1  0.411400  0.893335  0.429157  1
  O  O15  1  0.993105  0.004575  0.796731  1
  O  O16  1  0.995578  0.006685  0.203294  1
  O  O17  1  0.492323  0.509241  0.818913  1
  O  O18  1  0.490399  0.507212  0.180679  1
