# generated using pymatgen
data_Er4(AgPd3)3
_symmetry_space_group_name_H-M   'P 1'
_cell_length_a   7.16258645
_cell_length_b   7.16258560
_cell_length_c   7.16258500
_cell_angle_alpha   107.56013982
_cell_angle_beta   107.56012927
_cell_angle_gamma   113.36497186
_symmetry_Int_Tables_number   1
_chemical_formula_structural   Er4(AgPd3)3
_chemical_formula_sum   'Er4 Ag3 Pd9'
_cell_volume   281.88362517
_cell_formula_units_Z   1
loop_
 _symmetry_equiv_pos_site_id
 _symmetry_equiv_pos_as_xyz
  1  'x, y, z'
loop_
 _atom_site_type_symbol
 _atom_site_label
 _atom_site_symmetry_multiplicity
 _atom_site_fract_x
 _atom_site_fract_y
 _atom_site_fract_z
 _atom_site_occupancy
  Er  Er0  1  0.242056  0.242056  0.484113  1
  Er  Er1  1  0.757944  0.757944  0.515887  1
  Er  Er2  1  0.242056  0.757944  0.000000  1
  Er  Er3  1  0.757944  0.242056  0.000000  1
  Ag  Ag4  1  0.500000  0.000000  0.500000  1
  Ag  Ag5  1  0.000000  0.500000  0.500000  1
  Ag  Ag6  1  0.500000  0.500000  0.000000  1
  Pd  Pd7  1  0.503269  0.254113  0.249156  1
  Pd  Pd8  1  0.496731  0.745887  0.750844  1
  Pd  Pd9  1  0.004957  0.254113  0.750844  1
  Pd  Pd10  1  0.254113  0.004957  0.750844  1
  Pd  Pd11  1  0.995043  0.745887  0.249156  1
  Pd  Pd12  1  0.745887  0.995043  0.249156  1
  Pd  Pd13  1  0.254113  0.503269  0.249156  1
  Pd  Pd14  1  0.745887  0.496731  0.750844  1
  Pd  Pd15  1  0.000000  0.000000  0.000000  1
