# generated using pymatgen
data_Y6Er4(GaBi)3
_symmetry_space_group_name_H-M   'P 1'
_cell_length_a   8.83279800
_cell_length_b   8.87134853
_cell_length_c   6.52167200
_cell_angle_alpha   90.00000000
_cell_angle_beta   90.00000000
_cell_angle_gamma   119.85636297
_symmetry_Int_Tables_number   1
_chemical_formula_structural   Y6Er4(GaBi)3
_chemical_formula_sum   'Y6 Er4 Ga3 Bi3'
_cell_volume   443.20463808
_cell_formula_units_Z   1
loop_
 _symmetry_equiv_pos_site_id
 _symmetry_equiv_pos_as_xyz
  1  'x, y, z'
loop_
 _atom_site_type_symbol
 _atom_site_label
 _atom_site_symmetry_multiplicity
 _atom_site_fract_x
 _atom_site_fract_y
 _atom_site_fract_z
 _atom_site_occupancy
  Y  Y0  1  0.234431  0.000000  0.250000  1
  Y  Y1  1  0.243658  0.227575  0.750000  1
  Y  Y2  1  0.016083  0.772425  0.750000  1
  Y  Y3  1  0.017350  0.250878  0.250000  1
  Y  Y4  1  0.766472  0.749122  0.250000  1
  Y  Y5  1  0.754582  0.000000  0.750000  1
  Er  Er6  1  0.323902  0.668058  0.005009  1
  Er  Er7  1  0.655845  0.331942  0.494991  1
  Er  Er8  1  0.655845  0.331942  0.005009  1
  Er  Er9  1  0.323902  0.668058  0.494991  1
  Ga  Ga10  1  0.998443  0.600717  0.250000  1
  Ga  Ga11  1  0.397726  0.399283  0.250000  1
  Ga  Ga12  1  0.400841  0.000000  0.750000  1
  Bi  Bi13  1  0.611054  0.000000  0.250000  1
  Bi  Bi14  1  0.603867  0.607868  0.750000  1
  Bi  Bi15  1  0.995998  0.392132  0.750000  1
