# generated using pymatgen
data_Sm5(Tl2Pd)2
_symmetry_space_group_name_H-M   'P 1'
_cell_length_a   3.73757800
_cell_length_b   8.35409200
_cell_length_c   18.70287300
_cell_angle_alpha   90.00000000
_cell_angle_beta   90.00000000
_cell_angle_gamma   90.00000000
_symmetry_Int_Tables_number   1
_chemical_formula_structural   Sm5(Tl2Pd)2
_chemical_formula_sum   'Sm10 Tl8 Pd4'
_cell_volume   583.97982453
_cell_formula_units_Z   2
loop_
 _symmetry_equiv_pos_site_id
 _symmetry_equiv_pos_as_xyz
  1  'x, y, z'
loop_
 _atom_site_type_symbol
 _atom_site_label
 _atom_site_symmetry_multiplicity
 _atom_site_fract_x
 _atom_site_fract_y
 _atom_site_fract_z
 _atom_site_occupancy
  Sm  Sm0  1  0.000000  0.500000  0.500000  1
  Sm  Sm1  1  0.000000  0.000000  0.000000  1
  Sm  Sm2  1  0.000000  0.736155  0.283250  1
  Sm  Sm3  1  0.000000  0.263845  0.716750  1
  Sm  Sm4  1  0.000000  0.763845  0.783250  1
  Sm  Sm5  1  0.000000  0.236155  0.216750  1
  Sm  Sm6  1  0.000000  0.614385  0.086148  1
  Sm  Sm7  1  0.000000  0.385615  0.913852  1
  Sm  Sm8  1  0.000000  0.885615  0.586148  1
  Sm  Sm9  1  0.000000  0.114385  0.413852  1
  Tl  Tl10  1  0.500000  0.706616  0.934617  1
  Tl  Tl11  1  0.500000  0.293384  0.065383  1
  Tl  Tl12  1  0.500000  0.793384  0.434617  1
  Tl  Tl13  1  0.500000  0.206616  0.565383  1
  Tl  Tl14  1  0.500000  0.587734  0.650425  1
  Tl  Tl15  1  0.500000  0.412266  0.349575  1
  Tl  Tl16  1  0.500000  0.912266  0.150425  1
  Tl  Tl17  1  0.500000  0.087734  0.849575  1
  Pd  Pd18  1  0.500000  0.521252  0.197073  1
  Pd  Pd19  1  0.500000  0.478748  0.802927  1
  Pd  Pd20  1  0.500000  0.978748  0.697073  1
  Pd  Pd21  1  0.500000  0.021252  0.302927  1
