# generated using pymatgen
data_TbHo3Fe5Os3
_symmetry_space_group_name_H-M   'P 1'
_cell_length_a   5.24839988
_cell_length_b   5.22870273
_cell_length_c   9.02047515
_cell_angle_alpha   72.82041417
_cell_angle_beta   90.83261082
_cell_angle_gamma   120.26090350
_symmetry_Int_Tables_number   1
_chemical_formula_structural   TbHo3Fe5Os3
_chemical_formula_sum   'Tb1 Ho3 Fe5 Os3'
_cell_volume   201.54890782
_cell_formula_units_Z   1
loop_
 _symmetry_equiv_pos_site_id
 _symmetry_equiv_pos_as_xyz
  1  'x, y, z'
loop_
 _atom_site_type_symbol
 _atom_site_label
 _atom_site_symmetry_multiplicity
 _atom_site_fract_x
 _atom_site_fract_y
 _atom_site_fract_z
 _atom_site_occupancy
  Tb  Tb0  1  0.876108  0.750485  0.376422  1
  Ho  Ho1  1  0.375891  0.749967  0.873449  1
  Ho  Ho2  1  0.998848  0.999565  0.998679  1
  Ho  Ho3  1  0.498941  0.000073  0.501542  1
  Fe  Fe4  1  0.937457  0.874767  0.688283  1
  Fe  Fe5  1  0.183887  0.369768  0.443475  1
  Fe  Fe6  1  0.691267  0.380264  0.931717  1
  Fe  Fe7  1  0.937619  0.375540  0.186626  1
  Fe  Fe8  1  0.436987  0.374213  0.688332  1
  Os  Os9  1  0.437661  0.375876  0.186573  1
  Os  Os10  1  0.937610  0.373986  0.688350  1
  Os  Os11  1  0.437722  0.875498  0.186555  1
