# generated using pymatgen
data_SrHg2(SI)2
_symmetry_space_group_name_H-M   'P 1'
_cell_length_a   13.86429200
_cell_length_b   13.86429200
_cell_length_c   4.73378000
_cell_angle_alpha   90.00000000
_cell_angle_beta   90.00000000
_cell_angle_gamma   90.00000000
_symmetry_Int_Tables_number   1
_chemical_formula_structural   SrHg2(SI)2
_chemical_formula_sum   'Sr4 Hg8 S8 I8'
_cell_volume   909.92052957
_cell_formula_units_Z   4
loop_
 _symmetry_equiv_pos_site_id
 _symmetry_equiv_pos_as_xyz
  1  'x, y, z'
loop_
 _atom_site_type_symbol
 _atom_site_label
 _atom_site_symmetry_multiplicity
 _atom_site_fract_x
 _atom_site_fract_y
 _atom_site_fract_z
 _atom_site_occupancy
  Sr  Sr0  1  0.866545  0.366545  0.500000  1
  Sr  Sr1  1  0.366545  0.133455  0.500000  1
  Sr  Sr2  1  0.633455  0.866545  0.500000  1
  Sr  Sr3  1  0.133455  0.633455  0.500000  1
  Hg  Hg4  1  0.665308  0.586744  0.000000  1
  Hg  Hg5  1  0.334692  0.413256  0.000000  1
  Hg  Hg6  1  0.165308  0.913256  0.000000  1
  Hg  Hg7  1  0.913256  0.834692  0.000000  1
  Hg  Hg8  1  0.834692  0.086744  0.000000  1
  Hg  Hg9  1  0.086744  0.165308  0.000000  1
  Hg  Hg10  1  0.586744  0.334692  0.000000  1
  Hg  Hg11  1  0.413256  0.665308  0.000000  1
  S  S12  1  0.573389  0.736551  0.000000  1
  S  S13  1  0.736551  0.426611  0.000000  1
  S  S14  1  0.236551  0.073389  0.000000  1
  S  S15  1  0.263449  0.573389  0.000000  1
  S  S16  1  0.426611  0.263449  0.000000  1
  S  S17  1  0.926611  0.236551  0.000000  1
  S  S18  1  0.073389  0.763449  0.000000  1
  S  S19  1  0.763449  0.926611  0.000000  1
  I  I20  1  0.689532  0.189532  0.500000  1
  I  I21  1  0.500000  0.000000  0.000000  1
  I  I22  1  0.810468  0.689532  0.500000  1
  I  I23  1  0.310468  0.810468  0.500000  1
  I  I24  1  0.000000  0.000000  0.500000  1
  I  I25  1  0.189532  0.310468  0.500000  1
  I  I26  1  0.000000  0.500000  0.000000  1
  I  I27  1  0.500000  0.500000  0.500000  1
