# generated using pymatgen
data_CoSb2F12
_symmetry_space_group_name_H-M   'P 1'
_cell_length_a   5.26638734
_cell_length_b   5.54597261
_cell_length_c   9.11814700
_cell_angle_alpha   73.76175081
_cell_angle_beta   88.71535966
_cell_angle_gamma   62.11866105
_symmetry_Int_Tables_number   1
_chemical_formula_structural   CoSb2F12
_chemical_formula_sum   'Co1 Sb2 F12'
_cell_volume   224.16107641
_cell_formula_units_Z   1
loop_
 _symmetry_equiv_pos_site_id
 _symmetry_equiv_pos_as_xyz
  1  'x, y, z'
loop_
 _atom_site_type_symbol
 _atom_site_label
 _atom_site_symmetry_multiplicity
 _atom_site_fract_x
 _atom_site_fract_y
 _atom_site_fract_z
 _atom_site_occupancy
  Co  Co0  1  0.500000  0.500000  0.500000  1
  Sb  Sb1  1  0.775090  0.004068  0.241315  1
  Sb  Sb2  1  0.224910  0.995932  0.758685  1
  F  F3  1  0.951997  0.238791  0.206328  1
  F  F4  1  0.048003  0.761209  0.793672  1
  F  F5  1  0.025446  0.751601  0.137837  1
  F  F6  1  0.464554  0.773644  0.624514  1
  F  F7  1  0.535446  0.226356  0.375486  1
  F  F8  1  0.940241  0.245973  0.570165  1
  F  F9  1  0.059759  0.754027  0.429835  1
  F  F10  1  0.404559  0.241987  0.680682  1
  F  F11  1  0.595441  0.758013  0.319318  1
  F  F12  1  0.522352  0.772118  0.924697  1
  F  F13  1  0.477648  0.227882  0.075303  1
  F  F14  1  0.974554  0.248399  0.862163  1
