# generated using pymatgen
data_Tb2Ga7Ni2Pd
_symmetry_space_group_name_H-M   'P 1'
_cell_length_a   4.09648162
_cell_length_b   6.45339203
_cell_length_c   7.98569872
_cell_angle_alpha   90.78288628
_cell_angle_beta   104.86182521
_cell_angle_gamma   89.99999986
_symmetry_Int_Tables_number   1
_chemical_formula_structural   Tb2Ga7Ni2Pd
_chemical_formula_sum   'Tb2 Ga7 Ni2 Pd1'
_cell_volume   204.02887856
_cell_formula_units_Z   1
loop_
 _symmetry_equiv_pos_site_id
 _symmetry_equiv_pos_as_xyz
  1  'x, y, z'
loop_
 _atom_site_type_symbol
 _atom_site_label
 _atom_site_symmetry_multiplicity
 _atom_site_fract_x
 _atom_site_fract_y
 _atom_site_fract_z
 _atom_site_occupancy
  Tb  Tb0  1  0.876979  0.762444  0.753957  1
  Tb  Tb1  1  0.123021  0.237556  0.246043  1
  Ga  Ga2  1  0.500000  0.000000  0.000000  1
  Ga  Ga3  1  0.068108  0.725171  0.136216  1
  Ga  Ga4  1  0.931892  0.274829  0.863784  1
  Ga  Ga5  1  0.679743  0.545391  0.359486  1
  Ga  Ga6  1  0.320257  0.454609  0.640514  1
  Ga  Ga7  1  0.686073  0.947528  0.372145  1
  Ga  Ga8  1  0.313927  0.052472  0.627855  1
  Ni  Ni9  1  0.221586  0.745468  0.443172  1
  Ni  Ni10  1  0.778414  0.254532  0.556828  1
  Pd  Pd11  1  0.500000  0.500000  0.000000  1
