# generated using pymatgen
data_Dy6MnNb3(ReN4)6
_symmetry_space_group_name_H-M   'P 1'
_cell_length_a   11.07776832
_cell_length_b   11.09998054
_cell_length_c   11.08005736
_cell_angle_alpha   109.46319508
_cell_angle_beta   109.41862900
_cell_angle_gamma   109.45484734
_symmetry_Int_Tables_number   1
_chemical_formula_structural   Dy6MnNb3(ReN4)6
_chemical_formula_sum   'Dy12 Mn2 Nb6 Re12 N48'
_cell_volume   1049.79989414
_cell_formula_units_Z   2
loop_
 _symmetry_equiv_pos_site_id
 _symmetry_equiv_pos_as_xyz
  1  'x, y, z'
loop_
 _atom_site_type_symbol
 _atom_site_label
 _atom_site_symmetry_multiplicity
 _atom_site_fract_x
 _atom_site_fract_y
 _atom_site_fract_z
 _atom_site_occupancy
  Dy  Dy0  1  0.245962  0.371378  0.123364  1
  Dy  Dy1  1  0.374925  0.749850  0.124925  1
  Dy  Dy2  1  0.371139  0.122321  0.245529  1
  Dy  Dy3  1  0.874584  0.628622  0.251986  1
  Dy  Dy4  1  0.751182  0.122321  0.376792  1
  Dy  Dy5  1  0.120964  0.241928  0.370964  1
  Dy  Dy6  1  0.879036  0.758072  0.629036  1
  Dy  Dy7  1  0.248818  0.877679  0.623208  1
  Dy  Dy8  1  0.125416  0.371378  0.748014  1
  Dy  Dy9  1  0.628861  0.877679  0.754471  1
  Dy  Dy10  1  0.625075  0.250150  0.875075  1
  Dy  Dy11  1  0.754038  0.628622  0.876636  1
  Mn  Mn12  1  0.000000  0.000000  0.000000  1
  Mn  Mn13  1  0.000000  0.000000  0.500000  1
  Nb  Nb14  1  0.500000  0.000000  0.000000  1
  Nb  Nb15  1  0.000000  0.500000  0.000000  1
  Nb  Nb16  1  0.500000  0.500000  0.000000  1
  Nb  Nb17  1  0.500000  0.000000  0.500000  1
  Nb  Nb18  1  0.000000  0.500000  0.500000  1
  Nb  Nb19  1  0.500000  0.500000  0.500000  1
  Re  Re20  1  0.876483  0.248587  0.125429  1
  Re  Re21  1  0.754823  0.876979  0.127818  1
  Re  Re22  1  0.625290  0.374892  0.250443  1
  Re  Re23  1  0.122156  0.876979  0.249160  1
  Re  Re24  1  0.250398  0.625108  0.375551  1
  Re  Re25  1  0.627893  0.751412  0.376840  1
  Re  Re26  1  0.372106  0.248588  0.623160  1
  Re  Re27  1  0.749602  0.374892  0.624448  1
  Re  Re28  1  0.877844  0.123021  0.750839  1
  Re  Re29  1  0.374710  0.625107  0.749557  1
  Re  Re30  1  0.245176  0.123021  0.872182  1
  Re  Re31  1  0.123517  0.751412  0.874571  1
  N  N32  1  0.315447  0.902512  0.022354  1
  N  N33  1  0.201098  0.115726  0.015807  1
  N  N34  1  0.881952  0.399460  0.086312  1
  N  N35  1  0.706660  0.684451  0.085112  1
  N  N36  1  0.620165  0.412375  0.098650  1
  N  N37  1  0.977790  0.684451  0.099338  1
  N  N38  1  0.602636  0.914800  0.120347  1
  N  N39  1  0.020586  0.206318  0.117938  1
  N  N40  1  0.207789  0.587624  0.186276  1
  N  N41  1  0.482492  0.600540  0.186851  1
  N  N42  1  0.117730  0.021640  0.204085  1
  N  N43  1  0.588369  0.185700  0.206671  1
  N  N44  1  0.477463  0.378741  0.291793  1
  N  N45  1  0.312165  0.914800  0.294453  1
  N  N46  1  0.903910  0.021639  0.317556  1
  N  N47  1  0.913822  0.291793  0.314774  1
  N  N48  1  0.293604  0.478925  0.380727  1
  N  N49  1  0.587065  0.902513  0.380159  1
  N  N50  1  0.814679  0.521075  0.401802  1
  N  N51  1  0.085373  0.884274  0.400081  1
  N  N52  1  0.098721  0.621260  0.413052  1
  N  N53  1  0.814268  0.793682  0.411620  1
  N  N54  1  0.597331  0.185700  0.479028  1
  N  N55  1  0.377971  0.291793  0.477019  1
  N  N56  1  0.622029  0.708207  0.522981  1
  N  N57  1  0.402670  0.814300  0.520972  1
  N  N58  1  0.185731  0.206317  0.588379  1
  N  N59  1  0.901279  0.378741  0.586947  1
  N  N60  1  0.914627  0.115725  0.599918  1
  N  N61  1  0.185321  0.478925  0.598199  1
  N  N62  1  0.412934  0.097487  0.619842  1
  N  N63  1  0.706396  0.521075  0.619273  1
  N  N64  1  0.086178  0.708207  0.685226  1
  N  N65  1  0.096089  0.978360  0.682444  1
  N  N66  1  0.687835  0.085200  0.705547  1
  N  N67  1  0.522537  0.621259  0.708207  1
  N  N68  1  0.411630  0.814299  0.793328  1
  N  N69  1  0.882271  0.978361  0.795916  1
  N  N70  1  0.517508  0.399461  0.813149  1
  N  N71  1  0.792210  0.412375  0.813723  1
  N  N72  1  0.397363  0.085200  0.879652  1
  N  N73  1  0.979415  0.793683  0.882063  1
  N  N74  1  0.022209  0.315549  0.900661  1
  N  N75  1  0.379836  0.587624  0.901350  1
  N  N76  1  0.293340  0.315549  0.914888  1
  N  N77  1  0.118047  0.600539  0.913688  1
  N  N78  1  0.684553  0.097487  0.977645  1
  N  N79  1  0.798903  0.884275  0.984194  1
