# generated using pymatgen
data_Cs4TaBiCl12
_symmetry_space_group_name_H-M   'P 1'
_cell_length_a   13.29996868
_cell_length_b   13.29996842
_cell_length_c   13.29996755
_cell_angle_alpha   131.79075385
_cell_angle_beta   131.79075620
_cell_angle_gamma   70.55971024
_symmetry_Int_Tables_number   1
_chemical_formula_structural   Cs4TaBiCl12
_chemical_formula_sum   'Cs8 Ta2 Bi2 Cl24'
_cell_volume   1281.33725005
_cell_formula_units_Z   2
loop_
 _symmetry_equiv_pos_site_id
 _symmetry_equiv_pos_as_xyz
  1  'x, y, z'
loop_
 _atom_site_type_symbol
 _atom_site_label
 _atom_site_symmetry_multiplicity
 _atom_site_fract_x
 _atom_site_fract_y
 _atom_site_fract_z
 _atom_site_occupancy
  Cs  Cs0  1  0.375000  0.844771  0.969771  1
  Cs  Cs1  1  0.594771  0.625000  0.469771  1
  Cs  Cs2  1  0.875000  0.844771  0.469771  1
  Cs  Cs3  1  0.594771  0.125000  0.969771  1
  Cs  Cs4  1  0.875000  0.405229  0.030229  1
  Cs  Cs5  1  0.155229  0.125000  0.530229  1
  Cs  Cs6  1  0.375000  0.405229  0.530229  1
  Cs  Cs7  1  0.155229  0.625000  0.030229  1
  Ta  Ta8  1  0.000000  0.000000  0.000000  1
  Ta  Ta9  1  0.750000  0.250000  0.500000  1
  Bi  Bi10  1  0.500000  0.500000  0.000000  1
  Bi  Bi11  1  0.250000  0.750000  0.500000  1
  Cl  Cl12  1  0.747212  0.495309  0.251903  1
  Cl  Cl13  1  0.504691  0.252788  0.748097  1
  Cl  Cl14  1  0.374052  0.374052  0.000000  1
  Cl  Cl15  1  0.124052  0.624052  0.500000  1
  Cl  Cl16  1  0.375948  0.875948  0.500000  1
  Cl  Cl17  1  0.625948  0.625948  0.000000  1
  Cl  Cl18  1  0.109248  0.109248  0.000000  1
  Cl  Cl19  1  0.859248  0.359248  0.500000  1
  Cl  Cl20  1  0.640752  0.140752  0.500000  1
  Cl  Cl21  1  0.890752  0.890752  0.000000  1
  Cl  Cl22  1  0.219903  0.001067  0.218836  1
  Cl  Cl23  1  0.751067  0.032231  0.281164  1
  Cl  Cl24  1  0.504691  0.756592  0.251903  1
  Cl  Cl25  1  0.530097  0.248933  0.281164  1
  Cl  Cl26  1  0.967769  0.248933  0.718836  1
  Cl  Cl27  1  0.998933  0.217769  0.218836  1
  Cl  Cl28  1  0.998933  0.780097  0.781164  1
  Cl  Cl29  1  0.782231  0.001067  0.781164  1
  Cl  Cl30  1  0.751067  0.469903  0.718836  1
  Cl  Cl31  1  0.245309  0.493408  0.248097  1
  Cl  Cl32  1  0.245309  0.997212  0.751903  1
  Cl  Cl33  1  0.002788  0.754691  0.248097  1
  Cl  Cl34  1  0.506592  0.754691  0.751903  1
  Cl  Cl35  1  0.243408  0.495309  0.748097  1
