# generated using pymatgen
data_Eu4Mg4IrPt3
_symmetry_space_group_name_H-M   'P 1'
_cell_length_a   4.32196400
_cell_length_b   7.38774641
_cell_length_c   8.56633685
_cell_angle_alpha   89.97269898
_cell_angle_beta   90.00000000
_cell_angle_gamma   90.00000000
_symmetry_Int_Tables_number   1
_chemical_formula_structural   Eu4Mg4IrPt3
_chemical_formula_sum   'Eu4 Mg4 Ir1 Pt3'
_cell_volume   273.51945537
_cell_formula_units_Z   1
loop_
 _symmetry_equiv_pos_site_id
 _symmetry_equiv_pos_as_xyz
  1  'x, y, z'
loop_
 _atom_site_type_symbol
 _atom_site_label
 _atom_site_symmetry_multiplicity
 _atom_site_fract_x
 _atom_site_fract_y
 _atom_site_fract_z
 _atom_site_occupancy
  Eu  Eu0  1  0.250000  0.037496  0.318885  1
  Eu  Eu1  1  0.250000  0.525560  0.174699  1
  Eu  Eu2  1  0.750000  0.967666  0.675863  1
  Eu  Eu3  1  0.750000  0.463794  0.827726  1
  Mg  Mg4  1  0.250000  0.138537  0.942150  1
  Mg  Mg5  1  0.250000  0.636935  0.561208  1
  Mg  Mg6  1  0.750000  0.866193  0.061832  1
  Mg  Mg7  1  0.750000  0.362313  0.436135  1
  Ir  Ir8  1  0.750000  0.232101  0.125897  1
  Pt  Pt9  1  0.250000  0.269681  0.623830  1
  Pt  Pt10  1  0.250000  0.769181  0.874857  1
  Pt  Pt11  1  0.750000  0.730544  0.376917  1
