# generated using pymatgen
data_YbU3(VN2)4
_symmetry_space_group_name_H-M   'P 1'
_cell_length_a   5.45513626
_cell_length_b   3.16140000
_cell_length_c   10.54756656
_cell_angle_alpha   90.00000000
_cell_angle_beta   89.69627131
_cell_angle_gamma   90.00000000
_symmetry_Int_Tables_number   1
_chemical_formula_structural   YbU3(VN2)4
_chemical_formula_sum   'Yb1 U3 V4 N8'
_cell_volume   181.89938232
_cell_formula_units_Z   1
loop_
 _symmetry_equiv_pos_site_id
 _symmetry_equiv_pos_as_xyz
  1  'x, y, z'
loop_
 _atom_site_type_symbol
 _atom_site_label
 _atom_site_symmetry_multiplicity
 _atom_site_fract_x
 _atom_site_fract_y
 _atom_site_fract_z
 _atom_site_occupancy
  Yb  Yb0  1  0.080640  0.249999  0.145171  1
  U  U1  1  0.580388  0.249999  0.351855  1
  U  U2  1  0.423862  0.750001  0.641506  1
  U  U3  1  0.925207  0.750001  0.863199  1
  V  V4  1  0.569134  0.750001  0.093179  1
  V  V5  1  0.078608  0.750001  0.398608  1
  V  V6  1  0.926622  0.249999  0.598609  1
  V  V7  1  0.421961  0.249999  0.901090  1
  N  N8  1  0.736967  0.249999  0.007465  1
  N  N9  1  0.821133  0.750001  0.253676  1
  N  N10  1  0.341177  0.750001  0.257228  1
  N  N11  1  0.240045  0.249999  0.488794  1
  N  N12  1  0.762428  0.750001  0.508700  1
  N  N13  1  0.665984  0.249999  0.745906  1
  N  N14  1  0.164487  0.249999  0.754198  1
  N  N15  1  0.261359  0.750001  0.990820  1
