# generated using pymatgen
data_CePa(NbN2)2
_symmetry_space_group_name_H-M   'P 1'
_cell_length_a   3.30131300
_cell_length_b   5.73403993
_cell_length_c   11.04387500
_cell_angle_alpha   90.03260461
_cell_angle_beta   90.00000000
_cell_angle_gamma   90.00000000
_symmetry_Int_Tables_number   1
_chemical_formula_structural   CePa(NbN2)2
_chemical_formula_sum   'Ce2 Pa2 Nb4 N8'
_cell_volume   209.05897992
_cell_formula_units_Z   2
loop_
 _symmetry_equiv_pos_site_id
 _symmetry_equiv_pos_as_xyz
  1  'x, y, z'
loop_
 _atom_site_type_symbol
 _atom_site_label
 _atom_site_symmetry_multiplicity
 _atom_site_fract_x
 _atom_site_fract_y
 _atom_site_fract_z
 _atom_site_occupancy
  Ce  Ce0  1  0.250000  0.577279  0.857497  1
  Ce  Ce1  1  0.750000  0.422721  0.142503  1
  Pa  Pa2  1  0.750000  0.921937  0.356415  1
  Pa  Pa3  1  0.250000  0.078063  0.643585  1
  Nb  Nb4  1  0.250000  0.923313  0.099299  1
  Nb  Nb5  1  0.750000  0.076687  0.900701  1
  Nb  Nb6  1  0.750000  0.575494  0.598221  1
  Nb  Nb7  1  0.250000  0.424506  0.401779  1
  N  N8  1  0.250000  0.668145  0.251277  1
  N  N9  1  0.750000  0.331855  0.748723  1
  N  N10  1  0.750000  0.846536  0.740419  1
  N  N11  1  0.250000  0.153464  0.259581  1
  N  N12  1  0.250000  0.764851  0.504904  1
  N  N13  1  0.750000  0.235149  0.495096  1
  N  N14  1  0.750000  0.748251  0.005518  1
  N  N15  1  0.250000  0.251749  0.994482  1
