# generated using pymatgen
data_Hf4Ta2Si3Ge
_symmetry_space_group_name_H-M   'P 1'
_cell_length_a   6.84741475
_cell_length_b   6.84741436
_cell_length_c   3.74009900
_cell_angle_alpha   90.00000000
_cell_angle_beta   90.00000000
_cell_angle_gamma   90.03991303
_symmetry_Int_Tables_number   1
_chemical_formula_structural   Hf4Ta2Si3Ge
_chemical_formula_sum   'Hf4 Ta2 Si3 Ge1'
_cell_volume   175.36230134
_cell_formula_units_Z   1
loop_
 _symmetry_equiv_pos_site_id
 _symmetry_equiv_pos_as_xyz
  1  'x, y, z'
loop_
 _atom_site_type_symbol
 _atom_site_label
 _atom_site_symmetry_multiplicity
 _atom_site_fract_x
 _atom_site_fract_y
 _atom_site_fract_z
 _atom_site_occupancy
  Hf  Hf0  1  0.820804  0.674023  0.500000  1
  Hf  Hf1  1  0.328545  0.828545  0.500000  1
  Hf  Hf2  1  0.174023  0.320804  0.500000  1
  Hf  Hf3  1  0.674692  0.174692  0.500000  1
  Ta  Ta4  1  0.503116  0.499163  0.000000  1
  Ta  Ta5  1  0.999163  0.003116  0.000000  1
  Si  Si6  1  0.626343  0.874424  0.000000  1
  Si  Si7  1  0.374424  0.126343  0.000000  1
  Si  Si8  1  0.871418  0.371418  0.000000  1
  Ge  Ge9  1  0.127475  0.627475  0.000000  1
