# generated using pymatgen
data_Dy5TlIn2Se
_symmetry_space_group_name_H-M   'P 1'
_cell_length_a   9.14572100
_cell_length_b   9.14572040
_cell_length_c   6.78290500
_cell_angle_alpha   90.00000000
_cell_angle_beta   90.00000000
_cell_angle_gamma   120.17691028
_symmetry_Int_Tables_number   1
_chemical_formula_structural   Dy5TlIn2Se
_chemical_formula_sum   'Dy10 Tl2 In4 Se2'
_cell_volume   490.46189256
_cell_formula_units_Z   2
loop_
 _symmetry_equiv_pos_site_id
 _symmetry_equiv_pos_as_xyz
  1  'x, y, z'
loop_
 _atom_site_type_symbol
 _atom_site_label
 _atom_site_symmetry_multiplicity
 _atom_site_fract_x
 _atom_site_fract_y
 _atom_site_fract_z
 _atom_site_occupancy
  Dy  Dy0  1  0.667689  0.333007  0.999462  1
  Dy  Dy1  1  0.333007  0.667689  0.999462  1
  Dy  Dy2  1  0.333007  0.667689  0.500538  1
  Dy  Dy3  1  0.667689  0.333007  0.500538  1
  Dy  Dy4  1  0.749383  0.749383  0.750000  1
  Dy  Dy5  1  0.251134  0.999167  0.750000  1
  Dy  Dy6  1  0.999167  0.251134  0.750000  1
  Dy  Dy7  1  0.249799  0.249799  0.250000  1
  Dy  Dy8  1  0.748535  0.000144  0.250000  1
  Dy  Dy9  1  0.000144  0.748535  0.250000  1
  Tl  Tl10  1  0.400798  0.000662  0.250000  1
  Tl  Tl11  1  0.000662  0.400798  0.250000  1
  In  In12  1  0.400819  0.400819  0.750000  1
  In  In13  1  0.599760  0.999819  0.750000  1
  In  In14  1  0.999819  0.599760  0.750000  1
  In  In15  1  0.598863  0.598863  0.250000  1
  Se  Se16  1  0.999862  0.999862  0.999864  1
  Se  Se17  1  0.999862  0.999862  0.500136  1
