# generated using pymatgen
data_Tb2Tm3Zr3(Ni4P3)4
_symmetry_space_group_name_H-M   'P 1'
_cell_length_a   12.28687400
_cell_length_b   12.28687449
_cell_length_c   3.78692300
_cell_angle_alpha   90.00000000
_cell_angle_beta   90.00000000
_cell_angle_gamma   120.00000408
_symmetry_Int_Tables_number   1
_chemical_formula_structural   Tb2Tm3Zr3(Ni4P3)4
_chemical_formula_sum   'Tb2 Tm3 Zr3 Ni16 P12'
_cell_volume   495.10796720
_cell_formula_units_Z   1
loop_
 _symmetry_equiv_pos_site_id
 _symmetry_equiv_pos_as_xyz
  1  'x, y, z'
loop_
 _atom_site_type_symbol
 _atom_site_label
 _atom_site_symmetry_multiplicity
 _atom_site_fract_x
 _atom_site_fract_y
 _atom_site_fract_z
 _atom_site_occupancy
  Tb  Tb0  1  0.333333  0.666667  0.000000  1
  Tb  Tb1  1  0.666667  0.333333  0.000000  1
  Tm  Tm2  1  0.183684  0.183684  0.500000  1
  Tm  Tm3  1  0.816316  0.000000  0.500000  1
  Tm  Tm4  1  0.000000  0.816316  0.500000  1
  Zr  Zr5  1  0.561004  0.561004  0.000000  1
  Zr  Zr6  1  0.438996  0.000000  0.000000  1
  Zr  Zr7  1  0.000000  0.438996  0.000000  1
  Ni  Ni8  1  0.727985  0.727985  0.500000  1
  Ni  Ni9  1  0.272015  0.000000  0.500000  1
  Ni  Ni10  1  0.000000  0.272015  0.500000  1
  Ni  Ni11  1  0.184645  0.374835  0.000000  1
  Ni  Ni12  1  0.625165  0.809810  0.000000  1
  Ni  Ni13  1  0.190190  0.815355  0.000000  1
  Ni  Ni14  1  0.809810  0.625165  0.000000  1
  Ni  Ni15  1  0.815355  0.190190  0.000000  1
  Ni  Ni16  1  0.374835  0.184645  0.000000  1
  Ni  Ni17  1  0.359587  0.483566  0.500000  1
  Ni  Ni18  1  0.516434  0.876022  0.500000  1
  Ni  Ni19  1  0.123978  0.640413  0.500000  1
  Ni  Ni20  1  0.876022  0.516434  0.500000  1
  Ni  Ni21  1  0.640413  0.123978  0.500000  1
  Ni  Ni22  1  0.483566  0.359587  0.500000  1
  Ni  Ni23  1  0.000000  0.000000  0.000000  1
  P  P24  1  0.823242  0.823242  0.000000  1
  P  P25  1  0.176758  0.000000  0.000000  1
  P  P26  1  0.000000  0.176758  0.000000  1
  P  P27  1  0.170447  0.475744  0.500000  1
  P  P28  1  0.524256  0.694703  0.500000  1
  P  P29  1  0.305297  0.829553  0.500000  1
  P  P30  1  0.694703  0.524256  0.500000  1
  P  P31  1  0.829553  0.305297  0.500000  1
  P  P32  1  0.475744  0.170447  0.500000  1
  P  P33  1  0.354814  0.354814  0.000000  1
  P  P34  1  0.645186  0.000000  0.000000  1
  P  P35  1  0.000000  0.645186  0.000000  1
