# generated using pymatgen
data_Cs5(CrS3)2
_symmetry_space_group_name_H-M   'P 1'
_cell_length_a   8.02132634
_cell_length_b   8.68622054
_cell_length_c   17.53855400
_cell_angle_alpha   90.01155649
_cell_angle_beta   99.98346547
_cell_angle_gamma   122.78602954
_symmetry_Int_Tables_number   1
_chemical_formula_structural   Cs5(CrS3)2
_chemical_formula_sum   'Cs10 Cr4 S12'
_cell_volume   1005.22411322
_cell_formula_units_Z   2
loop_
 _symmetry_equiv_pos_site_id
 _symmetry_equiv_pos_as_xyz
  1  'x, y, z'
loop_
 _atom_site_type_symbol
 _atom_site_label
 _atom_site_symmetry_multiplicity
 _atom_site_fract_x
 _atom_site_fract_y
 _atom_site_fract_z
 _atom_site_occupancy
  Cs  Cs0  1  0.123470  0.799296  0.996143  1
  Cs  Cs1  1  0.876465  0.675791  0.503876  1
  Cs  Cs2  1  0.876530  0.200704  0.003857  1
  Cs  Cs3  1  0.123535  0.324209  0.496124  1
  Cs  Cs4  1  0.310807  0.080675  0.718160  1
  Cs  Cs5  1  0.689101  0.769816  0.781823  1
  Cs  Cs6  1  0.689193  0.919325  0.281840  1
  Cs  Cs7  1  0.310899  0.230184  0.218177  1
  Cs  Cs8  1  0.000011  0.387913  0.750027  1
  Cs  Cs9  1  0.999989  0.612087  0.249973  1
  Cr  Cr10  1  0.541100  0.922996  0.567610  1
  Cr  Cr11  1  0.458607  0.381466  0.932488  1
  Cr  Cr12  1  0.458900  0.077004  0.432390  1
  Cr  Cr13  1  0.541393  0.618534  0.067512  1
  S  S14  1  0.843354  0.992669  0.621748  1
  S  S15  1  0.156515  0.149015  0.878294  1
  S  S16  1  0.156646  0.007331  0.378252  1
  S  S17  1  0.843485  0.850985  0.121706  1
  S  S18  1  0.318080  0.724152  0.632714  1
  S  S19  1  0.681575  0.405868  0.867350  1
  S  S20  1  0.681920  0.275848  0.367286  1
  S  S21  1  0.318425  0.594132  0.132650  1
  S  S22  1  0.545004  0.182694  0.558455  1
  S  S23  1  0.454964  0.637500  0.941455  1
  S  S24  1  0.454996  0.817306  0.441545  1
  S  S25  1  0.545036  0.362500  0.058545  1
