# generated using pymatgen
data_Hf9Re3MoOs
_symmetry_space_group_name_H-M   'P 1'
_cell_length_a   8.53156600
_cell_length_b   8.68114442
_cell_length_c   8.68114400
_cell_angle_alpha   120.00032475
_cell_angle_beta   90.00000000
_cell_angle_gamma   90.00000000
_symmetry_Int_Tables_number   1
_chemical_formula_structural   Hf9Re3MoOs
_chemical_formula_sum   'Hf18 Re6 Mo2 Os2'
_cell_volume   556.81625728
_cell_formula_units_Z   2
loop_
 _symmetry_equiv_pos_site_id
 _symmetry_equiv_pos_as_xyz
  1  'x, y, z'
loop_
 _atom_site_type_symbol
 _atom_site_label
 _atom_site_symmetry_multiplicity
 _atom_site_fract_x
 _atom_site_fract_y
 _atom_site_fract_z
 _atom_site_occupancy
  Hf  Hf0  1  0.554124  0.802663  0.605327  1
  Hf  Hf1  1  0.554106  0.802661  0.197339  1
  Hf  Hf2  1  0.554124  0.394673  0.197337  1
  Hf  Hf3  1  0.445876  0.197337  0.394673  1
  Hf  Hf4  1  0.445894  0.197339  0.802661  1
  Hf  Hf5  1  0.445876  0.605327  0.802663  1
  Hf  Hf6  1  0.054124  0.197337  0.394673  1
  Hf  Hf7  1  0.054106  0.197339  0.802661  1
  Hf  Hf8  1  0.054124  0.605327  0.802663  1
  Hf  Hf9  1  0.945876  0.802663  0.605327  1
  Hf  Hf10  1  0.945894  0.802661  0.197339  1
  Hf  Hf11  1  0.945876  0.394673  0.197337  1
  Hf  Hf12  1  0.750000  0.459343  0.918666  1
  Hf  Hf13  1  0.750000  0.459327  0.540673  1
  Hf  Hf14  1  0.750000  0.081334  0.540657  1
  Hf  Hf15  1  0.250000  0.540657  0.081334  1
  Hf  Hf16  1  0.250000  0.540673  0.459327  1
  Hf  Hf17  1  0.250000  0.918666  0.459343  1
  Re  Re18  1  0.750000  0.111708  0.223411  1
  Re  Re19  1  0.750000  0.111714  0.888286  1
  Re  Re20  1  0.750000  0.776589  0.888292  1
  Re  Re21  1  0.250000  0.888292  0.776589  1
  Re  Re22  1  0.250000  0.888286  0.111714  1
  Re  Re23  1  0.250000  0.223411  0.111708  1
  Mo  Mo24  1  0.500000  0.000000  0.000000  1
  Mo  Mo25  1  0.000000  0.000000  0.000000  1
  Os  Os26  1  0.750000  0.666677  0.333323  1
  Os  Os27  1  0.250000  0.333323  0.666677  1
