# generated using pymatgen
data_Ho2Co2Se
_symmetry_space_group_name_H-M   'P 1'
_cell_length_a   3.88645400
_cell_length_b   3.88645496
_cell_length_c   15.19072200
_cell_angle_alpha   90.00000000
_cell_angle_beta   90.00000000
_cell_angle_gamma   119.99999185
_symmetry_Int_Tables_number   1
_chemical_formula_structural   Ho2Co2Se
_chemical_formula_sum   'Ho4 Co4 Se2'
_cell_volume   198.70841253
_cell_formula_units_Z   2
loop_
 _symmetry_equiv_pos_site_id
 _symmetry_equiv_pos_as_xyz
  1  'x, y, z'
loop_
 _atom_site_type_symbol
 _atom_site_label
 _atom_site_symmetry_multiplicity
 _atom_site_fract_x
 _atom_site_fract_y
 _atom_site_fract_z
 _atom_site_occupancy
  Ho  Ho0  1  0.000000  0.000000  0.121133  1
  Ho  Ho1  1  0.000000  0.000000  0.878867  1
  Ho  Ho2  1  0.000000  0.000000  0.621133  1
  Ho  Ho3  1  0.000000  0.000000  0.378867  1
  Co  Co4  1  0.333333  0.666667  0.502311  1
  Co  Co5  1  0.666667  0.333333  0.497689  1
  Co  Co6  1  0.666667  0.333333  0.002311  1
  Co  Co7  1  0.333333  0.666667  0.997689  1
  Se  Se8  1  0.333333  0.666667  0.250000  1
  Se  Se9  1  0.666667  0.333333  0.750000  1
