# generated using pymatgen
data_Tm5Ni7(PRu)12
_symmetry_space_group_name_H-M   'P 1'
_cell_length_a   12.39269013
_cell_length_b   12.31491859
_cell_length_c   3.86879300
_cell_angle_alpha   90.00000000
_cell_angle_beta   90.00000000
_cell_angle_gamma   119.85319512
_symmetry_Int_Tables_number   1
_chemical_formula_structural   Tm5Ni7(PRu)12
_chemical_formula_sum   'Tm5 Ni7 P12 Ru12'
_cell_volume   512.08707595
_cell_formula_units_Z   1
loop_
 _symmetry_equiv_pos_site_id
 _symmetry_equiv_pos_as_xyz
  1  'x, y, z'
loop_
 _atom_site_type_symbol
 _atom_site_label
 _atom_site_symmetry_multiplicity
 _atom_site_fract_x
 _atom_site_fract_y
 _atom_site_fract_z
 _atom_site_occupancy
  Tm  Tm0  1  0.667981  0.335085  0.000000  1
  Tm  Tm1  1  0.333093  0.667711  0.000000  1
  Tm  Tm2  1  0.820746  0.001517  0.500000  1
  Tm  Tm3  1  0.179120  0.178270  0.500000  1
  Tm  Tm4  1  0.996975  0.817889  0.500000  1
  Ni  Ni5  1  0.630270  0.807379  0.000000  1
  Ni  Ni6  1  0.181736  0.368697  0.000000  1
  Ni  Ni7  1  0.369134  0.175627  0.000000  1
  Ni  Ni8  1  0.191475  0.825681  0.000000  1
  Ni  Ni9  1  0.804355  0.625317  0.000000  1
  Ni  Ni10  1  0.868717  0.512282  0.500000  1
  Ni  Ni11  1  0.998798  0.998785  0.000000  1
  P  P12  1  0.636633  0.000995  0.000000  1
  P  P13  1  0.363995  0.362365  0.000000  1
  P  P14  1  0.997836  0.638692  0.000000  1
  P  P15  1  0.686192  0.518514  0.500000  1
  P  P16  1  0.835424  0.315886  0.500000  1
  P  P17  1  0.320781  0.837176  0.500000  1
  P  P18  1  0.514068  0.675711  0.500000  1
  P  P19  1  0.173038  0.000460  0.000000  1
  P  P20  1  0.824484  0.823420  0.000000  1
  P  P21  1  0.002530  0.176234  0.000000  1
  P  P22  1  0.481858  0.163240  0.500000  1
  P  P23  1  0.164598  0.490357  0.500000  1
  Ru  Ru24  1  0.482236  0.351391  0.500000  1
  Ru  Ru25  1  0.641631  0.125855  0.500000  1
  Ru  Ru26  1  0.125606  0.654602  0.500000  1
  Ru  Ru27  1  0.348458  0.477969  0.500000  1
  Ru  Ru28  1  0.519366  0.866852  0.500000  1
  Ru  Ru29  1  0.716995  0.720890  0.500000  1
  Ru  Ru30  1  0.010916  0.288159  0.500000  1
  Ru  Ru31  1  0.445253  0.992955  0.000000  1
  Ru  Ru32  1  0.548866  0.549196  0.000000  1
  Ru  Ru33  1  0.010467  0.456444  0.000000  1
  Ru  Ru34  1  0.826247  0.198306  0.000000  1
  Ru  Ru35  1  0.280121  0.000092  0.500000  1
