# generated using pymatgen
data_Ce5(ReB3)2
_symmetry_space_group_name_H-M   'P 1'
_cell_length_a   5.49553114
_cell_length_b   5.49553116
_cell_length_c   8.61956804
_cell_angle_alpha   71.41070492
_cell_angle_beta   71.41070551
_cell_angle_gamma   59.99999501
_symmetry_Int_Tables_number   1
_chemical_formula_structural   Ce5(ReB3)2
_chemical_formula_sum   'Ce5 Re2 B6'
_cell_volume   209.61334594
_cell_formula_units_Z   1
loop_
 _symmetry_equiv_pos_site_id
 _symmetry_equiv_pos_as_xyz
  1  'x, y, z'
loop_
 _atom_site_type_symbol
 _atom_site_label
 _atom_site_symmetry_multiplicity
 _atom_site_fract_x
 _atom_site_fract_y
 _atom_site_fract_z
 _atom_site_occupancy
  Ce  Ce0  1  0.000000  0.000000  0.000000  1
  Ce  Ce1  1  0.748788  0.748788  0.753635  1
  Ce  Ce2  1  0.251212  0.251212  0.246365  1
  Ce  Ce3  1  0.584669  0.584669  0.245991  1
  Ce  Ce4  1  0.415331  0.415331  0.754009  1
  Re  Re5  1  0.889813  0.889813  0.330563  1
  Re  Re6  1  0.110187  0.110187  0.669438  1
  B  B7  1  0.500000  0.171201  0.500000  1
  B  B8  1  0.828799  0.500000  0.500000  1
  B  B9  1  0.171201  0.828799  0.500000  1
  B  B10  1  0.171201  0.500000  0.500000  1
  B  B11  1  0.828799  0.171201  0.500000  1
  B  B12  1  0.500000  0.828799  0.500000  1
