# generated using pymatgen
data_Y9Ho7MgCd3Co4
_symmetry_space_group_name_H-M   'P 1'
_cell_length_a   9.48853870
_cell_length_b   9.46821291
_cell_length_c   9.52294342
_cell_angle_alpha   60.12172999
_cell_angle_beta   59.88096795
_cell_angle_gamma   60.05822661
_symmetry_Int_Tables_number   1
_chemical_formula_structural   Y9Ho7MgCd3Co4
_chemical_formula_sum   'Y9 Ho7 Mg1 Cd3 Co4'
_cell_volume   605.22845113
_cell_formula_units_Z   1
loop_
 _symmetry_equiv_pos_site_id
 _symmetry_equiv_pos_as_xyz
  1  'x, y, z'
loop_
 _atom_site_type_symbol
 _atom_site_label
 _atom_site_symmetry_multiplicity
 _atom_site_fract_x
 _atom_site_fract_y
 _atom_site_fract_z
 _atom_site_occupancy
  Y  Y0  1  0.939951  0.939772  0.559255  1
  Y  Y1  1  0.811955  0.187006  0.185539  1
  Y  Y2  1  0.939848  0.560582  0.562482  1
  Y  Y3  1  0.937366  0.561986  0.936095  1
  Y  Y4  1  0.812655  0.812706  0.184424  1
  Y  Y5  1  0.345761  0.343340  0.347714  1
  Y  Y6  1  0.559535  0.940161  0.938544  1
  Y  Y7  1  0.563539  0.936700  0.565218  1
  Y  Y8  1  0.186830  0.811467  0.810111  1
  Ho  Ho9  1  0.187587  0.187816  0.810474  1
  Ho  Ho10  1  0.345397  0.348733  0.959333  1
  Ho  Ho11  1  0.347939  0.964945  0.347843  1
  Ho  Ho12  1  0.810083  0.188543  0.809511  1
  Ho  Ho13  1  0.559664  0.559096  0.940101  1
  Ho  Ho14  1  0.188591  0.810944  0.186069  1
  Ho  Ho15  1  0.965644  0.347856  0.344628  1
  Mg  Mg16  1  0.574898  0.574459  0.273615  1
  Cd  Cd17  1  0.256449  0.579830  0.581950  1
  Cd  Cd18  1  0.579663  0.580557  0.579785  1
  Cd  Cd19  1  0.580049  0.256562  0.580539  1
  Co  Co20  1  0.576404  0.145943  0.135521  1
  Co  Co21  1  0.146079  0.139632  0.140544  1
  Co  Co22  1  0.146141  0.577010  0.141861  1
  Co  Co23  1  0.137978  0.144360  0.578847  1
