# generated using pymatgen
data_Be8V2FeTc
_symmetry_space_group_name_H-M   'P 1'
_cell_length_a   4.28002200
_cell_length_b   4.28002306
_cell_length_c   7.02693400
_cell_angle_alpha   90.00000000
_cell_angle_beta   90.00000000
_cell_angle_gamma   119.99999184
_symmetry_Int_Tables_number   1
_chemical_formula_structural   Be8V2FeTc
_chemical_formula_sum   'Be8 V2 Fe1 Tc1'
_cell_volume   111.47786735
_cell_formula_units_Z   1
loop_
 _symmetry_equiv_pos_site_id
 _symmetry_equiv_pos_as_xyz
  1  'x, y, z'
loop_
 _atom_site_type_symbol
 _atom_site_label
 _atom_site_symmetry_multiplicity
 _atom_site_fract_x
 _atom_site_fract_y
 _atom_site_fract_z
 _atom_site_occupancy
  Be  Be0  1  0.000000  0.000000  0.003866  1
  Be  Be1  1  0.000000  0.000000  0.498375  1
  Be  Be2  1  0.830453  0.660905  0.254139  1
  Be  Be3  1  0.169336  0.830664  0.745739  1
  Be  Be4  1  0.661329  0.830664  0.745739  1
  Be  Be5  1  0.339095  0.169547  0.254139  1
  Be  Be6  1  0.830453  0.169547  0.254139  1
  Be  Be7  1  0.169336  0.338671  0.745739  1
  V  V8  1  0.333333  0.666667  0.064961  1
  V  V9  1  0.666667  0.333333  0.558646  1
  Fe  Fe10  1  0.333333  0.666667  0.436247  1
  Tc  Tc11  1  0.666667  0.333333  0.938271  1
