# generated using pymatgen
data_NaAg(Bi3S5)2
_symmetry_space_group_name_H-M   'P 1'
_cell_length_a   7.19635200
_cell_length_b   7.19635275
_cell_length_c   16.86433838
_cell_angle_alpha   84.19792725
_cell_angle_beta   84.19792653
_cell_angle_gamma   32.77567143
_symmetry_Int_Tables_number   1
_chemical_formula_structural   NaAg(Bi3S5)2
_chemical_formula_sum   'Na1 Ag1 Bi6 S10'
_cell_volume   470.16327946
_cell_formula_units_Z   1
loop_
 _symmetry_equiv_pos_site_id
 _symmetry_equiv_pos_as_xyz
  1  'x, y, z'
loop_
 _atom_site_type_symbol
 _atom_site_label
 _atom_site_symmetry_multiplicity
 _atom_site_fract_x
 _atom_site_fract_y
 _atom_site_fract_z
 _atom_site_occupancy
  Na  Na0  1  0.500000  0.500000  0.500000  1
  Ag  Ag1  1  0.000000  0.000000  0.000000  1
  Bi  Bi2  1  0.219270  0.219270  0.606611  1
  Bi  Bi3  1  0.780730  0.780730  0.393389  1
  Bi  Bi4  1  0.474743  0.474743  0.787248  1
  Bi  Bi5  1  0.525257  0.525257  0.212752  1
  Bi  Bi6  1  0.736172  0.736172  0.890814  1
  Bi  Bi7  1  0.263828  0.263828  0.109186  1
  S  S8  1  0.847145  0.847145  0.532333  1
  S  S9  1  0.152855  0.152855  0.467667  1
  S  S10  1  0.582076  0.582076  0.644798  1
  S  S11  1  0.417924  0.417924  0.355202  1
  S  S12  1  0.848962  0.848962  0.746296  1
  S  S13  1  0.151038  0.151038  0.253704  1
  S  S14  1  0.087220  0.087220  0.862244  1
  S  S15  1  0.912780  0.912780  0.137756  1
  S  S16  1  0.650406  0.650406  0.057927  1
  S  S17  1  0.349594  0.349594  0.942073  1
