# generated using pymatgen
data_HoTmAl16Pt9
_symmetry_space_group_name_H-M   'P 1'
_cell_length_a   11.14734795
_cell_length_b   11.14734845
_cell_length_c   11.14734801
_cell_angle_alpha   158.67568871
_cell_angle_beta   115.11950659
_cell_angle_gamma   69.14250831
_symmetry_Int_Tables_number   1
_chemical_formula_structural   HoTmAl16Pt9
_chemical_formula_sum   'Ho1 Tm1 Al16 Pt9'
_cell_volume   452.80831578
_cell_formula_units_Z   1
loop_
 _symmetry_equiv_pos_site_id
 _symmetry_equiv_pos_as_xyz
  1  'x, y, z'
loop_
 _atom_site_type_symbol
 _atom_site_label
 _atom_site_symmetry_multiplicity
 _atom_site_fract_x
 _atom_site_fract_y
 _atom_site_fract_z
 _atom_site_occupancy
  Ho  Ho0  1  0.228225  0.228225  0.000000  1
  Tm  Tm1  1  0.771787  0.771787  0.000000  1
  Al  Al2  1  0.270357  0.390597  0.879760  1
  Al  Al3  1  0.091572  0.920142  0.171430  1
  Al  Al4  1  0.513137  0.204470  0.308669  1
  Al  Al5  1  0.251352  0.079859  0.171493  1
  Al  Al6  1  0.912654  0.412654  0.500000  1
  Al  Al7  1  0.729699  0.609474  0.120225  1
  Al  Al8  1  0.895801  0.204470  0.691331  1
  Al  Al9  1  0.486943  0.795519  0.691421  1
  Al  Al10  1  0.386592  0.999988  0.386603  1
  Al  Al11  1  0.613385  0.999988  0.613397  1
  Al  Al12  1  0.489249  0.609474  0.879775  1
  Al  Al13  1  0.104098  0.795519  0.308579  1
  Al  Al14  1  0.908366  0.079859  0.828507  1
  Al  Al15  1  0.748713  0.920142  0.828570  1
  Al  Al16  1  0.510837  0.390597  0.120240  1
  Al  Al17  1  0.087284  0.587284  0.500000  1
  Pt  Pt18  1  0.746810  0.499987  0.246823  1
  Pt  Pt19  1  0.020954  0.338821  0.682133  1
  Pt  Pt20  1  0.627999  0.127999  0.500000  1
  Pt  Pt21  1  0.253164  0.499987  0.753177  1
  Pt  Pt22  1  0.372234  0.872234  0.500000  1
  Pt  Pt23  1  0.000038  0.000038  0.000000  1
  Pt  Pt24  1  0.656688  0.338821  0.317867  1
  Pt  Pt25  1  0.343535  0.661031  0.682504  1
  Pt  Pt26  1  0.978528  0.661031  0.317496  1
