# generated using pymatgen
data_Nd4LuRu2
_symmetry_space_group_name_H-M   'P 1'
_cell_length_a   6.52638715
_cell_length_b   7.30857119
_cell_length_c   8.79513020
_cell_angle_alpha   96.18775059
_cell_angle_beta   111.77870977
_cell_angle_gamma   90.00000262
_symmetry_Int_Tables_number   1
_chemical_formula_structural   Nd4LuRu2
_chemical_formula_sum   'Nd8 Lu2 Ru4'
_cell_volume   386.93850683
_cell_formula_units_Z   2
loop_
 _symmetry_equiv_pos_site_id
 _symmetry_equiv_pos_as_xyz
  1  'x, y, z'
loop_
 _atom_site_type_symbol
 _atom_site_label
 _atom_site_symmetry_multiplicity
 _atom_site_fract_x
 _atom_site_fract_y
 _atom_site_fract_z
 _atom_site_occupancy
  Nd  Nd0  1  0.524478  0.083145  0.817285  1
  Nd  Nd1  1  0.475522  0.916855  0.182715  1
  Nd  Nd2  1  0.707193  0.416855  0.182715  1
  Nd  Nd3  1  0.292807  0.583145  0.817285  1
  Nd  Nd4  1  0.295287  0.311359  0.428644  1
  Nd  Nd5  1  0.704713  0.688641  0.571356  1
  Nd  Nd6  1  0.866644  0.188641  0.571356  1
  Nd  Nd7  1  0.133356  0.811359  0.428644  1
  Lu  Lu8  1  0.071082  0.250000  0.000000  1
  Lu  Lu9  1  0.928918  0.750000  0.000000  1
  Ru  Ru10  1  0.311510  0.572652  0.212323  1
  Ru  Ru11  1  0.688490  0.427348  0.787677  1
  Ru  Ru12  1  0.099189  0.927348  0.787677  1
  Ru  Ru13  1  0.900811  0.072652  0.212323  1
