# generated using pymatgen
data_Th6IrPd6Ru
_symmetry_space_group_name_H-M   'P 1'
_cell_length_a   8.09477326
_cell_length_b   8.09477200
_cell_length_c   8.09477185
_cell_angle_alpha   114.20522081
_cell_angle_beta   114.20521142
_cell_angle_gamma   114.20521610
_symmetry_Int_Tables_number   1
_chemical_formula_structural   Th6IrPd6Ru
_chemical_formula_sum   'Th6 Ir1 Pd6 Ru1'
_cell_volume   317.29009219
_cell_formula_units_Z   1
loop_
 _symmetry_equiv_pos_site_id
 _symmetry_equiv_pos_as_xyz
  1  'x, y, z'
loop_
 _atom_site_type_symbol
 _atom_site_label
 _atom_site_symmetry_multiplicity
 _atom_site_fract_x
 _atom_site_fract_y
 _atom_site_fract_z
 _atom_site_occupancy
  Th  Th0  1  0.397928  0.037664  0.278392  1
  Th  Th1  1  0.037664  0.278392  0.397928  1
  Th  Th2  1  0.278392  0.397928  0.037664  1
  Th  Th3  1  0.602072  0.962336  0.721608  1
  Th  Th4  1  0.962336  0.721608  0.602072  1
  Th  Th5  1  0.721608  0.602072  0.962336  1
  Ir  Ir6  1  0.500000  0.500000  0.500000  1
  Pd  Pd7  1  0.230875  0.066799  0.571016  1
  Pd  Pd8  1  0.066799  0.571016  0.230875  1
  Pd  Pd9  1  0.571016  0.230875  0.066799  1
  Pd  Pd10  1  0.769125  0.933201  0.428984  1
  Pd  Pd11  1  0.933201  0.428984  0.769125  1
  Pd  Pd12  1  0.428984  0.769125  0.933201  1
  Ru  Ru13  1  0.000000  0.000000  0.000000  1
