# generated using pymatgen
data_NdZr2TcF15
_symmetry_space_group_name_H-M   'P 1'
_cell_length_a   8.32631537
_cell_length_b   8.32631688
_cell_length_c   8.27446858
_cell_angle_alpha   78.98347034
_cell_angle_beta   78.98346708
_cell_angle_gamma   98.65912214
_symmetry_Int_Tables_number   1
_chemical_formula_structural   NdZr2TcF15
_chemical_formula_sum   'Nd2 Zr4 Tc2 F30'
_cell_volume   542.18289778
_cell_formula_units_Z   2
loop_
 _symmetry_equiv_pos_site_id
 _symmetry_equiv_pos_as_xyz
  1  'x, y, z'
loop_
 _atom_site_type_symbol
 _atom_site_label
 _atom_site_symmetry_multiplicity
 _atom_site_fract_x
 _atom_site_fract_y
 _atom_site_fract_z
 _atom_site_occupancy
  Nd  Nd0  1  0.178181  0.821819  0.250000  1
  Nd  Nd1  1  0.821819  0.178181  0.750000  1
  Zr  Zr2  1  0.734579  0.678919  0.668682  1
  Zr  Zr3  1  0.321081  0.265421  0.831318  1
  Zr  Zr4  1  0.265421  0.321081  0.331318  1
  Zr  Zr5  1  0.678919  0.734579  0.168682  1
  Tc  Tc6  1  0.750296  0.249704  0.250000  1
  Tc  Tc7  1  0.249704  0.750296  0.750000  1
  F  F8  1  0.471718  0.528282  0.250000  1
  F  F9  1  0.747659  0.945971  0.977316  1
  F  F10  1  0.054029  0.252341  0.522684  1
  F  F11  1  0.252341  0.054029  0.022684  1
  F  F12  1  0.945971  0.747659  0.477316  1
  F  F13  1  0.528282  0.471718  0.750000  1
  F  F14  1  0.223926  0.500363  0.781909  1
  F  F15  1  0.234014  0.724127  0.993117  1
  F  F16  1  0.009915  0.726611  0.785907  1
  F  F17  1  0.726611  0.009915  0.285907  1
  F  F18  1  0.724127  0.234014  0.493117  1
  F  F19  1  0.500363  0.223926  0.281909  1
  F  F20  1  0.776075  0.499637  0.218091  1
  F  F21  1  0.765986  0.275873  0.006883  1
  F  F22  1  0.990085  0.273389  0.214093  1
  F  F23  1  0.273389  0.990085  0.714093  1
  F  F24  1  0.275873  0.765986  0.506883  1
  F  F25  1  0.499637  0.776074  0.718091  1
  F  F26  1  0.530530  0.163214  0.810684  1
  F  F27  1  0.196638  0.072480  0.344420  1
  F  F28  1  0.649234  0.685697  0.439138  1
  F  F29  1  0.685697  0.649234  0.939138  1
  F  F30  1  0.072480  0.196638  0.844420  1
  F  F31  1  0.163214  0.530530  0.310684  1
  F  F32  1  0.469470  0.836786  0.189316  1
  F  F33  1  0.803362  0.927520  0.655580  1
  F  F34  1  0.350766  0.314303  0.560862  1
  F  F35  1  0.314303  0.350766  0.060862  1
  F  F36  1  0.927520  0.803362  0.155580  1
  F  F37  1  0.836786  0.469470  0.689316  1
