# generated using pymatgen
data_PrPa3(Re2Si)8
_symmetry_space_group_name_H-M   'P 1'
_cell_length_a   4.16886900
_cell_length_b   7.34510582
_cell_length_c   15.57702700
_cell_angle_alpha   89.89296875
_cell_angle_beta   90.00000000
_cell_angle_gamma   90.00000000
_symmetry_Int_Tables_number   1
_chemical_formula_structural   PrPa3(Re2Si)8
_chemical_formula_sum   'Pr1 Pa3 Re16 Si8'
_cell_volume   476.97994591
_cell_formula_units_Z   1
loop_
 _symmetry_equiv_pos_site_id
 _symmetry_equiv_pos_as_xyz
  1  'x, y, z'
loop_
 _atom_site_type_symbol
 _atom_site_label
 _atom_site_symmetry_multiplicity
 _atom_site_fract_x
 _atom_site_fract_y
 _atom_site_fract_z
 _atom_site_occupancy
  Pr  Pr0  1  0.000000  0.582589  0.119227  1
  Pa  Pa1  1  0.000000  0.410286  0.881662  1
  Pa  Pa2  1  0.500000  0.086433  0.380900  1
  Pa  Pa3  1  0.500000  0.911140  0.619124  1
  Re  Re4  1  0.000000  0.140121  0.048040  1
  Re  Re5  1  0.000000  0.853837  0.946595  1
  Re  Re6  1  0.500000  0.647541  0.451789  1
  Re  Re7  1  0.500000  0.352621  0.549317  1
  Re  Re8  1  0.000000  0.741967  0.323913  1
  Re  Re9  1  0.000000  0.264376  0.677332  1
  Re  Re10  1  0.500000  0.228826  0.181190  1
  Re  Re11  1  0.500000  0.764932  0.820290  1
  Re  Re12  1  0.000000  0.425814  0.420386  1
  Re  Re13  1  0.000000  0.575846  0.581044  1
  Re  Re14  1  0.500000  0.931647  0.079041  1
  Re  Re15  1  0.500000  0.077064  0.917416  1
  Re  Re16  1  0.000000  0.998214  0.207026  1
  Re  Re17  1  0.000000  0.008129  0.793833  1
  Re  Re18  1  0.500000  0.492919  0.297172  1
  Re  Re19  1  0.500000  0.506572  0.704355  1
  Si  Si20  1  0.000000  0.836319  0.476626  1
  Si  Si21  1  0.000000  0.165009  0.524427  1
  Si  Si22  1  0.500000  0.329122  0.024769  1
  Si  Si23  1  0.500000  0.667483  0.973952  1
  Si  Si24  1  0.000000  0.300848  0.274009  1
  Si  Si25  1  0.000000  0.700481  0.728861  1
  Si  Si26  1  0.500000  0.798148  0.227313  1
  Si  Si27  1  0.500000  0.201718  0.770392  1
