# generated using pymatgen
data_Pr11Nd(Si2Rh3)4
_symmetry_space_group_name_H-M   'P 1'
_cell_length_a   5.77174600
_cell_length_b   7.81784600
_cell_length_c   15.07571600
_cell_angle_alpha   90.00000000
_cell_angle_beta   90.00000000
_cell_angle_gamma   89.99742648
_symmetry_Int_Tables_number   1
_chemical_formula_structural   Pr11Nd(Si2Rh3)4
_chemical_formula_sum   'Pr11 Nd1 Si8 Rh12'
_cell_volume   680.25582474
_cell_formula_units_Z   1
loop_
 _symmetry_equiv_pos_site_id
 _symmetry_equiv_pos_as_xyz
  1  'x, y, z'
loop_
 _atom_site_type_symbol
 _atom_site_label
 _atom_site_symmetry_multiplicity
 _atom_site_fract_x
 _atom_site_fract_y
 _atom_site_fract_z
 _atom_site_occupancy
  Pr  Pr0  1  0.140840  0.472422  0.890932  1
  Pr  Pr1  1  0.359158  0.972164  0.891173  1
  Pr  Pr2  1  0.617164  0.333235  0.750000  1
  Pr  Pr3  1  0.381966  0.666319  0.250000  1
  Pr  Pr4  1  0.641670  0.028221  0.390338  1
  Pr  Pr5  1  0.859011  0.527235  0.109436  1
  Pr  Pr6  1  0.859011  0.527235  0.390564  1
  Pr  Pr7  1  0.359158  0.972164  0.608827  1
  Pr  Pr8  1  0.882923  0.833473  0.750000  1
  Pr  Pr9  1  0.140840  0.472422  0.609068  1
  Pr  Pr10  1  0.641670  0.028221  0.109662  1
  Nd  Nd11  1  0.119774  0.166005  0.250000  1
  Si  Si12  1  0.365364  0.373557  0.097568  1
  Si  Si13  1  0.633820  0.626163  0.903038  1
  Si  Si14  1  0.865933  0.126232  0.902953  1
  Si  Si15  1  0.365364  0.373557  0.402432  1
  Si  Si16  1  0.865933  0.126232  0.597047  1
  Si  Si17  1  0.633820  0.626163  0.596962  1
  Si  Si18  1  0.134052  0.874126  0.402569  1
  Si  Si19  1  0.134052  0.874126  0.097431  1
  Rh  Rh20  1  0.603177  0.337891  0.962733  1
  Rh  Rh21  1  0.396245  0.661988  0.037845  1
  Rh  Rh22  1  0.569373  0.319596  0.250000  1
  Rh  Rh23  1  0.396245  0.661988  0.462155  1
  Rh  Rh24  1  0.071072  0.179701  0.750000  1
  Rh  Rh25  1  0.102756  0.162282  0.462135  1
  Rh  Rh26  1  0.429161  0.679561  0.750000  1
  Rh  Rh27  1  0.931258  0.821874  0.250000  1
  Rh  Rh28  1  0.102756  0.162282  0.037865  1
  Rh  Rh29  1  0.603177  0.337891  0.537267  1
  Rh  Rh30  1  0.896629  0.837836  0.537325  1
  Rh  Rh31  1  0.896629  0.837836  0.962675  1
