# generated using pymatgen
data_Tb4Tm4B24Rh3W
_symmetry_space_group_name_H-M   'P 1'
_cell_length_a   3.65575600
_cell_length_b   9.16334452
_cell_length_c   11.55082216
_cell_angle_alpha   90.23059427
_cell_angle_beta   90.00000000
_cell_angle_gamma   90.00000000
_symmetry_Int_Tables_number   1
_chemical_formula_structural   Tb4Tm4B24Rh3W
_chemical_formula_sum   'Tb4 Tm4 B24 Rh3 W1'
_cell_volume   386.93730000
_cell_formula_units_Z   1
loop_
 _symmetry_equiv_pos_site_id
 _symmetry_equiv_pos_as_xyz
  1  'x, y, z'
loop_
 _atom_site_type_symbol
 _atom_site_label
 _atom_site_symmetry_multiplicity
 _atom_site_fract_x
 _atom_site_fract_y
 _atom_site_fract_z
 _atom_site_occupancy
  Tb  Tb0  1  0.500000  0.319381  0.411146  1
  Tb  Tb1  1  0.500000  0.676771  0.584927  1
  Tb  Tb2  1  0.500000  0.178870  0.916378  1
  Tb  Tb3  1  0.500000  0.823263  0.086645  1
  Tm  Tm4  1  0.500000  0.445488  0.125586  1
  Tm  Tm5  1  0.500000  0.557400  0.871397  1
  Tm  Tm6  1  0.500000  0.055805  0.629238  1
  Tm  Tm7  1  0.500000  0.944597  0.374488  1
  B  B8  1  0.000000  0.104316  0.473643  1
  B  B9  1  0.000000  0.894218  0.530091  1
  B  B10  1  0.000000  0.397879  0.969677  1
  B  B11  1  0.000000  0.606233  0.027548  1
  B  B12  1  0.000000  0.131248  0.317555  1
  B  B13  1  0.000000  0.867483  0.683707  1
  B  B14  1  0.000000  0.369469  0.816102  1
  B  B15  1  0.000000  0.632178  0.183643  1
  B  B16  1  0.000000  0.052102  0.065194  1
  B  B17  1  0.000000  0.945959  0.932552  1
  B  B18  1  0.000000  0.444302  0.566187  1
  B  B19  1  0.000000  0.553229  0.433122  1
  B  B20  1  0.000000  0.483643  0.286565  1
  B  B21  1  0.000000  0.516821  0.712543  1
  B  B22  1  0.000000  0.016788  0.786934  1
  B  B23  1  0.000000  0.979893  0.214908  1
  B  B24  1  0.000000  0.252525  0.078972  1
  B  B25  1  0.000000  0.750574  0.918678  1
  B  B26  1  0.000000  0.248967  0.580299  1
  B  B27  1  0.000000  0.749361  0.420404  1
  B  B28  1  0.000000  0.295790  0.235528  1
  B  B29  1  0.000000  0.706371  0.763981  1
  B  B30  1  0.000000  0.208080  0.735491  1
  B  B31  1  0.000000  0.791896  0.266634  1
  Rh  Rh32  1  0.500000  0.860504  0.819710  1
  Rh  Rh33  1  0.500000  0.360513  0.680182  1
  Rh  Rh34  1  0.500000  0.639218  0.320531  1
  W  W35  1  0.500000  0.138868  0.179817  1
