# generated using pymatgen
data_LuPaGa3Tc
_symmetry_space_group_name_H-M   'P 1'
_cell_length_a   5.34282700
_cell_length_b   5.34282769
_cell_length_c   9.03475900
_cell_angle_alpha   90.00000000
_cell_angle_beta   90.00000000
_cell_angle_gamma   119.99998951
_symmetry_Int_Tables_number   1
_chemical_formula_structural   LuPaGa3Tc
_chemical_formula_sum   'Lu2 Pa2 Ga6 Tc2'
_cell_volume   223.35183783
_cell_formula_units_Z   2
loop_
 _symmetry_equiv_pos_site_id
 _symmetry_equiv_pos_as_xyz
  1  'x, y, z'
loop_
 _atom_site_type_symbol
 _atom_site_label
 _atom_site_symmetry_multiplicity
 _atom_site_fract_x
 _atom_site_fract_y
 _atom_site_fract_z
 _atom_site_occupancy
  Lu  Lu0  1  0.666667  0.333333  0.939124  1
  Lu  Lu1  1  0.333333  0.666667  0.060876  1
  Pa  Pa2  1  0.333333  0.666667  0.467699  1
  Pa  Pa3  1  0.666667  0.333333  0.532301  1
  Ga  Ga4  1  0.833912  0.166088  0.242916  1
  Ga  Ga5  1  0.833912  0.667824  0.242916  1
  Ga  Ga6  1  0.332176  0.166088  0.242916  1
  Ga  Ga7  1  0.166088  0.833912  0.757084  1
  Ga  Ga8  1  0.166088  0.332176  0.757084  1
  Ga  Ga9  1  0.667824  0.833912  0.757084  1
  Tc  Tc10  1  0.000000  0.000000  0.500000  1
  Tc  Tc11  1  0.000000  0.000000  0.000000  1
