# generated using pymatgen
data_TbHo9Ru3Rh
_symmetry_space_group_name_H-M   'P 1'
_cell_length_a   6.32239101
_cell_length_b   7.27648590
_cell_length_c   8.45402018
_cell_angle_alpha   96.73911182
_cell_angle_beta   111.99500571
_cell_angle_gamma   90.06326261
_symmetry_Int_Tables_number   1
_chemical_formula_structural   TbHo9Ru3Rh
_chemical_formula_sum   'Tb1 Ho9 Ru3 Rh1'
_cell_volume   357.69753106
_cell_formula_units_Z   1
loop_
 _symmetry_equiv_pos_site_id
 _symmetry_equiv_pos_as_xyz
  1  'x, y, z'
loop_
 _atom_site_type_symbol
 _atom_site_label
 _atom_site_symmetry_multiplicity
 _atom_site_fract_x
 _atom_site_fract_y
 _atom_site_fract_z
 _atom_site_occupancy
  Tb  Tb0  1  0.978792  0.917819  0.185737  1
  Ho  Ho1  1  0.791579  0.584829  0.811068  1
  Ho  Ho2  1  0.021531  0.084895  0.813471  1
  Ho  Ho3  1  0.209327  0.414006  0.185483  1
  Ho  Ho4  1  0.640411  0.816397  0.436421  1
  Ho  Ho5  1  0.209588  0.685530  0.567686  1
  Ho  Ho6  1  0.357893  0.185486  0.565519  1
  Ho  Ho7  1  0.793290  0.313108  0.436065  1
  Ho  Ho8  1  0.418949  0.750610  0.999397  1
  Ho  Ho9  1  0.578299  0.248076  0.998310  1
  Ru  Ru10  1  0.604000  0.922988  0.779593  1
  Ru  Ru11  1  0.175507  0.425029  0.778925  1
  Ru  Ru12  1  0.398284  0.076193  0.220713  1
  Rh  Rh13  1  0.822548  0.575030  0.221612  1
