# generated using pymatgen
data_Ho9ErGa3Bi2Ir
_symmetry_space_group_name_H-M   'P 1'
_cell_length_a   8.61559882
_cell_length_b   8.61559836
_cell_length_c   8.74023710
_cell_angle_alpha   124.91663582
_cell_angle_beta   124.91874823
_cell_angle_gamma   80.71418670
_symmetry_Int_Tables_number   1
_chemical_formula_structural   Ho9ErGa3Bi2Ir
_chemical_formula_sum   'Ho9 Er1 Ga3 Bi2 Ir1'
_cell_volume   422.65964858
_cell_formula_units_Z   1
loop_
 _symmetry_equiv_pos_site_id
 _symmetry_equiv_pos_as_xyz
  1  'x, y, z'
loop_
 _atom_site_type_symbol
 _atom_site_label
 _atom_site_symmetry_multiplicity
 _atom_site_fract_x
 _atom_site_fract_y
 _atom_site_fract_z
 _atom_site_occupancy
  Ho  Ho0  1  0.499957  0.500063  0.000019  1
  Ho  Ho1  1  0.016074  0.500861  0.798667  1
  Ho  Ho2  1  0.717560  0.201938  0.201319  1
  Ho  Ho3  1  0.516300  0.705837  0.500143  1
  Ho  Ho4  1  0.194922  0.039077  0.499813  1
  Ho  Ho5  1  0.999380  0.483760  0.201319  1
  Ho  Ho6  1  0.297807  0.782594  0.798667  1
  Ho  Ho7  1  0.460736  0.304890  0.499813  1
  Ho  Ho8  1  0.794306  0.983843  0.500143  1
  Er  Er9  1  0.000068  0.000144  0.000214  1
  Ga  Ga10  1  0.357033  0.855512  0.212544  1
  Ga  Ga11  1  0.644852  0.142651  0.787504  1
  Ga  Ga12  1  0.864178  0.636156  0.500334  1
  Bi  Bi13  1  0.755690  0.744659  0.999986  1
  Bi  Bi14  1  0.255328  0.244296  0.999986  1
  Ir  Ir15  1  0.125812  0.373716  0.499528  1
