# generated using pymatgen
data_Ho3Co4MoP6RuRh3
_symmetry_space_group_name_H-M   'P 1'
_cell_length_a   3.80727100
_cell_length_b   10.93914400
_cell_length_c   12.58753600
_cell_angle_alpha   90.00000000
_cell_angle_beta   90.00000000
_cell_angle_gamma   90.00000000
_symmetry_Int_Tables_number   1
_chemical_formula_structural   Ho3Co4MoP6RuRh3
_chemical_formula_sum   'Ho6 Co8 Mo2 P12 Ru2 Rh6'
_cell_volume   524.24929579
_cell_formula_units_Z   2
loop_
 _symmetry_equiv_pos_site_id
 _symmetry_equiv_pos_as_xyz
  1  'x, y, z'
loop_
 _atom_site_type_symbol
 _atom_site_label
 _atom_site_symmetry_multiplicity
 _atom_site_fract_x
 _atom_site_fract_y
 _atom_site_fract_z
 _atom_site_occupancy
  Ho  Ho0  1  0.000000  0.500000  0.518616  1
  Ho  Ho1  1  0.500000  0.000000  0.477270  1
  Ho  Ho2  1  0.500000  0.815728  0.196528  1
  Ho  Ho3  1  0.500000  0.184272  0.196528  1
  Ho  Ho4  1  0.000000  0.680741  0.805876  1
  Ho  Ho5  1  0.000000  0.319259  0.805876  1
  Co  Co6  1  0.000000  0.500000  0.989259  1
  Co  Co7  1  0.500000  0.000000  0.015057  1
  Co  Co8  1  0.000000  0.619326  0.282805  1
  Co  Co9  1  0.000000  0.380674  0.282805  1
  Co  Co10  1  0.500000  0.333443  0.994652  1
  Co  Co11  1  0.500000  0.666557  0.994652  1
  Co  Co12  1  0.000000  0.168195  0.010223  1
  Co  Co13  1  0.000000  0.831805  0.010223  1
  Mo  Mo14  1  0.500000  0.500000  0.150437  1
  Mo  Mo15  1  0.000000  0.000000  0.852233  1
  P  P16  1  0.500000  0.315633  0.615024  1
  P  P17  1  0.500000  0.684367  0.615024  1
  P  P18  1  0.000000  0.196557  0.374536  1
  P  P19  1  0.000000  0.803443  0.374536  1
  P  P20  1  0.500000  0.500000  0.891605  1
  P  P21  1  0.000000  0.000000  0.111130  1
  P  P22  1  0.500000  0.842803  0.903238  1
  P  P23  1  0.500000  0.157197  0.903238  1
  P  P24  1  0.000000  0.654170  0.105688  1
  P  P25  1  0.000000  0.345830  0.105688  1
  P  P26  1  0.500000  0.500000  0.339912  1
  P  P27  1  0.000000  0.000000  0.657942  1
  Ru  Ru28  1  0.500000  0.300161  0.424290  1
  Ru  Ru29  1  0.500000  0.699839  0.424290  1
  Rh  Rh30  1  0.000000  0.205822  0.568358  1
  Rh  Rh31  1  0.000000  0.794178  0.568358  1
  Rh  Rh32  1  0.500000  0.873382  0.715734  1
  Rh  Rh33  1  0.500000  0.126618  0.715734  1
  Rh  Rh34  1  0.500000  0.500000  0.705212  1
  Rh  Rh35  1  0.000000  0.000000  0.297413  1
