# generated using pymatgen
data_CaTb3Lu4(B6Os)4
_symmetry_space_group_name_H-M   'P 1'
_cell_length_a   3.62358700
_cell_length_b   9.09518091
_cell_length_c   11.49876842
_cell_angle_alpha   89.92567228
_cell_angle_beta   90.00000000
_cell_angle_gamma   90.00000000
_symmetry_Int_Tables_number   1
_chemical_formula_structural   CaTb3Lu4(B6Os)4
_chemical_formula_sum   'Ca1 Tb3 Lu4 B24 Os4'
_cell_volume   378.96665386
_cell_formula_units_Z   1
loop_
 _symmetry_equiv_pos_site_id
 _symmetry_equiv_pos_as_xyz
  1  'x, y, z'
loop_
 _atom_site_type_symbol
 _atom_site_label
 _atom_site_symmetry_multiplicity
 _atom_site_fract_x
 _atom_site_fract_y
 _atom_site_fract_z
 _atom_site_occupancy
  Ca  Ca0  1  0.000000  0.321684  0.413851  1
  Tb  Tb1  1  0.000000  0.676904  0.585132  1
  Tb  Tb2  1  0.000000  0.821876  0.086560  1
  Tb  Tb3  1  0.000000  0.178764  0.914449  1
  Lu  Lu4  1  0.000000  0.944616  0.372185  1
  Lu  Lu5  1  0.000000  0.057084  0.627043  1
  Lu  Lu6  1  0.000000  0.443705  0.128527  1
  Lu  Lu7  1  0.000000  0.555485  0.872639  1
  B  B8  1  0.500000  0.554541  0.432133  1
  B  B9  1  0.500000  0.445508  0.567854  1
  B  B10  1  0.500000  0.054085  0.067217  1
  B  B11  1  0.500000  0.945250  0.932146  1
  B  B12  1  0.500000  0.749927  0.418539  1
  B  B13  1  0.500000  0.250400  0.581525  1
  B  B14  1  0.500000  0.249614  0.081334  1
  B  B15  1  0.500000  0.749852  0.918857  1
  B  B16  1  0.500000  0.792445  0.266052  1
  B  B17  1  0.500000  0.208471  0.734192  1
  B  B18  1  0.500000  0.291399  0.233854  1
  B  B19  1  0.500000  0.708226  0.766119  1
  B  B20  1  0.500000  0.630906  0.185239  1
  B  B21  1  0.500000  0.369423  0.815655  1
  B  B22  1  0.500000  0.130534  0.314742  1
  B  B23  1  0.500000  0.869372  0.684554  1
  B  B24  1  0.500000  0.983169  0.213075  1
  B  B25  1  0.500000  0.016963  0.786199  1
  B  B26  1  0.500000  0.483114  0.286713  1
  B  B27  1  0.500000  0.516799  0.713624  1
  B  B28  1  0.500000  0.603309  0.028495  1
  B  B29  1  0.500000  0.396863  0.971978  1
  B  B30  1  0.500000  0.101321  0.472089  1
  B  B31  1  0.500000  0.897769  0.528040  1
  Os  Os32  1  0.000000  0.640288  0.319440  1
  Os  Os33  1  0.000000  0.361168  0.681191  1
  Os  Os34  1  0.000000  0.137820  0.178678  1
  Os  Os35  1  0.000000  0.861347  0.820080  1
