# generated using pymatgen
data_Nb2SbO7F
_symmetry_space_group_name_H-M   'P 1'
_cell_length_a   6.34502997
_cell_length_b   6.34502987
_cell_length_c   3.87184100
_cell_angle_alpha   90.00000000
_cell_angle_beta   90.00000000
_cell_angle_gamma   117.69993994
_symmetry_Int_Tables_number   1
_chemical_formula_structural   Nb2SbO7F
_chemical_formula_sum   'Nb2 Sb1 O7 F1'
_cell_volume   138.01347567
_cell_formula_units_Z   1
loop_
 _symmetry_equiv_pos_site_id
 _symmetry_equiv_pos_as_xyz
  1  'x, y, z'
loop_
 _atom_site_type_symbol
 _atom_site_label
 _atom_site_symmetry_multiplicity
 _atom_site_fract_x
 _atom_site_fract_y
 _atom_site_fract_z
 _atom_site_occupancy
  Nb  Nb0  1  0.695993  0.304007  0.000000  1
  Nb  Nb1  1  0.304007  0.695993  0.000000  1
  Sb  Sb2  1  0.000000  0.000000  0.000000  1
  O  O3  1  0.334662  0.037164  0.000000  1
  O  O4  1  0.037164  0.334662  0.000000  1
  O  O5  1  0.000000  0.000000  0.500000  1
  O  O6  1  0.679012  0.320988  0.500000  1
  O  O7  1  0.320988  0.679012  0.500000  1
  O  O8  1  0.962836  0.665338  0.000000  1
  O  O9  1  0.665338  0.962836  0.000000  1
  F  F10  1  0.500000  0.500000  0.000000  1
