# generated using pymatgen
data_Tb5(SnBi)2
_symmetry_space_group_name_H-M   'P 1'
_cell_length_a   8.20460500
_cell_length_b   8.25647700
_cell_length_c   15.69485800
_cell_angle_alpha   90.00000000
_cell_angle_beta   90.00000000
_cell_angle_gamma   90.00000000
_symmetry_Int_Tables_number   1
_chemical_formula_structural   Tb5(SnBi)2
_chemical_formula_sum   'Tb20 Sn8 Bi8'
_cell_volume   1063.18745498
_cell_formula_units_Z   4
loop_
 _symmetry_equiv_pos_site_id
 _symmetry_equiv_pos_as_xyz
  1  'x, y, z'
loop_
 _atom_site_type_symbol
 _atom_site_label
 _atom_site_symmetry_multiplicity
 _atom_site_fract_x
 _atom_site_fract_y
 _atom_site_fract_z
 _atom_site_occupancy
  Tb  Tb0  1  0.385870  0.838361  0.876611  1
  Tb  Tb1  1  0.885870  0.661639  0.623389  1
  Tb  Tb2  1  0.614130  0.161639  0.376611  1
  Tb  Tb3  1  0.114130  0.338361  0.123389  1
  Tb  Tb4  1  0.614130  0.161639  0.123389  1
  Tb  Tb5  1  0.114130  0.338361  0.376611  1
  Tb  Tb6  1  0.385870  0.838361  0.623389  1
  Tb  Tb7  1  0.885870  0.661639  0.876611  1
  Tb  Tb8  1  0.552685  0.328273  0.890019  1
  Tb  Tb9  1  0.052685  0.171727  0.609981  1
  Tb  Tb10  1  0.447315  0.671727  0.390019  1
  Tb  Tb11  1  0.947315  0.828273  0.109981  1
  Tb  Tb12  1  0.447315  0.671727  0.109981  1
  Tb  Tb13  1  0.947315  0.828273  0.390019  1
  Tb  Tb14  1  0.552685  0.328273  0.609981  1
  Tb  Tb15  1  0.052685  0.171727  0.890019  1
  Tb  Tb16  1  0.217283  0.497997  0.750000  1
  Tb  Tb17  1  0.717283  0.002003  0.750000  1
  Tb  Tb18  1  0.782717  0.502003  0.250000  1
  Tb  Tb19  1  0.282717  0.997997  0.250000  1
  Sn  Sn20  1  0.582476  0.626292  0.750000  1
  Sn  Sn21  1  0.082476  0.873708  0.750000  1
  Sn  Sn22  1  0.417524  0.373708  0.250000  1
  Sn  Sn23  1  0.917524  0.126292  0.250000  1
  Sn  Sn24  1  0.356155  0.143827  0.750000  1
  Sn  Sn25  1  0.856155  0.356173  0.750000  1
  Sn  Sn26  1  0.643845  0.856173  0.250000  1
  Sn  Sn27  1  0.143845  0.643827  0.250000  1
  Bi  Bi28  1  0.270177  0.020761  0.044035  1
  Bi  Bi29  1  0.770177  0.479239  0.455965  1
  Bi  Bi30  1  0.729823  0.979239  0.544035  1
  Bi  Bi31  1  0.229823  0.520761  0.955965  1
  Bi  Bi32  1  0.729823  0.979239  0.955965  1
  Bi  Bi33  1  0.229823  0.520761  0.544035  1
  Bi  Bi34  1  0.270177  0.020761  0.455965  1
  Bi  Bi35  1  0.770177  0.479239  0.044035  1
