# generated using pymatgen
data_Dy2Th(MgIr)3
_symmetry_space_group_name_H-M   'P 1'
_cell_length_a   7.28866400
_cell_length_b   7.28866335
_cell_length_c   4.06534500
_cell_angle_alpha   90.00000000
_cell_angle_beta   90.00000000
_cell_angle_gamma   118.72230505
_symmetry_Int_Tables_number   1
_chemical_formula_structural   Dy2Th(MgIr)3
_chemical_formula_sum   'Dy2 Th1 Mg3 Ir3'
_cell_volume   189.39678019
_cell_formula_units_Z   1
loop_
 _symmetry_equiv_pos_site_id
 _symmetry_equiv_pos_as_xyz
  1  'x, y, z'
loop_
 _atom_site_type_symbol
 _atom_site_label
 _atom_site_symmetry_multiplicity
 _atom_site_fract_x
 _atom_site_fract_y
 _atom_site_fract_z
 _atom_site_occupancy
  Dy  Dy0  1  0.593763  0.999461  0.500000  1
  Dy  Dy1  1  0.999461  0.593763  0.500000  1
  Th  Th2  1  0.415788  0.415788  0.500000  1
  Mg  Mg3  1  0.765311  0.765311  0.000000  1
  Mg  Mg4  1  0.244320  0.992646  0.000000  1
  Mg  Mg5  1  0.992646  0.244320  0.000000  1
  Ir  Ir6  1  0.655487  0.330751  0.000000  1
  Ir  Ir7  1  0.330751  0.655487  0.000000  1
  Ir  Ir8  1  0.002473  0.002473  0.500000  1
