# generated using pymatgen
data_TbNpB6Mo
_symmetry_space_group_name_H-M   'P 1'
_cell_length_a   3.64347700
_cell_length_b   9.33783600
_cell_length_c   11.40218600
_cell_angle_alpha   90.00000000
_cell_angle_beta   90.00000000
_cell_angle_gamma   90.00000000
_symmetry_Int_Tables_number   1
_chemical_formula_structural   TbNpB6Mo
_chemical_formula_sum   'Tb4 Np4 B24 Mo4'
_cell_volume   387.92734644
_cell_formula_units_Z   4
loop_
 _symmetry_equiv_pos_site_id
 _symmetry_equiv_pos_as_xyz
  1  'x, y, z'
loop_
 _atom_site_type_symbol
 _atom_site_label
 _atom_site_symmetry_multiplicity
 _atom_site_fract_x
 _atom_site_fract_y
 _atom_site_fract_z
 _atom_site_occupancy
  Tb  Tb0  1  0.000000  0.338349  0.407981  1
  Tb  Tb1  1  0.000000  0.661651  0.592019  1
  Tb  Tb2  1  0.000000  0.838349  0.092019  1
  Tb  Tb3  1  0.000000  0.161651  0.907981  1
  Np  Np4  1  0.000000  0.959162  0.400519  1
  Np  Np5  1  0.000000  0.040838  0.599481  1
  Np  Np6  1  0.000000  0.459162  0.099481  1
  Np  Np7  1  0.000000  0.540838  0.900519  1
  B  B8  1  0.500000  0.552469  0.431586  1
  B  B9  1  0.500000  0.447531  0.568414  1
  B  B10  1  0.500000  0.052469  0.068414  1
  B  B11  1  0.500000  0.947531  0.931586  1
  B  B12  1  0.500000  0.746270  0.423546  1
  B  B13  1  0.500000  0.253730  0.576454  1
  B  B14  1  0.500000  0.246270  0.076454  1
  B  B15  1  0.500000  0.753730  0.923546  1
  B  B16  1  0.500000  0.806249  0.275470  1
  B  B17  1  0.500000  0.193751  0.724530  1
  B  B18  1  0.500000  0.306249  0.224530  1
  B  B19  1  0.500000  0.693751  0.775470  1
  B  B20  1  0.500000  0.643848  0.187072  1
  B  B21  1  0.500000  0.356152  0.812928  1
  B  B22  1  0.500000  0.143848  0.312928  1
  B  B23  1  0.500000  0.856152  0.687072  1
  B  B24  1  0.500000  0.988502  0.221636  1
  B  B25  1  0.500000  0.011498  0.778364  1
  B  B26  1  0.500000  0.488502  0.278364  1
  B  B27  1  0.500000  0.511498  0.721636  1
  B  B28  1  0.500000  0.638000  0.038334  1
  B  B29  1  0.500000  0.362000  0.961666  1
  B  B30  1  0.500000  0.138000  0.461666  1
  B  B31  1  0.500000  0.862000  0.538334  1
  Mo  Mo32  1  0.000000  0.647744  0.317513  1
  Mo  Mo33  1  0.000000  0.352256  0.682487  1
  Mo  Mo34  1  0.000000  0.147744  0.182487  1
  Mo  Mo35  1  0.000000  0.852256  0.817513  1
