# generated using pymatgen
data_Ti7Nb(SiBi2)2
_symmetry_space_group_name_H-M   'P 1'
_cell_length_a   7.85257684
_cell_length_b   7.85257836
_cell_length_c   7.88434920
_cell_angle_alpha   95.59615699
_cell_angle_beta   95.79205994
_cell_angle_gamma   143.20297295
_symmetry_Int_Tables_number   1
_chemical_formula_structural   Ti7Nb(SiBi2)2
_chemical_formula_sum   'Ti7 Nb1 Si2 Bi4'
_cell_volume   276.44564514
_cell_formula_units_Z   1
loop_
 _symmetry_equiv_pos_site_id
 _symmetry_equiv_pos_as_xyz
  1  'x, y, z'
loop_
 _atom_site_type_symbol
 _atom_site_label
 _atom_site_symmetry_multiplicity
 _atom_site_fract_x
 _atom_site_fract_y
 _atom_site_fract_z
 _atom_site_occupancy
  Ti  Ti0  1  0.920519  0.198664  0.119184  1
  Ti  Ti1  1  0.302437  0.583345  0.885781  1
  Ti  Ti2  1  0.801169  0.916889  0.718059  1
  Ti  Ti3  1  0.696635  0.417981  0.114616  1
  Ti  Ti4  1  0.081102  0.801185  0.882285  1
  Ti  Ti5  1  0.419426  0.302443  0.721869  1
  Ti  Ti6  1  0.196713  0.082729  0.279442  1
  Nb  Nb7  1  0.581346  0.696382  0.277728  1
  Si  Si8  1  0.750398  0.749566  0.996532  1
  Si  Si9  1  0.246966  0.246135  0.996532  1
  Bi  Bi10  1  0.357910  0.862521  0.220431  1
  Bi  Bi11  1  0.141046  0.362099  0.503145  1
  Bi  Bi12  1  0.642512  0.141072  0.783584  1
  Bi  Bi13  1  0.861822  0.638989  0.500811  1
