# generated using pymatgen
data_Lu8B24IrOsW2
_symmetry_space_group_name_H-M   'P 1'
_cell_length_a   3.58588000
_cell_length_b   9.10386539
_cell_length_c   11.47352900
_cell_angle_alpha   90.03170699
_cell_angle_beta   90.00000000
_cell_angle_gamma   90.00000000
_symmetry_Int_Tables_number   1
_chemical_formula_structural   Lu8B24IrOsW2
_chemical_formula_sum   'Lu8 B24 Ir1 Os1 W2'
_cell_volume   374.55752874
_cell_formula_units_Z   1
loop_
 _symmetry_equiv_pos_site_id
 _symmetry_equiv_pos_as_xyz
  1  'x, y, z'
loop_
 _atom_site_type_symbol
 _atom_site_label
 _atom_site_symmetry_multiplicity
 _atom_site_fract_x
 _atom_site_fract_y
 _atom_site_fract_z
 _atom_site_occupancy
  Lu  Lu0  1  0.000000  0.315651  0.413973  1
  Lu  Lu1  1  0.000000  0.679381  0.589102  1
  Lu  Lu2  1  0.000000  0.824019  0.082230  1
  Lu  Lu3  1  0.000000  0.180606  0.912438  1
  Lu  Lu4  1  0.000000  0.943172  0.373171  1
  Lu  Lu5  1  0.000000  0.053767  0.627922  1
  Lu  Lu6  1  0.000000  0.444451  0.126813  1
  Lu  Lu7  1  0.000000  0.558106  0.873043  1
  B  B8  1  0.500000  0.554037  0.433589  1
  B  B9  1  0.500000  0.449424  0.563252  1
  B  B10  1  0.500000  0.050640  0.063591  1
  B  B11  1  0.500000  0.946301  0.932338  1
  B  B12  1  0.500000  0.749428  0.421367  1
  B  B13  1  0.500000  0.247058  0.577744  1
  B  B14  1  0.500000  0.252615  0.077718  1
  B  B15  1  0.500000  0.751558  0.919946  1
  B  B16  1  0.500000  0.791937  0.265685  1
  B  B17  1  0.500000  0.204567  0.736691  1
  B  B18  1  0.500000  0.295657  0.236876  1
  B  B19  1  0.500000  0.708288  0.766302  1
  B  B20  1  0.500000  0.632372  0.183496  1
  B  B21  1  0.500000  0.370075  0.817591  1
  B  B22  1  0.500000  0.130036  0.317885  1
  B  B23  1  0.500000  0.868160  0.685175  1
  B  B24  1  0.500000  0.976704  0.212555  1
  B  B25  1  0.500000  0.017385  0.787273  1
  B  B26  1  0.500000  0.482140  0.287261  1
  B  B27  1  0.500000  0.523543  0.712970  1
  B  B28  1  0.500000  0.606406  0.029567  1
  B  B29  1  0.500000  0.399256  0.971931  1
  B  B30  1  0.500000  0.100321  0.471884  1
  B  B31  1  0.500000  0.893519  0.529220  1
  Ir  Ir32  1  0.000000  0.638242  0.320924  1
  Os  Os33  1  0.000000  0.860998  0.820418  1
  W  W34  1  0.000000  0.362240  0.678738  1
  W  W35  1  0.000000  0.137947  0.179322  1
