# generated using pymatgen
data_Zr3Cu2SnN
_symmetry_space_group_name_H-M   'P 1'
_cell_length_a   8.65477027
_cell_length_b   8.65477023
_cell_length_c   8.65477100
_cell_angle_alpha   60.00000086
_cell_angle_beta   60.00000105
_cell_angle_gamma   59.99999390
_symmetry_Int_Tables_number   1
_chemical_formula_structural   Zr3Cu2SnN
_chemical_formula_sum   'Zr12 Cu8 Sn4 N4'
_cell_volume   458.40743900
_cell_formula_units_Z   4
loop_
 _symmetry_equiv_pos_site_id
 _symmetry_equiv_pos_as_xyz
  1  'x, y, z'
loop_
 _atom_site_type_symbol
 _atom_site_label
 _atom_site_symmetry_multiplicity
 _atom_site_fract_x
 _atom_site_fract_y
 _atom_site_fract_z
 _atom_site_occupancy
  Zr  Zr0  1  0.813906  0.186094  0.186094  1
  Zr  Zr1  1  0.186094  0.813906  0.186094  1
  Zr  Zr2  1  0.813906  0.813906  0.186094  1
  Zr  Zr3  1  0.186094  0.813906  0.813906  1
  Zr  Zr4  1  0.813906  0.186094  0.813906  1
  Zr  Zr5  1  0.186094  0.186094  0.813906  1
  Zr  Zr6  1  0.436094  0.063906  0.063906  1
  Zr  Zr7  1  0.063906  0.436094  0.063906  1
  Zr  Zr8  1  0.436094  0.436094  0.063906  1
  Zr  Zr9  1  0.063906  0.436094  0.436094  1
  Zr  Zr10  1  0.436094  0.063906  0.436094  1
  Zr  Zr11  1  0.063906  0.063906  0.436094  1
  Cu  Cu12  1  0.414816  0.414816  0.755551  1
  Cu  Cu13  1  0.414816  0.414816  0.414816  1
  Cu  Cu14  1  0.755551  0.414816  0.414816  1
  Cu  Cu15  1  0.414816  0.755551  0.414816  1
  Cu  Cu16  1  0.835184  0.835184  0.494449  1
  Cu  Cu17  1  0.835184  0.835184  0.835184  1
  Cu  Cu18  1  0.494449  0.835184  0.835184  1
  Cu  Cu19  1  0.835184  0.494449  0.835184  1
  Sn  Sn20  1  0.625000  0.625000  0.125000  1
  Sn  Sn21  1  0.625000  0.625000  0.625000  1
  Sn  Sn22  1  0.125000  0.625000  0.625000  1
  Sn  Sn23  1  0.625000  0.125000  0.625000  1
  N  N24  1  0.125000  0.125000  0.625000  1
  N  N25  1  0.125000  0.125000  0.125000  1
  N  N26  1  0.625000  0.125000  0.125000  1
  N  N27  1  0.125000  0.625000  0.125000  1
