# generated using pymatgen
data_SmY8ErIn6
_symmetry_space_group_name_H-M   'P 1'
_cell_length_a   6.04574948
_cell_length_b   9.19250143
_cell_length_c   9.19250100
_cell_angle_alpha   83.79208295
_cell_angle_beta   70.80152893
_cell_angle_gamma   70.80153264
_symmetry_Int_Tables_number   1
_chemical_formula_structural   SmY8ErIn6
_chemical_formula_sum   'Sm1 Y8 Er1 In6'
_cell_volume   455.63370549
_cell_formula_units_Z   1
loop_
 _symmetry_equiv_pos_site_id
 _symmetry_equiv_pos_as_xyz
  1  'x, y, z'
loop_
 _atom_site_type_symbol
 _atom_site_label
 _atom_site_symmetry_multiplicity
 _atom_site_fract_x
 _atom_site_fract_y
 _atom_site_fract_z
 _atom_site_occupancy
  Sm  Sm0  1  0.250000  0.500187  0.499813  1
  Y  Y1  1  0.717938  0.862891  0.699683  1
  Y  Y2  1  0.281135  0.137169  0.300385  1
  Y  Y3  1  0.782062  0.300317  0.137109  1
  Y  Y4  1  0.218865  0.699615  0.862831  1
  Y  Y5  1  0.581163  0.699691  0.137147  1
  Y  Y6  1  0.419617  0.300362  0.862841  1
  Y  Y7  1  0.080383  0.137159  0.699638  1
  Y  Y8  1  0.918837  0.862853  0.300309  1
  Er  Er9  1  0.750000  0.500015  0.499985  1
  In  In10  1  0.160674  0.499982  0.174964  1
  In  In11  1  0.835338  0.499954  0.825270  1
  In  In12  1  0.339326  0.825036  0.500018  1
  In  In13  1  0.664662  0.174730  0.500046  1
  In  In14  1  0.250000  0.999452  0.000548  1
  In  In15  1  0.750000  0.000589  0.999411  1
