# generated using pymatgen
data_SmDy2Ti(Co4P3)2
_symmetry_space_group_name_H-M   'P 1'
_cell_length_a   3.70771800
_cell_length_b   10.62728900
_cell_length_c   12.32518800
_cell_angle_alpha   90.00000000
_cell_angle_beta   90.00000000
_cell_angle_gamma   90.00000000
_symmetry_Int_Tables_number   1
_chemical_formula_structural   SmDy2Ti(Co4P3)2
_chemical_formula_sum   'Sm2 Dy4 Ti2 Co16 P12'
_cell_volume   485.64926834
_cell_formula_units_Z   2
loop_
 _symmetry_equiv_pos_site_id
 _symmetry_equiv_pos_as_xyz
  1  'x, y, z'
loop_
 _atom_site_type_symbol
 _atom_site_label
 _atom_site_symmetry_multiplicity
 _atom_site_fract_x
 _atom_site_fract_y
 _atom_site_fract_z
 _atom_site_occupancy
  Sm  Sm0  1  0.000000  0.500000  0.525715  1
  Sm  Sm1  1  0.500000  0.000000  0.474285  1
  Dy  Dy2  1  0.500000  0.819924  0.203768  1
  Dy  Dy3  1  0.500000  0.180076  0.203768  1
  Dy  Dy4  1  0.000000  0.680076  0.796232  1
  Dy  Dy5  1  0.000000  0.319924  0.796232  1
  Ti  Ti6  1  0.500000  0.500000  0.152010  1
  Ti  Ti7  1  0.000000  0.000000  0.847990  1
  Co  Co8  1  0.500000  0.500000  0.704873  1
  Co  Co9  1  0.000000  0.000000  0.295127  1
  Co  Co10  1  0.000000  0.500000  0.987381  1
  Co  Co11  1  0.500000  0.000000  0.012619  1
  Co  Co12  1  0.500000  0.332074  0.994081  1
  Co  Co13  1  0.500000  0.667926  0.994081  1
  Co  Co14  1  0.000000  0.167926  0.005919  1
  Co  Co15  1  0.000000  0.832074  0.005919  1
  Co  Co16  1  0.500000  0.295601  0.431129  1
  Co  Co17  1  0.500000  0.704399  0.431129  1
  Co  Co18  1  0.000000  0.204399  0.568871  1
  Co  Co19  1  0.000000  0.795601  0.568871  1
  Co  Co20  1  0.500000  0.878694  0.707421  1
  Co  Co21  1  0.500000  0.121306  0.707421  1
  Co  Co22  1  0.000000  0.621306  0.292579  1
  Co  Co23  1  0.000000  0.378694  0.292579  1
  P  P24  1  0.500000  0.500000  0.884090  1
  P  P25  1  0.000000  0.000000  0.115910  1
  P  P26  1  0.500000  0.500000  0.350708  1
  P  P27  1  0.000000  0.000000  0.649292  1
  P  P28  1  0.500000  0.308570  0.616612  1
  P  P29  1  0.500000  0.691430  0.616612  1
  P  P30  1  0.000000  0.191430  0.383388  1
  P  P31  1  0.000000  0.808570  0.383388  1
  P  P32  1  0.500000  0.842853  0.892539  1
  P  P33  1  0.500000  0.157147  0.892539  1
  P  P34  1  0.000000  0.657147  0.107461  1
  P  P35  1  0.000000  0.342853  0.107461  1
