# generated using pymatgen
data_Tb5Co14P12Ru5
_symmetry_space_group_name_H-M   'P 1'
_cell_length_a   12.13574139
_cell_length_b   12.13555711
_cell_length_c   3.74330000
_cell_angle_alpha   90.00000000
_cell_angle_beta   90.00000000
_cell_angle_gamma   119.92428610
_symmetry_Int_Tables_number   1
_chemical_formula_structural   Tb5Co14P12Ru5
_chemical_formula_sum   'Tb5 Co14 P12 Ru5'
_cell_volume   477.79558685
_cell_formula_units_Z   1
loop_
 _symmetry_equiv_pos_site_id
 _symmetry_equiv_pos_as_xyz
  1  'x, y, z'
loop_
 _atom_site_type_symbol
 _atom_site_label
 _atom_site_symmetry_multiplicity
 _atom_site_fract_x
 _atom_site_fract_y
 _atom_site_fract_z
 _atom_site_occupancy
  Tb  Tb0  1  0.662600  0.333928  0.000000  1
  Tb  Tb1  1  0.333092  0.666391  0.000000  1
  Tb  Tb2  1  0.185798  0.184365  0.500000  1
  Tb  Tb3  1  0.817293  0.000419  0.500000  1
  Tb  Tb4  1  0.000125  0.818340  0.500000  1
  Co  Co5  1  0.827695  0.199475  0.000000  1
  Co  Co6  1  0.800583  0.628034  0.000000  1
  Co  Co7  1  0.374837  0.178328  0.000000  1
  Co  Co8  1  0.194903  0.819454  0.000000  1
  Co  Co9  1  0.623424  0.803104  0.000000  1
  Co  Co10  1  0.181200  0.374881  0.000000  1
  Co  Co11  1  0.480027  0.358389  0.500000  1
  Co  Co12  1  0.130959  0.644054  0.500000  1
  Co  Co13  1  0.513419  0.869344  0.500000  1
  Co  Co14  1  0.357230  0.483836  0.500000  1
  Co  Co15  1  0.715578  0.717710  0.500000  1
  Co  Co16  1  0.281494  0.998082  0.500000  1
  Co  Co17  1  0.002791  0.283375  0.500000  1
  Co  Co18  1  0.999454  0.999226  0.000000  1
  P  P19  1  0.363515  0.363184  0.000000  1
  P  P20  1  0.633324  0.995167  0.000000  1
  P  P21  1  0.004594  0.638963  0.000000  1
  P  P22  1  0.838669  0.313736  0.500000  1
  P  P23  1  0.681843  0.522275  0.500000  1
  P  P24  1  0.473592  0.166371  0.500000  1
  P  P25  1  0.312519  0.834550  0.500000  1
  P  P26  1  0.520624  0.685947  0.500000  1
  P  P27  1  0.167207  0.477895  0.500000  1
  P  P28  1  0.818677  0.820791  0.000000  1
  P  P29  1  0.180166  0.999856  0.000000  1
  P  P30  1  0.002415  0.180172  0.000000  1
  Ru  Ru31  1  0.551532  0.553576  0.000000  1
  Ru  Ru32  1  0.440876  0.991352  0.000000  1
  Ru  Ru33  1  0.009258  0.450478  0.000000  1
  Ru  Ru34  1  0.642395  0.124082  0.500000  1
  Ru  Ru35  1  0.876294  0.520870  0.500000  1
