# generated using pymatgen
data_Tb2Sc2Al17GaRh6
_symmetry_space_group_name_H-M   'P 1'
_cell_length_a   7.50172844
_cell_length_b   7.50172789
_cell_length_c   9.42608600
_cell_angle_alpha   90.00000000
_cell_angle_beta   90.00000000
_cell_angle_gamma   119.43672235
_symmetry_Int_Tables_number   1
_chemical_formula_structural   Tb2Sc2Al17GaRh6
_chemical_formula_sum   'Tb2 Sc2 Al17 Ga1 Rh6'
_cell_volume   461.97857493
_cell_formula_units_Z   1
loop_
 _symmetry_equiv_pos_site_id
 _symmetry_equiv_pos_as_xyz
  1  'x, y, z'
loop_
 _atom_site_type_symbol
 _atom_site_label
 _atom_site_symmetry_multiplicity
 _atom_site_fract_x
 _atom_site_fract_y
 _atom_site_fract_z
 _atom_site_occupancy
  Tb  Tb0  1  0.992969  0.674226  0.250000  1
  Tb  Tb1  1  0.674226  0.992969  0.250000  1
  Sc  Sc2  1  0.003681  0.326917  0.750000  1
  Sc  Sc3  1  0.326917  0.003681  0.750000  1
  Al  Al4  1  0.878937  0.878937  0.750000  1
  Al  Al5  1  0.002732  0.336024  0.067941  1
  Al  Al6  1  0.003497  0.664199  0.916598  1
  Al  Al7  1  0.003497  0.664199  0.583402  1
  Al  Al8  1  0.336024  0.002732  0.432059  1
  Al  Al9  1  0.002732  0.336024  0.432059  1
  Al  Al10  1  0.664199  0.003497  0.583402  1
  Al  Al11  1  0.664199  0.003497  0.916598  1
  Al  Al12  1  0.336024  0.002732  0.067941  1
  Al  Al13  1  0.329241  0.329241  0.565161  1
  Al  Al14  1  0.665080  0.665080  0.458115  1
  Al  Al15  1  0.665080  0.665080  0.041885  1
  Al  Al16  1  0.329241  0.329241  0.934839  1
  Al  Al17  1  0.337773  0.548071  0.250000  1
  Al  Al18  1  0.659841  0.441332  0.750000  1
  Al  Al19  1  0.548071  0.337773  0.250000  1
  Al  Al20  1  0.441332  0.659841  0.750000  1
  Ga  Ga21  1  0.135144  0.135144  0.250000  1
  Rh  Rh22  1  0.671985  0.327466  0.998214  1
  Rh  Rh23  1  0.327466  0.671985  0.998214  1
  Rh  Rh24  1  0.327466  0.671985  0.501786  1
  Rh  Rh25  1  0.671985  0.327466  0.501786  1
  Rh  Rh26  1  0.000329  0.000329  0.995601  1
  Rh  Rh27  1  0.000329  0.000329  0.504399  1
