# generated using pymatgen
data_YTh2In3Ru2Rh
_symmetry_space_group_name_H-M   'P 1'
_cell_length_a   7.29946200
_cell_length_b   7.71248534
_cell_length_c   4.05388300
_cell_angle_alpha   90.00000000
_cell_angle_beta   90.00000000
_cell_angle_gamma   118.24375104
_symmetry_Int_Tables_number   1
_chemical_formula_structural   YTh2In3Ru2Rh
_chemical_formula_sum   'Y1 Th2 In3 Ru2 Rh1'
_cell_volume   201.04992015
_cell_formula_units_Z   1
loop_
 _symmetry_equiv_pos_site_id
 _symmetry_equiv_pos_as_xyz
  1  'x, y, z'
loop_
 _atom_site_type_symbol
 _atom_site_label
 _atom_site_symmetry_multiplicity
 _atom_site_fract_x
 _atom_site_fract_y
 _atom_site_fract_z
 _atom_site_occupancy
  Y  Y0  1  0.594183  0.000000  0.500000  1
  Th  Th1  1  0.001728  0.582256  0.500000  1
  Th  Th2  1  0.419472  0.417744  0.500000  1
  In  In3  1  0.984183  0.235000  0.000000  1
  In  In4  1  0.268511  0.000000  0.000000  1
  In  In5  1  0.749184  0.765000  0.000000  1
  Ru  Ru6  1  0.302780  0.633068  0.000000  1
  Ru  Ru7  1  0.669712  0.366932  0.000000  1
  Rh  Rh8  1  0.010247  0.000000  0.500000  1
