# generated using pymatgen
data_NdGd7(MoO6)4
_symmetry_space_group_name_H-M   'P 1'
_cell_length_a   10.10135376
_cell_length_b   10.07903113
_cell_length_c   5.48843511
_cell_angle_alpha   75.15873653
_cell_angle_beta   75.06310525
_cell_angle_gamma   68.28109348
_symmetry_Int_Tables_number   1
_chemical_formula_structural   NdGd7(MoO6)4
_chemical_formula_sum   'Nd1 Gd7 Mo4 O24'
_cell_volume   493.46921989
_cell_formula_units_Z   1
loop_
 _symmetry_equiv_pos_site_id
 _symmetry_equiv_pos_as_xyz
  1  'x, y, z'
loop_
 _atom_site_type_symbol
 _atom_site_label
 _atom_site_symmetry_multiplicity
 _atom_site_fract_x
 _atom_site_fract_y
 _atom_site_fract_z
 _atom_site_occupancy
  Nd  Nd0  1  0.787461  0.553987  0.615939  1
  Gd  Gd1  1  0.216097  0.446173  0.379424  1
  Gd  Gd2  1  0.607017  0.391690  0.249709  1
  Gd  Gd3  1  0.391195  0.608663  0.749439  1
  Gd  Gd4  1  0.551226  0.785819  0.120064  1
  Gd  Gd5  1  0.135738  0.864984  0.249526  1
  Gd  Gd6  1  0.446655  0.214613  0.879869  1
  Gd  Gd7  1  0.864619  0.134896  0.750495  1
  Mo  Mo8  1  0.296159  0.010998  0.559526  1
  Mo  Mo9  1  0.703352  0.990058  0.440445  1
  Mo  Mo10  1  0.990585  0.704220  0.938736  1
  Mo  Mo11  1  0.011582  0.295280  0.061105  1
  O  O12  1  0.390888  0.424301  0.578848  1
  O  O13  1  0.569099  0.975250  0.740244  1
  O  O14  1  0.819903  0.713524  0.866797  1
  O  O15  1  0.673088  0.115929  0.135093  1
  O  O16  1  0.115585  0.673764  0.632503  1
  O  O17  1  0.326362  0.884763  0.864890  1
  O  O18  1  0.288539  0.180032  0.636975  1
  O  O19  1  0.978672  0.567759  0.235285  1
  O  O20  1  0.570920  0.609340  0.924915  1
  O  O21  1  0.430337  0.025184  0.259269  1
  O  O22  1  0.112752  0.047231  0.516143  1
  O  O23  1  0.190766  0.663585  0.084060  1
  O  O24  1  0.810330  0.334339  0.920394  1
  O  O25  1  0.336137  0.809908  0.415126  1
  O  O26  1  0.884817  0.326333  0.367055  1
  O  O27  1  0.953738  0.887742  0.984253  1
  O  O28  1  0.886895  0.952938  0.484070  1
  O  O29  1  0.662956  0.190965  0.585765  1
  O  O30  1  0.711135  0.821258  0.361191  1
  O  O31  1  0.048290  0.111871  0.015829  1
  O  O32  1  0.180342  0.287194  0.138634  1
  O  O33  1  0.604263  0.576011  0.419600  1
  O  O34  1  0.424805  0.390896  0.078121  1
  O  O35  1  0.027693  0.428505  0.760662  1
