# generated using pymatgen
data_Na2GdSi2(PPd5)4
_symmetry_space_group_name_H-M   'P 1'
_cell_length_a   8.68679755
_cell_length_b   8.68477837
_cell_length_c   8.68369600
_cell_angle_alpha   59.99588005
_cell_angle_beta   59.96066859
_cell_angle_gamma   60.00768882
_symmetry_Int_Tables_number   1
_chemical_formula_structural   Na2GdSi2(PPd5)4
_chemical_formula_sum   'Na2 Gd1 Si2 P4 Pd20'
_cell_volume   463.11675250
_cell_formula_units_Z   1
loop_
 _symmetry_equiv_pos_site_id
 _symmetry_equiv_pos_as_xyz
  1  'x, y, z'
loop_
 _atom_site_type_symbol
 _atom_site_label
 _atom_site_symmetry_multiplicity
 _atom_site_fract_x
 _atom_site_fract_y
 _atom_site_fract_z
 _atom_site_occupancy
  Na  Na0  1  0.998647  0.000010  0.001333  1
  Na  Na1  1  0.751480  0.749948  0.748624  1
  Gd  Gd2  1  0.251413  0.250048  0.248493  1
  Si  Si3  1  0.735816  0.265589  0.264179  1
  Si  Si4  1  0.735816  0.734418  0.264179  1
  P  P5  1  0.738055  0.263361  0.735224  1
  P  P6  1  0.264919  0.736618  0.261845  1
  P  P7  1  0.264529  0.737249  0.735570  1
  P  P8  1  0.264529  0.262653  0.735570  1
  Pd  Pd9  1  0.340880  0.003396  0.003288  1
  Pd  Pd10  1  0.002861  0.653479  0.344313  1
  Pd  Pd11  1  0.342291  0.002516  0.652679  1
  Pd  Pd12  1  0.004378  0.651893  0.000545  1
  Pd  Pd13  1  0.651397  0.342360  0.001364  1
  Pd  Pd14  1  0.613805  0.616561  0.153072  1
  Pd  Pd15  1  0.383488  0.844965  0.385681  1
  Pd  Pd16  1  0.157181  0.614339  0.614140  1
  Pd  Pd17  1  0.651712  0.002341  0.343607  1
  Pd  Pd18  1  0.001087  0.343194  0.654801  1
  Pd  Pd19  1  0.651397  0.004879  0.001364  1
  Pd  Pd20  1  0.002861  0.999347  0.344313  1
  Pd  Pd21  1  0.614495  0.155189  0.616129  1
  Pd  Pd22  1  0.340880  0.652435  0.003288  1
  Pd  Pd23  1  0.383488  0.385869  0.385681  1
  Pd  Pd24  1  0.614495  0.614185  0.616129  1
  Pd  Pd25  1  0.385662  0.385662  0.843016  1
  Pd  Pd26  1  0.001087  0.000919  0.654801  1
  Pd  Pd27  1  0.846973  0.383398  0.386232  1
  Pd  Pd28  1  0.004378  0.343184  0.000545  1
