# generated using pymatgen
data_K3CaIrO6
_symmetry_space_group_name_H-M   'P 1'
_cell_length_a   7.19204745
_cell_length_b   7.19139834
_cell_length_c   7.19189549
_cell_angle_alpha   93.29457449
_cell_angle_beta   93.29586848
_cell_angle_gamma   93.29424788
_symmetry_Int_Tables_number   1
_chemical_formula_structural   K3CaIrO6
_chemical_formula_sum   'K6 Ca2 Ir2 O12'
_cell_volume   370.05243053
_cell_formula_units_Z   2
loop_
 _symmetry_equiv_pos_site_id
 _symmetry_equiv_pos_as_xyz
  1  'x, y, z'
loop_
 _atom_site_type_symbol
 _atom_site_label
 _atom_site_symmetry_multiplicity
 _atom_site_fract_x
 _atom_site_fract_y
 _atom_site_fract_z
 _atom_site_occupancy
  K  K0  1  0.750017  0.391399  0.108542  1
  K  K1  1  0.608588  0.891421  0.249939  1
  K  K2  1  0.108564  0.750008  0.391370  1
  K  K3  1  0.891436  0.249992  0.608631  1
  K  K4  1  0.391412  0.108580  0.750061  1
  K  K5  1  0.249983  0.608601  0.891458  1
  Ca  Ca6  1  0.249978  0.249969  0.249933  1
  Ca  Ca7  1  0.750022  0.750031  0.750067  1
  Ir  Ir8  1  0.000000  0.000000  0.000000  1
  Ir  Ir9  1  0.500000  0.500000  0.500000  1
  O  O10  1  0.916673  0.744498  0.039845  1
  O  O11  1  0.255571  0.960171  0.083354  1
  O  O12  1  0.416676  0.539865  0.244457  1
  O  O13  1  0.960150  0.083301  0.255467  1
  O  O14  1  0.539881  0.244540  0.416717  1
  O  O15  1  0.755512  0.583306  0.460137  1
  O  O16  1  0.244488  0.416694  0.539863  1
  O  O17  1  0.460119  0.755460  0.583284  1
  O  O18  1  0.039850  0.916700  0.744533  1
  O  O19  1  0.583324  0.460134  0.755545  1
  O  O20  1  0.744430  0.039829  0.916646  1
  O  O21  1  0.083327  0.255502  0.960155  1
