# generated using pymatgen
data_Tb2Ho2MoOsC4
_symmetry_space_group_name_H-M   'P 1'
_cell_length_a   5.11294600
_cell_length_b   6.59977566
_cell_length_c   9.90131547
_cell_angle_alpha   89.22110721
_cell_angle_beta   90.00000000
_cell_angle_gamma   90.00000000
_symmetry_Int_Tables_number   1
_chemical_formula_structural   Tb2Ho2MoOsC4
_chemical_formula_sum   'Tb4 Ho4 Mo2 Os2 C8'
_cell_volume   334.08205327
_cell_formula_units_Z   2
loop_
 _symmetry_equiv_pos_site_id
 _symmetry_equiv_pos_as_xyz
  1  'x, y, z'
loop_
 _atom_site_type_symbol
 _atom_site_label
 _atom_site_symmetry_multiplicity
 _atom_site_fract_x
 _atom_site_fract_y
 _atom_site_fract_z
 _atom_site_occupancy
  Tb  Tb0  1  0.250000  0.537553  0.217811  1
  Tb  Tb1  1  0.750000  0.462447  0.782189  1
  Tb  Tb2  1  0.750000  0.969455  0.715612  1
  Tb  Tb3  1  0.250000  0.030545  0.284388  1
  Ho  Ho4  1  0.250000  0.677926  0.557681  1
  Ho  Ho5  1  0.750000  0.322074  0.442319  1
  Ho  Ho6  1  0.750000  0.824808  0.057993  1
  Ho  Ho7  1  0.250000  0.175192  0.942007  1
  Mo  Mo8  1  0.250000  0.718124  0.866712  1
  Mo  Mo9  1  0.750000  0.281876  0.133288  1
  Os  Os10  1  0.750000  0.778396  0.366144  1
  Os  Os11  1  0.250000  0.221604  0.633856  1
  C  C12  1  0.250000  0.450363  0.757115  1
  C  C13  1  0.750000  0.549637  0.242885  1
  C  C14  1  0.750000  0.044850  0.260756  1
  C  C15  1  0.250000  0.955150  0.739244  1
  C  C16  1  0.250000  0.824968  0.050757  1
  C  C17  1  0.750000  0.175032  0.949243  1
  C  C18  1  0.750000  0.676017  0.548147  1
  C  C19  1  0.250000  0.323983  0.451853  1
