# generated using pymatgen
data_Zr8IrPd2RhO2
_symmetry_space_group_name_H-M   'P 1'
_cell_length_a   8.90122254
_cell_length_b   8.85431731
_cell_length_c   8.90157701
_cell_angle_alpha   59.81967557
_cell_angle_beta   60.00132797
_cell_angle_gamma   59.82454754
_symmetry_Int_Tables_number   1
_chemical_formula_structural   Zr8IrPd2RhO2
_chemical_formula_sum   'Zr16 Ir2 Pd4 Rh2 O4'
_cell_volume   494.75256866
_cell_formula_units_Z   2
loop_
 _symmetry_equiv_pos_site_id
 _symmetry_equiv_pos_as_xyz
  1  'x, y, z'
loop_
 _atom_site_type_symbol
 _atom_site_label
 _atom_site_symmetry_multiplicity
 _atom_site_fract_x
 _atom_site_fract_y
 _atom_site_fract_z
 _atom_site_occupancy
  Zr  Zr0  1  0.316637  0.683986  0.316804  1
  Zr  Zr1  1  0.932663  0.568778  0.933011  1
  Zr  Zr2  1  0.682968  0.316272  0.682491  1
  Zr  Zr3  1  0.683945  0.314878  0.317230  1
  Zr  Zr4  1  0.317595  0.683336  0.681475  1
  Zr  Zr5  1  0.628565  0.119205  0.125715  1
  Zr  Zr6  1  0.935242  0.933093  0.565940  1
  Zr  Zr7  1  0.682576  0.683987  0.316802  1
  Zr  Zr8  1  0.115024  0.655606  0.114349  1
  Zr  Zr9  1  0.126121  0.118945  0.628820  1
  Zr  Zr10  1  0.318273  0.316274  0.682488  1
  Zr  Zr11  1  0.126522  0.119203  0.125712  1
  Zr  Zr12  1  0.565548  0.568778  0.933012  1
  Zr  Zr13  1  0.566251  0.932689  0.934808  1
  Zr  Zr14  1  0.932940  0.568779  0.565345  1
  Zr  Zr15  1  0.565726  0.933092  0.565942  1
  Ir  Ir16  1  0.897247  0.910116  0.295389  1
  Ir  Ir17  1  0.347117  0.957913  0.347854  1
  Pd  Pd18  1  0.335535  0.344892  0.335776  1
  Pd  Pd19  1  0.983796  0.344894  0.335777  1
  Pd  Pd20  1  0.335723  0.345276  0.983280  1
  Pd  Pd21  1  0.909740  0.270668  0.909853  1
  Rh  Rh22  1  0.293711  0.909998  0.898230  1
  Rh  Rh23  1  0.898053  0.909995  0.898226  1
  O  O24  1  0.626062  0.622178  0.626556  1
  O  O25  1  0.125210  0.622172  0.626553  1
  O  O26  1  0.625815  0.622119  0.126245  1
  O  O27  1  0.625396  0.122882  0.626318  1
