# generated using pymatgen
data_SrCo(P4Ru)3
_symmetry_space_group_name_H-M   'P 1'
_cell_length_a   6.95741550
_cell_length_b   6.95741555
_cell_length_c   6.95741502
_cell_angle_alpha   109.29837857
_cell_angle_beta   109.29838594
_cell_angle_gamma   109.29839259
_symmetry_Int_Tables_number   1
_chemical_formula_structural   SrCo(P4Ru)3
_chemical_formula_sum   'Sr1 Co1 P12 Ru3'
_cell_volume   260.89765021
_cell_formula_units_Z   1
loop_
 _symmetry_equiv_pos_site_id
 _symmetry_equiv_pos_as_xyz
  1  'x, y, z'
loop_
 _atom_site_type_symbol
 _atom_site_label
 _atom_site_symmetry_multiplicity
 _atom_site_fract_x
 _atom_site_fract_y
 _atom_site_fract_z
 _atom_site_occupancy
  Sr  Sr0  1  0.000000  0.000000  0.000000  1
  Co  Co1  1  0.500000  0.500000  0.500000  1
  P  P2  1  0.848763  0.638746  0.498219  1
  P  P3  1  0.856141  0.359672  0.216697  1
  P  P4  1  0.143859  0.640328  0.783303  1
  P  P5  1  0.361254  0.501781  0.151237  1
  P  P6  1  0.501781  0.151237  0.361254  1
  P  P7  1  0.151237  0.361254  0.501781  1
  P  P8  1  0.640328  0.783303  0.143859  1
  P  P9  1  0.216697  0.856141  0.359672  1
  P  P10  1  0.638746  0.498219  0.848763  1
  P  P11  1  0.783303  0.143859  0.640328  1
  P  P12  1  0.359672  0.216697  0.856141  1
  P  P13  1  0.498219  0.848763  0.638746  1
  Ru  Ru14  1  0.000000  0.000000  0.500000  1
  Ru  Ru15  1  0.000000  0.500000  0.000000  1
  Ru  Ru16  1  0.500000  0.000000  0.000000  1
