# generated using pymatgen
data_Hf3Ti3Si2Sb
_symmetry_space_group_name_H-M   'P 1'
_cell_length_a   7.07638700
_cell_length_b   7.07638819
_cell_length_c   3.79915200
_cell_angle_alpha   90.00000000
_cell_angle_beta   90.00000000
_cell_angle_gamma   119.99999909
_symmetry_Int_Tables_number   1
_chemical_formula_structural   Hf3Ti3Si2Sb
_chemical_formula_sum   'Hf3 Ti3 Si2 Sb1'
_cell_volume   164.75573106
_cell_formula_units_Z   1
loop_
 _symmetry_equiv_pos_site_id
 _symmetry_equiv_pos_as_xyz
  1  'x, y, z'
loop_
 _atom_site_type_symbol
 _atom_site_label
 _atom_site_symmetry_multiplicity
 _atom_site_fract_x
 _atom_site_fract_y
 _atom_site_fract_z
 _atom_site_occupancy
  Hf  Hf0  1  0.391945  0.982330  0.000000  1
  Hf  Hf1  1  0.017670  0.409617  0.000000  1
  Hf  Hf2  1  0.590383  0.608054  0.000000  1
  Ti  Ti3  1  0.755415  0.990806  0.499999  1
  Ti  Ti4  1  0.235390  0.244584  0.499999  1
  Ti  Ti5  1  0.009194  0.764610  0.499999  1
  Si  Si6  1  0.000000  0.000000  0.000000  1
  Si  Si7  1  0.333333  0.666667  0.499999  1
  Sb  Sb8  1  0.666667  0.333334  0.499999  1
