# generated using pymatgen
data_Hf3ZrF16
_symmetry_space_group_name_H-M   'P 1'
_cell_length_a   5.64324855
_cell_length_b   5.60638776
_cell_length_c   8.00768691
_cell_angle_alpha   74.09697617
_cell_angle_beta   89.95025396
_cell_angle_gamma   89.99647435
_symmetry_Int_Tables_number   1
_chemical_formula_structural   Hf3ZrF16
_chemical_formula_sum   'Hf3 Zr1 F16'
_cell_volume   243.65255239
_cell_formula_units_Z   1
loop_
 _symmetry_equiv_pos_site_id
 _symmetry_equiv_pos_as_xyz
  1  'x, y, z'
loop_
 _atom_site_type_symbol
 _atom_site_label
 _atom_site_symmetry_multiplicity
 _atom_site_fract_x
 _atom_site_fract_y
 _atom_site_fract_z
 _atom_site_occupancy
  Hf  Hf0  1  0.665468  0.210645  0.329079  1
  Hf  Hf1  1  0.166521  0.787496  0.171466  1
  Hf  Hf2  1  0.334299  0.789931  0.669252  1
  Zr  Zr3  1  0.834177  0.211364  0.829866  1
  F  F4  1  0.655776  0.859624  0.520065  1
  F  F5  1  0.158165  0.139289  0.981063  1
  F  F6  1  0.344669  0.140793  0.478467  1
  F  F7  1  0.844504  0.857005  0.022406  1
  F  F8  1  0.458089  0.995304  0.208933  1
  F  F9  1  0.957184  0.003574  0.291030  1
  F  F10  1  0.539510  0.001437  0.791142  1
  F  F11  1  0.043503  0.994495  0.706272  1
  F  F12  1  0.458121  0.515345  0.236114  1
  F  F13  1  0.959235  0.483675  0.265097  1
  F  F14  1  0.538937  0.485722  0.764691  1
  F  F15  1  0.045304  0.519244  0.734187  1
  F  F16  1  0.758160  0.312505  0.544549  1
  F  F17  1  0.258188  0.688984  0.954565  1
  F  F18  1  0.241191  0.689439  0.452430  1
  F  F19  1  0.739000  0.314130  0.049328  1
