# generated using pymatgen
data_LiPr6Zn22P
_symmetry_space_group_name_H-M   'P 1'
_cell_length_a   9.26599520
_cell_length_b   9.26599495
_cell_length_c   9.26599500
_cell_angle_alpha   59.99999627
_cell_angle_beta   59.99999713
_cell_angle_gamma   59.99999929
_symmetry_Int_Tables_number   1
_chemical_formula_structural   LiPr6Zn22P
_chemical_formula_sum   'Li1 Pr6 Zn22 P1'
_cell_volume   562.55005287
_cell_formula_units_Z   1
loop_
 _symmetry_equiv_pos_site_id
 _symmetry_equiv_pos_as_xyz
  1  'x, y, z'
loop_
 _atom_site_type_symbol
 _atom_site_label
 _atom_site_symmetry_multiplicity
 _atom_site_fract_x
 _atom_site_fract_y
 _atom_site_fract_z
 _atom_site_occupancy
  Li  Li0  1  0.000000  0.000000  0.000000  1
  Pr  Pr1  1  0.716835  0.283165  0.283165  1
  Pr  Pr2  1  0.716835  0.283165  0.716835  1
  Pr  Pr3  1  0.716835  0.716835  0.283165  1
  Pr  Pr4  1  0.283165  0.716835  0.716835  1
  Pr  Pr5  1  0.283165  0.716835  0.283165  1
  Pr  Pr6  1  0.283165  0.283165  0.716835  1
  Zn  Zn7  1  0.619091  0.126970  0.126970  1
  Zn  Zn8  1  0.126970  0.619091  0.126970  1
  Zn  Zn9  1  0.126970  0.126970  0.619091  1
  Zn  Zn10  1  0.126970  0.126970  0.126970  1
  Zn  Zn11  1  0.380909  0.873030  0.873030  1
  Zn  Zn12  1  0.873030  0.380909  0.873030  1
  Zn  Zn13  1  0.873030  0.873030  0.380909  1
  Zn  Zn14  1  0.873030  0.873030  0.873030  1
  Zn  Zn15  1  0.500000  0.000000  0.000000  1
  Zn  Zn16  1  0.500000  0.000000  0.500000  1
  Zn  Zn17  1  0.500000  0.500000  0.000000  1
  Zn  Zn18  1  0.000000  0.500000  0.500000  1
  Zn  Zn19  1  0.000000  0.500000  0.000000  1
  Zn  Zn20  1  0.000000  0.000000  0.500000  1
  Zn  Zn21  1  0.019319  0.326893  0.326893  1
  Zn  Zn22  1  0.326893  0.019319  0.326893  1
  Zn  Zn23  1  0.326893  0.326893  0.019319  1
  Zn  Zn24  1  0.326893  0.326893  0.326893  1
  Zn  Zn25  1  0.980681  0.673107  0.673107  1
  Zn  Zn26  1  0.673107  0.980681  0.673107  1
  Zn  Zn27  1  0.673107  0.673107  0.980681  1
  Zn  Zn28  1  0.673107  0.673107  0.673107  1
  P  P29  1  0.500000  0.500000  0.500000  1
