# generated using pymatgen
data_Li4Ac3Si3P
_symmetry_space_group_name_H-M   'P 1'
_cell_length_a   4.56273897
_cell_length_b   7.08891445
_cell_length_c   8.69024715
_cell_angle_alpha   114.07086551
_cell_angle_beta   105.21969453
_cell_angle_gamma   90.00000588
_symmetry_Int_Tables_number   1
_chemical_formula_structural   Li4Ac3Si3P
_chemical_formula_sum   'Li4 Ac3 Si3 P1'
_cell_volume   245.80513700
_cell_formula_units_Z   1
loop_
 _symmetry_equiv_pos_site_id
 _symmetry_equiv_pos_as_xyz
  1  'x, y, z'
loop_
 _atom_site_type_symbol
 _atom_site_label
 _atom_site_symmetry_multiplicity
 _atom_site_fract_x
 _atom_site_fract_y
 _atom_site_fract_z
 _atom_site_occupancy
  Li  Li0  1  0.671141  0.983559  0.342279  1
  Li  Li1  1  0.329574  0.017105  0.659149  1
  Li  Li2  1  0.329574  0.642043  0.659149  1
  Li  Li3  1  0.671141  0.358719  0.342279  1
  Ac  Ac4  1  0.999849  0.999849  0.999699  1
  Ac  Ac5  1  0.134433  0.634433  0.268867  1
  Ac  Ac6  1  0.866643  0.366643  0.733286  1
  Si  Si7  1  0.499521  0.672302  0.999042  1
  Si  Si8  1  0.499521  0.326741  0.999042  1
  Si  Si9  1  0.786661  0.786661  0.573320  1
  P  P10  1  0.211944  0.211944  0.423888  1
