# generated using pymatgen
data_La7Pr5Sn4(GeRh2)4
_symmetry_space_group_name_H-M   'P 1'
_cell_length_a   5.80197623
_cell_length_b   8.52142442
_cell_length_c   13.81429606
_cell_angle_alpha   89.96801658
_cell_angle_beta   90.08190702
_cell_angle_gamma   90.05801905
_symmetry_Int_Tables_number   1
_chemical_formula_structural   La7Pr5Sn4(GeRh2)4
_chemical_formula_sum   'La7 Pr5 Sn4 Ge4 Rh8'
_cell_volume   682.99286566
_cell_formula_units_Z   1
loop_
 _symmetry_equiv_pos_site_id
 _symmetry_equiv_pos_as_xyz
  1  'x, y, z'
loop_
 _atom_site_type_symbol
 _atom_site_label
 _atom_site_symmetry_multiplicity
 _atom_site_fract_x
 _atom_site_fract_y
 _atom_site_fract_z
 _atom_site_occupancy
  La  La0  1  0.162738  0.396855  0.100113  1
  La  La1  1  0.836620  0.603803  0.900496  1
  La  La2  1  0.836994  0.603226  0.599872  1
  La  La3  1  0.837284  0.897033  0.399733  1
  La  La4  1  0.162746  0.396263  0.399630  1
  La  La5  1  0.162783  0.103335  0.600009  1
  La  La6  1  0.163755  0.102724  0.900780  1
  Pr  Pr7  1  0.648197  0.250397  0.249615  1
  Pr  Pr8  1  0.350442  0.748211  0.749952  1
  Pr  Pr9  1  0.352173  0.752524  0.249737  1
  Pr  Pr10  1  0.649423  0.248082  0.750237  1
  Pr  Pr11  1  0.842064  0.894885  0.102166  1
  Sn  Sn12  1  0.658628  0.249164  0.000489  1
  Sn  Sn13  1  0.343229  0.751054  0.000783  1
  Sn  Sn14  1  0.341784  0.749850  0.499997  1
  Sn  Sn15  1  0.658385  0.249999  0.499854  1
  Ge  Ge16  1  0.146303  0.104013  0.249185  1
  Ge  Ge17  1  0.851017  0.896074  0.750010  1
  Ge  Ge18  1  0.851804  0.604990  0.249353  1
  Ge  Ge19  1  0.148381  0.395905  0.749959  1
  Rh  Rh20  1  0.374496  0.039174  0.095736  1
  Rh  Rh21  1  0.621146  0.962511  0.903411  1
  Rh  Rh22  1  0.622221  0.962283  0.595932  1
  Rh  Rh23  1  0.622331  0.538366  0.403420  1
  Rh  Rh24  1  0.376946  0.037464  0.403290  1
  Rh  Rh25  1  0.377940  0.461716  0.596022  1
  Rh  Rh26  1  0.377844  0.462969  0.904315  1
  Rh  Rh27  1  0.622327  0.537129  0.095905  1
