# generated using pymatgen
data_Ho8Lu10Sc2Si15Os
_symmetry_space_group_name_H-M   'P 1'
_cell_length_a   7.20900076
_cell_length_b   7.62171884
_cell_length_c   14.26167700
_cell_angle_alpha   90.00000000
_cell_angle_beta   90.00000000
_cell_angle_gamma   90.11810028
_symmetry_Int_Tables_number   1
_chemical_formula_structural   Ho8Lu10Sc2Si15Os
_chemical_formula_sum   'Ho8 Lu10 Sc2 Si15 Os1'
_cell_volume   783.60584833
_cell_formula_units_Z   1
loop_
 _symmetry_equiv_pos_site_id
 _symmetry_equiv_pos_as_xyz
  1  'x, y, z'
loop_
 _atom_site_type_symbol
 _atom_site_label
 _atom_site_symmetry_multiplicity
 _atom_site_fract_x
 _atom_site_fract_y
 _atom_site_fract_z
 _atom_site_occupancy
  Ho  Ho0  1  0.015397  0.183362  0.098115  1
  Ho  Ho1  1  0.986673  0.827423  0.905047  1
  Ho  Ho2  1  0.483933  0.679503  0.905488  1
  Ho  Ho3  1  0.986673  0.827423  0.594953  1
  Ho  Ho4  1  0.514696  0.319563  0.097790  1
  Ho  Ho5  1  0.015397  0.183362  0.401885  1
  Ho  Ho6  1  0.514696  0.319563  0.402210  1
  Ho  Ho7  1  0.483933  0.679503  0.594512  1
  Lu  Lu8  1  0.154090  0.506459  0.750000  1
  Lu  Lu9  1  0.666301  0.990632  0.750000  1
  Lu  Lu10  1  0.313840  0.172632  0.625754  1
  Lu  Lu11  1  0.676106  0.825155  0.372505  1
  Lu  Lu12  1  0.175171  0.678593  0.372627  1
  Lu  Lu13  1  0.676106  0.825155  0.127495  1
  Lu  Lu14  1  0.835344  0.315186  0.625849  1
  Lu  Lu15  1  0.313840  0.172632  0.874246  1
  Lu  Lu16  1  0.835344  0.315186  0.874151  1
  Lu  Lu17  1  0.175171  0.678593  0.127373  1
  Sc  Sc18  1  0.840104  0.487524  0.250000  1
  Sc  Sc19  1  0.341584  0.014812  0.250000  1
  Si  Si20  1  0.977255  0.900008  0.250000  1
  Si  Si21  1  0.478332  0.600804  0.250000  1
  Si  Si22  1  0.527106  0.395599  0.750000  1
  Si  Si23  1  0.280409  0.863653  0.750000  1
  Si  Si24  1  0.714586  0.137491  0.250000  1
  Si  Si25  1  0.216055  0.364684  0.250000  1
  Si  Si26  1  0.770847  0.626208  0.750000  1
  Si  Si27  1  0.158340  0.473042  0.535876  1
  Si  Si28  1  0.845519  0.532758  0.459963  1
  Si  Si29  1  0.345447  0.969295  0.457874  1
  Si  Si30  1  0.845519  0.532758  0.040037  1
  Si  Si31  1  0.651844  0.030969  0.536479  1
  Si  Si32  1  0.158340  0.473042  0.964124  1
  Si  Si33  1  0.651844  0.030969  0.963521  1
  Si  Si34  1  0.345447  0.969295  0.042126  1
  Os  Os35  1  0.028712  0.097161  0.750000  1
