# generated using pymatgen
data_Be15Nb6Co3Ni5
_symmetry_space_group_name_H-M   'P 1'
_cell_length_a   7.57336175
_cell_length_b   7.57336085
_cell_length_c   7.57456300
_cell_angle_alpha   60.01915813
_cell_angle_beta   60.01916759
_cell_angle_gamma   60.02483409
_symmetry_Int_Tables_number   1
_chemical_formula_structural   Be15Nb6Co3Ni5
_chemical_formula_sum   'Be15 Nb6 Co3 Ni5'
_cell_volume   307.34571231
_cell_formula_units_Z   1
loop_
 _symmetry_equiv_pos_site_id
 _symmetry_equiv_pos_as_xyz
  1  'x, y, z'
loop_
 _atom_site_type_symbol
 _atom_site_label
 _atom_site_symmetry_multiplicity
 _atom_site_fract_x
 _atom_site_fract_y
 _atom_site_fract_z
 _atom_site_occupancy
  Be  Be0  1  0.326110  0.326110  0.328217  1
  Be  Be1  1  0.672708  0.672708  0.673407  1
  Be  Be2  1  0.325812  0.325812  0.020646  1
  Be  Be3  1  0.323882  0.023694  0.326398  1
  Be  Be4  1  0.674253  0.674253  0.978722  1
  Be  Be5  1  0.674712  0.977510  0.675135  1
  Be  Be6  1  0.023694  0.323882  0.326398  1
  Be  Be7  1  0.977510  0.674712  0.675135  1
  Be  Be8  1  0.499954  0.000080  0.000100  1
  Be  Be9  1  0.000462  0.499301  0.499954  1
  Be  Be10  1  0.000080  0.499954  0.000100  1
  Be  Be11  1  0.499301  0.000462  0.499954  1
  Be  Be12  1  0.000444  0.000444  0.499503  1
  Be  Be13  1  0.499894  0.499894  0.000023  1
  Be  Be14  1  0.999966  0.999966  0.000113  1
  Nb  Nb15  1  0.706437  0.296753  0.297098  1
  Nb  Nb16  1  0.291690  0.708504  0.701058  1
  Nb  Nb17  1  0.296753  0.706437  0.297098  1
  Nb  Nb18  1  0.708504  0.291690  0.701058  1
  Nb  Nb19  1  0.294813  0.294813  0.704677  1
  Nb  Nb20  1  0.703447  0.703447  0.293223  1
  Co  Co21  1  0.122836  0.122836  0.121596  1
  Co  Co22  1  0.877281  0.877282  0.877988  1
  Co  Co23  1  0.122641  0.122641  0.633291  1
  Ni  Ni24  1  0.123444  0.631253  0.122963  1
  Ni  Ni25  1  0.876677  0.876678  0.368977  1
  Ni  Ni26  1  0.876544  0.368899  0.877103  1
  Ni  Ni27  1  0.631253  0.123444  0.122964  1
  Ni  Ni28  1  0.368899  0.876544  0.877103  1
