# generated using pymatgen
data_LuHf(ZrPt6)2
_symmetry_space_group_name_H-M   'P 1'
_cell_length_a   5.74430000
_cell_length_b   5.74429987
_cell_length_c   9.35921800
_cell_angle_alpha   90.00000000
_cell_angle_beta   90.00000000
_cell_angle_gamma   120.00001226
_symmetry_Int_Tables_number   1
_chemical_formula_structural   LuHf(ZrPt6)2
_chemical_formula_sum   'Lu1 Hf1 Zr2 Pt12'
_cell_volume   267.45108110
_cell_formula_units_Z   1
loop_
 _symmetry_equiv_pos_site_id
 _symmetry_equiv_pos_as_xyz
  1  'x, y, z'
loop_
 _atom_site_type_symbol
 _atom_site_label
 _atom_site_symmetry_multiplicity
 _atom_site_fract_x
 _atom_site_fract_y
 _atom_site_fract_z
 _atom_site_occupancy
  Lu  Lu0  1  0.666667  0.333333  0.750000  1
  Hf  Hf1  1  0.333333  0.666667  0.250000  1
  Zr  Zr2  1  0.000000  0.000000  0.501539  1
  Zr  Zr3  1  0.000000  0.000000  0.998461  1
  Pt  Pt4  1  0.170313  0.340624  0.750000  1
  Pt  Pt5  1  0.003025  0.501513  0.003256  1
  Pt  Pt6  1  0.830421  0.660843  0.250000  1
  Pt  Pt7  1  0.339157  0.169579  0.250000  1
  Pt  Pt8  1  0.498487  0.501513  0.003256  1
  Pt  Pt9  1  0.830421  0.169579  0.250000  1
  Pt  Pt10  1  0.498487  0.501513  0.496744  1
  Pt  Pt11  1  0.498487  0.996975  0.496744  1
  Pt  Pt12  1  0.170313  0.829687  0.750000  1
  Pt  Pt13  1  0.659376  0.829687  0.750000  1
  Pt  Pt14  1  0.498487  0.996975  0.003256  1
  Pt  Pt15  1  0.003025  0.501513  0.496744  1
