# generated using pymatgen
data_Th3Ga2Ir3Pt
_symmetry_space_group_name_H-M   'P 1'
_cell_length_a   7.33497573
_cell_length_b   7.33497458
_cell_length_c   3.89713700
_cell_angle_alpha   90.00000000
_cell_angle_beta   90.00000000
_cell_angle_gamma   116.43983335
_symmetry_Int_Tables_number   1
_chemical_formula_structural   Th3Ga2Ir3Pt
_chemical_formula_sum   'Th3 Ga2 Ir3 Pt1'
_cell_volume   187.74191043
_cell_formula_units_Z   1
loop_
 _symmetry_equiv_pos_site_id
 _symmetry_equiv_pos_as_xyz
  1  'x, y, z'
loop_
 _atom_site_type_symbol
 _atom_site_label
 _atom_site_symmetry_multiplicity
 _atom_site_fract_x
 _atom_site_fract_y
 _atom_site_fract_z
 _atom_site_occupancy
  Th  Th0  1  0.411087  0.411087  0.500000  1
  Th  Th1  1  0.604284  0.986031  0.500000  1
  Th  Th2  1  0.986031  0.604284  0.500000  1
  Ga  Ga3  1  0.252505  0.999965  0.000000  1
  Ga  Ga4  1  0.999965  0.252505  0.000000  1
  Ir  Ir5  1  0.652443  0.302856  0.000000  1
  Ir  Ir6  1  0.302856  0.652443  0.000000  1
  Ir  Ir7  1  0.039033  0.039033  0.500000  1
  Pt  Pt8  1  0.751797  0.751797  0.000000  1
