# generated using pymatgen
data_NdDy2Lu2(FeB3)2
_symmetry_space_group_name_H-M   'P 1'
_cell_length_a   8.25465319
_cell_length_b   8.25465334
_cell_length_c   8.25465156
_cell_angle_alpha   38.17143108
_cell_angle_beta   38.17142895
_cell_angle_gamma   38.17142924
_symmetry_Int_Tables_number   1
_chemical_formula_structural   NdDy2Lu2(FeB3)2
_chemical_formula_sum   'Nd1 Dy2 Lu2 Fe2 B6'
_cell_volume   192.90267430
_cell_formula_units_Z   1
loop_
 _symmetry_equiv_pos_site_id
 _symmetry_equiv_pos_as_xyz
  1  'x, y, z'
loop_
 _atom_site_type_symbol
 _atom_site_label
 _atom_site_symmetry_multiplicity
 _atom_site_fract_x
 _atom_site_fract_y
 _atom_site_fract_z
 _atom_site_occupancy
  Nd  Nd0  1  0.000000  0.000000  0.000000  1
  Dy  Dy1  1  0.748515  0.748515  0.748515  1
  Dy  Dy2  1  0.251485  0.251485  0.251485  1
  Lu  Lu3  1  0.580859  0.580859  0.580859  1
  Lu  Lu4  1  0.419141  0.419141  0.419141  1
  Fe  Fe5  1  0.883477  0.883477  0.883477  1
  Fe  Fe6  1  0.116523  0.116523  0.116523  1
  B  B7  1  0.500000  0.831839  0.168161  1
  B  B8  1  0.168161  0.500000  0.831839  1
  B  B9  1  0.831839  0.168161  0.500000  1
  B  B10  1  0.500000  0.168161  0.831839  1
  B  B11  1  0.831839  0.500000  0.168161  1
  B  B12  1  0.168161  0.831839  0.500000  1
