# generated using pymatgen
data_Eu3TmAl6(O3F)4
_symmetry_space_group_name_H-M   'P 1'
_cell_length_a   7.81029902
_cell_length_b   7.81029817
_cell_length_c   7.81029933
_cell_angle_alpha   109.61089405
_cell_angle_beta   109.61088986
_cell_angle_gamma   109.61088105
_symmetry_Int_Tables_number   1
_chemical_formula_structural   Eu3TmAl6(O3F)4
_chemical_formula_sum   'Eu3 Tm1 Al6 O12 F4'
_cell_volume   364.85038384
_cell_formula_units_Z   1
loop_
 _symmetry_equiv_pos_site_id
 _symmetry_equiv_pos_as_xyz
  1  'x, y, z'
loop_
 _atom_site_type_symbol
 _atom_site_label
 _atom_site_symmetry_multiplicity
 _atom_site_fract_x
 _atom_site_fract_y
 _atom_site_fract_z
 _atom_site_occupancy
  Eu  Eu0  1  0.695314  0.003153  0.003153  1
  Eu  Eu1  1  0.003153  0.695314  0.003153  1
  Eu  Eu2  1  0.003153  0.003153  0.695314  1
  Tm  Tm3  1  0.309779  0.309779  0.309779  1
  Al  Al4  1  0.244931  0.742874  0.494400  1
  Al  Al5  1  0.742874  0.244931  0.494400  1
  Al  Al6  1  0.742874  0.494400  0.244931  1
  Al  Al7  1  0.244931  0.494400  0.742874  1
  Al  Al8  1  0.494400  0.244931  0.742874  1
  Al  Al9  1  0.494400  0.742874  0.244931  1
  O  O10  1  0.275617  0.542903  0.542903  1
  O  O11  1  0.717172  0.275427  0.275427  1
  O  O12  1  0.995228  0.438920  0.717383  1
  O  O13  1  0.542903  0.542903  0.275617  1
  O  O14  1  0.995228  0.717383  0.438920  1
  O  O15  1  0.275427  0.275427  0.717172  1
  O  O16  1  0.438920  0.717383  0.995228  1
  O  O17  1  0.717383  0.438920  0.995228  1
  O  O18  1  0.542903  0.275617  0.542903  1
  O  O19  1  0.717383  0.995228  0.438920  1
  O  O20  1  0.438920  0.995228  0.717383  1
  O  O21  1  0.275427  0.717172  0.275427  1
  F  F22  1  0.785318  0.785318  0.785318  1
  F  F23  1  0.242558  0.031901  0.031901  1
  F  F24  1  0.031901  0.242558  0.031901  1
  F  F25  1  0.031901  0.031901  0.242558  1
