# generated using pymatgen
data_Cd3Sn11Rh6
_symmetry_space_group_name_H-M   'P 1'
_cell_length_a   8.22358015
_cell_length_b   8.22355981
_cell_length_c   8.22357930
_cell_angle_alpha   109.43516975
_cell_angle_beta   107.81405549
_cell_angle_gamma   111.18207835
_symmetry_Int_Tables_number   1
_chemical_formula_structural   Cd3Sn11Rh6
_chemical_formula_sum   'Cd3 Sn11 Rh6'
_cell_volume   427.74353213
_cell_formula_units_Z   1
loop_
 _symmetry_equiv_pos_site_id
 _symmetry_equiv_pos_as_xyz
  1  'x, y, z'
loop_
 _atom_site_type_symbol
 _atom_site_label
 _atom_site_symmetry_multiplicity
 _atom_site_fract_x
 _atom_site_fract_y
 _atom_site_fract_z
 _atom_site_occupancy
  Cd  Cd0  1  0.251408  0.503026  0.754434  1
  Cd  Cd1  1  0.500000  0.747186  0.247185  1
  Cd  Cd2  1  0.748592  0.503026  0.251617  1
  Sn  Sn3  1  0.500001  0.254001  0.754000  1
  Sn  Sn4  1  0.752219  0.249738  0.497518  1
  Sn  Sn5  1  0.247781  0.745296  0.497515  1
  Sn  Sn6  1  0.000278  0.674189  0.999462  1
  Sn  Sn7  1  0.674123  0.996589  0.002801  1
  Sn  Sn8  1  0.999724  0.999183  0.673914  1
  Sn  Sn9  1  0.325878  0.328677  0.322467  1
  Sn  Sn10  1  0.325271  0.999183  0.999461  1
  Sn  Sn11  1  0.006210  0.328677  0.002799  1
  Sn  Sn12  1  0.993788  0.996589  0.322466  1
  Sn  Sn13  1  0.674726  0.674189  0.673911  1
  Rh  Rh14  1  0.661711  0.654765  0.993054  1
  Rh  Rh15  1  0.656723  0.008007  0.664730  1
  Rh  Rh16  1  0.338291  0.331346  0.993055  1
  Rh  Rh17  1  0.343277  0.008007  0.351284  1
  Rh  Rh18  1  0.999998  0.658355  0.658356  1
  Rh  Rh19  1  0.999999  0.339972  0.339972  1
