# generated using pymatgen
data_La2Lu3Sn4
_symmetry_space_group_name_H-M   'P 1'
_cell_length_a   8.03636500
_cell_length_b   8.24346300
_cell_length_c   15.46465700
_cell_angle_alpha   90.00000000
_cell_angle_beta   90.00000000
_cell_angle_gamma   90.00000000
_symmetry_Int_Tables_number   1
_chemical_formula_structural   La2Lu3Sn4
_chemical_formula_sum   'La8 Lu12 Sn16'
_cell_volume   1024.49451715
_cell_formula_units_Z   4
loop_
 _symmetry_equiv_pos_site_id
 _symmetry_equiv_pos_as_xyz
  1  'x, y, z'
loop_
 _atom_site_type_symbol
 _atom_site_label
 _atom_site_symmetry_multiplicity
 _atom_site_fract_x
 _atom_site_fract_y
 _atom_site_fract_z
 _atom_site_occupancy
  La  La0  1  0.509787  0.324564  0.904064  1
  La  La1  1  0.009787  0.175436  0.595936  1
  La  La2  1  0.490213  0.675436  0.404064  1
  La  La3  1  0.990213  0.824564  0.095936  1
  La  La4  1  0.490213  0.675436  0.095936  1
  La  La5  1  0.990213  0.824564  0.404064  1
  La  La6  1  0.509787  0.324564  0.595936  1
  La  La7  1  0.009787  0.175436  0.904064  1
  Lu  Lu8  1  0.348985  0.835942  0.875220  1
  Lu  Lu9  1  0.848985  0.664058  0.624780  1
  Lu  Lu10  1  0.651015  0.164058  0.375220  1
  Lu  Lu11  1  0.151015  0.335942  0.124780  1
  Lu  Lu12  1  0.651015  0.164058  0.124780  1
  Lu  Lu13  1  0.151015  0.335942  0.375220  1
  Lu  Lu14  1  0.348985  0.835942  0.624780  1
  Lu  Lu15  1  0.848985  0.664058  0.875220  1
  Lu  Lu16  1  0.181473  0.503218  0.750000  1
  Lu  Lu17  1  0.681473  0.996782  0.750000  1
  Lu  Lu18  1  0.818527  0.496782  0.250000  1
  Lu  Lu19  1  0.318527  0.003218  0.250000  1
  Sn  Sn20  1  0.315137  0.042479  0.042224  1
  Sn  Sn21  1  0.815137  0.457521  0.457776  1
  Sn  Sn22  1  0.684863  0.957521  0.542224  1
  Sn  Sn23  1  0.184863  0.542479  0.957776  1
  Sn  Sn24  1  0.684863  0.957521  0.957776  1
  Sn  Sn25  1  0.184863  0.542479  0.542224  1
  Sn  Sn26  1  0.315137  0.042479  0.457776  1
  Sn  Sn27  1  0.815137  0.457521  0.042224  1
  Sn  Sn28  1  0.546212  0.626868  0.750000  1
  Sn  Sn29  1  0.046212  0.873132  0.750000  1
  Sn  Sn30  1  0.453788  0.373132  0.250000  1
  Sn  Sn31  1  0.953788  0.126868  0.250000  1
  Sn  Sn32  1  0.316638  0.142450  0.750000  1
  Sn  Sn33  1  0.816638  0.357550  0.750000  1
  Sn  Sn34  1  0.683362  0.857550  0.250000  1
  Sn  Sn35  1  0.183362  0.642450  0.250000  1
