# generated using pymatgen
data_Na2Y3Ni16(MoAs4)3
_symmetry_space_group_name_H-M   'P 1'
_cell_length_a   12.62258200
_cell_length_b   12.62258192
_cell_length_c   3.85892900
_cell_angle_alpha   90.00000000
_cell_angle_beta   90.00000000
_cell_angle_gamma   120.00000546
_symmetry_Int_Tables_number   1
_chemical_formula_structural   Na2Y3Ni16(MoAs4)3
_chemical_formula_sum   'Na2 Y3 Ni16 Mo3 As12'
_cell_volume   532.46834518
_cell_formula_units_Z   1
loop_
 _symmetry_equiv_pos_site_id
 _symmetry_equiv_pos_as_xyz
  1  'x, y, z'
loop_
 _atom_site_type_symbol
 _atom_site_label
 _atom_site_symmetry_multiplicity
 _atom_site_fract_x
 _atom_site_fract_y
 _atom_site_fract_z
 _atom_site_occupancy
  Na  Na0  1  0.333333  0.666667  0.000000  1
  Na  Na1  1  0.666667  0.333333  0.000000  1
  Y  Y2  1  0.185806  0.185806  0.500000  1
  Y  Y3  1  0.814194  0.000000  0.500000  1
  Y  Y4  1  0.000000  0.814194  0.500000  1
  Ni  Ni5  1  0.717777  0.717777  0.500000  1
  Ni  Ni6  1  0.282223  0.000000  0.500000  1
  Ni  Ni7  1  0.000000  0.282223  0.500000  1
  Ni  Ni8  1  0.182227  0.376610  0.000000  1
  Ni  Ni9  1  0.623390  0.805617  0.000000  1
  Ni  Ni10  1  0.194383  0.817773  0.000000  1
  Ni  Ni11  1  0.805617  0.623390  0.000000  1
  Ni  Ni12  1  0.817773  0.194383  0.000000  1
  Ni  Ni13  1  0.376610  0.182227  0.000000  1
  Ni  Ni14  1  0.358718  0.480475  0.500000  1
  Ni  Ni15  1  0.519525  0.878244  0.500000  1
  Ni  Ni16  1  0.121756  0.641282  0.500000  1
  Ni  Ni17  1  0.878244  0.519525  0.500000  1
  Ni  Ni18  1  0.641282  0.121756  0.500000  1
  Ni  Ni19  1  0.480475  0.358718  0.500000  1
  Ni  Ni20  1  0.000000  0.000000  0.000000  1
  Mo  Mo21  1  0.563174  0.563174  0.000000  1
  Mo  Mo22  1  0.436826  0.000000  0.000000  1
  Mo  Mo23  1  0.000000  0.436826  0.000000  1
  As  As24  1  0.820984  0.820984  0.000000  1
  As  As25  1  0.179016  0.000000  0.000000  1
  As  As26  1  0.000000  0.179016  0.000000  1
  As  As27  1  0.169113  0.483715  0.500000  1
  As  As28  1  0.516285  0.685396  0.500000  1
  As  As29  1  0.314604  0.830887  0.500000  1
  As  As30  1  0.685396  0.516285  0.500000  1
  As  As31  1  0.830887  0.314604  0.500000  1
  As  As32  1  0.483715  0.169113  0.500000  1
  As  As33  1  0.364775  0.364775  0.000000  1
  As  As34  1  0.635225  0.000000  0.000000  1
  As  As35  1  0.000000  0.635225  0.000000  1
