# generated using pymatgen
data_PrNd3Al13Ga5Ir6
_symmetry_space_group_name_H-M   'P 1'
_cell_length_a   7.59655619
_cell_length_b   7.59606260
_cell_length_c   9.70796700
_cell_angle_alpha   90.00000000
_cell_angle_beta   90.00000000
_cell_angle_gamma   119.48541231
_symmetry_Int_Tables_number   1
_chemical_formula_structural   PrNd3Al13Ga5Ir6
_chemical_formula_sum   'Pr1 Nd3 Al13 Ga5 Ir6'
_cell_volume   487.63278583
_cell_formula_units_Z   1
loop_
 _symmetry_equiv_pos_site_id
 _symmetry_equiv_pos_as_xyz
  1  'x, y, z'
loop_
 _atom_site_type_symbol
 _atom_site_label
 _atom_site_symmetry_multiplicity
 _atom_site_fract_x
 _atom_site_fract_y
 _atom_site_fract_z
 _atom_site_occupancy
  Pr  Pr0  1  0.995189  0.669627  0.250000  1
  Nd  Nd1  1  0.001256  0.327298  0.750000  1
  Nd  Nd2  1  0.669407  0.996078  0.250000  1
  Nd  Nd3  1  0.330944  0.006597  0.750000  1
  Al  Al4  1  0.003512  0.334745  0.070765  1
  Al  Al5  1  0.997849  0.665266  0.928456  1
  Al  Al6  1  0.997849  0.665266  0.571544  1
  Al  Al7  1  0.335133  0.003442  0.429293  1
  Al  Al8  1  0.003512  0.334745  0.429235  1
  Al  Al9  1  0.664560  0.996475  0.571647  1
  Al  Al10  1  0.664560  0.996475  0.928353  1
  Al  Al11  1  0.335133  0.003442  0.070707  1
  Al  Al12  1  0.334577  0.335092  0.551255  1
  Al  Al13  1  0.665093  0.665332  0.451675  1
  Al  Al14  1  0.665093  0.665332  0.048325  1
  Al  Al15  1  0.334577  0.335092  0.948745  1
  Al  Al16  1  0.453688  0.661488  0.750000  1
  Ga  Ga17  1  0.130411  0.130700  0.250000  1
  Ga  Ga18  1  0.868579  0.867908  0.750000  1
  Ga  Ga19  1  0.338607  0.544613  0.250000  1
  Ga  Ga20  1  0.661992  0.456346  0.750000  1
  Ga  Ga21  1  0.544554  0.338652  0.250000  1
  Ir  Ir22  1  0.671287  0.328757  0.000176  1
  Ir  Ir23  1  0.330336  0.670941  0.997621  1
  Ir  Ir24  1  0.330336  0.670941  0.502379  1
  Ir  Ir25  1  0.671287  0.328757  0.499824  1
  Ir  Ir26  1  0.000340  0.000297  0.999943  1
  Ir  Ir27  1  0.000340  0.000297  0.500057  1
