# generated using pymatgen
data_Nb6Al8Cu3Au
_symmetry_space_group_name_H-M   'P 1'
_cell_length_a   8.79379679
_cell_length_b   8.85987546
_cell_length_c   8.21566400
_cell_angle_alpha   90.00000000
_cell_angle_beta   90.00000000
_cell_angle_gamma   121.03357364
_symmetry_Int_Tables_number   1
_chemical_formula_structural   Nb6Al8Cu3Au
_chemical_formula_sum   'Nb12 Al16 Cu6 Au2'
_cell_volume   548.47810597
_cell_formula_units_Z   2
loop_
 _symmetry_equiv_pos_site_id
 _symmetry_equiv_pos_as_xyz
  1  'x, y, z'
loop_
 _atom_site_type_symbol
 _atom_site_label
 _atom_site_symmetry_multiplicity
 _atom_site_fract_x
 _atom_site_fract_y
 _atom_site_fract_z
 _atom_site_occupancy
  Nb  Nb0  1  0.332768  0.991182  0.066488  1
  Nb  Nb1  1  0.667232  0.008818  0.933512  1
  Nb  Nb2  1  0.997006  0.333595  0.069230  1
  Nb  Nb3  1  0.667232  0.008818  0.566488  1
  Nb  Nb4  1  0.997006  0.333595  0.430770  1
  Nb  Nb5  1  0.002994  0.666405  0.930770  1
  Nb  Nb6  1  0.332768  0.991182  0.433512  1
  Nb  Nb7  1  0.002994  0.666405  0.569230  1
  Nb  Nb8  1  0.662496  0.658427  0.065924  1
  Nb  Nb9  1  0.337504  0.341573  0.934076  1
  Nb  Nb10  1  0.337504  0.341573  0.565924  1
  Nb  Nb11  1  0.662496  0.658427  0.434076  1
  Al  Al12  1  0.344495  0.846735  0.750000  1
  Al  Al13  1  0.654778  0.504660  0.750000  1
  Al  Al14  1  0.655505  0.153265  0.250000  1
  Al  Al15  1  0.345222  0.495340  0.250000  1
  Al  Al16  1  0.843904  0.342556  0.750000  1
  Al  Al17  1  0.156096  0.657444  0.250000  1
  Al  Al18  1  0.340420  0.665439  0.505365  1
  Al  Al19  1  0.659580  0.334561  0.494635  1
  Al  Al20  1  0.659580  0.334561  0.005365  1
  Al  Al21  1  0.340420  0.665439  0.994635  1
  Al  Al22  1  0.186588  0.012242  0.750000  1
  Al  Al23  1  0.813412  0.987758  0.250000  1
  Al  Al24  1  0.011635  0.187718  0.750000  1
  Al  Al25  1  0.988365  0.812282  0.250000  1
  Al  Al26  1  0.817611  0.830555  0.750000  1
  Al  Al27  1  0.182389  0.169445  0.250000  1
  Cu  Cu28  1  0.167542  0.503483  0.750000  1
  Cu  Cu29  1  0.832458  0.496517  0.250000  1
  Cu  Cu30  1  0.503533  0.670958  0.750000  1
  Cu  Cu31  1  0.505067  0.171625  0.750000  1
  Cu  Cu32  1  0.496467  0.329042  0.250000  1
  Cu  Cu33  1  0.494933  0.828375  0.250000  1
  Au  Au34  1  0.000000  0.000000  0.500000  1
  Au  Au35  1  0.000000  0.000000  0.000000  1
