# generated using pymatgen
data_Ta8ReTc3B8
_symmetry_space_group_name_H-M   'P 1'
_cell_length_a   3.30751000
_cell_length_b   6.03127200
_cell_length_c   12.08525214
_cell_angle_alpha   90.02575447
_cell_angle_beta   90.00023510
_cell_angle_gamma   89.99972842
_symmetry_Int_Tables_number   1
_chemical_formula_structural   Ta8ReTc3B8
_chemical_formula_sum   'Ta8 Re1 Tc3 B8'
_cell_volume   241.08253686
_cell_formula_units_Z   1
loop_
 _symmetry_equiv_pos_site_id
 _symmetry_equiv_pos_as_xyz
  1  'x, y, z'
loop_
 _atom_site_type_symbol
 _atom_site_label
 _atom_site_symmetry_multiplicity
 _atom_site_fract_x
 _atom_site_fract_y
 _atom_site_fract_z
 _atom_site_occupancy
  Ta  Ta0  1  0.500002  0.825638  0.087929  1
  Ta  Ta1  1  0.500001  0.824450  0.587519  1
  Ta  Ta2  1  0.499998  0.174362  0.912071  1
  Ta  Ta3  1  0.499999  0.175550  0.412481  1
  Ta  Ta4  1  0.500001  0.675875  0.837385  1
  Ta  Ta5  1  0.499998  0.675342  0.337620  1
  Ta  Ta6  1  0.499999  0.324125  0.162615  1
  Ta  Ta7  1  0.500002  0.324658  0.662380  1
  Re  Re8  1  0.000000  0.500000  0.000000  1
  Tc  Tc9  1  0.000000  0.500000  0.500000  1
  Tc  Tc10  1  0.000002  0.999989  0.749299  1
  Tc  Tc11  1  0.999998  0.000011  0.250701  1
  B  B12  1  0.000000  0.387668  0.806194  1
  B  B13  1  0.999999  0.387865  0.306345  1
  B  B14  1  0.000000  0.612332  0.193806  1
  B  B15  1  0.000001  0.612135  0.693655  1
  B  B16  1  0.000000  0.113298  0.055893  1
  B  B17  1  0.000001  0.112220  0.556067  1
  B  B18  1  0.000000  0.886702  0.944107  1
  B  B19  1  0.999999  0.887780  0.443933  1
