# generated using pymatgen
data_TbDy4Y5Sn6
_symmetry_space_group_name_H-M   'P 1'
_cell_length_a   8.99933408
_cell_length_b   8.99724858
_cell_length_c   6.56975400
_cell_angle_alpha   89.99999363
_cell_angle_beta   90.00000000
_cell_angle_gamma   119.99233240
_symmetry_Int_Tables_number   1
_chemical_formula_structural   TbDy4Y5Sn6
_chemical_formula_sum   'Tb1 Dy4 Y5 Sn6'
_cell_volume   460.71609400
_cell_formula_units_Z   1
loop_
 _symmetry_equiv_pos_site_id
 _symmetry_equiv_pos_as_xyz
  1  'x, y, z'
loop_
 _atom_site_type_symbol
 _atom_site_label
 _atom_site_symmetry_multiplicity
 _atom_site_fract_x
 _atom_site_fract_y
 _atom_site_fract_z
 _atom_site_occupancy
  Tb  Tb0  1  0.000000  0.760058  0.750000  1
  Dy  Dy1  1  0.333349  0.666669  0.499987  1
  Dy  Dy2  1  0.666651  0.333319  0.000013  1
  Dy  Dy3  1  0.666651  0.333319  0.499987  1
  Dy  Dy4  1  0.333349  0.666669  0.000013  1
  Y  Y5  1  0.000000  0.239949  0.250000  1
  Y  Y6  1  0.760009  0.760001  0.250000  1
  Y  Y7  1  0.760035  0.000021  0.750000  1
  Y  Y8  1  0.239965  0.239986  0.750000  1
  Y  Y9  1  0.239991  0.999993  0.250000  1
  Sn  Sn10  1  0.395150  0.000070  0.750000  1
  Sn  Sn11  1  0.395008  0.395021  0.250000  1
  Sn  Sn12  1  0.000000  0.605034  0.250000  1
  Sn  Sn13  1  0.000000  0.394959  0.750000  1
  Sn  Sn14  1  0.604850  0.604920  0.750000  1
  Sn  Sn15  1  0.604992  0.000013  0.250000  1
