# generated using pymatgen
data_SrTbSm2(Pt2O7)2
_symmetry_space_group_name_H-M   'P 1'
_cell_length_a   7.38706743
_cell_length_b   7.38706782
_cell_length_c   7.38855906
_cell_angle_alpha   59.98117599
_cell_angle_beta   59.98117393
_cell_angle_gamma   60.05192696
_symmetry_Int_Tables_number   1
_chemical_formula_structural   SrTbSm2(Pt2O7)2
_chemical_formula_sum   'Sr1 Tb1 Sm2 Pt4 O14'
_cell_volume   285.12501056
_cell_formula_units_Z   1
loop_
 _symmetry_equiv_pos_site_id
 _symmetry_equiv_pos_as_xyz
  1  'x, y, z'
loop_
 _atom_site_type_symbol
 _atom_site_label
 _atom_site_symmetry_multiplicity
 _atom_site_fract_x
 _atom_site_fract_y
 _atom_site_fract_z
 _atom_site_occupancy
  Sr  Sr0  1  0.625000  0.625000  0.625000  1
  Tb  Tb1  1  0.625000  0.625000  0.125000  1
  Sm  Sm2  1  0.625000  0.125000  0.625000  1
  Sm  Sm3  1  0.125000  0.625000  0.625000  1
  Pt  Pt4  1  0.125000  0.125000  0.125000  1
  Pt  Pt5  1  0.625000  0.125000  0.125000  1
  Pt  Pt6  1  0.125000  0.625000  0.125000  1
  Pt  Pt7  1  0.125000  0.125000  0.625000  1
  O  O8  1  0.054432  0.456545  0.456345  1
  O  O9  1  0.792734  0.792734  0.194253  1
  O  O10  1  0.789829  0.213013  0.209016  1
  O  O11  1  0.456545  0.054432  0.456345  1
  O  O12  1  0.036987  0.460171  0.040984  1
  O  O13  1  0.753057  0.753057  0.760842  1
  O  O14  1  0.039518  0.039518  0.459541  1
  O  O15  1  0.213013  0.789829  0.209016  1
  O  O16  1  0.210482  0.210482  0.790459  1
  O  O17  1  0.496943  0.496943  0.489158  1
  O  O18  1  0.793455  0.195568  0.793655  1
  O  O19  1  0.460171  0.036987  0.040984  1
  O  O20  1  0.457266  0.457266  0.055747  1
  O  O21  1  0.195568  0.793455  0.793655  1
