# generated using pymatgen
data_DyHo7In2IrPt
_symmetry_space_group_name_H-M   'P 1'
_cell_length_a   9.63671486
_cell_length_b   9.65980522
_cell_length_c   9.66119395
_cell_angle_alpha   60.22502580
_cell_angle_beta   60.08084571
_cell_angle_gamma   60.07789666
_symmetry_Int_Tables_number   1
_chemical_formula_structural   DyHo7In2IrPt
_chemical_formula_sum   'Dy2 Ho14 In4 Ir2 Pt2'
_cell_volume   637.77585200
_cell_formula_units_Z   2
loop_
 _symmetry_equiv_pos_site_id
 _symmetry_equiv_pos_as_xyz
  1  'x, y, z'
loop_
 _atom_site_type_symbol
 _atom_site_label
 _atom_site_symmetry_multiplicity
 _atom_site_fract_x
 _atom_site_fract_y
 _atom_site_fract_z
 _atom_site_occupancy
  Dy  Dy0  1  0.440986  0.436420  0.060917  1
  Dy  Dy1  1  0.650588  0.645586  0.053305  1
  Ho  Ho2  1  0.187439  0.808473  0.194256  1
  Ho  Ho3  1  0.061529  0.436439  0.060926  1
  Ho  Ho4  1  0.191573  0.808450  0.808362  1
  Ho  Ho5  1  0.061581  0.438332  0.438391  1
  Ho  Ho6  1  0.809895  0.190072  0.190294  1
  Ho  Ho7  1  0.654269  0.649732  0.649575  1
  Ho  Ho8  1  0.809919  0.194157  0.808315  1
  Ho  Ho9  1  0.187601  0.194191  0.808376  1
  Ho  Ho10  1  0.046426  0.649700  0.649632  1
  Ho  Ho11  1  0.439131  0.060795  0.060848  1
  Ho  Ho12  1  0.061577  0.060903  0.436451  1
  Ho  Ho13  1  0.650617  0.053106  0.645626  1
  Ho  Ho14  1  0.809880  0.808387  0.194241  1
  Ho  Ho15  1  0.441068  0.060792  0.436558  1
  In  In16  1  0.416481  0.416852  0.417053  1
  In  In17  1  0.416604  0.417274  0.749448  1
  In  In18  1  0.416536  0.749627  0.417314  1
  In  In19  1  0.749754  0.416844  0.416942  1
  Ir  Ir20  1  0.857410  0.425306  0.860006  1
  Ir  Ir21  1  0.857152  0.860189  0.425529  1
  Pt  Pt22  1  0.426451  0.859237  0.858805  1
  Pt  Pt23  1  0.855532  0.859140  0.858836  1
