# generated using pymatgen
data_Er8In3Pt
_symmetry_space_group_name_H-M   'P 1'
_cell_length_a   10.42697500
_cell_length_b   10.42697541
_cell_length_c   6.95808400
_cell_angle_alpha   90.00000000
_cell_angle_beta   90.00000000
_cell_angle_gamma   119.99999552
_symmetry_Int_Tables_number   1
_chemical_formula_structural   Er8In3Pt
_chemical_formula_sum   'Er16 In6 Pt2'
_cell_volume   655.14435063
_cell_formula_units_Z   2
loop_
 _symmetry_equiv_pos_site_id
 _symmetry_equiv_pos_as_xyz
  1  'x, y, z'
loop_
 _atom_site_type_symbol
 _atom_site_label
 _atom_site_symmetry_multiplicity
 _atom_site_fract_x
 _atom_site_fract_y
 _atom_site_fract_z
 _atom_site_occupancy
  Er  Er0  1  0.531802  0.063604  0.794956  1
  Er  Er1  1  0.936396  0.468198  0.794956  1
  Er  Er2  1  0.531802  0.468198  0.794956  1
  Er  Er3  1  0.468198  0.936396  0.294956  1
  Er  Er4  1  0.063604  0.531802  0.294956  1
  Er  Er5  1  0.468198  0.531802  0.294956  1
  Er  Er6  1  0.824456  0.648911  0.500373  1
  Er  Er7  1  0.351089  0.175544  0.500373  1
  Er  Er8  1  0.824456  0.175544  0.500373  1
  Er  Er9  1  0.175544  0.351089  0.000373  1
  Er  Er10  1  0.648911  0.824456  0.000373  1
  Er  Er11  1  0.175544  0.824456  0.000373  1
  Er  Er12  1  0.666667  0.333333  0.172118  1
  Er  Er13  1  0.333333  0.666667  0.672118  1
  Er  Er14  1  0.000000  0.000000  0.777143  1
  Er  Er15  1  0.000000  0.000000  0.277143  1
  In  In16  1  0.837179  0.674360  0.037506  1
  In  In17  1  0.325640  0.162821  0.037506  1
  In  In18  1  0.837179  0.162821  0.037506  1
  In  In19  1  0.162821  0.325640  0.537506  1
  In  In20  1  0.674360  0.837179  0.537506  1
  In  In21  1  0.162821  0.837179  0.537506  1
  Pt  Pt22  1  0.666667  0.333333  0.570188  1
  Pt  Pt23  1  0.333333  0.666667  0.070188  1
