# generated using pymatgen
data_Yb15ErSb12
_symmetry_space_group_name_H-M   'P 1'
_cell_length_a   9.43079035
_cell_length_b   9.43079059
_cell_length_c   9.43079000
_cell_angle_alpha   89.73833790
_cell_angle_beta   89.73833789
_cell_angle_gamma   90.26165517
_symmetry_Int_Tables_number   1
_chemical_formula_structural   Yb15ErSb12
_chemical_formula_sum   'Yb15 Er1 Sb12'
_cell_volume   838.74633961
_cell_formula_units_Z   1
loop_
 _symmetry_equiv_pos_site_id
 _symmetry_equiv_pos_as_xyz
  1  'x, y, z'
loop_
 _atom_site_type_symbol
 _atom_site_label
 _atom_site_symmetry_multiplicity
 _atom_site_fract_x
 _atom_site_fract_y
 _atom_site_fract_z
 _atom_site_occupancy
  Yb  Yb0  1  0.821825  0.321825  0.178175  1
  Yb  Yb1  1  0.924887  0.931531  0.926603  1
  Yb  Yb2  1  0.824412  0.674744  0.324949  1
  Yb  Yb3  1  0.175160  0.825293  0.326041  1
  Yb  Yb4  1  0.174744  0.175051  0.175588  1
  Yb  Yb5  1  0.327975  0.827975  0.672025  1
  Yb  Yb6  1  0.073397  0.424887  0.568469  1
  Yb  Yb7  1  0.325293  0.173959  0.824840  1
  Yb  Yb8  1  0.675051  0.324412  0.825256  1
  Yb  Yb9  1  0.673959  0.675160  0.674707  1
  Yb  Yb10  1  0.574188  0.074188  0.425812  1
  Yb  Yb11  1  0.431531  0.573397  0.075113  1
  Yb  Yb12  1  0.923975  0.073681  0.574204  1
  Yb  Yb13  1  0.425796  0.423975  0.426319  1
  Yb  Yb14  1  0.573681  0.925796  0.076025  1
  Er  Er15  1  0.074408  0.574408  0.925592  1
  Sb  Sb16  1  0.748552  0.375246  0.501582  1
  Sb  Sb17  1  0.875246  0.998418  0.251448  1
  Sb  Sb18  1  0.002361  0.746465  0.631538  1
  Sb  Sb19  1  0.248758  0.126309  0.500934  1
  Sb  Sb20  1  0.125310  0.502218  0.241444  1
  Sb  Sb21  1  0.002218  0.258556  0.874690  1
  Sb  Sb22  1  0.246465  0.868462  0.997639  1
  Sb  Sb23  1  0.368462  0.502361  0.753535  1
  Sb  Sb24  1  0.498418  0.248552  0.124754  1
  Sb  Sb25  1  0.758556  0.625310  0.997782  1
  Sb  Sb26  1  0.626309  0.999066  0.751242  1
  Sb  Sb27  1  0.499066  0.748758  0.373691  1
