# generated using pymatgen
data_SrLi2HoSi4
_symmetry_space_group_name_H-M   'P 1'
_cell_length_a   3.83214400
_cell_length_b   7.90556437
_cell_length_c   10.60427530
_cell_angle_alpha   89.29182382
_cell_angle_beta   90.00000000
_cell_angle_gamma   90.00000000
_symmetry_Int_Tables_number   1
_chemical_formula_structural   SrLi2HoSi4
_chemical_formula_sum   'Sr2 Li4 Ho2 Si8'
_cell_volume   321.23474982
_cell_formula_units_Z   2
loop_
 _symmetry_equiv_pos_site_id
 _symmetry_equiv_pos_as_xyz
  1  'x, y, z'
loop_
 _atom_site_type_symbol
 _atom_site_label
 _atom_site_symmetry_multiplicity
 _atom_site_fract_x
 _atom_site_fract_y
 _atom_site_fract_z
 _atom_site_occupancy
  Sr  Sr0  1  0.250000  0.640227  0.635393  1
  Sr  Sr1  1  0.750000  0.359773  0.364607  1
  Li  Li2  1  0.250000  0.000542  0.388403  1
  Li  Li3  1  0.750000  0.999458  0.611597  1
  Li  Li4  1  0.250000  0.490756  0.107644  1
  Li  Li5  1  0.750000  0.509244  0.892356  1
  Ho  Ho6  1  0.250000  0.126880  0.866922  1
  Ho  Ho7  1  0.750000  0.873120  0.133078  1
  Si  Si8  1  0.750000  0.257875  0.058252  1
  Si  Si9  1  0.250000  0.742125  0.941748  1
  Si  Si10  1  0.750000  0.781465  0.417975  1
  Si  Si11  1  0.250000  0.218535  0.582025  1
  Si  Si12  1  0.750000  0.847263  0.832801  1
  Si  Si13  1  0.250000  0.152737  0.167199  1
  Si  Si14  1  0.750000  0.322025  0.689848  1
  Si  Si15  1  0.250000  0.677975  0.310152  1
