# generated using pymatgen
data_Dy2Mn3P7Rh7W2
_symmetry_space_group_name_H-M   'P 1'
_cell_length_a   9.41662245
_cell_length_b   9.43989778
_cell_length_c   3.86366000
_cell_angle_alpha   90.00000000
_cell_angle_beta   90.00000000
_cell_angle_gamma   120.17504923
_symmetry_Int_Tables_number   1
_chemical_formula_structural   Dy2Mn3P7Rh7W2
_chemical_formula_sum   'Dy2 Mn3 P7 Rh7 W2'
_cell_volume   296.90890269
_cell_formula_units_Z   1
loop_
 _symmetry_equiv_pos_site_id
 _symmetry_equiv_pos_as_xyz
  1  'x, y, z'
loop_
 _atom_site_type_symbol
 _atom_site_label
 _atom_site_symmetry_multiplicity
 _atom_site_fract_x
 _atom_site_fract_y
 _atom_site_fract_z
 _atom_site_occupancy
  Dy  Dy0  1  0.669060  0.337116  0.000000  1
  Dy  Dy1  1  0.334812  0.665553  0.500000  1
  Mn  Mn2  1  0.890410  0.732143  0.000000  1
  Mn  Mn3  1  0.265200  0.154422  0.000000  1
  Mn  Mn4  1  0.837471  0.110827  0.000000  1
  P  P5  1  0.109263  0.699810  0.000000  1
  P  P6  1  0.297048  0.405323  0.000000  1
  P  P7  1  0.592651  0.886888  0.000000  1
  P  P8  1  0.724973  0.603652  0.500000  1
  P  P9  1  0.398803  0.122522  0.500000  1
  P  P10  1  0.879681  0.278225  0.500000  1
  P  P11  1  0.994499  0.999907  0.000000  1
  Rh  Rh12  1  0.363834  0.936749  0.000000  1
  Rh  Rh13  1  0.065628  0.429416  0.000000  1
  Rh  Rh14  1  0.568813  0.632883  0.000000  1
  Rh  Rh15  1  0.948859  0.560441  0.500000  1
  Rh  Rh16  1  0.442862  0.385438  0.500000  1
  Rh  Rh17  1  0.608806  0.056205  0.500000  1
  Rh  Rh18  1  0.125141  0.909219  0.500000  1
  W  W19  1  0.095935  0.209261  0.500000  1
  W  W20  1  0.786250  0.884002  0.500000  1
