# generated using pymatgen
data_Sc10Cd3Pd
_symmetry_space_group_name_H-M   'P 1'
_cell_length_a   9.08826100
_cell_length_b   9.08825997
_cell_length_c   9.09985500
_cell_angle_alpha   90.00000000
_cell_angle_beta   90.00000000
_cell_angle_gamma   120.00000011
_symmetry_Int_Tables_number   1
_chemical_formula_structural   Sc10Cd3Pd
_chemical_formula_sum   'Sc20 Cd6 Pd2'
_cell_volume   650.91853100
_cell_formula_units_Z   2
loop_
 _symmetry_equiv_pos_site_id
 _symmetry_equiv_pos_as_xyz
  1  'x, y, z'
loop_
 _atom_site_type_symbol
 _atom_site_label
 _atom_site_symmetry_multiplicity
 _atom_site_fract_x
 _atom_site_fract_y
 _atom_site_fract_z
 _atom_site_occupancy
  Sc  Sc0  1  0.207189  0.792811  0.942282  1
  Sc  Sc1  1  0.207189  0.414378  0.942282  1
  Sc  Sc2  1  0.585622  0.792811  0.942282  1
  Sc  Sc3  1  0.792811  0.207189  0.057718  1
  Sc  Sc4  1  0.792811  0.585622  0.057718  1
  Sc  Sc5  1  0.414378  0.207189  0.057718  1
  Sc  Sc6  1  0.792811  0.207189  0.442282  1
  Sc  Sc7  1  0.792811  0.585622  0.442282  1
  Sc  Sc8  1  0.414378  0.207189  0.442282  1
  Sc  Sc9  1  0.207189  0.792811  0.557718  1
  Sc  Sc10  1  0.207189  0.414378  0.557718  1
  Sc  Sc11  1  0.585622  0.792811  0.557718  1
  Sc  Sc12  1  0.542736  0.457264  0.750000  1
  Sc  Sc13  1  0.542736  0.085471  0.750000  1
  Sc  Sc14  1  0.914529  0.457264  0.750000  1
  Sc  Sc15  1  0.457264  0.542736  0.250000  1
  Sc  Sc16  1  0.457264  0.914529  0.250000  1
  Sc  Sc17  1  0.085471  0.542736  0.250000  1
  Sc  Sc18  1  0.000000  0.000000  0.000000  1
  Sc  Sc19  1  0.000000  0.000000  0.500000  1
  Cd  Cd20  1  0.883669  0.116331  0.750000  1
  Cd  Cd21  1  0.883669  0.767338  0.750000  1
  Cd  Cd22  1  0.232662  0.116331  0.750000  1
  Cd  Cd23  1  0.116331  0.883669  0.250000  1
  Cd  Cd24  1  0.116331  0.232662  0.250000  1
  Cd  Cd25  1  0.767338  0.883669  0.250000  1
  Pd  Pd26  1  0.333333  0.666667  0.750000  1
  Pd  Pd27  1  0.666667  0.333333  0.250000  1
