# generated using pymatgen
data_Yb10Zn2Cu3Ru
_symmetry_space_group_name_H-M   'P 1'
_cell_length_a   8.93466609
_cell_length_b   8.93466585
_cell_length_c   8.87250030
_cell_angle_alpha   129.26815716
_cell_angle_beta   129.26815603
_cell_angle_gamma   75.10232961
_symmetry_Int_Tables_number   1
_chemical_formula_structural   Yb10Zn2Cu3Ru
_chemical_formula_sum   'Yb10 Zn2 Cu3 Ru1'
_cell_volume   412.16975308
_cell_formula_units_Z   1
loop_
 _symmetry_equiv_pos_site_id
 _symmetry_equiv_pos_as_xyz
  1  'x, y, z'
loop_
 _atom_site_type_symbol
 _atom_site_label
 _atom_site_symmetry_multiplicity
 _atom_site_fract_x
 _atom_site_fract_y
 _atom_site_fract_z
 _atom_site_occupancy
  Yb  Yb0  1  0.494114  0.500569  0.994683  1
  Yb  Yb1  1  0.000569  0.994114  0.994683  1
  Yb  Yb2  1  0.531878  0.031878  0.838547  1
  Yb  Yb3  1  0.186394  0.686394  0.144902  1
  Yb  Yb4  1  0.032388  0.202483  0.508648  1
  Yb  Yb5  1  0.702483  0.532388  0.508648  1
  Yb  Yb6  1  0.458509  0.958509  0.144902  1
  Yb  Yb7  1  0.806668  0.306668  0.838547  1
  Yb  Yb8  1  0.976261  0.806166  0.508648  1
  Yb  Yb9  1  0.306166  0.476261  0.508648  1
  Zn  Zn10  1  0.251950  0.251950  0.003899  1
  Zn  Zn11  1  0.751950  0.751950  0.003899  1
  Cu  Cu12  1  0.881416  0.381416  0.262831  1
  Cu  Cu13  1  0.615275  0.881769  0.497044  1
  Cu  Cu14  1  0.381769  0.115275  0.497044  1
  Ru  Ru15  1  0.122210  0.622210  0.744420  1
