# generated using pymatgen
data_Ti5(NbAs2)2
_symmetry_space_group_name_H-M   'P 1'
_cell_length_a   7.84264246
_cell_length_b   7.84264266
_cell_length_c   14.07278760
_cell_angle_alpha   75.80007051
_cell_angle_beta   75.80007072
_cell_angle_gamma   25.86506946
_symmetry_Int_Tables_number   1
_chemical_formula_structural   Ti5(NbAs2)2
_chemical_formula_sum   'Ti10 Nb4 As8'
_cell_volume   365.45406560
_cell_formula_units_Z   2
loop_
 _symmetry_equiv_pos_site_id
 _symmetry_equiv_pos_as_xyz
  1  'x, y, z'
loop_
 _atom_site_type_symbol
 _atom_site_label
 _atom_site_symmetry_multiplicity
 _atom_site_fract_x
 _atom_site_fract_y
 _atom_site_fract_z
 _atom_site_occupancy
  Ti  Ti0  1  0.196367  0.196367  0.693352  1
  Ti  Ti1  1  0.803633  0.803633  0.306648  1
  Ti  Ti2  1  0.209034  0.209034  0.206726  1
  Ti  Ti3  1  0.790966  0.790966  0.793274  1
  Ti  Ti4  1  0.339808  0.339808  0.966895  1
  Ti  Ti5  1  0.660192  0.660192  0.033105  1
  Ti  Ti6  1  0.002285  0.002285  0.342354  1
  Ti  Ti7  1  0.997715  0.997715  0.657646  1
  Ti  Ti8  1  0.179543  0.179543  0.457623  1
  Ti  Ti9  1  0.820457  0.820457  0.542377  1
  Nb  Nb10  1  0.000000  0.000000  0.000000  1
  Nb  Nb11  1  0.500000  0.500000  0.500000  1
  Nb  Nb12  1  0.426641  0.426641  0.173036  1
  Nb  Nb13  1  0.573359  0.573359  0.826964  1
  As  As14  1  0.181351  0.181351  0.892527  1
  As  As15  1  0.818649  0.818649  0.107473  1
  As  As16  1  0.370789  0.370789  0.396105  1
  As  As17  1  0.629211  0.629211  0.603895  1
  As  As18  1  0.368226  0.368226  0.661134  1
  As  As19  1  0.631774  0.631774  0.338866  1
  As  As20  1  0.063964  0.063964  0.156234  1
  As  As21  1  0.936036  0.936036  0.843766  1
