# generated using pymatgen
data_La3Cd(Mo2O7)2
_symmetry_space_group_name_H-M   'P 1'
_cell_length_a   7.43976510
_cell_length_b   7.65043030
_cell_length_c   7.62276665
_cell_angle_alpha   120.46118155
_cell_angle_beta   120.14744786
_cell_angle_gamma   90.20229623
_symmetry_Int_Tables_number   1
_chemical_formula_structural   La3Cd(Mo2O7)2
_chemical_formula_sum   'La3 Cd1 Mo4 O14'
_cell_volume   303.38358377
_cell_formula_units_Z   1
loop_
 _symmetry_equiv_pos_site_id
 _symmetry_equiv_pos_as_xyz
  1  'x, y, z'
loop_
 _atom_site_type_symbol
 _atom_site_label
 _atom_site_symmetry_multiplicity
 _atom_site_fract_x
 _atom_site_fract_y
 _atom_site_fract_z
 _atom_site_occupancy
  La  La0  1  0.375000  0.625000  0.750000  1
  La  La1  1  0.375000  0.625000  0.250000  1
  La  La2  1  0.375000  0.125000  0.750000  1
  Cd  Cd3  1  0.875000  0.625000  0.250000  1
  Mo  Mo4  1  0.875000  0.625000  0.750000  1
  Mo  Mo5  1  0.375000  0.125000  0.250000  1
  Mo  Mo6  1  0.875000  0.125000  0.250000  1
  Mo  Mo7  1  0.875000  0.125000  0.750000  1
  O  O8  1  0.792866  0.183502  0.986435  1
  O  O9  1  0.542360  0.459723  0.491070  1
  O  O10  1  0.202302  0.208309  0.000616  1
  O  O11  1  0.951404  0.448158  0.500862  1
  O  O12  1  0.804783  0.811597  0.605337  1
  O  O13  1  0.532291  0.041509  0.079954  1
  O  O14  1  0.234903  0.744826  0.491131  1
  O  O15  1  0.945217  0.438403  0.894663  1
  O  O16  1  0.957134  0.066498  0.513565  1
  O  O17  1  0.547698  0.041691  0.499384  1
  O  O18  1  0.217709  0.208491  0.420046  1
  O  O19  1  0.515097  0.505174  0.008869  1
  O  O20  1  0.798596  0.801842  0.999138  1
  O  O21  1  0.207640  0.790277  0.008930  1
