# generated using pymatgen
data_Tb2Ho3Hf3(Co4P3)4
_symmetry_space_group_name_H-M   'P 1'
_cell_length_a   12.25064100
_cell_length_b   12.25064011
_cell_length_c   3.69729700
_cell_angle_alpha   90.00000000
_cell_angle_beta   90.00000000
_cell_angle_gamma   120.00000511
_symmetry_Int_Tables_number   1
_chemical_formula_structural   Tb2Ho3Hf3(Co4P3)4
_chemical_formula_sum   'Tb2 Ho3 Hf3 Co16 P12'
_cell_volume   480.54331783
_cell_formula_units_Z   1
loop_
 _symmetry_equiv_pos_site_id
 _symmetry_equiv_pos_as_xyz
  1  'x, y, z'
loop_
 _atom_site_type_symbol
 _atom_site_label
 _atom_site_symmetry_multiplicity
 _atom_site_fract_x
 _atom_site_fract_y
 _atom_site_fract_z
 _atom_site_occupancy
  Tb  Tb0  1  0.666667  0.333333  0.000000  1
  Tb  Tb1  1  0.333333  0.666667  0.000000  1
  Ho  Ho2  1  0.817377  0.817377  0.500000  1
  Ho  Ho3  1  0.182623  0.000000  0.500000  1
  Ho  Ho4  1  0.000000  0.182623  0.500000  1
  Hf  Hf5  1  0.440966  0.440966  0.000000  1
  Hf  Hf6  1  0.559034  0.000000  0.000000  1
  Hf  Hf7  1  0.000000  0.559034  0.000000  1
  Co  Co8  1  0.875931  0.356001  0.500000  1
  Co  Co9  1  0.643999  0.519930  0.500000  1
  Co  Co10  1  0.480070  0.124069  0.500000  1
  Co  Co11  1  0.356001  0.875931  0.500000  1
  Co  Co12  1  0.519930  0.643999  0.500000  1
  Co  Co13  1  0.124069  0.480070  0.500000  1
  Co  Co14  1  0.804819  0.178052  0.000000  1
  Co  Co15  1  0.821948  0.626766  0.000000  1
  Co  Co16  1  0.373234  0.195181  0.000000  1
  Co  Co17  1  0.178052  0.804819  0.000000  1
  Co  Co18  1  0.626766  0.821948  0.000000  1
  Co  Co19  1  0.195181  0.373234  0.000000  1
  Co  Co20  1  0.278231  0.278231  0.500000  1
  Co  Co21  1  0.721769  0.000000  0.500000  1
  Co  Co22  1  0.000000  0.721769  0.500000  1
  Co  Co23  1  0.000000  0.000000  0.000000  1
  P  P24  1  0.692623  0.171079  0.500000  1
  P  P25  1  0.828921  0.521543  0.500000  1
  P  P26  1  0.478457  0.307377  0.500000  1
  P  P27  1  0.171079  0.692623  0.500000  1
  P  P28  1  0.521543  0.828921  0.500000  1
  P  P29  1  0.307377  0.478457  0.500000  1
  P  P30  1  0.177701  0.177701  0.000000  1
  P  P31  1  0.822299  0.000000  0.000000  1
  P  P32  1  0.000000  0.822299  0.000000  1
  P  P33  1  0.648244  0.648244  0.000000  1
  P  P34  1  0.351756  0.000000  0.000000  1
  P  P35  1  0.000000  0.351756  0.000000  1
