# generated using pymatgen
data_HoEr2Tm5(ReC2)4
_symmetry_space_group_name_H-M   'P 1'
_cell_length_a   5.04292900
_cell_length_b   6.52577112
_cell_length_c   9.76003067
_cell_angle_alpha   89.93294332
_cell_angle_beta   90.00000000
_cell_angle_gamma   90.00000000
_symmetry_Int_Tables_number   1
_chemical_formula_structural   HoEr2Tm5(ReC2)4
_chemical_formula_sum   'Ho1 Er2 Tm5 Re4 C8'
_cell_volume   321.19263343
_cell_formula_units_Z   1
loop_
 _symmetry_equiv_pos_site_id
 _symmetry_equiv_pos_as_xyz
  1  'x, y, z'
loop_
 _atom_site_type_symbol
 _atom_site_label
 _atom_site_symmetry_multiplicity
 _atom_site_fract_x
 _atom_site_fract_y
 _atom_site_fract_z
 _atom_site_occupancy
  Ho  Ho0  1  0.750000  0.534102  0.783079  1
  Er  Er1  1  0.250000  0.465746  0.217016  1
  Er  Er2  1  0.750000  0.034238  0.716954  1
  Tm  Tm3  1  0.250000  0.965719  0.282789  1
  Tm  Tm4  1  0.750000  0.677526  0.442055  1
  Tm  Tm5  1  0.250000  0.822646  0.942305  1
  Tm  Tm6  1  0.750000  0.177145  0.057926  1
  Tm  Tm7  1  0.250000  0.322722  0.557700  1
  Re  Re8  1  0.250000  0.281559  0.868697  1
  Re  Re9  1  0.250000  0.782117  0.631264  1
  Re  Re10  1  0.750000  0.217896  0.368584  1
  Re  Re11  1  0.750000  0.718260  0.131550  1
  C  C12  1  0.250000  0.674447  0.447105  1
  C  C13  1  0.250000  0.549388  0.758967  1
  C  C14  1  0.750000  0.450494  0.241020  1
  C  C15  1  0.750000  0.826479  0.947498  1
  C  C16  1  0.250000  0.049386  0.741003  1
  C  C17  1  0.250000  0.173112  0.052894  1
  C  C18  1  0.750000  0.326433  0.552456  1
  C  C19  1  0.750000  0.950586  0.259141  1
