# generated using pymatgen
data_CaTb3Al18(Ni2Rh)2
_symmetry_space_group_name_H-M   'P 1'
_cell_length_a   7.46701331
_cell_length_b   7.45420054
_cell_length_c   9.34717900
_cell_angle_alpha   90.00000000
_cell_angle_beta   90.00000000
_cell_angle_gamma   118.97389591
_symmetry_Int_Tables_number   1
_chemical_formula_structural   CaTb3Al18(Ni2Rh)2
_chemical_formula_sum   'Ca1 Tb3 Al18 Ni4 Rh2'
_cell_volume   455.15302785
_cell_formula_units_Z   1
loop_
 _symmetry_equiv_pos_site_id
 _symmetry_equiv_pos_as_xyz
  1  'x, y, z'
loop_
 _atom_site_type_symbol
 _atom_site_label
 _atom_site_symmetry_multiplicity
 _atom_site_fract_x
 _atom_site_fract_y
 _atom_site_fract_z
 _atom_site_occupancy
  Ca  Ca0  1  0.993644  0.676397  0.250000  1
  Tb  Tb1  1  0.005430  0.327902  0.750000  1
  Tb  Tb2  1  0.675906  0.995105  0.250000  1
  Tb  Tb3  1  0.325680  0.002683  0.750000  1
  Al  Al4  1  0.134115  0.135786  0.250000  1
  Al  Al5  1  0.867945  0.866680  0.750000  1
  Al  Al6  1  0.998977  0.339785  0.074068  1
  Al  Al7  1  0.000899  0.661770  0.927968  1
  Al  Al8  1  0.000899  0.661770  0.572032  1
  Al  Al9  1  0.337652  0.997746  0.426748  1
  Al  Al10  1  0.998977  0.339785  0.425932  1
  Al  Al11  1  0.661815  0.001331  0.574509  1
  Al  Al12  1  0.661815  0.001331  0.925491  1
  Al  Al13  1  0.337652  0.997746  0.073252  1
  Al  Al14  1  0.334372  0.334047  0.548309  1
  Al  Al15  1  0.664471  0.664356  0.454529  1
  Al  Al16  1  0.664471  0.664356  0.045471  1
  Al  Al17  1  0.334372  0.334047  0.951691  1
  Al  Al18  1  0.344620  0.557232  0.250000  1
  Al  Al19  1  0.658972  0.443575  0.750000  1
  Al  Al20  1  0.554034  0.339435  0.250000  1
  Al  Al21  1  0.446877  0.657482  0.750000  1
  Ni  Ni22  1  0.668369  0.326851  0.998595  1
  Ni  Ni23  1  0.330193  0.672030  0.998776  1
  Ni  Ni24  1  0.330193  0.672030  0.501224  1
  Ni  Ni25  1  0.668369  0.326851  0.501405  1
  Rh  Rh26  1  0.999642  0.000946  0.999387  1
  Rh  Rh27  1  0.999642  0.000946  0.500613  1
