# generated using pymatgen
data_Li3Ac3Hg2Pd
_symmetry_space_group_name_H-M   'P 1'
_cell_length_a   8.24177300
_cell_length_b   8.24177207
_cell_length_c   4.16169200
_cell_angle_alpha   90.00000000
_cell_angle_beta   90.00000000
_cell_angle_gamma   119.99999974
_symmetry_Int_Tables_number   1
_chemical_formula_structural   Li3Ac3Hg2Pd
_chemical_formula_sum   'Li3 Ac3 Hg2 Pd1'
_cell_volume   244.81713810
_cell_formula_units_Z   1
loop_
 _symmetry_equiv_pos_site_id
 _symmetry_equiv_pos_as_xyz
  1  'x, y, z'
loop_
 _atom_site_type_symbol
 _atom_site_label
 _atom_site_symmetry_multiplicity
 _atom_site_fract_x
 _atom_site_fract_y
 _atom_site_fract_z
 _atom_site_occupancy
  Li  Li0  1  0.763006  0.756591  0.000000  1
  Li  Li1  1  0.243409  0.006416  0.000000  1
  Li  Li2  1  0.993584  0.236994  0.000000  1
  Ac  Ac3  1  0.403765  0.423399  0.500000  1
  Ac  Ac4  1  0.576601  0.980367  0.500000  1
  Ac  Ac5  1  0.019633  0.596235  0.500000  1
  Hg  Hg6  1  0.666667  0.333333  0.000000  1
  Hg  Hg7  1  0.000000  0.000000  0.500000  1
  Pd  Pd8  1  0.333333  0.666667  0.000000  1
