# generated using pymatgen
data_HfZr3Fe4Si3As
_symmetry_space_group_name_H-M   'P 1'
_cell_length_a   3.95743300
_cell_length_b   6.43572318
_cell_length_c   7.08153007
_cell_angle_alpha   90.36056065
_cell_angle_beta   90.00000000
_cell_angle_gamma   90.00000000
_symmetry_Int_Tables_number   1
_chemical_formula_structural   HfZr3Fe4Si3As
_chemical_formula_sum   'Hf1 Zr3 Fe4 Si3 As1'
_cell_volume   180.35551634
_cell_formula_units_Z   1
loop_
 _symmetry_equiv_pos_site_id
 _symmetry_equiv_pos_as_xyz
  1  'x, y, z'
loop_
 _atom_site_type_symbol
 _atom_site_label
 _atom_site_symmetry_multiplicity
 _atom_site_fract_x
 _atom_site_fract_y
 _atom_site_fract_z
 _atom_site_occupancy
  Hf  Hf0  1  0.250000  0.499423  0.196740  1
  Zr  Zr1  1  0.250000  0.998488  0.299659  1
  Zr  Zr2  1  0.750000  0.993072  0.698819  1
  Zr  Zr3  1  0.750000  0.501913  0.805657  1
  Fe  Fe4  1  0.250000  0.155064  0.939054  1
  Fe  Fe5  1  0.250000  0.656716  0.565174  1
  Fe  Fe6  1  0.750000  0.847869  0.066085  1
  Fe  Fe7  1  0.750000  0.352188  0.426065  1
  Si  Si8  1  0.250000  0.788327  0.898295  1
  Si  Si9  1  0.750000  0.711101  0.390740  1
  Si  Si10  1  0.750000  0.212984  0.107090  1
  As  As11  1  0.250000  0.282853  0.606622  1
