# generated using pymatgen
data_TbPaHgPt2
_symmetry_space_group_name_H-M   'P 1'
_cell_length_a   7.92929300
_cell_length_b   7.81519000
_cell_length_c   3.62990000
_cell_angle_alpha   90.00000000
_cell_angle_beta   90.00000000
_cell_angle_gamma   90.00000000
_symmetry_Int_Tables_number   1
_chemical_formula_structural   TbPaHgPt2
_chemical_formula_sum   'Tb2 Pa2 Hg2 Pt4'
_cell_volume   224.94102395
_cell_formula_units_Z   2
loop_
 _symmetry_equiv_pos_site_id
 _symmetry_equiv_pos_as_xyz
  1  'x, y, z'
loop_
 _atom_site_type_symbol
 _atom_site_label
 _atom_site_symmetry_multiplicity
 _atom_site_fract_x
 _atom_site_fract_y
 _atom_site_fract_z
 _atom_site_occupancy
  Tb  Tb0  1  0.173358  0.672130  0.500000  1
  Tb  Tb1  1  0.673358  0.827870  0.500000  1
  Pa  Pa2  1  0.329635  0.166940  0.500000  1
  Pa  Pa3  1  0.829635  0.333060  0.500000  1
  Hg  Hg4  1  0.994239  0.991703  0.000000  1
  Hg  Hg5  1  0.494239  0.508297  0.000000  1
  Pt  Pt6  1  0.629682  0.147116  0.000000  1
  Pt  Pt7  1  0.129682  0.352884  0.000000  1
  Pt  Pt8  1  0.873087  0.612060  0.000000  1
  Pt  Pt9  1  0.373087  0.887940  0.000000  1
