# generated using pymatgen
data_YEr4Tm(RuI3)2
_symmetry_space_group_name_H-M   'P 1'
_cell_length_a   4.20856300
_cell_length_b   8.86434874
_cell_length_c   12.30694254
_cell_angle_alpha   86.25202056
_cell_angle_beta   90.00000000
_cell_angle_gamma   90.00000000
_symmetry_Int_Tables_number   1
_chemical_formula_structural   YEr4Tm(RuI3)2
_chemical_formula_sum   'Y1 Er4 Tm1 Ru2 I6'
_cell_volume   458.14292897
_cell_formula_units_Z   1
loop_
 _symmetry_equiv_pos_site_id
 _symmetry_equiv_pos_as_xyz
  1  'x, y, z'
loop_
 _atom_site_type_symbol
 _atom_site_label
 _atom_site_symmetry_multiplicity
 _atom_site_fract_x
 _atom_site_fract_y
 _atom_site_fract_z
 _atom_site_occupancy
  Y  Y0  1  0.750000  0.737825  0.102328  1
  Er  Er1  1  0.750000  0.130787  0.125574  1
  Er  Er2  1  0.750000  0.097841  0.688052  1
  Er  Er3  1  0.250000  0.902883  0.312004  1
  Er  Er4  1  0.250000  0.256562  0.897465  1
  Tm  Tm5  1  0.250000  0.869992  0.874033  1
  Ru  Ru6  1  0.750000  0.052241  0.908514  1
  Ru  Ru7  1  0.250000  0.949406  0.090667  1
  I  I8  1  0.250000  0.350842  0.637432  1
  I  I9  1  0.750000  0.650053  0.363870  1
  I  I10  1  0.750000  0.141391  0.391589  1
  I  I11  1  0.250000  0.858864  0.608966  1
  I  I12  1  0.250000  0.427237  0.133051  1
  I  I13  1  0.750000  0.574076  0.866456  1
