# generated using pymatgen
data_Tb3Mn2Co7
_symmetry_space_group_name_H-M   'P 1'
_cell_length_a   5.11693605
_cell_length_b   5.11693707
_cell_length_c   8.38564833
_cell_angle_alpha   107.76422959
_cell_angle_beta   72.23576793
_cell_angle_gamma   119.99999372
_symmetry_Int_Tables_number   1
_chemical_formula_structural   Tb3Mn2Co7
_chemical_formula_sum   'Tb3 Mn2 Co7'
_cell_volume   177.95525707
_cell_formula_units_Z   1
loop_
 _symmetry_equiv_pos_site_id
 _symmetry_equiv_pos_as_xyz
  1  'x, y, z'
loop_
 _atom_site_type_symbol
 _atom_site_label
 _atom_site_symmetry_multiplicity
 _atom_site_fract_x
 _atom_site_fract_y
 _atom_site_fract_z
 _atom_site_occupancy
  Tb  Tb0  1  0.000000  0.000000  0.000000  1
  Tb  Tb1  1  0.859567  0.140435  0.421304  1
  Tb  Tb2  1  0.140435  0.859566  0.578696  1
  Mn  Mn3  1  0.333448  0.666554  0.999662  1
  Mn  Mn4  1  0.666553  0.333446  0.000339  1
  Co  Co5  1  0.418356  0.081689  0.244980  1
  Co  Co6  1  0.918310  0.581645  0.244980  1
  Co  Co7  1  0.418356  0.581647  0.244980  1
  Co  Co8  1  0.500000  0.500000  0.500000  1
  Co  Co9  1  0.581646  0.418354  0.755020  1
  Co  Co10  1  0.081689  0.418355  0.755020  1
  Co  Co11  1  0.581646  0.918312  0.755020  1
