# generated using pymatgen
data_Ce2Ho2Mg3ZnRh4
_symmetry_space_group_name_H-M   'P 1'
_cell_length_a   3.96437700
_cell_length_b   7.13925077
_cell_length_c   8.73759963
_cell_angle_alpha   92.40906994
_cell_angle_beta   90.00000000
_cell_angle_gamma   90.00000000
_symmetry_Int_Tables_number   1
_chemical_formula_structural   Ce2Ho2Mg3ZnRh4
_chemical_formula_sum   'Ce2 Ho2 Mg3 Zn1 Rh4'
_cell_volume   247.07893547
_cell_formula_units_Z   1
loop_
 _symmetry_equiv_pos_site_id
 _symmetry_equiv_pos_as_xyz
  1  'x, y, z'
loop_
 _atom_site_type_symbol
 _atom_site_label
 _atom_site_symmetry_multiplicity
 _atom_site_fract_x
 _atom_site_fract_y
 _atom_site_fract_z
 _atom_site_occupancy
  Ce  Ce0  1  0.250000  0.529943  0.192971  1
  Ce  Ce1  1  0.750000  0.465106  0.807997  1
  Ho  Ho2  1  0.250000  0.051888  0.332263  1
  Ho  Ho3  1  0.750000  0.959602  0.672132  1
  Mg  Mg4  1  0.250000  0.131039  0.938978  1
  Mg  Mg5  1  0.750000  0.867817  0.062461  1
  Mg  Mg6  1  0.250000  0.631386  0.550712  1
  Zn  Zn7  1  0.750000  0.362582  0.443933  1
  Rh  Rh8  1  0.750000  0.748722  0.361680  1
  Rh  Rh9  1  0.250000  0.254293  0.636271  1
  Rh  Rh10  1  0.750000  0.263478  0.136726  1
  Rh  Rh11  1  0.250000  0.734143  0.863875  1
