# generated using pymatgen
data_Nd2B5Os2Ru
_symmetry_space_group_name_H-M   'P 1'
_cell_length_a   5.73402589
_cell_length_b   5.73402643
_cell_length_c   8.17714449
_cell_angle_alpha   56.52255871
_cell_angle_beta   56.52255482
_cell_angle_gamma   41.60507599
_symmetry_Int_Tables_number   1
_chemical_formula_structural   Nd2B5Os2Ru
_chemical_formula_sum   'Nd2 B5 Os2 Ru1'
_cell_volume   144.12684641
_cell_formula_units_Z   1
loop_
 _symmetry_equiv_pos_site_id
 _symmetry_equiv_pos_as_xyz
  1  'x, y, z'
loop_
 _atom_site_type_symbol
 _atom_site_label
 _atom_site_symmetry_multiplicity
 _atom_site_fract_x
 _atom_site_fract_y
 _atom_site_fract_z
 _atom_site_occupancy
  Nd  Nd0  1  0.394656  0.942594  0.741525  1
  Nd  Nd1  1  0.057406  0.605344  0.258475  1
  B  B2  1  0.733461  0.266539  0.000000  1
  B  B3  1  0.525749  0.508903  0.384051  1
  B  B4  1  0.491097  0.474251  0.615949  1
  B  B5  1  0.088513  0.627350  0.812104  1
  B  B6  1  0.372650  0.911487  0.187896  1
  Os  Os7  1  0.610361  0.127575  0.903546  1
  Os  Os8  1  0.872425  0.389639  0.096454  1
  Ru  Ru9  1  0.019955  0.980045  0.500000  1
