# generated using pymatgen
data_Er19Lu(Cd3Co)2
_symmetry_space_group_name_H-M   'P 1'
_cell_length_a   9.48604100
_cell_length_b   9.48610919
_cell_length_c   9.65809800
_cell_angle_alpha   89.99880348
_cell_angle_beta   90.00015564
_cell_angle_gamma   120.00030252
_symmetry_Int_Tables_number   1
_chemical_formula_structural   Er19Lu(Cd3Co)2
_chemical_formula_sum   'Er19 Lu1 Cd6 Co2'
_cell_volume   752.65167478
_cell_formula_units_Z   1
loop_
 _symmetry_equiv_pos_site_id
 _symmetry_equiv_pos_as_xyz
  1  'x, y, z'
loop_
 _atom_site_type_symbol
 _atom_site_label
 _atom_site_symmetry_multiplicity
 _atom_site_fract_x
 _atom_site_fract_y
 _atom_site_fract_z
 _atom_site_occupancy
  Er  Er0  1  0.000000  0.000000  0.000000  1
  Er  Er1  1  0.542295  0.457695  0.250034  1
  Er  Er2  1  0.542296  0.084603  0.250032  1
  Er  Er3  1  0.915398  0.457699  0.250033  1
  Er  Er4  1  0.457705  0.542305  0.749966  1
  Er  Er5  1  0.457704  0.915397  0.749968  1
  Er  Er6  1  0.084602  0.542301  0.749967  1
  Er  Er7  1  0.211763  0.788226  0.436965  1
  Er  Er8  1  0.211775  0.423544  0.436966  1
  Er  Er9  1  0.576463  0.788225  0.436968  1
  Er  Er10  1  0.788237  0.211774  0.563035  1
  Er  Er11  1  0.788225  0.576456  0.563034  1
  Er  Er12  1  0.423537  0.211775  0.563032  1
  Er  Er13  1  0.788024  0.211983  0.937127  1
  Er  Er14  1  0.788024  0.576048  0.937128  1
  Er  Er15  1  0.423950  0.211979  0.937130  1
  Er  Er16  1  0.211976  0.788017  0.062873  1
  Er  Er17  1  0.211976  0.423952  0.062872  1
  Er  Er18  1  0.576050  0.788021  0.062870  1
  Lu  Lu19  1  0.000000  0.000000  0.500000  1
  Cd  Cd20  1  0.885316  0.114688  0.250375  1
  Cd  Cd21  1  0.885307  0.770613  0.250388  1
  Cd  Cd22  1  0.229381  0.114697  0.250385  1
  Cd  Cd23  1  0.114684  0.885312  0.749625  1
  Cd  Cd24  1  0.114693  0.229387  0.749612  1
  Cd  Cd25  1  0.770619  0.885303  0.749615  1
  Co  Co26  1  0.333331  0.666665  0.250140  1
  Co  Co27  1  0.666669  0.333335  0.749860  1
