# generated using pymatgen
data_Rb2Np(GeO3)3
_symmetry_space_group_name_H-M   'P 1'
_cell_length_a   7.36671400
_cell_length_b   7.36671310
_cell_length_c   10.82592900
_cell_angle_alpha   90.00000000
_cell_angle_beta   90.00000000
_cell_angle_gamma   119.99999508
_symmetry_Int_Tables_number   1
_chemical_formula_structural   Rb2Np(GeO3)3
_chemical_formula_sum   'Rb4 Np2 Ge6 O18'
_cell_volume   508.79565439
_cell_formula_units_Z   2
loop_
 _symmetry_equiv_pos_site_id
 _symmetry_equiv_pos_as_xyz
  1  'x, y, z'
loop_
 _atom_site_type_symbol
 _atom_site_label
 _atom_site_symmetry_multiplicity
 _atom_site_fract_x
 _atom_site_fract_y
 _atom_site_fract_z
 _atom_site_occupancy
  Rb  Rb0  1  0.333333  0.666667  0.057453  1
  Rb  Rb1  1  0.666667  0.333333  0.557453  1
  Rb  Rb2  1  0.333333  0.666667  0.442547  1
  Rb  Rb3  1  0.666667  0.333333  0.942547  1
  Np  Np4  1  0.000000  0.000000  0.000000  1
  Np  Np5  1  0.000000  0.000000  0.500000  1
  Ge  Ge6  1  0.614919  0.736730  0.750000  1
  Ge  Ge7  1  0.878188  0.614919  0.250000  1
  Ge  Ge8  1  0.736730  0.121812  0.250000  1
  Ge  Ge9  1  0.263270  0.878188  0.750000  1
  Ge  Ge10  1  0.121812  0.385081  0.750000  1
  Ge  Ge11  1  0.385081  0.263270  0.250000  1
  O  O12  1  0.256639  0.248900  0.387615  1
  O  O13  1  0.007740  0.256639  0.887615  1
  O  O14  1  0.248900  0.992260  0.887615  1
  O  O15  1  0.751100  0.007740  0.387615  1
  O  O16  1  0.992260  0.743361  0.387615  1
  O  O17  1  0.743361  0.751100  0.887615  1
  O  O18  1  0.743361  0.751100  0.612385  1
  O  O19  1  0.992260  0.743361  0.112385  1
  O  O20  1  0.751100  0.007740  0.112385  1
  O  O21  1  0.248900  0.992260  0.612385  1
  O  O22  1  0.007740  0.256639  0.612385  1
  O  O23  1  0.256639  0.248900  0.112385  1
  O  O24  1  0.472657  0.076553  0.250000  1
  O  O25  1  0.396104  0.472657  0.750000  1
  O  O26  1  0.076553  0.603896  0.750000  1
  O  O27  1  0.923447  0.396104  0.250000  1
  O  O28  1  0.603896  0.527343  0.250000  1
  O  O29  1  0.527343  0.923447  0.750000  1
