# generated using pymatgen
data_Dy4OsI4
_symmetry_space_group_name_H-M   'P 1'
_cell_length_a   11.65446331
_cell_length_b   11.65446557
_cell_length_c   6.20314309
_cell_angle_alpha   90.03346666
_cell_angle_beta   90.03346994
_cell_angle_gamma   89.80355220
_symmetry_Int_Tables_number   1
_chemical_formula_structural   Dy4OsI4
_chemical_formula_sum   'Dy8 Os2 I8'
_cell_volume   842.54623241
_cell_formula_units_Z   2
loop_
 _symmetry_equiv_pos_site_id
 _symmetry_equiv_pos_as_xyz
  1  'x, y, z'
loop_
 _atom_site_type_symbol
 _atom_site_label
 _atom_site_symmetry_multiplicity
 _atom_site_fract_x
 _atom_site_fract_y
 _atom_site_fract_z
 _atom_site_occupancy
  Dy  Dy0  1  0.808184  0.079161  0.001248  1
  Dy  Dy1  1  0.079161  0.808184  0.501248  1
  Dy  Dy2  1  0.078534  0.191979  0.001348  1
  Dy  Dy3  1  0.191979  0.078534  0.501348  1
  Dy  Dy4  1  0.921466  0.808021  0.998652  1
  Dy  Dy5  1  0.920839  0.191816  0.498752  1
  Dy  Dy6  1  0.191816  0.920839  0.998752  1
  Dy  Dy7  1  0.808021  0.921466  0.498652  1
  Os  Os8  1  0.000158  0.999842  0.250000  1
  Os  Os9  1  0.999842  0.000158  0.750000  1
  I  I10  1  0.653622  0.143341  0.486753  1
  I  I11  1  0.854822  0.656166  0.507646  1
  I  I12  1  0.343834  0.145178  0.992354  1
  I  I13  1  0.145178  0.343834  0.492354  1
  I  I14  1  0.656166  0.854822  0.007646  1
  I  I15  1  0.346378  0.856659  0.513247  1
  I  I16  1  0.143341  0.653622  0.986753  1
  I  I17  1  0.856659  0.346378  0.013247  1
