# generated using pymatgen
data_Dy2ErLu3Co2
_symmetry_space_group_name_H-M   'P 1'
_cell_length_a   6.14542524
_cell_length_b   6.88180900
_cell_length_c   9.21941511
_cell_angle_alpha   90.00000000
_cell_angle_beta   90.23404532
_cell_angle_gamma   90.00000000
_symmetry_Int_Tables_number   1
_chemical_formula_structural   Dy2ErLu3Co2
_chemical_formula_sum   'Dy4 Er2 Lu6 Co4'
_cell_volume   389.90095715
_cell_formula_units_Z   2
loop_
 _symmetry_equiv_pos_site_id
 _symmetry_equiv_pos_as_xyz
  1  'x, y, z'
loop_
 _atom_site_type_symbol
 _atom_site_label
 _atom_site_symmetry_multiplicity
 _atom_site_fract_x
 _atom_site_fract_y
 _atom_site_fract_z
 _atom_site_occupancy
  Dy  Dy0  1  0.861742  0.541140  0.250893  1
  Dy  Dy1  1  0.638258  0.041140  0.249107  1
  Dy  Dy2  1  0.134364  0.458770  0.749866  1
  Dy  Dy3  1  0.365636  0.958770  0.750134  1
  Er  Er4  1  0.322762  0.674890  0.067068  1
  Er  Er5  1  0.177238  0.174890  0.432932  1
  Lu  Lu6  1  0.674850  0.325248  0.568381  1
  Lu  Lu7  1  0.825150  0.825248  0.931619  1
  Lu  Lu8  1  0.675037  0.325046  0.932530  1
  Lu  Lu9  1  0.824963  0.825046  0.567470  1
  Lu  Lu10  1  0.325796  0.674480  0.434134  1
  Lu  Lu11  1  0.174204  0.174480  0.065866  1
  Co  Co12  1  0.049079  0.887287  0.250377  1
  Co  Co13  1  0.450921  0.387287  0.249623  1
  Co  Co14  1  0.949700  0.113139  0.752624  1
  Co  Co15  1  0.550300  0.613139  0.747376  1
