# generated using pymatgen
data_LaEu3(BeSi3)2
_symmetry_space_group_name_H-M   'P 1'
_cell_length_a   7.98052400
_cell_length_b   7.98052355
_cell_length_c   4.42873200
_cell_angle_alpha   90.00000000
_cell_angle_beta   90.00000000
_cell_angle_gamma   120.00000186
_symmetry_Int_Tables_number   1
_chemical_formula_structural   LaEu3(BeSi3)2
_chemical_formula_sum   'La1 Eu3 Be2 Si6'
_cell_volume   244.27150898
_cell_formula_units_Z   1
loop_
 _symmetry_equiv_pos_site_id
 _symmetry_equiv_pos_as_xyz
  1  'x, y, z'
loop_
 _atom_site_type_symbol
 _atom_site_label
 _atom_site_symmetry_multiplicity
 _atom_site_fract_x
 _atom_site_fract_y
 _atom_site_fract_z
 _atom_site_occupancy
  La  La0  1  0.000000  0.000000  0.500000  1
  Eu  Eu1  1  0.000000  0.500000  0.500000  1
  Eu  Eu2  1  0.500000  0.500000  0.500000  1
  Eu  Eu3  1  0.500000  0.000000  0.500000  1
  Be  Be4  1  0.333333  0.666667  0.000000  1
  Be  Be5  1  0.666667  0.333333  0.000000  1
  Si  Si6  1  0.172636  0.345273  0.000000  1
  Si  Si7  1  0.654727  0.827364  0.000000  1
  Si  Si8  1  0.345273  0.172636  0.000000  1
  Si  Si9  1  0.172636  0.827364  0.000000  1
  Si  Si10  1  0.827364  0.654727  0.000000  1
  Si  Si11  1  0.827364  0.172636  0.000000  1
