# generated using pymatgen
data_Cr4InAuSe8
_symmetry_space_group_name_H-M   'P 1'
_cell_length_a   7.63878127
_cell_length_b   7.63878156
_cell_length_c   7.63878200
_cell_angle_alpha   59.99999811
_cell_angle_beta   60.00000550
_cell_angle_gamma   60.00000311
_symmetry_Int_Tables_number   1
_chemical_formula_structural   Cr4InAuSe8
_chemical_formula_sum   'Cr4 In1 Au1 Se8'
_cell_volume   315.17902379
_cell_formula_units_Z   1
loop_
 _symmetry_equiv_pos_site_id
 _symmetry_equiv_pos_as_xyz
  1  'x, y, z'
loop_
 _atom_site_type_symbol
 _atom_site_label
 _atom_site_symmetry_multiplicity
 _atom_site_fract_x
 _atom_site_fract_y
 _atom_site_fract_z
 _atom_site_occupancy
  Cr  Cr0  1  0.621480  0.621480  0.135559  1
  Cr  Cr1  1  0.621480  0.135559  0.621480  1
  Cr  Cr2  1  0.135559  0.621480  0.621480  1
  Cr  Cr3  1  0.621480  0.621480  0.621480  1
  In  In4  1  0.000000  0.000000  0.000000  1
  Au  Au5  1  0.250000  0.250000  0.250000  1
  Se  Se6  1  0.859695  0.859695  0.420916  1
  Se  Se7  1  0.859695  0.420916  0.859695  1
  Se  Se8  1  0.420916  0.859695  0.859695  1
  Se  Se9  1  0.859695  0.859695  0.859695  1
  Se  Se10  1  0.389127  0.389127  0.832618  1
  Se  Se11  1  0.389127  0.832618  0.389127  1
  Se  Se12  1  0.832618  0.389127  0.389127  1
  Se  Se13  1  0.389127  0.389127  0.389127  1
