# generated using pymatgen
data_K(Cr5S8)2
_symmetry_space_group_name_H-M   'P 1'
_cell_length_a   6.92709564
_cell_length_b   9.16693158
_cell_length_c   9.34938937
_cell_angle_alpha   72.53078691
_cell_angle_beta   68.23762650
_cell_angle_gamma   79.06794001
_symmetry_Int_Tables_number   1
_chemical_formula_structural   K(Cr5S8)2
_chemical_formula_sum   'K1 Cr10 S16'
_cell_volume   523.88464805
_cell_formula_units_Z   1
loop_
 _symmetry_equiv_pos_site_id
 _symmetry_equiv_pos_as_xyz
  1  'x, y, z'
loop_
 _atom_site_type_symbol
 _atom_site_label
 _atom_site_symmetry_multiplicity
 _atom_site_fract_x
 _atom_site_fract_y
 _atom_site_fract_z
 _atom_site_occupancy
  K  K0  1  0.000000  0.000000  0.000000  1
  Cr  Cr1  1  0.841561  0.686107  0.472608  1
  Cr  Cr2  1  0.342371  0.685479  0.471724  1
  Cr  Cr3  1  0.657629  0.314521  0.528276  1
  Cr  Cr4  1  0.158439  0.313893  0.527392  1
  Cr  Cr5  1  0.816516  0.409936  0.161977  1
  Cr  Cr6  1  0.317265  0.406667  0.161789  1
  Cr  Cr7  1  0.682735  0.593333  0.838211  1
  Cr  Cr8  1  0.183484  0.590064  0.838023  1
  Cr  Cr9  1  0.500000  0.000000  0.500000  1
  Cr  Cr10  1  0.000000  0.000000  0.500000  1
  S  S11  1  0.786602  0.153166  0.350076  1
  S  S12  1  0.286782  0.152940  0.350080  1
  S  S13  1  0.713218  0.847060  0.649920  1
  S  S14  1  0.213398  0.846834  0.649924  1
  S  S15  1  0.958430  0.474793  0.345239  1
  S  S16  1  0.459144  0.474915  0.344860  1
  S  S17  1  0.540856  0.525085  0.655140  1
  S  S18  1  0.041570  0.525207  0.654761  1
  S  S19  1  0.629391  0.827736  0.326723  1
  S  S20  1  0.129011  0.827698  0.326906  1
  S  S21  1  0.870989  0.172302  0.673094  1
  S  S22  1  0.370609  0.172264  0.673277  1
  S  S23  1  0.339697  0.655266  0.991179  1
  S  S24  1  0.841262  0.657166  0.990327  1
  S  S25  1  0.158738  0.342834  0.009673  1
  S  S26  1  0.660303  0.344734  0.008821  1
