# generated using pymatgen
data_Cd2Ni2SnRhO8
_symmetry_space_group_name_H-M   'P 1'
_cell_length_a   6.22253582
_cell_length_b   6.32461375
_cell_length_c   6.33323335
_cell_angle_alpha   60.33310873
_cell_angle_beta   60.57652917
_cell_angle_gamma   60.53248869
_symmetry_Int_Tables_number   1
_chemical_formula_structural   Cd2Ni2SnRhO8
_chemical_formula_sum   'Cd2 Ni2 Sn1 Rh1 O8'
_cell_volume   178.15615364
_cell_formula_units_Z   1
loop_
 _symmetry_equiv_pos_site_id
 _symmetry_equiv_pos_as_xyz
  1  'x, y, z'
loop_
 _atom_site_type_symbol
 _atom_site_label
 _atom_site_symmetry_multiplicity
 _atom_site_fract_x
 _atom_site_fract_y
 _atom_site_fract_z
 _atom_site_occupancy
  Cd  Cd0  1  0.263487  0.241605  0.231419  1
  Cd  Cd1  1  0.986513  0.008395  0.018581  1
  Ni  Ni2  1  0.125000  0.625000  0.625000  1
  Ni  Ni3  1  0.625000  0.625000  0.625000  1
  Sn  Sn4  1  0.625000  0.125000  0.625000  1
  Rh  Rh5  1  0.625000  0.625000  0.125000  1
  O  O6  1  0.855075  0.854515  0.435336  1
  O  O7  1  0.847654  0.432366  0.872327  1
  O  O8  1  0.417410  0.859837  0.869651  1
  O  O9  1  0.853103  0.859837  0.869651  1
  O  O10  1  0.394925  0.395485  0.814664  1
  O  O11  1  0.402346  0.817634  0.377673  1
  O  O12  1  0.832590  0.390163  0.380349  1
  O  O13  1  0.396897  0.390163  0.380349  1
