# generated using pymatgen
data_ErTm5RuO12
_symmetry_space_group_name_H-M   'P 1'
_cell_length_a   6.37917556
_cell_length_b   6.38164444
_cell_length_c   6.38130814
_cell_angle_alpha   98.64358945
_cell_angle_beta   98.67341822
_cell_angle_gamma   98.72263163
_symmetry_Int_Tables_number   1
_chemical_formula_structural   ErTm5RuO12
_chemical_formula_sum   'Er1 Tm5 Ru1 O12'
_cell_volume   249.82210003
_cell_formula_units_Z   1
loop_
 _symmetry_equiv_pos_site_id
 _symmetry_equiv_pos_as_xyz
  1  'x, y, z'
loop_
 _atom_site_type_symbol
 _atom_site_label
 _atom_site_symmetry_multiplicity
 _atom_site_fract_x
 _atom_site_fract_y
 _atom_site_fract_z
 _atom_site_occupancy
  Er  Er0  1  0.684974  0.856921  0.388967  1
  Tm  Tm1  1  0.388823  0.683635  0.856351  1
  Tm  Tm2  1  0.856563  0.389235  0.684448  1
  Tm  Tm3  1  0.315867  0.143659  0.610965  1
  Tm  Tm4  1  0.610706  0.315910  0.143261  1
  Tm  Tm5  1  0.143670  0.610592  0.315966  1
  Ru  Ru6  1  0.000558  0.000311  0.000225  1
  O  O7  1  0.430421  0.588533  0.177119  1
  O  O8  1  0.177688  0.430960  0.589765  1
  O  O9  1  0.588937  0.178847  0.431413  1
  O  O10  1  0.568871  0.410494  0.822435  1
  O  O11  1  0.822894  0.567579  0.410172  1
  O  O12  1  0.409176  0.822456  0.569217  1
  O  O13  1  0.923229  0.038602  0.700250  1
  O  O14  1  0.962407  0.300265  0.077663  1
  O  O15  1  0.300511  0.077726  0.962435  1
  O  O16  1  0.077824  0.962155  0.300367  1
  O  O17  1  0.037504  0.699665  0.922419  1
  O  O18  1  0.699378  0.922456  0.036561  1
