# generated using pymatgen
data_TbTm9FeCoSb4
_symmetry_space_group_name_H-M   'P 1'
_cell_length_a   7.76326500
_cell_length_b   8.74577900
_cell_length_c   12.06456100
_cell_angle_alpha   90.00000000
_cell_angle_beta   90.00000000
_cell_angle_gamma   90.00000000
_symmetry_Int_Tables_number   1
_chemical_formula_structural   TbTm9FeCoSb4
_chemical_formula_sum   'Tb2 Tm18 Fe2 Co2 Sb8'
_cell_volume   819.13302085
_cell_formula_units_Z   2
loop_
 _symmetry_equiv_pos_site_id
 _symmetry_equiv_pos_as_xyz
  1  'x, y, z'
loop_
 _atom_site_type_symbol
 _atom_site_label
 _atom_site_symmetry_multiplicity
 _atom_site_fract_x
 _atom_site_fract_y
 _atom_site_fract_z
 _atom_site_occupancy
  Tb  Tb0  1  0.378585  0.250000  0.692053  1
  Tb  Tb1  1  0.878585  0.750000  0.807947  1
  Tm  Tm2  1  0.156756  0.750000  0.206991  1
  Tm  Tm3  1  0.656756  0.250000  0.293009  1
  Tm  Tm4  1  0.845328  0.250000  0.797188  1
  Tm  Tm5  1  0.345328  0.750000  0.702812  1
  Tm  Tm6  1  0.445170  0.750000  0.996707  1
  Tm  Tm7  1  0.945170  0.250000  0.503293  1
  Tm  Tm8  1  0.549652  0.250000  0.003634  1
  Tm  Tm9  1  0.049652  0.750000  0.496366  1
  Tm  Tm10  1  0.622661  0.750000  0.307336  1
  Tm  Tm11  1  0.122661  0.250000  0.192664  1
  Tm  Tm12  1  0.825617  0.967689  0.065161  1
  Tm  Tm13  1  0.325617  0.032311  0.434839  1
  Tm  Tm14  1  0.177684  0.458721  0.935588  1
  Tm  Tm15  1  0.677684  0.541279  0.564412  1
  Tm  Tm16  1  0.177684  0.041279  0.935588  1
  Tm  Tm17  1  0.677684  0.958721  0.564412  1
  Tm  Tm18  1  0.825617  0.532311  0.065161  1
  Tm  Tm19  1  0.325617  0.467689  0.434839  1
  Fe  Fe20  1  0.428662  0.750000  0.488018  1
  Fe  Fe21  1  0.928662  0.250000  0.011982  1
  Co  Co22  1  0.568000  0.250000  0.506408  1
  Co  Co23  1  0.068000  0.750000  0.993592  1
  Sb  Sb24  1  0.929662  0.992887  0.328273  1
  Sb  Sb25  1  0.429662  0.007113  0.171727  1
  Sb  Sb26  1  0.069629  0.491673  0.671363  1
  Sb  Sb27  1  0.569629  0.508327  0.828637  1
  Sb  Sb28  1  0.069629  0.008327  0.671363  1
  Sb  Sb29  1  0.569629  0.991673  0.828637  1
  Sb  Sb30  1  0.929662  0.507113  0.328273  1
  Sb  Sb31  1  0.429662  0.492887  0.171727  1
