# generated using pymatgen
data_Lu2PaGa5Os
_symmetry_space_group_name_H-M   'P 1'
_cell_length_a   6.75476400
_cell_length_b   6.96435890
_cell_length_c   4.30040400
_cell_angle_alpha   90.00000000
_cell_angle_beta   90.00000000
_cell_angle_gamma   119.00935797
_symmetry_Int_Tables_number   1
_chemical_formula_structural   Lu2PaGa5Os
_chemical_formula_sum   'Lu2 Pa1 Ga5 Os1'
_cell_volume   176.92145962
_cell_formula_units_Z   1
loop_
 _symmetry_equiv_pos_site_id
 _symmetry_equiv_pos_as_xyz
  1  'x, y, z'
loop_
 _atom_site_type_symbol
 _atom_site_label
 _atom_site_symmetry_multiplicity
 _atom_site_fract_x
 _atom_site_fract_y
 _atom_site_fract_z
 _atom_site_occupancy
  Lu  Lu0  1  0.002753  0.594479  0.000000  1
  Lu  Lu1  1  0.408274  0.405521  0.000000  1
  Pa  Pa2  1  0.593972  0.000000  0.000000  1
  Ga  Ga3  1  0.236055  0.000000  0.500000  1
  Ga  Ga4  1  0.007701  0.241757  0.500000  1
  Ga  Ga5  1  0.765944  0.758243  0.500000  1
  Ga  Ga6  1  0.335789  0.665222  0.500000  1
  Ga  Ga7  1  0.670568  0.334778  0.500000  1
  Os  Os8  1  0.978942  0.000000  0.000000  1
