# generated using pymatgen
data_Cs4TbNbBr12
_symmetry_space_group_name_H-M   'P 1'
_cell_length_a   13.55161454
_cell_length_b   13.55161639
_cell_length_c   13.55148000
_cell_angle_alpha   131.65377197
_cell_angle_beta   131.65377893
_cell_angle_gamma   70.77565337
_symmetry_Int_Tables_number   1
_chemical_formula_structural   Cs4TbNbBr12
_chemical_formula_sum   'Cs8 Tb2 Nb2 Br24'
_cell_volume   1360.87182101
_cell_formula_units_Z   2
loop_
 _symmetry_equiv_pos_site_id
 _symmetry_equiv_pos_as_xyz
  1  'x, y, z'
loop_
 _atom_site_type_symbol
 _atom_site_label
 _atom_site_symmetry_multiplicity
 _atom_site_fract_x
 _atom_site_fract_y
 _atom_site_fract_z
 _atom_site_occupancy
  Cs  Cs0  1  0.375014  0.846732  0.971759  1
  Cs  Cs1  1  0.596732  0.625014  0.471759  1
  Cs  Cs2  1  0.874998  0.846721  0.471738  1
  Cs  Cs3  1  0.596721  0.124998  0.971738  1
  Cs  Cs4  1  0.875002  0.403279  0.028262  1
  Cs  Cs5  1  0.153279  0.125002  0.528262  1
  Cs  Cs6  1  0.374986  0.403268  0.528241  1
  Cs  Cs7  1  0.153268  0.624986  0.028241  1
  Tb  Tb8  1  0.499998  0.500002  0.000000  1
  Tb  Tb9  1  0.250002  0.749998  0.500000  1
  Nb  Nb10  1  0.000051  0.999949  0.000000  1
  Nb  Nb11  1  0.749949  0.250051  0.500000  1
  Br  Br12  1  0.747746  0.494884  0.252858  1
  Br  Br13  1  0.505116  0.252254  0.747142  1
  Br  Br14  1  0.372909  0.372912  0.999929  1
  Br  Br15  1  0.122912  0.622909  0.499929  1
  Br  Br16  1  0.377091  0.877088  0.500071  1
  Br  Br17  1  0.627088  0.627091  0.000071  1
  Br  Br18  1  0.115201  0.115206  0.000119  1
  Br  Br19  1  0.865206  0.365201  0.500119  1
  Br  Br20  1  0.634799  0.134794  0.499881  1
  Br  Br21  1  0.884794  0.884799  0.999881  1
  Br  Br22  1  0.231958  0.002046  0.229918  1
  Br  Br23  1  0.751980  0.022070  0.270071  1
  Br  Br24  1  0.505157  0.758038  0.252887  1
  Br  Br25  1  0.518042  0.247954  0.270082  1
  Br  Br26  1  0.977930  0.248020  0.729929  1
  Br  Br27  1  0.998020  0.227930  0.229929  1
  Br  Br28  1  0.997954  0.768042  0.770082  1
  Br  Br29  1  0.772070  0.001980  0.770071  1
  Br  Br30  1  0.752046  0.481958  0.729918  1
  Br  Br31  1  0.244843  0.491962  0.247113  1
  Br  Br32  1  0.244884  0.997746  0.752858  1
  Br  Br33  1  0.002254  0.755116  0.247142  1
  Br  Br34  1  0.508038  0.755157  0.752887  1
  Br  Br35  1  0.241962  0.494843  0.747113  1
