# generated using pymatgen
data_Ho3Tm(OsC2)2
_symmetry_space_group_name_H-M   'P 1'
_cell_length_a   5.09546000
_cell_length_b   6.42321689
_cell_length_c   9.74066316
_cell_angle_alpha   90.20163468
_cell_angle_beta   90.00000000
_cell_angle_gamma   90.00000000
_symmetry_Int_Tables_number   1
_chemical_formula_structural   Ho3Tm(OsC2)2
_chemical_formula_sum   'Ho6 Tm2 Os4 C8'
_cell_volume   318.80257433
_cell_formula_units_Z   2
loop_
 _symmetry_equiv_pos_site_id
 _symmetry_equiv_pos_as_xyz
  1  'x, y, z'
loop_
 _atom_site_type_symbol
 _atom_site_label
 _atom_site_symmetry_multiplicity
 _atom_site_fract_x
 _atom_site_fract_y
 _atom_site_fract_z
 _atom_site_occupancy
  Ho  Ho0  1  0.750000  0.815901  0.052756  1
  Ho  Ho1  1  0.250000  0.184099  0.947244  1
  Ho  Ho2  1  0.250000  0.525941  0.220188  1
  Ho  Ho3  1  0.750000  0.474059  0.779812  1
  Ho  Ho4  1  0.750000  0.974494  0.718368  1
  Ho  Ho5  1  0.250000  0.025506  0.281632  1
  Tm  Tm6  1  0.250000  0.681182  0.553358  1
  Tm  Tm7  1  0.750000  0.318818  0.446642  1
  Os  Os8  1  0.250000  0.725564  0.865227  1
  Os  Os9  1  0.750000  0.274436  0.134773  1
  Os  Os10  1  0.750000  0.775019  0.367100  1
  Os  Os11  1  0.250000  0.224981  0.632900  1
  C  C12  1  0.250000  0.461369  0.757159  1
  C  C13  1  0.750000  0.538631  0.242841  1
  C  C14  1  0.750000  0.039336  0.259143  1
  C  C15  1  0.250000  0.960664  0.740857  1
  C  C16  1  0.250000  0.825224  0.054291  1
  C  C17  1  0.750000  0.174776  0.945709  1
  C  C18  1  0.750000  0.672052  0.554873  1
  C  C19  1  0.250000  0.327948  0.445127  1
