# generated using pymatgen
data_Cs9Rb7(TiSe4)4
_symmetry_space_group_name_H-M   'P 1'
_cell_length_a   8.85288868
_cell_length_b   10.68798841
_cell_length_c   16.19177039
_cell_angle_alpha   89.62915487
_cell_angle_beta   89.79101090
_cell_angle_gamma   89.86980842
_symmetry_Int_Tables_number   1
_chemical_formula_structural   Cs9Rb7(TiSe4)4
_chemical_formula_sum   'Cs9 Rb7 Ti4 Se16'
_cell_volume   1532.01222148
_cell_formula_units_Z   1
loop_
 _symmetry_equiv_pos_site_id
 _symmetry_equiv_pos_as_xyz
  1  'x, y, z'
loop_
 _atom_site_type_symbol
 _atom_site_label
 _atom_site_symmetry_multiplicity
 _atom_site_fract_x
 _atom_site_fract_y
 _atom_site_fract_z
 _atom_site_occupancy
  Cs  Cs0  1  0.999016  0.999117  0.999841  1
  Cs  Cs1  1  0.502098  0.999943  0.501698  1
  Cs  Cs2  1  0.000844  0.499846  0.999814  1
  Cs  Cs3  1  0.499480  0.500731  0.499830  1
  Cs  Cs4  1  0.988608  0.749971  0.427063  1
  Cs  Cs5  1  0.489423  0.249654  0.071433  1
  Cs  Cs6  1  0.012135  0.250515  0.573266  1
  Cs  Cs7  1  0.509888  0.747927  0.926604  1
  Cs  Cs8  1  0.832057  0.055839  0.278424  1
  Rb  Rb9  1  0.337383  0.948001  0.226171  1
  Rb  Rb10  1  0.160633  0.551822  0.725821  1
  Rb  Rb11  1  0.660826  0.448046  0.773819  1
  Rb  Rb12  1  0.160899  0.948943  0.726593  1
  Rb  Rb13  1  0.661180  0.051415  0.773699  1
  Rb  Rb14  1  0.840464  0.449939  0.273756  1
  Rb  Rb15  1  0.338840  0.551733  0.225623  1
  Ti  Ti16  1  0.763132  0.750270  0.671806  1
  Ti  Ti17  1  0.239725  0.252721  0.329329  1
  Ti  Ti18  1  0.735021  0.746718  0.170328  1
  Ti  Ti19  1  0.262765  0.249538  0.827849  1
  Se  Se20  1  0.988376  0.249632  0.821009  1
  Se  Se21  1  0.512505  0.258067  0.322407  1
  Se  Se22  1  0.488782  0.751112  0.679286  1
  Se  Se23  1  0.009449  0.747831  0.177508  1
  Se  Se24  1  0.651639  0.562686  0.099303  1
  Se  Se25  1  0.149327  0.435109  0.400517  1
  Se  Se26  1  0.348797  0.065376  0.899808  1
  Se  Se27  1  0.850353  0.934372  0.599880  1
  Se  Se28  1  0.348120  0.432971  0.898972  1
  Se  Se29  1  0.848519  0.566583  0.600355  1
  Se  Se30  1  0.646678  0.929489  0.097577  1
  Se  Se31  1  0.159628  0.066981  0.401811  1
  Se  Se32  1  0.627320  0.744478  0.309331  1
  Se  Se33  1  0.135389  0.252814  0.190075  1
  Se  Se34  1  0.370754  0.250721  0.689072  1
  Se  Se35  1  0.869950  0.749093  0.810324  1
