# generated using pymatgen
data_Li2NdHo(Al3Pd)6
_symmetry_space_group_name_H-M   'P 1'
_cell_length_a   7.61927031
_cell_length_b   7.62408078
_cell_length_c   9.39180500
_cell_angle_alpha   90.00000000
_cell_angle_beta   90.00000000
_cell_angle_gamma   119.77433280
_symmetry_Int_Tables_number   1
_chemical_formula_structural   Li2NdHo(Al3Pd)6
_chemical_formula_sum   'Li2 Nd1 Ho1 Al18 Pd6'
_cell_volume   473.54761929
_cell_formula_units_Z   1
loop_
 _symmetry_equiv_pos_site_id
 _symmetry_equiv_pos_as_xyz
  1  'x, y, z'
loop_
 _atom_site_type_symbol
 _atom_site_label
 _atom_site_symmetry_multiplicity
 _atom_site_fract_x
 _atom_site_fract_y
 _atom_site_fract_z
 _atom_site_occupancy
  Li  Li0  1  0.006523  0.326454  0.750000  1
  Li  Li1  1  0.326124  0.004051  0.750000  1
  Nd  Nd2  1  0.996828  0.667718  0.250000  1
  Ho  Ho3  1  0.667984  0.998731  0.250000  1
  Al  Al4  1  0.128508  0.132191  0.250000  1
  Al  Al5  1  0.875180  0.875675  0.750000  1
  Al  Al6  1  0.002688  0.332442  0.062829  1
  Al  Al7  1  0.010971  0.665102  0.906913  1
  Al  Al8  1  0.010971  0.665102  0.593087  1
  Al  Al9  1  0.335911  0.004385  0.436967  1
  Al  Al10  1  0.002688  0.332442  0.437171  1
  Al  Al11  1  0.665435  0.010916  0.591435  1
  Al  Al12  1  0.665435  0.010916  0.908565  1
  Al  Al13  1  0.335911  0.004385  0.063033  1
  Al  Al14  1  0.324771  0.324594  0.575512  1
  Al  Al15  1  0.664378  0.666519  0.456118  1
  Al  Al16  1  0.664378  0.666519  0.043882  1
  Al  Al17  1  0.324771  0.324594  0.924488  1
  Al  Al18  1  0.341318  0.542792  0.250000  1
  Al  Al19  1  0.658826  0.444387  0.750000  1
  Al  Al20  1  0.537986  0.333984  0.250000  1
  Al  Al21  1  0.447102  0.659097  0.750000  1
  Pd  Pd22  1  0.673129  0.331914  0.001745  1
  Pd  Pd23  1  0.333337  0.674342  0.001497  1
  Pd  Pd24  1  0.333337  0.674342  0.498503  1
  Pd  Pd25  1  0.673129  0.331914  0.498255  1
  Pd  Pd26  1  0.996189  0.997249  0.000512  1
  Pd  Pd27  1  0.996189  0.997249  0.499488  1
