# generated using pymatgen
data_AcLaZn4Ru
_symmetry_space_group_name_H-M   'P 1'
_cell_length_a   7.28913100
_cell_length_b   7.28913100
_cell_length_c   5.55569800
_cell_angle_alpha   90.00000000
_cell_angle_beta   90.00000000
_cell_angle_gamma   90.00000000
_symmetry_Int_Tables_number   1
_chemical_formula_structural   AcLaZn4Ru
_chemical_formula_sum   'Ac2 La2 Zn8 Ru2'
_cell_volume   295.18218347
_cell_formula_units_Z   2
loop_
 _symmetry_equiv_pos_site_id
 _symmetry_equiv_pos_as_xyz
  1  'x, y, z'
loop_
 _atom_site_type_symbol
 _atom_site_label
 _atom_site_symmetry_multiplicity
 _atom_site_fract_x
 _atom_site_fract_y
 _atom_site_fract_z
 _atom_site_occupancy
  Ac  Ac0  1  0.000000  0.500000  0.785858  1
  Ac  Ac1  1  0.500000  0.000000  0.214142  1
  La  La2  1  0.000000  0.000000  0.000000  1
  La  La3  1  0.500000  0.500000  0.000000  1
  Zn  Zn4  1  0.182579  0.682579  0.309529  1
  Zn  Zn5  1  0.817421  0.682579  0.309529  1
  Zn  Zn6  1  0.817421  0.317421  0.309529  1
  Zn  Zn7  1  0.317421  0.182579  0.690471  1
  Zn  Zn8  1  0.182579  0.317421  0.309529  1
  Zn  Zn9  1  0.682579  0.182579  0.690471  1
  Zn  Zn10  1  0.682579  0.817421  0.690471  1
  Zn  Zn11  1  0.317421  0.817421  0.690471  1
  Ru  Ru12  1  0.500000  0.500000  0.500000  1
  Ru  Ru13  1  0.000000  0.000000  0.500000  1
