# generated using pymatgen
data_Zr3U(GaRh5)2
_symmetry_space_group_name_H-M   'P 1'
_cell_length_a   5.64105811
_cell_length_b   5.64105834
_cell_length_c   8.14330500
_cell_angle_alpha   89.98848205
_cell_angle_beta   89.98848205
_cell_angle_gamma   96.86167453
_symmetry_Int_Tables_number   1
_chemical_formula_structural   Zr3U(GaRh5)2
_chemical_formula_sum   'Zr3 U1 Ga2 Rh10'
_cell_volume   257.27643528
_cell_formula_units_Z   1
loop_
 _symmetry_equiv_pos_site_id
 _symmetry_equiv_pos_as_xyz
  1  'x, y, z'
loop_
 _atom_site_type_symbol
 _atom_site_label
 _atom_site_symmetry_multiplicity
 _atom_site_fract_x
 _atom_site_fract_y
 _atom_site_fract_z
 _atom_site_occupancy
  Zr  Zr0  1  0.220911  0.779089  0.000000  1
  Zr  Zr1  1  0.223944  0.776056  0.500000  1
  Zr  Zr2  1  0.777060  0.222940  0.000000  1
  U  U3  1  0.780553  0.219447  0.500000  1
  Ga  Ga4  1  0.496783  0.505508  0.754374  1
  Ga  Ga5  1  0.494492  0.503217  0.245626  1
  Rh  Rh6  1  0.722248  0.719508  0.000515  1
  Rh  Rh7  1  0.719124  0.718279  0.499590  1
  Rh  Rh8  1  0.280492  0.277752  0.999485  1
  Rh  Rh9  1  0.281721  0.280876  0.500410  1
  Rh  Rh10  1  0.504803  0.003311  0.744997  1
  Rh  Rh11  1  0.504709  0.003192  0.254951  1
  Rh  Rh12  1  0.999993  0.000331  0.251164  1
  Rh  Rh13  1  0.999669  0.000007  0.748836  1
  Rh  Rh14  1  0.996808  0.495291  0.745049  1
  Rh  Rh15  1  0.996689  0.495197  0.255003  1
