# generated using pymatgen
data_Er2LuIn3Pt2Au
_symmetry_space_group_name_H-M   'P 1'
_cell_length_a   7.70915151
_cell_length_b   7.70675142
_cell_length_c   3.82096500
_cell_angle_alpha   90.00000000
_cell_angle_beta   90.00000000
_cell_angle_gamma   119.85032504
_symmetry_Int_Tables_number   1
_chemical_formula_structural   Er2LuIn3Pt2Au
_chemical_formula_sum   'Er2 Lu1 In3 Pt2 Au1'
_cell_volume   196.89498888
_cell_formula_units_Z   1
loop_
 _symmetry_equiv_pos_site_id
 _symmetry_equiv_pos_as_xyz
  1  'x, y, z'
loop_
 _atom_site_type_symbol
 _atom_site_label
 _atom_site_symmetry_multiplicity
 _atom_site_fract_x
 _atom_site_fract_y
 _atom_site_fract_z
 _atom_site_occupancy
  Er  Er0  1  0.014964  0.604744  0.500000  1
  Er  Er1  1  0.590132  0.985172  0.500000  1
  Lu  Lu2  1  0.394022  0.410092  0.500000  1
  In  In3  1  0.998039  0.261161  0.000000  1
  In  In4  1  0.263413  0.002380  0.000000  1
  In  In5  1  0.738997  0.736641  0.000000  1
  Pt  Pt6  1  0.001084  0.001022  0.500000  1
  Pt  Pt7  1  0.334216  0.664744  0.000000  1
  Au  Au8  1  0.665133  0.334044  0.000000  1
