# generated using pymatgen
data_Tb18Tm2Bi3Pb13
_symmetry_space_group_name_H-M   'P 1'
_cell_length_a   8.29928852
_cell_length_b   8.32668602
_cell_length_c   15.68209200
_cell_angle_alpha   90.08114057
_cell_angle_beta   89.75076882
_cell_angle_gamma   90.11152112
_symmetry_Int_Tables_number   1
_chemical_formula_structural   Tb18Tm2Bi3Pb13
_chemical_formula_sum   'Tb18 Tm2 Bi3 Pb13'
_cell_volume   1083.70652237
_cell_formula_units_Z   1
loop_
 _symmetry_equiv_pos_site_id
 _symmetry_equiv_pos_as_xyz
  1  'x, y, z'
loop_
 _atom_site_type_symbol
 _atom_site_label
 _atom_site_symmetry_multiplicity
 _atom_site_fract_x
 _atom_site_fract_y
 _atom_site_fract_z
 _atom_site_occupancy
  Tb  Tb0  1  0.383994  0.839116  0.879741  1
  Tb  Tb1  1  0.887462  0.658784  0.620391  1
  Tb  Tb2  1  0.613802  0.157505  0.378597  1
  Tb  Tb3  1  0.116566  0.342621  0.120798  1
  Tb  Tb4  1  0.620201  0.158503  0.120418  1
  Tb  Tb5  1  0.117969  0.339857  0.379606  1
  Tb  Tb6  1  0.382264  0.840627  0.619449  1
  Tb  Tb7  1  0.882135  0.658803  0.879646  1
  Tb  Tb8  1  0.549973  0.333540  0.895021  1
  Tb  Tb9  1  0.057918  0.168701  0.607538  1
  Tb  Tb10  1  0.442385  0.668308  0.392025  1
  Tb  Tb11  1  0.948854  0.825962  0.104746  1
  Tb  Tb12  1  0.455652  0.668153  0.103637  1
  Tb  Tb13  1  0.956110  0.831308  0.394450  1
  Tb  Tb14  1  0.543167  0.330506  0.604960  1
  Tb  Tb15  1  0.041306  0.175540  0.896396  1
  Tb  Tb16  1  0.215867  0.501719  0.750671  1
  Tb  Tb17  1  0.715940  0.999427  0.753382  1
  Tm  Tm18  1  0.783274  0.498286  0.247217  1
  Tm  Tm19  1  0.283701  0.000666  0.251460  1
  Bi  Bi20  1  0.273347  0.023598  0.046576  1
  Bi  Bi21  1  0.770138  0.479191  0.453009  1
  Bi  Bi22  1  0.730277  0.979402  0.545991  1
  Pb  Pb23  1  0.225298  0.526623  0.956232  1
  Pb  Pb24  1  0.724278  0.971286  0.956507  1
  Pb  Pb25  1  0.224797  0.526420  0.543991  1
  Pb  Pb26  1  0.275880  0.026148  0.454839  1
  Pb  Pb27  1  0.777963  0.470764  0.044593  1
  Pb  Pb28  1  0.578930  0.630424  0.747908  1
  Pb  Pb29  1  0.079007  0.870899  0.750624  1
  Pb  Pb30  1  0.422685  0.368809  0.249324  1
  Pb  Pb31  1  0.922479  0.129633  0.250680  1
  Pb  Pb32  1  0.357749  0.150230  0.751354  1
  Pb  Pb33  1  0.856292  0.350304  0.748558  1
  Pb  Pb34  1  0.641681  0.847523  0.250359  1
  Pb  Pb35  1  0.140659  0.650817  0.249306  1
