# generated using pymatgen
data_Y20Cd3Tc2Au3
_symmetry_space_group_name_H-M   'P 1'
_cell_length_a   9.59891100
_cell_length_b   9.59893619
_cell_length_c   9.75747500
_cell_angle_alpha   90.00000000
_cell_angle_beta   90.00000000
_cell_angle_gamma   119.99993545
_symmetry_Int_Tables_number   1
_chemical_formula_structural   Y20Cd3Tc2Au3
_chemical_formula_sum   'Y20 Cd3 Tc2 Au3'
_cell_volume   778.59826425
_cell_formula_units_Z   1
loop_
 _symmetry_equiv_pos_site_id
 _symmetry_equiv_pos_as_xyz
  1  'x, y, z'
loop_
 _atom_site_type_symbol
 _atom_site_label
 _atom_site_symmetry_multiplicity
 _atom_site_fract_x
 _atom_site_fract_y
 _atom_site_fract_z
 _atom_site_occupancy
  Y  Y0  1  0.000000  0.000000  0.461799  1
  Y  Y1  1  0.000000  0.000000  0.038201  1
  Y  Y2  1  0.209326  0.790675  0.440194  1
  Y  Y3  1  0.209325  0.418651  0.440195  1
  Y  Y4  1  0.581349  0.790675  0.440195  1
  Y  Y5  1  0.791556  0.208443  0.558540  1
  Y  Y6  1  0.791556  0.583111  0.558539  1
  Y  Y7  1  0.416889  0.208444  0.558540  1
  Y  Y8  1  0.791556  0.208443  0.941460  1
  Y  Y9  1  0.791556  0.583111  0.941461  1
  Y  Y10  1  0.416889  0.208444  0.941460  1
  Y  Y11  1  0.209326  0.790675  0.059806  1
  Y  Y12  1  0.209325  0.418651  0.059805  1
  Y  Y13  1  0.581349  0.790675  0.059805  1
  Y  Y14  1  0.539178  0.460823  0.250000  1
  Y  Y15  1  0.539177  0.078355  0.250000  1
  Y  Y16  1  0.921645  0.460822  0.250000  1
  Y  Y17  1  0.459580  0.540420  0.750000  1
  Y  Y18  1  0.459580  0.919159  0.750000  1
  Y  Y19  1  0.080840  0.540420  0.750000  1
  Cd  Cd20  1  0.109675  0.890325  0.750000  1
  Cd  Cd21  1  0.109675  0.219350  0.750000  1
  Cd  Cd22  1  0.780650  0.890325  0.750000  1
  Tc  Tc23  1  0.333333  0.666668  0.250000  1
  Tc  Tc24  1  0.666667  0.333332  0.750000  1
  Au  Au25  1  0.870288  0.129711  0.250000  1
  Au  Au26  1  0.870289  0.740577  0.250000  1
  Au  Au27  1  0.259423  0.129711  0.250000  1
