# generated using pymatgen
data_Ce2UN3
_symmetry_space_group_name_H-M   'P 1'
_cell_length_a   6.09002551
_cell_length_b   6.09002625
_cell_length_c   6.09797969
_cell_angle_alpha   99.57572700
_cell_angle_beta   99.57575083
_cell_angle_gamma   119.99112240
_symmetry_Int_Tables_number   1
_chemical_formula_structural   Ce2UN3
_chemical_formula_sum   'Ce4 U2 N6'
_cell_volume   184.72570793
_cell_formula_units_Z   2
loop_
 _symmetry_equiv_pos_site_id
 _symmetry_equiv_pos_as_xyz
  1  'x, y, z'
loop_
 _atom_site_type_symbol
 _atom_site_label
 _atom_site_symmetry_multiplicity
 _atom_site_fract_x
 _atom_site_fract_y
 _atom_site_fract_z
 _atom_site_occupancy
  Ce  Ce0  1  0.835492  0.164508  0.500000  1
  Ce  Ce1  1  0.164508  0.835492  0.500000  1
  Ce  Ce2  1  0.500000  0.500000  0.500000  1
  Ce  Ce3  1  0.000000  0.000000  0.000000  1
  U  U4  1  0.333250  0.666750  0.000000  1
  U  U5  1  0.666750  0.333250  0.000000  1
  N  N6  1  0.426607  0.075170  0.225364  1
  N  N7  1  0.924830  0.573393  0.774636  1
  N  N8  1  0.573393  0.924830  0.774636  1
  N  N9  1  0.075170  0.426607  0.225364  1
  N  N10  1  0.722063  0.722063  0.221421  1
  N  N11  1  0.277937  0.277937  0.778579  1
