# generated using pymatgen
data_Cs3Dy2(PS4)3
_symmetry_space_group_name_H-M   'P 1'
_cell_length_a   6.79974500
_cell_length_b   18.08120037
_cell_length_c   18.79961700
_cell_angle_alpha   81.53546847
_cell_angle_beta   90.00000000
_cell_angle_gamma   90.00000000
_symmetry_Int_Tables_number   1
_chemical_formula_structural   Cs3Dy2(PS4)3
_chemical_formula_sum   'Cs12 Dy8 P12 S48'
_cell_volume   2286.18956775
_cell_formula_units_Z   4
loop_
 _symmetry_equiv_pos_site_id
 _symmetry_equiv_pos_as_xyz
  1  'x, y, z'
loop_
 _atom_site_type_symbol
 _atom_site_label
 _atom_site_symmetry_multiplicity
 _atom_site_fract_x
 _atom_site_fract_y
 _atom_site_fract_z
 _atom_site_occupancy
  Cs  Cs0  1  0.732502  0.889753  0.989708  1
  Cs  Cs1  1  0.232502  0.110247  0.510292  1
  Cs  Cs2  1  0.267498  0.110247  0.010292  1
  Cs  Cs3  1  0.767498  0.889753  0.489708  1
  Cs  Cs4  1  0.754464  0.623647  0.307053  1
  Cs  Cs5  1  0.254464  0.376353  0.192947  1
  Cs  Cs6  1  0.245536  0.376353  0.692947  1
  Cs  Cs7  1  0.745536  0.623647  0.807053  1
  Cs  Cs8  1  0.279639  0.768202  0.631609  1
  Cs  Cs9  1  0.779639  0.231798  0.868391  1
  Cs  Cs10  1  0.720361  0.231798  0.368391  1
  Cs  Cs11  1  0.220361  0.768202  0.131609  1
  Dy  Dy12  1  0.232100  0.938421  0.787197  1
  Dy  Dy13  1  0.732100  0.061579  0.712803  1
  Dy  Dy14  1  0.767900  0.061579  0.212803  1
  Dy  Dy15  1  0.267900  0.938421  0.287197  1
  Dy  Dy16  1  0.302870  0.598787  0.509977  1
  Dy  Dy17  1  0.802870  0.401213  0.990023  1
  Dy  Dy18  1  0.697130  0.401213  0.490023  1
  Dy  Dy19  1  0.197130  0.598787  0.009977  1
  P  P20  1  0.782811  0.883719  0.703614  1
  P  P21  1  0.282811  0.116281  0.796386  1
  P  P22  1  0.217189  0.116281  0.296386  1
  P  P23  1  0.717189  0.883719  0.203614  1
  P  P24  1  0.254446  0.779008  0.417064  1
  P  P25  1  0.754446  0.220992  0.082936  1
  P  P26  1  0.745554  0.220992  0.582936  1
  P  P27  1  0.245554  0.779008  0.917064  1
  P  P28  1  0.755960  0.537189  0.598947  1
  P  P29  1  0.255960  0.462811  0.901053  1
  P  P30  1  0.244040  0.462811  0.401053  1
  P  P31  1  0.744040  0.537189  0.098947  1
  S  S32  1  0.828529  0.892584  0.809084  1
  S  S33  1  0.328529  0.107416  0.690916  1
  S  S34  1  0.171471  0.107416  0.190916  1
  S  S35  1  0.671471  0.892584  0.309084  1
  S  S36  1  0.785252  0.784386  0.670278  1
  S  S37  1  0.285252  0.215614  0.829722  1
  S  S38  1  0.214748  0.215614  0.329722  1
  S  S39  1  0.714748  0.784386  0.170278  1
  S  S40  1  0.235095  0.889052  0.935598  1
  S  S41  1  0.735095  0.110948  0.564402  1
  S  S42  1  0.764905  0.110948  0.064402  1
  S  S43  1  0.264905  0.889052  0.435598  1
  S  S44  1  0.003346  0.956455  0.656725  1
  S  S45  1  0.503346  0.043545  0.843275  1
  S  S46  1  0.996654  0.043545  0.343275  1
  S  S47  1  0.496654  0.956455  0.156725  1
  S  S48  1  0.511296  0.725032  0.448127  1
  S  S49  1  0.011296  0.274968  0.051873  1
  S  S50  1  0.488704  0.274968  0.551873  1
  S  S51  1  0.988704  0.725032  0.948127  1
  S  S52  1  0.192765  0.787529  0.308980  1
  S  S53  1  0.692765  0.212471  0.191020  1
  S  S54  1  0.807235  0.212471  0.691020  1
  S  S55  1  0.307235  0.787529  0.808980  1
  S  S56  1  0.513296  0.583690  0.640653  1
  S  S57  1  0.013296  0.416310  0.859347  1
  S  S58  1  0.486704  0.416310  0.359347  1
  S  S59  1  0.986704  0.583690  0.140653  1
  S  S60  1  0.251531  0.576373  0.370137  1
  S  S61  1  0.751531  0.423627  0.129863  1
  S  S62  1  0.748469  0.423627  0.629863  1
  S  S63  1  0.248469  0.576373  0.870137  1
  S  S64  1  0.041771  0.719293  0.477084  1
  S  S65  1  0.541771  0.280707  0.022916  1
  S  S66  1  0.958229  0.280707  0.522916  1
  S  S67  1  0.458229  0.719293  0.977084  1
  S  S68  1  0.719377  0.555381  0.488375  1
  S  S69  1  0.219377  0.444619  0.011625  1
  S  S70  1  0.280623  0.444619  0.511625  1
  S  S71  1  0.780623  0.555381  0.988375  1
  S  S72  1  0.017758  0.578079  0.629067  1
  S  S73  1  0.517758  0.421921  0.870933  1
  S  S74  1  0.982242  0.421921  0.370933  1
  S  S75  1  0.482242  0.578079  0.129067  1
  S  S76  1  0.520953  0.940641  0.672624  1
  S  S77  1  0.020953  0.059359  0.827376  1
  S  S78  1  0.479047  0.059359  0.327376  1
  S  S79  1  0.979047  0.940641  0.172624  1
