# generated using pymatgen
data_MgZn(Se2O7)2
_symmetry_space_group_name_H-M   'P 1'
_cell_length_a   5.18394549
_cell_length_b   7.44340438
_cell_length_c   8.66640961
_cell_angle_alpha   92.30855260
_cell_angle_beta   93.94358216
_cell_angle_gamma   105.20799697
_symmetry_Int_Tables_number   1
_chemical_formula_structural   MgZn(Se2O7)2
_chemical_formula_sum   'Mg1 Zn1 Se4 O14'
_cell_volume   321.33761037
_cell_formula_units_Z   1
loop_
 _symmetry_equiv_pos_site_id
 _symmetry_equiv_pos_as_xyz
  1  'x, y, z'
loop_
 _atom_site_type_symbol
 _atom_site_label
 _atom_site_symmetry_multiplicity
 _atom_site_fract_x
 _atom_site_fract_y
 _atom_site_fract_z
 _atom_site_occupancy
  Mg  Mg0  1  0.500000  0.000000  0.500000  1
  Zn  Zn1  1  0.000000  0.500000  0.000000  1
  Se  Se2  1  0.510460  0.649141  0.768937  1
  Se  Se3  1  0.489540  0.350859  0.231063  1
  Se  Se4  1  0.122433  0.246220  0.688145  1
  Se  Se5  1  0.877567  0.753780  0.311855  1
  O  O6  1  0.752336  0.549409  0.813069  1
  O  O7  1  0.247664  0.450591  0.186931  1
  O  O8  1  0.333514  0.689084  0.911632  1
  O  O9  1  0.666486  0.310916  0.088368  1
  O  O10  1  0.612299  0.826926  0.661819  1
  O  O11  1  0.387701  0.173074  0.338181  1
  O  O12  1  0.279675  0.481017  0.629642  1
  O  O13  1  0.720325  0.518983  0.370358  1
  O  O14  1  0.873934  0.189578  0.552181  1
  O  O15  1  0.126066  0.810422  0.447819  1
  O  O16  1  0.344821  0.125554  0.679225  1
  O  O17  1  0.655179  0.874446  0.320775  1
  O  O18  1  0.049005  0.269714  0.869425  1
  O  O19  1  0.950995  0.730286  0.130575  1
