# generated using pymatgen
data_Tb10AlSi4Au
_symmetry_space_group_name_H-M   'P 1'
_cell_length_a   7.61202400
_cell_length_b   8.97828040
_cell_length_c   7.61202400
_cell_angle_alpha   115.08189489
_cell_angle_beta   90.00000000
_cell_angle_gamma   115.08189489
_symmetry_Int_Tables_number   1
_chemical_formula_structural   Tb10AlSi4Au
_chemical_formula_sum   'Tb10 Al1 Si4 Au1'
_cell_volume   416.37560289
_cell_formula_units_Z   1
loop_
 _symmetry_equiv_pos_site_id
 _symmetry_equiv_pos_as_xyz
  1  'x, y, z'
loop_
 _atom_site_type_symbol
 _atom_site_label
 _atom_site_symmetry_multiplicity
 _atom_site_fract_x
 _atom_site_fract_y
 _atom_site_fract_z
 _atom_site_occupancy
  Tb  Tb0  1  0.979106  0.958214  0.979106  1
  Tb  Tb1  1  0.520894  0.041786  0.520894  1
  Tb  Tb2  1  0.523981  0.720007  0.673732  1
  Tb  Tb3  1  0.196027  0.720007  0.046276  1
  Tb  Tb4  1  0.673732  0.720007  0.196027  1
  Tb  Tb5  1  0.046276  0.720007  0.523981  1
  Tb  Tb6  1  0.453724  0.279993  0.303973  1
  Tb  Tb7  1  0.826268  0.279993  0.976019  1
  Tb  Tb8  1  0.303973  0.279993  0.826268  1
  Tb  Tb9  1  0.976019  0.279993  0.453724  1
  Al  Al10  1  0.750000  0.500000  0.750000  1
  Si  Si11  1  0.880254  0.000000  0.619746  1
  Si  Si12  1  0.119746  0.000000  0.380254  1
  Si  Si13  1  0.619746  0.000000  0.119746  1
  Si  Si14  1  0.380254  0.000000  0.880254  1
  Au  Au15  1  0.250000  0.500000  0.250000  1
