# generated using pymatgen
data_Hf6Zn17SiAu6
_symmetry_space_group_name_H-M   'P 1'
_cell_length_a   8.84342279
_cell_length_b   8.85203349
_cell_length_c   8.85211800
_cell_angle_alpha   59.99987486
_cell_angle_beta   59.96756509
_cell_angle_gamma   59.96700275
_symmetry_Int_Tables_number   1
_chemical_formula_structural   Hf6Zn17SiAu6
_chemical_formula_sum   'Hf6 Zn17 Si1 Au6'
_cell_volume   489.75658735
_cell_formula_units_Z   1
loop_
 _symmetry_equiv_pos_site_id
 _symmetry_equiv_pos_as_xyz
  1  'x, y, z'
loop_
 _atom_site_type_symbol
 _atom_site_label
 _atom_site_symmetry_multiplicity
 _atom_site_fract_x
 _atom_site_fract_y
 _atom_site_fract_z
 _atom_site_occupancy
  Hf  Hf0  1  0.710754  0.292056  0.292054  1
  Hf  Hf1  1  0.289248  0.707943  0.707946  1
  Hf  Hf2  1  0.289247  0.707946  0.294862  1
  Hf  Hf3  1  0.710752  0.292056  0.705137  1
  Hf  Hf4  1  0.289245  0.294862  0.707948  1
  Hf  Hf5  1  0.710754  0.705138  0.292054  1
  Zn  Zn6  1  0.631657  0.122780  0.122781  1
  Zn  Zn7  1  0.368343  0.877219  0.877218  1
  Zn  Zn8  1  0.500000  0.000000  0.000000  1
  Zn  Zn9  1  0.999999  0.500000  0.500000  1
  Zn  Zn10  1  0.000000  0.500000  0.000000  1
  Zn  Zn11  1  0.500000  0.999999  0.500000  1
  Zn  Zn12  1  0.000000  0.000000  0.500000  1
  Zn  Zn13  1  0.500000  0.500000  0.999999  1
  Zn  Zn14  1  0.339546  0.336202  0.336204  1
  Zn  Zn15  1  0.660454  0.663797  0.663795  1
  Zn  Zn16  1  0.339546  0.336202  0.988047  1
  Zn  Zn17  1  0.339549  0.988047  0.336202  1
  Zn  Zn18  1  0.660454  0.663798  0.011952  1
  Zn  Zn19  1  0.660452  0.011953  0.663798  1
  Zn  Zn20  1  0.989311  0.336898  0.336896  1
  Zn  Zn21  1  0.010689  0.663102  0.663104  1
  Zn  Zn22  1  0.000000  0.000000  0.000000  1
  Si  Si23  1  0.500001  0.500002  0.500002  1
  Au  Au24  1  0.125376  0.118893  0.118893  1
  Au  Au25  1  0.874624  0.881107  0.881107  1
  Au  Au26  1  0.125377  0.118894  0.636836  1
  Au  Au27  1  0.125376  0.636838  0.118893  1
  Au  Au28  1  0.874623  0.881106  0.363163  1
  Au  Au29  1  0.874624  0.363161  0.881107  1
