# generated using pymatgen
data_BeNb16Fe3Te16
_symmetry_space_group_name_H-M   'P 1'
_cell_length_a   4.86519500
_cell_length_b   10.82441610
_cell_length_c   18.81161118
_cell_angle_alpha   90.01591267
_cell_angle_beta   90.00000000
_cell_angle_gamma   90.00000000
_symmetry_Int_Tables_number   1
_chemical_formula_structural   BeNb16Fe3Te16
_chemical_formula_sum   'Be1 Nb16 Fe3 Te16'
_cell_volume   990.67386827
_cell_formula_units_Z   1
loop_
 _symmetry_equiv_pos_site_id
 _symmetry_equiv_pos_as_xyz
  1  'x, y, z'
loop_
 _atom_site_type_symbol
 _atom_site_label
 _atom_site_symmetry_multiplicity
 _atom_site_fract_x
 _atom_site_fract_y
 _atom_site_fract_z
 _atom_site_occupancy
  Be  Be0  1  0.249509  0.500000  0.500000  1
  Nb  Nb1  1  0.494734  0.564308  0.383422  1
  Nb  Nb2  1  0.494734  0.435692  0.616578  1
  Nb  Nb3  1  0.500071  0.064934  0.117863  1
  Nb  Nb4  1  0.500071  0.935066  0.882137  1
  Nb  Nb5  1  0.493936  0.703888  0.536576  1
  Nb  Nb6  1  0.493936  0.296112  0.463424  1
  Nb  Nb7  1  0.499915  0.205844  0.963071  1
  Nb  Nb8  1  0.499915  0.794156  0.036929  1
  Nb  Nb9  1  0.006578  0.689492  0.442981  1
  Nb  Nb10  1  0.006578  0.310508  0.557019  1
  Nb  Nb11  1  0.000107  0.191437  0.057667  1
  Nb  Nb12  1  0.000107  0.808563  0.942333  1
  Nb  Nb13  1  0.004586  0.401546  0.391620  1
  Nb  Nb14  1  0.004586  0.598454  0.608380  1
  Nb  Nb15  1  0.999989  0.900604  0.109430  1
  Nb  Nb16  1  0.999989  0.099396  0.890570  1
  Fe  Fe17  1  0.750422  0.000000  0.000000  1
  Fe  Fe18  1  0.749684  0.500000  0.500000  1
  Fe  Fe19  1  0.249785  0.000000  0.000000  1
  Te  Te20  1  0.994778  0.849321  0.563342  1
  Te  Te21  1  0.994778  0.150679  0.436658  1
  Te  Te22  1  0.000188  0.350587  0.936470  1
  Te  Te23  1  0.000188  0.649413  0.063530  1
  Te  Te24  1  0.504509  0.331438  0.313980  1
  Te  Te25  1  0.504509  0.668562  0.686020  1
  Te  Te26  1  0.499676  0.830809  0.186774  1
  Te  Te27  1  0.499676  0.169191  0.813226  1
  Te  Te28  1  0.505417  0.825480  0.402560  1
  Te  Te29  1  0.505417  0.174520  0.597440  1
  Te  Te30  1  0.499869  0.326838  0.097984  1
  Te  Te31  1  0.499869  0.673162  0.902016  1
  Te  Te32  1  0.995609  0.608765  0.299151  1
  Te  Te33  1  0.995609  0.391235  0.700849  1
  Te  Te34  1  0.000338  0.109516  0.201679  1
  Te  Te35  1  0.000338  0.890484  0.798321  1
