# generated using pymatgen
data_Dy16Cd2TcNi3Hg2
_symmetry_space_group_name_H-M   'P 1'
_cell_length_a   9.57371542
_cell_length_b   9.57371516
_cell_length_c   9.57931954
_cell_angle_alpha   59.44039450
_cell_angle_beta   59.44039635
_cell_angle_gamma   59.49435064
_symmetry_Int_Tables_number   1
_chemical_formula_structural   Dy16Cd2TcNi3Hg2
_chemical_formula_sum   'Dy16 Cd2 Tc1 Ni3 Hg2'
_cell_volume   613.19166495
_cell_formula_units_Z   1
loop_
 _symmetry_equiv_pos_site_id
 _symmetry_equiv_pos_as_xyz
  1  'x, y, z'
loop_
 _atom_site_type_symbol
 _atom_site_label
 _atom_site_symmetry_multiplicity
 _atom_site_fract_x
 _atom_site_fract_y
 _atom_site_fract_z
 _atom_site_occupancy
  Dy  Dy0  1  0.597937  0.597937  0.597855  1
  Dy  Dy1  1  0.601947  0.601947  0.203390  1
  Dy  Dy2  1  0.602751  0.201662  0.602298  1
  Dy  Dy3  1  0.201662  0.602751  0.602298  1
  Dy  Dy4  1  0.060732  0.437210  0.438438  1
  Dy  Dy5  1  0.436395  0.060482  0.060721  1
  Dy  Dy6  1  0.437210  0.060732  0.438438  1
  Dy  Dy7  1  0.060482  0.436395  0.060721  1
  Dy  Dy8  1  0.437398  0.437398  0.061107  1
  Dy  Dy9  1  0.059758  0.059758  0.437374  1
  Dy  Dy10  1  0.185237  0.814487  0.814881  1
  Dy  Dy11  1  0.805260  0.188019  0.189656  1
  Dy  Dy12  1  0.814487  0.185237  0.814881  1
  Dy  Dy13  1  0.188019  0.805260  0.189656  1
  Dy  Dy14  1  0.814259  0.814259  0.186992  1
  Dy  Dy15  1  0.188610  0.188610  0.805529  1
  Cd  Cd16  1  0.829646  0.506467  0.830081  1
  Cd  Cd17  1  0.506467  0.829646  0.830081  1
  Tc  Tc18  1  0.393783  0.393783  0.394638  1
  Ni  Ni19  1  0.393026  0.393026  0.825420  1
  Ni  Ni20  1  0.392911  0.825683  0.393156  1
  Ni  Ni21  1  0.825683  0.392911  0.393156  1
  Hg  Hg22  1  0.832968  0.832968  0.834505  1
  Hg  Hg23  1  0.833371  0.833371  0.494728  1
