# generated using pymatgen
data_Hf6Ta4Ga5Ge
_symmetry_space_group_name_H-M   'P 1'
_cell_length_a   7.92614700
_cell_length_b   7.91722916
_cell_length_c   5.45068800
_cell_angle_alpha   90.00000000
_cell_angle_beta   90.00000000
_cell_angle_gamma   120.03727166
_symmetry_Int_Tables_number   1
_chemical_formula_structural   Hf6Ta4Ga5Ge
_chemical_formula_sum   'Hf6 Ta4 Ga5 Ge1'
_cell_volume   296.11067288
_cell_formula_units_Z   1
loop_
 _symmetry_equiv_pos_site_id
 _symmetry_equiv_pos_as_xyz
  1  'x, y, z'
loop_
 _atom_site_type_symbol
 _atom_site_label
 _atom_site_symmetry_multiplicity
 _atom_site_fract_x
 _atom_site_fract_y
 _atom_site_fract_z
 _atom_site_occupancy
  Hf  Hf0  1  0.249976  0.000000  0.250000  1
  Hf  Hf1  1  0.748586  0.000000  0.750000  1
  Hf  Hf2  1  0.001115  0.249675  0.250000  1
  Hf  Hf3  1  0.998780  0.750748  0.750000  1
  Hf  Hf4  1  0.751439  0.750325  0.250000  1
  Hf  Hf5  1  0.248032  0.249252  0.750000  1
  Ta  Ta6  1  0.334177  0.667566  0.999555  1
  Ta  Ta7  1  0.666612  0.332434  0.999555  1
  Ta  Ta8  1  0.666612  0.332434  0.500445  1
  Ta  Ta9  1  0.334177  0.667566  0.500445  1
  Ga  Ga10  1  0.393847  0.000000  0.750000  1
  Ga  Ga11  1  0.000482  0.603432  0.250000  1
  Ga  Ga12  1  0.000393  0.397363  0.750000  1
  Ga  Ga13  1  0.397050  0.396568  0.250000  1
  Ga  Ga14  1  0.603030  0.602637  0.750000  1
  Ge  Ge15  1  0.605689  0.000000  0.250000  1
