# generated using pymatgen
data_Ho8Ti9Nb2Si16Rh
_symmetry_space_group_name_H-M   'P 1'
_cell_length_a   7.01997398
_cell_length_b   7.01997499
_cell_length_c   12.85508891
_cell_angle_alpha   90.17260990
_cell_angle_beta   89.82739054
_cell_angle_gamma   89.67047449
_symmetry_Int_Tables_number   1
_chemical_formula_structural   Ho8Ti9Nb2Si16Rh
_chemical_formula_sum   'Ho8 Ti9 Nb2 Si16 Rh1'
_cell_volume   633.48305895
_cell_formula_units_Z   1
loop_
 _symmetry_equiv_pos_site_id
 _symmetry_equiv_pos_as_xyz
  1  'x, y, z'
loop_
 _atom_site_type_symbol
 _atom_site_label
 _atom_site_symmetry_multiplicity
 _atom_site_fract_x
 _atom_site_fract_y
 _atom_site_fract_z
 _atom_site_occupancy
  Ho  Ho0  1  0.340716  0.002971  0.466770  1
  Ho  Ho1  1  0.497698  0.842859  0.718126  1
  Ho  Ho2  1  0.500866  0.157609  0.215111  1
  Ho  Ho3  1  0.842859  0.497698  0.281874  1
  Ho  Ho4  1  0.157609  0.500866  0.784889  1
  Ho  Ho5  1  0.657882  0.999232  0.968063  1
  Ho  Ho6  1  0.002971  0.340716  0.533230  1
  Ho  Ho7  1  0.999232  0.657882  0.031937  1
  Ti  Ti8  1  0.673725  0.673725  0.500000  1
  Ti  Ti9  1  0.148151  0.003116  0.875097  1
  Ti  Ti10  1  0.492512  0.656942  0.125371  1
  Ti  Ti11  1  0.508105  0.348197  0.628375  1
  Ti  Ti12  1  0.656942  0.492512  0.874629  1
  Ti  Ti13  1  0.348197  0.508105  0.371625  1
  Ti  Ti14  1  0.849894  0.993135  0.373561  1
  Ti  Ti15  1  0.003116  0.148151  0.124903  1
  Ti  Ti16  1  0.993135  0.849894  0.626439  1
  Nb  Nb17  1  0.175190  0.826012  0.248173  1
  Nb  Nb18  1  0.826012  0.175190  0.751827  1
  Si  Si19  1  0.203550  0.132551  0.684653  1
  Si  Si20  1  0.372257  0.702913  0.933622  1
  Si  Si21  1  0.630707  0.295890  0.433744  1
  Si  Si22  1  0.702913  0.372257  0.066378  1
  Si  Si23  1  0.295890  0.630707  0.566256  1
  Si  Si24  1  0.795579  0.868076  0.183486  1
  Si  Si25  1  0.132551  0.203550  0.315347  1
  Si  Si26  1  0.868076  0.795579  0.816514  1
  Si  Si27  1  0.287865  0.951948  0.061513  1
  Si  Si28  1  0.548579  0.791751  0.315536  1
  Si  Si29  1  0.447658  0.209866  0.817854  1
  Si  Si30  1  0.791751  0.548579  0.684464  1
  Si  Si31  1  0.209866  0.447658  0.182146  1
  Si  Si32  1  0.707573  0.047027  0.564321  1
  Si  Si33  1  0.951948  0.287865  0.938487  1
  Si  Si34  1  0.047027  0.707573  0.435679  1
  Rh  Rh35  1  0.331399  0.331399  0.000000  1
