# generated using pymatgen
data_PaAg7(SO4)6
_symmetry_space_group_name_H-M   'P 1'
_cell_length_a   8.74225542
_cell_length_b   8.74225407
_cell_length_c   8.74225500
_cell_angle_alpha   107.42097261
_cell_angle_beta   107.42097670
_cell_angle_gamma   107.42098261
_symmetry_Int_Tables_number   1
_chemical_formula_structural   PaAg7(SO4)6
_chemical_formula_sum   'Pa1 Ag7 S6 O24'
_cell_volume   549.92198965
_cell_formula_units_Z   1
loop_
 _symmetry_equiv_pos_site_id
 _symmetry_equiv_pos_as_xyz
  1  'x, y, z'
loop_
 _atom_site_type_symbol
 _atom_site_label
 _atom_site_symmetry_multiplicity
 _atom_site_fract_x
 _atom_site_fract_y
 _atom_site_fract_z
 _atom_site_occupancy
  Pa  Pa0  1  0.000000  0.000000  0.000000  1
  Ag  Ag1  1  0.500000  0.500000  0.500000  1
  Ag  Ag2  1  0.832037  0.343000  0.681255  1
  Ag  Ag3  1  0.343000  0.681255  0.832037  1
  Ag  Ag4  1  0.681255  0.832037  0.343000  1
  Ag  Ag5  1  0.167963  0.657000  0.318745  1
  Ag  Ag6  1  0.657000  0.318745  0.167963  1
  Ag  Ag7  1  0.318745  0.167963  0.657000  1
  S  S8  1  0.964297  0.740514  0.583786  1
  S  S9  1  0.740514  0.583786  0.964297  1
  S  S10  1  0.583786  0.964297  0.740514  1
  S  S11  1  0.035703  0.259486  0.416214  1
  S  S12  1  0.259486  0.416214  0.035703  1
  S  S13  1  0.416214  0.035703  0.259486  1
  O  O14  1  0.492464  0.922395  0.180798  1
  O  O15  1  0.922395  0.180798  0.492464  1
  O  O16  1  0.180798  0.492464  0.922395  1
  O  O17  1  0.507536  0.077605  0.819202  1
  O  O18  1  0.077605  0.819202  0.507536  1
  O  O19  1  0.819202  0.507536  0.077605  1
  O  O20  1  0.331515  0.976679  0.365390  1
  O  O21  1  0.976679  0.365390  0.331515  1
  O  O22  1  0.365390  0.331515  0.976679  1
  O  O23  1  0.668485  0.023321  0.634610  1
  O  O24  1  0.023321  0.634610  0.668485  1
  O  O25  1  0.634610  0.668485  0.023321  1
  O  O26  1  0.730957  0.975330  0.903678  1
  O  O27  1  0.975330  0.903678  0.730957  1
  O  O28  1  0.643275  0.455089  0.773483  1
  O  O29  1  0.773483  0.643275  0.455089  1
  O  O30  1  0.455089  0.773483  0.643275  1
  O  O31  1  0.356725  0.544911  0.226517  1
  O  O32  1  0.226517  0.356725  0.544911  1
  O  O33  1  0.544911  0.226517  0.356725  1
  O  O34  1  0.096322  0.269043  0.024670  1
  O  O35  1  0.024670  0.096322  0.269043  1
  O  O36  1  0.269043  0.024670  0.096322  1
  O  O37  1  0.903678  0.730957  0.975330  1
