# generated using pymatgen
data_Sr12Zn11Fe(TeO6)8
_symmetry_space_group_name_H-M   'P 1'
_cell_length_a   11.29043625
_cell_length_b   11.29035505
_cell_length_c   11.29042656
_cell_angle_alpha   109.35766548
_cell_angle_beta   109.52836877
_cell_angle_gamma   109.52774378
_symmetry_Int_Tables_number   1
_chemical_formula_structural   Sr12Zn11Fe(TeO6)8
_chemical_formula_sum   'Sr12 Zn11 Fe1 Te8 O48'
_cell_volume   1107.91182986
_cell_formula_units_Z   1
loop_
 _symmetry_equiv_pos_site_id
 _symmetry_equiv_pos_as_xyz
  1  'x, y, z'
loop_
 _atom_site_type_symbol
 _atom_site_label
 _atom_site_symmetry_multiplicity
 _atom_site_fract_x
 _atom_site_fract_y
 _atom_site_fract_z
 _atom_site_occupancy
  Sr  Sr0  1  0.374937  0.750117  0.125012  1
  Sr  Sr1  1  0.249995  0.375020  0.125025  1
  Sr  Sr2  1  0.874890  0.624831  0.249885  1
  Sr  Sr3  1  0.374818  0.125043  0.249982  1
  Sr  Sr4  1  0.125049  0.250054  0.375170  1
  Sr  Sr5  1  0.750009  0.126706  0.376709  1
  Sr  Sr6  1  0.875064  0.750022  0.624841  1
  Sr  Sr7  1  0.249998  0.874978  0.624975  1
  Sr  Sr8  1  0.125176  0.375159  0.750218  1
  Sr  Sr9  1  0.625123  0.874997  0.749953  1
  Sr  Sr10  1  0.624942  0.249776  0.874954  1
  Sr  Sr11  1  0.750005  0.623300  0.873289  1
  Zn  Zn12  1  0.875183  0.250058  0.125083  1
  Zn  Zn13  1  0.624833  0.375048  0.250159  1
  Zn  Zn14  1  0.124978  0.874924  0.250099  1
  Zn  Zn15  1  0.624823  0.749902  0.374884  1
  Zn  Zn16  1  0.249999  0.625000  0.374999  1
  Zn  Zn17  1  0.375107  0.249781  0.624949  1
  Zn  Zn18  1  0.750001  0.374999  0.625001  1
  Zn  Zn19  1  0.875169  0.125321  0.750214  1
  Zn  Zn20  1  0.375017  0.625116  0.749936  1
  Zn  Zn21  1  0.124887  0.749840  0.874671  1
  Zn  Zn22  1  0.249990  0.124992  0.874994  1
  Fe  Fe23  1  0.749897  0.874920  0.124983  1
  Te  Te24  1  0.999904  0.999456  0.999107  1
  Te  Te25  1  0.499651  0.000441  0.000544  1
  Te  Te26  1  0.000160  0.500017  0.000082  1
  Te  Te27  1  0.500092  0.499194  0.999551  1
  Te  Te28  1  0.000350  0.000905  0.500783  1
  Te  Te29  1  0.499839  0.499921  0.499857  1
  Te  Te30  1  0.499936  0.999918  0.500081  1
  Te  Te31  1  0.000064  0.500144  0.499982  1
  O  O32  1  0.329599  0.906618  0.017705  1
  O  O33  1  0.187928  0.111936  0.018180  1
  O  O34  1  0.687981  0.667077  0.074403  1
  O  O35  1  0.888333  0.406339  0.075972  1
  O  O36  1  0.982104  0.669516  0.093522  1
  O  O37  1  0.611083  0.422974  0.093378  1
  O  O38  1  0.592684  0.925590  0.113609  1
  O  O39  1  0.017514  0.186811  0.111229  1
  O  O40  1  0.187749  0.575960  0.169705  1
  O  O41  1  0.482499  0.593722  0.169293  1
  O  O42  1  0.575582  0.170135  0.187674  1
  O  O43  1  0.111084  0.017535  0.187215  1
  O  O44  1  0.330367  0.924026  0.312363  1
  O  O45  1  0.481990  0.388597  0.312635  1
  O  O46  1  0.907364  0.020987  0.332916  1
  O  O47  1  0.924006  0.312595  0.330484  1
  O  O48  1  0.575991  0.906473  0.388582  1
  O  O49  1  0.312253  0.481957  0.388211  1
  O  O50  1  0.830354  0.518011  0.406398  1
  O  O51  1  0.075579  0.888769  0.406278  1
  O  O52  1  0.830319  0.812788  0.423856  1
  O  O53  1  0.093745  0.611790  0.424042  1
  O  O54  1  0.593536  0.169791  0.482146  1
  O  O55  1  0.388393  0.312346  0.481991  1
  O  O56  1  0.611664  0.687638  0.518003  1
  O  O57  1  0.406254  0.830297  0.518044  1
  O  O58  1  0.170419  0.188117  0.577041  1
  O  O59  1  0.906464  0.388610  0.576255  1
  O  O60  1  0.924416  0.112096  0.594558  1
  O  O61  1  0.169636  0.481996  0.593663  1
  O  O62  1  0.687646  0.517854  0.611390  1
  O  O63  1  0.424041  0.093394  0.611404  1
  O  O64  1  0.093749  0.981821  0.669733  1
  O  O65  1  0.075961  0.687362  0.669351  1
  O  O66  1  0.517893  0.611415  0.687409  1
  O  O67  1  0.669642  0.076043  0.687652  1
  O  O68  1  0.888922  0.982298  0.811887  1
  O  O69  1  0.424418  0.830699  0.813194  1
  O  O70  1  0.517539  0.405442  0.829862  1
  O  O71  1  0.812353  0.423744  0.830207  1
  O  O72  1  0.982469  0.812315  0.887894  1
  O  O73  1  0.406247  0.075991  0.888069  1
  O  O74  1  0.018011  0.330647  0.906607  1
  O  O75  1  0.388938  0.576147  0.906465  1
  O  O76  1  0.111613  0.593599  0.923958  1
  O  O77  1  0.312070  0.330250  0.924008  1
  O  O78  1  0.669679  0.093542  0.982470  1
  O  O79  1  0.812029  0.886434  0.979116  1
