# generated using pymatgen
data_DyHo15CdHg3Ir4
_symmetry_space_group_name_H-M   'P 1'
_cell_length_a   9.57561878
_cell_length_b   9.57735135
_cell_length_c   9.57564900
_cell_angle_alpha   60.00587619
_cell_angle_beta   59.99989213
_cell_angle_gamma   59.98621022
_symmetry_Int_Tables_number   1
_chemical_formula_structural   DyHo15CdHg3Ir4
_chemical_formula_sum   'Dy1 Ho15 Cd1 Hg3 Ir4'
_cell_volume   620.92498007
_cell_formula_units_Z   1
loop_
 _symmetry_equiv_pos_site_id
 _symmetry_equiv_pos_as_xyz
  1  'x, y, z'
loop_
 _atom_site_type_symbol
 _atom_site_label
 _atom_site_symmetry_multiplicity
 _atom_site_fract_x
 _atom_site_fract_y
 _atom_site_fract_z
 _atom_site_occupancy
  Dy  Dy0  1  0.186907  0.188610  0.812242  1
  Ho  Ho1  1  0.600524  0.599998  0.599339  1
  Ho  Ho2  1  0.600524  0.599998  0.200140  1
  Ho  Ho3  1  0.601027  0.199344  0.599815  1
  Ho  Ho4  1  0.196798  0.601435  0.600883  1
  Ho  Ho5  1  0.059408  0.439799  0.440411  1
  Ho  Ho6  1  0.438745  0.060197  0.061018  1
  Ho  Ho7  1  0.438745  0.060197  0.440041  1
  Ho  Ho8  1  0.059408  0.439799  0.060382  1
  Ho  Ho9  1  0.439114  0.439787  0.060550  1
  Ho  Ho10  1  0.059747  0.059947  0.440153  1
  Ho  Ho11  1  0.187224  0.811839  0.812214  1
  Ho  Ho12  1  0.811356  0.188343  0.188004  1
  Ho  Ho13  1  0.811356  0.188343  0.812298  1
  Ho  Ho14  1  0.187224  0.811839  0.188725  1
  Ho  Ho15  1  0.811663  0.812260  0.188039  1
  Cd  Cd16  1  0.509402  0.829990  0.830304  1
  Hg  Hg17  1  0.833492  0.835260  0.835279  1
  Hg  Hg18  1  0.833492  0.835260  0.495969  1
  Hg  Hg19  1  0.833389  0.495685  0.835463  1
  Ir  Ir20  1  0.391985  0.392667  0.391304  1
  Ir  Ir21  1  0.391985  0.392667  0.824044  1
  Ir  Ir22  1  0.392345  0.824020  0.391818  1
  Ir  Ir23  1  0.824144  0.392720  0.391568  1
