# generated using pymatgen
data_Ho2PaFe2Co7P6
_symmetry_space_group_name_H-M   'P 1'
_cell_length_a   3.70527300
_cell_length_b   10.54716986
_cell_length_c   12.11667558
_cell_angle_alpha   89.90117078
_cell_angle_beta   90.00000000
_cell_angle_gamma   90.00000000
_symmetry_Int_Tables_number   1
_chemical_formula_structural   Ho2PaFe2Co7P6
_chemical_formula_sum   'Ho4 Pa2 Fe4 Co14 P12'
_cell_volume   473.52071846
_cell_formula_units_Z   2
loop_
 _symmetry_equiv_pos_site_id
 _symmetry_equiv_pos_as_xyz
  1  'x, y, z'
loop_
 _atom_site_type_symbol
 _atom_site_label
 _atom_site_symmetry_multiplicity
 _atom_site_fract_x
 _atom_site_fract_y
 _atom_site_fract_z
 _atom_site_occupancy
  Ho  Ho0  1  0.500000  0.814726  0.204606  1
  Ho  Ho1  1  0.500000  0.184270  0.204544  1
  Ho  Ho2  1  0.000000  0.683470  0.796496  1
  Ho  Ho3  1  0.000000  0.316803  0.795652  1
  Pa  Pa4  1  0.000000  0.500031  0.527108  1
  Pa  Pa5  1  0.500000  0.000733  0.471546  1
  Fe  Fe6  1  0.000000  0.499816  0.986669  1
  Fe  Fe7  1  0.500000  0.302079  0.431043  1
  Fe  Fe8  1  0.500000  0.498388  0.153509  1
  Fe  Fe9  1  0.000000  0.000164  0.844342  1
  Co  Co10  1  0.500000  0.000082  0.016298  1
  Co  Co11  1  0.500000  0.699353  0.432633  1
  Co  Co12  1  0.000000  0.199733  0.568886  1
  Co  Co13  1  0.000000  0.800918  0.568759  1
  Co  Co14  1  0.500000  0.879892  0.710445  1
  Co  Co15  1  0.500000  0.120329  0.709586  1
  Co  Co16  1  0.000000  0.620255  0.289359  1
  Co  Co17  1  0.000000  0.380255  0.288044  1
  Co  Co18  1  0.500000  0.331235  0.993414  1
  Co  Co19  1  0.500000  0.668209  0.993923  1
  Co  Co20  1  0.000000  0.165533  0.005629  1
  Co  Co21  1  0.000000  0.834304  0.006138  1
  Co  Co22  1  0.500000  0.500019  0.696645  1
  Co  Co23  1  0.000000  0.000177  0.304717  1
  P  P24  1  0.500000  0.306577  0.615806  1
  P  P25  1  0.500000  0.693858  0.617655  1
  P  P26  1  0.000000  0.195442  0.383404  1
  P  P27  1  0.000000  0.805746  0.383181  1
  P  P28  1  0.500000  0.500056  0.882130  1
  P  P29  1  0.000000  0.000004  0.121043  1
  P  P30  1  0.500000  0.848149  0.894339  1
  P  P31  1  0.500000  0.151955  0.893557  1
  P  P32  1  0.000000  0.652304  0.105413  1
  P  P33  1  0.000000  0.346357  0.104962  1
  P  P34  1  0.500000  0.498204  0.340438  1
  P  P35  1  0.000000  0.000577  0.658078  1
