# generated using pymatgen
data_NaCo3Cu(AsO4)3
_symmetry_space_group_name_H-M   'P 1'
_cell_length_a   8.95525917
_cell_length_b   8.95525917
_cell_length_c   6.92258180
_cell_angle_alpha   73.95081230
_cell_angle_beta   73.95081230
_cell_angle_gamma   92.34510766
_symmetry_Int_Tables_number   1
_chemical_formula_structural   NaCo3Cu(AsO4)3
_chemical_formula_sum   'Na2 Co6 Cu2 As6 O24'
_cell_volume   508.57986128
_cell_formula_units_Z   2
loop_
 _symmetry_equiv_pos_site_id
 _symmetry_equiv_pos_as_xyz
  1  'x, y, z'
loop_
 _atom_site_type_symbol
 _atom_site_label
 _atom_site_symmetry_multiplicity
 _atom_site_fract_x
 _atom_site_fract_y
 _atom_site_fract_z
 _atom_site_occupancy
  Na  Na0  1  0.514805  0.485195  0.250000  1
  Na  Na1  1  0.485195  0.514805  0.750000  1
  Co  Co2  1  0.560758  0.872996  0.372608  1
  Co  Co3  1  0.439242  0.127004  0.627392  1
  Co  Co4  1  0.127004  0.439242  0.127392  1
  Co  Co5  1  0.872996  0.560758  0.872608  1
  Co  Co6  1  0.245384  0.754616  0.250000  1
  Co  Co7  1  0.754616  0.245384  0.750000  1
  Cu  Cu8  1  0.997502  0.002498  0.250000  1
  Cu  Cu9  1  0.002498  0.997502  0.750000  1
  As  As10  1  0.380767  0.150560  0.125959  1
  As  As11  1  0.619233  0.849440  0.874041  1
  As  As12  1  0.849440  0.619233  0.374041  1
  As  As13  1  0.150560  0.380767  0.625959  1
  As  As14  1  0.784652  0.215348  0.250000  1
  As  As15  1  0.215348  0.784652  0.750000  1
  O  O16  1  0.224809  0.004202  0.185353  1
  O  O17  1  0.775191  0.995798  0.814647  1
  O  O18  1  0.995798  0.775191  0.314647  1
  O  O19  1  0.004202  0.224809  0.685353  1
  O  O20  1  0.472958  0.092451  0.318707  1
  O  O21  1  0.527042  0.907549  0.681293  1
  O  O22  1  0.907549  0.527042  0.181293  1
  O  O23  1  0.092451  0.472958  0.818707  1
  O  O24  1  0.489129  0.830152  0.120946  1
  O  O25  1  0.510871  0.169848  0.879054  1
  O  O26  1  0.169848  0.510871  0.379054  1
  O  O27  1  0.830152  0.489129  0.620946  1
  O  O28  1  0.673894  0.254042  0.473601  1
  O  O29  1  0.326106  0.745958  0.526399  1
  O  O30  1  0.745958  0.326106  0.026399  1
  O  O31  1  0.254042  0.673894  0.973601  1
  O  O32  1  0.775191  0.014637  0.268553  1
  O  O33  1  0.224809  0.985363  0.731447  1
  O  O34  1  0.985363  0.224809  0.231447  1
  O  O35  1  0.014637  0.775191  0.768553  1
  O  O36  1  0.664228  0.669350  0.385113  1
  O  O37  1  0.335772  0.330650  0.614887  1
  O  O38  1  0.330650  0.335772  0.114887  1
  O  O39  1  0.669350  0.664228  0.885113  1
