# generated using pymatgen
data_Y3In3IrRuAu
_symmetry_space_group_name_H-M   'P 1'
_cell_length_a   7.82403200
_cell_length_b   7.82403209
_cell_length_c   3.77118900
_cell_angle_alpha   90.00000000
_cell_angle_beta   90.00000000
_cell_angle_gamma   120.00000807
_symmetry_Int_Tables_number   1
_chemical_formula_structural   Y3In3IrRuAu
_chemical_formula_sum   'Y3 In3 Ir1 Ru1 Au1'
_cell_volume   199.92639541
_cell_formula_units_Z   1
loop_
 _symmetry_equiv_pos_site_id
 _symmetry_equiv_pos_as_xyz
  1  'x, y, z'
loop_
 _atom_site_type_symbol
 _atom_site_label
 _atom_site_symmetry_multiplicity
 _atom_site_fract_x
 _atom_site_fract_y
 _atom_site_fract_z
 _atom_site_occupancy
  Y  Y0  1  0.976956  0.588152  0.500000  1
  Y  Y1  1  0.611197  0.023044  0.500000  1
  Y  Y2  1  0.411848  0.388803  0.500000  1
  In  In3  1  0.000958  0.260815  0.000000  1
  In  In4  1  0.259857  0.999042  0.000000  1
  In  In5  1  0.739185  0.740143  0.000000  1
  Ir  Ir6  1  0.666667  0.333333  0.000000  1
  Ru  Ru7  1  0.000000  0.000000  0.500000  1
  Au  Au8  1  0.333333  0.666667  0.000000  1
