# generated using pymatgen
data_Ca12Si8Ir5Pt3
_symmetry_space_group_name_H-M   'P 1'
_cell_length_a   5.77610118
_cell_length_b   7.75902001
_cell_length_c   13.39396000
_cell_angle_alpha   89.87458309
_cell_angle_beta   90.07670717
_cell_angle_gamma   90.09408278
_symmetry_Int_Tables_number   1
_chemical_formula_structural   Ca12Si8Ir5Pt3
_chemical_formula_sum   'Ca12 Si8 Ir5 Pt3'
_cell_volume   600.27277745
_cell_formula_units_Z   1
loop_
 _symmetry_equiv_pos_site_id
 _symmetry_equiv_pos_as_xyz
  1  'x, y, z'
loop_
 _atom_site_type_symbol
 _atom_site_label
 _atom_site_symmetry_multiplicity
 _atom_site_fract_x
 _atom_site_fract_y
 _atom_site_fract_z
 _atom_site_occupancy
  Ca  Ca0  1  0.136667  0.610045  0.101397  1
  Ca  Ca1  1  0.136487  0.886759  0.897023  1
  Ca  Ca2  1  0.862251  0.108993  0.397097  1
  Ca  Ca3  1  0.862079  0.390716  0.603522  1
  Ca  Ca4  1  0.872225  0.392372  0.898594  1
  Ca  Ca5  1  0.872920  0.112989  0.100280  1
  Ca  Ca6  1  0.125145  0.885990  0.601020  1
  Ca  Ca7  1  0.126779  0.612495  0.399265  1
  Ca  Ca8  1  0.361860  0.267082  0.249451  1
  Ca  Ca9  1  0.364376  0.233691  0.752112  1
  Ca  Ca10  1  0.637771  0.764846  0.249515  1
  Ca  Ca11  1  0.639161  0.732960  0.749877  1
  Si  Si12  1  0.423704  0.254892  0.997121  1
  Si  Si13  1  0.581934  0.750460  0.500146  1
  Si  Si14  1  0.592897  0.746421  0.998223  1
  Si  Si15  1  0.394272  0.249498  0.500155  1
  Si  Si16  1  0.840847  0.414601  0.247645  1
  Si  Si17  1  0.840911  0.084323  0.753662  1
  Si  Si18  1  0.162301  0.916329  0.253357  1
  Si  Si19  1  0.167787  0.580840  0.747793  1
  Ir  Ir20  1  0.638222  0.475724  0.090608  1
  Ir  Ir21  1  0.637045  0.022949  0.911659  1
  Ir  Ir22  1  0.363110  0.975706  0.411146  1
  Ir  Ir23  1  0.363096  0.524144  0.588343  1
  Ir  Ir24  1  0.365659  0.528159  0.907968  1
  Pt  Pt25  1  0.365483  0.976716  0.092529  1
  Pt  Pt26  1  0.631648  0.029039  0.593555  1
  Pt  Pt27  1  0.633363  0.471262  0.406934  1
