# generated using pymatgen
data_ErTm3B12IrRu
_symmetry_space_group_name_H-M   'P 1'
_cell_length_a   3.61835600
_cell_length_b   9.11163079
_cell_length_c   11.43759302
_cell_angle_alpha   90.06756430
_cell_angle_beta   90.00000000
_cell_angle_gamma   90.00000000
_symmetry_Int_Tables_number   1
_chemical_formula_structural   ErTm3B12IrRu
_chemical_formula_sum   'Er2 Tm6 B24 Ir2 Ru2'
_cell_volume   377.08715955
_cell_formula_units_Z   2
loop_
 _symmetry_equiv_pos_site_id
 _symmetry_equiv_pos_as_xyz
  1  'x, y, z'
loop_
 _atom_site_type_symbol
 _atom_site_label
 _atom_site_symmetry_multiplicity
 _atom_site_fract_x
 _atom_site_fract_y
 _atom_site_fract_z
 _atom_site_occupancy
  Er  Er0  1  0.000000  0.318600  0.411971  1
  Er  Er1  1  0.000000  0.681400  0.588029  1
  Tm  Tm2  1  0.000000  0.822770  0.085060  1
  Tm  Tm3  1  0.000000  0.177230  0.914940  1
  Tm  Tm4  1  0.000000  0.945795  0.373060  1
  Tm  Tm5  1  0.000000  0.054205  0.626940  1
  Tm  Tm6  1  0.000000  0.442293  0.125431  1
  Tm  Tm7  1  0.000000  0.557707  0.874569  1
  B  B8  1  0.500000  0.553072  0.434105  1
  B  B9  1  0.500000  0.446928  0.565895  1
  B  B10  1  0.500000  0.053825  0.066391  1
  B  B11  1  0.500000  0.946175  0.933609  1
  B  B12  1  0.500000  0.750698  0.420535  1
  B  B13  1  0.500000  0.249302  0.579465  1
  B  B14  1  0.500000  0.248415  0.079592  1
  B  B15  1  0.500000  0.751585  0.920408  1
  B  B16  1  0.500000  0.793289  0.265295  1
  B  B17  1  0.500000  0.206711  0.734705  1
  B  B18  1  0.500000  0.292296  0.234252  1
  B  B19  1  0.500000  0.707704  0.765748  1
  B  B20  1  0.500000  0.631706  0.183693  1
  B  B21  1  0.500000  0.368294  0.816307  1
  B  B22  1  0.500000  0.131755  0.315048  1
  B  B23  1  0.500000  0.868245  0.684952  1
  B  B24  1  0.500000  0.982774  0.212833  1
  B  B25  1  0.500000  0.017226  0.787167  1
  B  B26  1  0.500000  0.481342  0.286496  1
  B  B27  1  0.500000  0.518658  0.713504  1
  B  B28  1  0.500000  0.609186  0.030287  1
  B  B29  1  0.500000  0.390814  0.969713  1
  B  B30  1  0.500000  0.108608  0.470498  1
  B  B31  1  0.500000  0.891392  0.529502  1
  Ir  Ir32  1  0.000000  0.637596  0.321709  1
  Ir  Ir33  1  0.000000  0.362404  0.678291  1
  Ru  Ru34  1  0.000000  0.138006  0.179009  1
  Ru  Ru35  1  0.000000  0.861994  0.820991  1
