# generated using pymatgen
data_TbSc7Ti11Si16Mo
_symmetry_space_group_name_H-M   'P 1'
_cell_length_a   6.88507473
_cell_length_b   6.88946553
_cell_length_c   12.63417567
_cell_angle_alpha   89.85972592
_cell_angle_beta   90.08511524
_cell_angle_gamma   89.96735261
_symmetry_Int_Tables_number   1
_chemical_formula_structural   TbSc7Ti11Si16Mo
_chemical_formula_sum   'Tb1 Sc7 Ti11 Si16 Mo1'
_cell_volume   599.29306065
_cell_formula_units_Z   1
loop_
 _symmetry_equiv_pos_site_id
 _symmetry_equiv_pos_as_xyz
  1  'x, y, z'
loop_
 _atom_site_type_symbol
 _atom_site_label
 _atom_site_symmetry_multiplicity
 _atom_site_fract_x
 _atom_site_fract_y
 _atom_site_fract_z
 _atom_site_occupancy
  Tb  Tb0  1  0.995587  0.659805  0.032602  1
  Sc  Sc1  1  0.341221  0.001448  0.467572  1
  Sc  Sc2  1  0.498600  0.841092  0.716344  1
  Sc  Sc3  1  0.499277  0.159502  0.217769  1
  Sc  Sc4  1  0.841032  0.498688  0.283695  1
  Sc  Sc5  1  0.159483  0.499592  0.783431  1
  Sc  Sc6  1  0.655779  0.001322  0.965528  1
  Sc  Sc7  1  0.001324  0.341699  0.532827  1
  Ti  Ti8  1  0.173795  0.829058  0.250875  1
  Ti  Ti9  1  0.827658  0.172972  0.749074  1
  Ti  Ti10  1  0.672694  0.672777  0.500032  1
  Ti  Ti11  1  0.152798  0.005411  0.873350  1
  Ti  Ti12  1  0.493919  0.649051  0.124633  1
  Ti  Ti13  1  0.506020  0.351386  0.624899  1
  Ti  Ti14  1  0.649147  0.490154  0.874336  1
  Ti  Ti15  1  0.351598  0.505764  0.376101  1
  Ti  Ti16  1  0.850891  0.994661  0.376630  1
  Ti  Ti17  1  0.007610  0.151693  0.125507  1
  Ti  Ti18  1  0.993893  0.851159  0.624182  1
  Si  Si19  1  0.204441  0.136411  0.679236  1
  Si  Si20  1  0.370021  0.705338  0.928752  1
  Si  Si21  1  0.636403  0.295382  0.430161  1
  Si  Si22  1  0.699746  0.359568  0.069279  1
  Si  Si23  1  0.295061  0.636418  0.570242  1
  Si  Si24  1  0.790865  0.870031  0.184469  1
  Si  Si25  1  0.136349  0.204075  0.321142  1
  Si  Si26  1  0.862738  0.797080  0.816654  1
  Si  Si27  1  0.299869  0.957171  0.064966  1
  Si  Si28  1  0.544298  0.797828  0.316288  1
  Si  Si29  1  0.453155  0.202112  0.813971  1
  Si  Si30  1  0.797841  0.545726  0.684260  1
  Si  Si31  1  0.206385  0.450839  0.187571  1
  Si  Si32  1  0.702503  0.046632  0.564770  1
  Si  Si33  1  0.953191  0.289490  0.933678  1
  Si  Si34  1  0.046561  0.702860  0.435489  1
  Mo  Mo35  1  0.328246  0.325809  0.999689  1
