# generated using pymatgen
data_Yb(Tc2P)2
_symmetry_space_group_name_H-M   'P 1'
_cell_length_a   7.38804000
_cell_length_b   7.38804000
_cell_length_c   3.94776700
_cell_angle_alpha   90.00000000
_cell_angle_beta   90.00000000
_cell_angle_gamma   90.00000000
_symmetry_Int_Tables_number   1
_chemical_formula_structural   Yb(Tc2P)2
_chemical_formula_sum   'Yb2 Tc8 P4'
_cell_volume   215.48149927
_cell_formula_units_Z   2
loop_
 _symmetry_equiv_pos_site_id
 _symmetry_equiv_pos_as_xyz
  1  'x, y, z'
loop_
 _atom_site_type_symbol
 _atom_site_label
 _atom_site_symmetry_multiplicity
 _atom_site_fract_x
 _atom_site_fract_y
 _atom_site_fract_z
 _atom_site_occupancy
  Yb  Yb0  1  0.500000  0.500000  0.000000  1
  Yb  Yb1  1  0.000000  0.000000  0.500000  1
  Tc  Tc2  1  0.836321  0.415707  0.500000  1
  Tc  Tc3  1  0.163679  0.584293  0.500000  1
  Tc  Tc4  1  0.415707  0.836321  0.500000  1
  Tc  Tc5  1  0.584293  0.163679  0.500000  1
  Tc  Tc6  1  0.336321  0.084293  0.000000  1
  Tc  Tc7  1  0.663679  0.915707  0.000000  1
  Tc  Tc8  1  0.915707  0.663679  0.000000  1
  Tc  Tc9  1  0.084293  0.336321  0.000000  1
  P  P10  1  0.209515  0.790485  0.000000  1
  P  P11  1  0.290485  0.290485  0.500000  1
  P  P12  1  0.709515  0.709515  0.500000  1
  P  P13  1  0.790485  0.209515  0.000000  1
