# generated using pymatgen
data_LiCaP6Pd20Pb
_symmetry_space_group_name_H-M   'P 1'
_cell_length_a   8.64412542
_cell_length_b   8.64326768
_cell_length_c   8.64510603
_cell_angle_alpha   59.98255545
_cell_angle_beta   59.98983392
_cell_angle_gamma   59.98469938
_symmetry_Int_Tables_number   1
_chemical_formula_structural   LiCaP6Pd20Pb
_chemical_formula_sum   'Li1 Ca1 P6 Pd20 Pb1'
_cell_volume   456.57640844
_cell_formula_units_Z   1
loop_
 _symmetry_equiv_pos_site_id
 _symmetry_equiv_pos_as_xyz
  1  'x, y, z'
loop_
 _atom_site_type_symbol
 _atom_site_label
 _atom_site_symmetry_multiplicity
 _atom_site_fract_x
 _atom_site_fract_y
 _atom_site_fract_z
 _atom_site_occupancy
  Li  Li0  1  0.000028  0.000012  0.999964  1
  Ca  Ca1  1  0.250003  0.250017  0.249990  1
  P  P2  1  0.738246  0.261762  0.261739  1
  P  P3  1  0.738331  0.738285  0.261717  1
  P  P4  1  0.738266  0.261786  0.738234  1
  P  P5  1  0.261749  0.738218  0.261763  1
  P  P6  1  0.261800  0.738209  0.738213  1
  P  P7  1  0.261691  0.261741  0.738258  1
  Pd  Pd8  1  0.341244  0.002301  0.002258  1
  Pd  Pd9  1  0.002283  0.654194  0.341224  1
  Pd  Pd10  1  0.341273  0.002287  0.654183  1
  Pd  Pd11  1  0.002251  0.654223  0.002260  1
  Pd  Pd12  1  0.654267  0.341209  0.002259  1
  Pd  Pd13  1  0.615595  0.615581  0.153212  1
  Pd  Pd14  1  0.386074  0.841830  0.386041  1
  Pd  Pd15  1  0.153019  0.615682  0.615623  1
  Pd  Pd16  1  0.654230  0.002261  0.341231  1
  Pd  Pd17  1  0.002302  0.341248  0.654170  1
  Pd  Pd18  1  0.654240  0.002260  0.002265  1
  Pd  Pd19  1  0.002288  0.002291  0.341219  1
  Pd  Pd20  1  0.615668  0.153130  0.615596  1
  Pd  Pd21  1  0.341238  0.654230  0.002257  1
  Pd  Pd22  1  0.386052  0.386054  0.386075  1
  Pd  Pd23  1  0.615660  0.615602  0.615624  1
  Pd  Pd24  1  0.386063  0.386043  0.841812  1
  Pd  Pd25  1  0.002274  0.002281  0.654191  1
  Pd  Pd26  1  0.841853  0.386063  0.386046  1
  Pd  Pd27  1  0.002291  0.341250  0.002253  1
  Pb  Pb28  1  0.749715  0.749948  0.750320  1
