# generated using pymatgen
data_Tb4CoNi3B16
_symmetry_space_group_name_H-M   'P 1'
_cell_length_a   6.82339347
_cell_length_b   6.82339353
_cell_length_c   6.82339243
_cell_angle_alpha   112.85975763
_cell_angle_beta   112.82896502
_cell_angle_gamma   102.91713216
_symmetry_Int_Tables_number   1
_chemical_formula_structural   Tb4CoNi3B16
_chemical_formula_sum   'Tb4 Co1 Ni3 B16'
_cell_volume   242.19433883
_cell_formula_units_Z   1
loop_
 _symmetry_equiv_pos_site_id
 _symmetry_equiv_pos_as_xyz
  1  'x, y, z'
loop_
 _atom_site_type_symbol
 _atom_site_label
 _atom_site_symmetry_multiplicity
 _atom_site_fract_x
 _atom_site_fract_y
 _atom_site_fract_z
 _atom_site_occupancy
  Tb  Tb0  1  0.205470  0.203399  0.997929  1
  Tb  Tb1  1  0.794530  0.792459  0.997929  1
  Tb  Tb2  1  0.748534  0.250151  0.501617  1
  Tb  Tb3  1  0.251466  0.753084  0.501617  1
  Co  Co4  1  0.500000  0.272098  0.772098  1
  Ni  Ni5  1  0.500000  0.727393  0.227393  1
  Ni  Ni6  1  0.729085  0.499964  0.229049  1
  Ni  Ni7  1  0.270915  0.499964  0.770880  1
  B  B8  1  0.111881  0.275367  0.387249  1
  B  B9  1  0.888772  0.724518  0.613290  1
  B  B10  1  0.888119  0.275367  0.163487  1
  B  B11  1  0.111228  0.724518  0.835745  1
  B  B12  1  0.724209  0.888286  0.612496  1
  B  B13  1  0.277659  0.111753  0.389412  1
  B  B14  1  0.722341  0.111753  0.834093  1
  B  B15  1  0.275791  0.888286  0.164078  1
  B  B16  1  0.420710  0.418727  0.535213  1
  B  B17  1  0.885685  0.885943  0.467331  1
  B  B18  1  0.579290  0.114502  0.998017  1
  B  B19  1  0.114315  0.581647  0.000258  1
  B  B20  1  0.581389  0.581647  0.467331  1
  B  B21  1  0.116485  0.114502  0.535213  1
  B  B22  1  0.883515  0.418727  0.998017  1
  B  B23  1  0.418611  0.885943  0.000258  1
