# generated using pymatgen
data_SrLa(Ni4B)2
_symmetry_space_group_name_H-M   'P 1'
_cell_length_a   5.12039700
_cell_length_b   5.12039735
_cell_length_c   6.93579100
_cell_angle_alpha   90.00000000
_cell_angle_beta   90.00000000
_cell_angle_gamma   120.00000417
_symmetry_Int_Tables_number   1
_chemical_formula_structural   SrLa(Ni4B)2
_chemical_formula_sum   'Sr1 La1 Ni8 B2'
_cell_volume   157.48308372
_cell_formula_units_Z   1
loop_
 _symmetry_equiv_pos_site_id
 _symmetry_equiv_pos_as_xyz
  1  'x, y, z'
loop_
 _atom_site_type_symbol
 _atom_site_label
 _atom_site_symmetry_multiplicity
 _atom_site_fract_x
 _atom_site_fract_y
 _atom_site_fract_z
 _atom_site_occupancy
  Sr  Sr0  1  0.000000  0.000000  0.500000  1
  La  La1  1  0.000000  0.000000  0.000000  1
  Ni  Ni2  1  0.333333  0.666667  0.000000  1
  Ni  Ni3  1  0.666667  0.333333  0.000000  1
  Ni  Ni4  1  0.500000  0.000000  0.295745  1
  Ni  Ni5  1  0.500000  0.500000  0.295745  1
  Ni  Ni6  1  0.000000  0.500000  0.295745  1
  Ni  Ni7  1  0.500000  0.000000  0.704255  1
  Ni  Ni8  1  0.500000  0.500000  0.704255  1
  Ni  Ni9  1  0.000000  0.500000  0.704255  1
  B  B10  1  0.666667  0.333333  0.500000  1
  B  B11  1  0.333333  0.666667  0.500000  1
