# generated using pymatgen
data_LiPm4(PdO4)3
_symmetry_space_group_name_H-M   'P 1'
_cell_length_a   5.34993350
_cell_length_b   5.71517889
_cell_length_c   7.65638000
_cell_angle_alpha   89.44813459
_cell_angle_beta   89.93447850
_cell_angle_gamma   90.20493583
_symmetry_Int_Tables_number   1
_chemical_formula_structural   LiPm4(PdO4)3
_chemical_formula_sum   'Li1 Pm4 Pd3 O12'
_cell_volume   234.08763145
_cell_formula_units_Z   1
loop_
 _symmetry_equiv_pos_site_id
 _symmetry_equiv_pos_as_xyz
  1  'x, y, z'
loop_
 _atom_site_type_symbol
 _atom_site_label
 _atom_site_symmetry_multiplicity
 _atom_site_fract_x
 _atom_site_fract_y
 _atom_site_fract_z
 _atom_site_occupancy
  Li  Li0  1  0.000003  0.499996  0.499999  1
  Pm  Pm1  1  0.975532  0.083027  0.265369  1
  Pm  Pm2  1  0.516906  0.566862  0.263937  1
  Pm  Pm3  1  0.483090  0.433131  0.736060  1
  Pm  Pm4  1  0.024477  0.916984  0.734631  1
  Pd  Pd5  1  0.499999  0.999999  0.000004  1
  Pd  Pd6  1  0.000007  0.499999  0.000016  1
  Pd  Pd7  1  0.499949  0.000040  0.500009  1
  O  O8  1  0.685052  0.304367  0.059199  1
  O  O9  1  0.812899  0.804402  0.061589  1
  O  O10  1  0.100671  0.472620  0.250149  1
  O  O11  1  0.387413  0.965263  0.250166  1
  O  O12  1  0.689832  0.298694  0.454957  1
  O  O13  1  0.804523  0.804329  0.455900  1
  O  O14  1  0.195512  0.195645  0.544098  1
  O  O15  1  0.310173  0.701302  0.545043  1
  O  O16  1  0.612594  0.034738  0.749830  1
  O  O17  1  0.899325  0.527380  0.749837  1
  O  O18  1  0.187101  0.195595  0.938408  1
  O  O19  1  0.314947  0.695632  0.940800  1
