# generated using pymatgen
data_Dy4Y2TiAl23Os8
_symmetry_space_group_name_H-M   'P 1'
_cell_length_a   8.84872001
_cell_length_b   8.84871669
_cell_length_c   9.55291400
_cell_angle_alpha   90.00105977
_cell_angle_beta   89.99894771
_cell_angle_gamma   120.00591087
_symmetry_Int_Tables_number   1
_chemical_formula_structural   Dy4Y2TiAl23Os8
_chemical_formula_sum   'Dy4 Y2 Ti1 Al23 Os8'
_cell_volume   647.74097891
_cell_formula_units_Z   1
loop_
 _symmetry_equiv_pos_site_id
 _symmetry_equiv_pos_as_xyz
  1  'x, y, z'
loop_
 _atom_site_type_symbol
 _atom_site_label
 _atom_site_symmetry_multiplicity
 _atom_site_fract_x
 _atom_site_fract_y
 _atom_site_fract_z
 _atom_site_occupancy
  Dy  Dy0  1  0.193918  0.387621  0.249994  1
  Dy  Dy1  1  0.806913  0.613997  0.748281  1
  Dy  Dy2  1  0.612380  0.806081  0.249994  1
  Dy  Dy3  1  0.386005  0.193088  0.748281  1
  Y  Y4  1  0.193709  0.806292  0.250270  1
  Y  Y5  1  0.807027  0.192972  0.748477  1
  Ti  Ti6  1  0.333404  0.666591  0.991689  1
  Al  Al7  1  0.666624  0.333377  0.981239  1
  Al  Al8  1  0.666680  0.333320  0.516652  1
  Al  Al9  1  0.333336  0.666664  0.482314  1
  Al  Al10  1  0.162444  0.324907  0.574902  1
  Al  Al11  1  0.837204  0.674462  0.424743  1
  Al  Al12  1  0.675094  0.837556  0.574902  1
  Al  Al13  1  0.836766  0.673589  0.076509  1
  Al  Al14  1  0.325538  0.162796  0.424743  1
  Al  Al15  1  0.159707  0.319316  0.926172  1
  Al  Al16  1  0.162402  0.837598  0.575220  1
  Al  Al17  1  0.326411  0.163235  0.076508  1
  Al  Al18  1  0.837265  0.162736  0.424522  1
  Al  Al19  1  0.680685  0.840293  0.926172  1
  Al  Al20  1  0.836840  0.163160  0.076798  1
  Al  Al21  1  0.159676  0.840323  0.925881  1
  Al  Al22  1  0.561702  0.123139  0.253095  1
  Al  Al23  1  0.440925  0.882157  0.750067  1
  Al  Al24  1  0.876862  0.438298  0.253094  1
  Al  Al25  1  0.117844  0.559076  0.750068  1
  Al  Al26  1  0.561576  0.438423  0.253089  1
  Al  Al27  1  0.441081  0.558919  0.750108  1
  Al  Al28  1  0.999717  0.000283  0.250113  1
  Al  Al29  1  0.000243  0.999757  0.749513  1
  Os  Os30  1  0.499159  0.998179  0.002698  1
  Os  Os31  1  0.001820  0.500840  0.002697  1
  Os  Os32  1  0.499501  0.999121  0.502796  1
  Os  Os33  1  0.499077  0.500924  0.002825  1
  Os  Os34  1  0.000879  0.500499  0.502795  1
  Os  Os35  1  0.499576  0.500424  0.502837  1
  Os  Os36  1  0.000004  0.999996  0.000263  1
  Os  Os37  1  0.000008  0.999992  0.499679  1
