# generated using pymatgen
data_Ti3CrTc2P3
_symmetry_space_group_name_H-M   'P 1'
_cell_length_a   6.57120070
_cell_length_b   6.57119998
_cell_length_c   3.26911600
_cell_angle_alpha   90.00000000
_cell_angle_beta   90.00000000
_cell_angle_gamma   120.43201562
_symmetry_Int_Tables_number   1
_chemical_formula_structural   Ti3CrTc2P3
_chemical_formula_sum   'Ti3 Cr1 Tc2 P3'
_cell_volume   121.71476552
_cell_formula_units_Z   1
loop_
 _symmetry_equiv_pos_site_id
 _symmetry_equiv_pos_as_xyz
  1  'x, y, z'
loop_
 _atom_site_type_symbol
 _atom_site_label
 _atom_site_symmetry_multiplicity
 _atom_site_fract_x
 _atom_site_fract_y
 _atom_site_fract_z
 _atom_site_occupancy
  Ti  Ti0  1  0.412075  0.412075  0.500000  1
  Ti  Ti1  1  0.596014  0.994541  0.500000  1
  Ti  Ti2  1  0.994541  0.596014  0.500000  1
  Cr  Cr3  1  0.744832  0.744832  0.000000  1
  Tc  Tc4  1  0.000928  0.255329  0.000000  1
  Tc  Tc5  1  0.255329  0.000928  0.000000  1
  P  P6  1  0.669039  0.340337  0.000000  1
  P  P7  1  0.340337  0.669039  0.000000  1
  P  P8  1  0.986905  0.986905  0.500000  1
