# generated using pymatgen
data_Ho16In4IrPdPt2
_symmetry_space_group_name_H-M   'P 1'
_cell_length_a   9.66481513
_cell_length_b   9.66491150
_cell_length_c   9.67321265
_cell_angle_alpha   60.07193160
_cell_angle_beta   60.02871629
_cell_angle_gamma   60.00033305
_symmetry_Int_Tables_number   1
_chemical_formula_structural   Ho16In4IrPdPt2
_chemical_formula_sum   'Ho16 In4 Ir1 Pd1 Pt2'
_cell_volume   639.40800255
_cell_formula_units_Z   1
loop_
 _symmetry_equiv_pos_site_id
 _symmetry_equiv_pos_as_xyz
  1  'x, y, z'
loop_
 _atom_site_type_symbol
 _atom_site_label
 _atom_site_symmetry_multiplicity
 _atom_site_fract_x
 _atom_site_fract_y
 _atom_site_fract_z
 _atom_site_occupancy
  Ho  Ho0  1  0.436760  0.438500  0.062276  1
  Ho  Ho1  1  0.646254  0.648473  0.059020  1
  Ho  Ho2  1  0.186828  0.809960  0.192593  1
  Ho  Ho3  1  0.062463  0.438500  0.062276  1
  Ho  Ho4  1  0.190294  0.810422  0.808990  1
  Ho  Ho5  1  0.063097  0.439833  0.433973  1
  Ho  Ho6  1  0.810108  0.185452  0.194332  1
  Ho  Ho7  1  0.650372  0.652499  0.646017  1
  Ho  Ho8  1  0.810289  0.189179  0.808497  1
  Ho  Ho9  1  0.192036  0.189179  0.808497  1
  Ho  Ho10  1  0.051112  0.652499  0.646017  1
  Ho  Ho11  1  0.438980  0.061578  0.060462  1
  Ho  Ho12  1  0.061343  0.062429  0.435736  1
  Ho  Ho13  1  0.650872  0.051890  0.646367  1
  Ho  Ho14  1  0.810620  0.809960  0.192593  1
  Ho  Ho15  1  0.440492  0.062429  0.435736  1
  In  In16  1  0.417143  0.415734  0.417020  1
  In  In17  1  0.416973  0.417618  0.748436  1
  In  In18  1  0.416228  0.749668  0.417877  1
  In  In19  1  0.750104  0.415734  0.417020  1
  Ir  Ir20  1  0.857138  0.857737  0.427984  1
  Pd  Pd21  1  0.856042  0.428092  0.859823  1
  Pt  Pt22  1  0.428917  0.856318  0.859229  1
  Pt  Pt23  1  0.855533  0.856318  0.859229  1
