# generated using pymatgen
data_Ti8Si3Ge3(WC)2
_symmetry_space_group_name_H-M   'P 1'
_cell_length_a   7.51016014
_cell_length_b   7.50045845
_cell_length_c   5.21065750
_cell_angle_alpha   89.99574217
_cell_angle_beta   89.92697570
_cell_angle_gamma   120.17002687
_symmetry_Int_Tables_number   1
_chemical_formula_structural   Ti8Si3Ge3(WC)2
_chemical_formula_sum   'Ti8 Si3 Ge3 W2 C2'
_cell_volume   253.75408068
_cell_formula_units_Z   1
loop_
 _symmetry_equiv_pos_site_id
 _symmetry_equiv_pos_as_xyz
  1  'x, y, z'
loop_
 _atom_site_type_symbol
 _atom_site_label
 _atom_site_symmetry_multiplicity
 _atom_site_fract_x
 _atom_site_fract_y
 _atom_site_fract_z
 _atom_site_occupancy
  Ti  Ti0  1  0.666457  0.337163  0.500239  1
  Ti  Ti1  1  0.333452  0.661302  0.500229  1
  Ti  Ti2  1  0.229327  0.003136  0.250658  1
  Ti  Ti3  1  0.772253  0.999853  0.749218  1
  Ti  Ti4  1  0.003031  0.231203  0.251012  1
  Ti  Ti5  1  0.996819  0.768949  0.749389  1
  Ti  Ti6  1  0.768354  0.768318  0.251063  1
  Ti  Ti7  1  0.230037  0.232916  0.748785  1
  Si  Si8  1  0.998819  0.404590  0.755531  1
  Si  Si9  1  0.407403  0.406369  0.243870  1
  Si  Si10  1  0.593752  0.593904  0.755804  1
  Ge  Ge11  1  0.596075  0.000301  0.249375  1
  Ge  Ge12  1  0.402760  0.998878  0.750365  1
  Ge  Ge13  1  0.001409  0.595745  0.249678  1
  W  W14  1  0.333377  0.660856  0.997442  1
  W  W15  1  0.666673  0.336924  0.997471  1
  C  C16  1  0.999991  0.999688  0.000188  1
  C  C17  1  0.000010  0.999905  0.499683  1
