# generated using pymatgen
data_U6VMoAs10
_symmetry_space_group_name_H-M   'P 1'
_cell_length_a   8.48552100
_cell_length_b   8.48552010
_cell_length_c   5.64898000
_cell_angle_alpha   90.00000000
_cell_angle_beta   90.00000000
_cell_angle_gamma   119.99999961
_symmetry_Int_Tables_number   1
_chemical_formula_structural   U6VMoAs10
_chemical_formula_sum   'U6 V1 Mo1 As10'
_cell_volume   352.25539205
_cell_formula_units_Z   1
loop_
 _symmetry_equiv_pos_site_id
 _symmetry_equiv_pos_as_xyz
  1  'x, y, z'
loop_
 _atom_site_type_symbol
 _atom_site_label
 _atom_site_symmetry_multiplicity
 _atom_site_fract_x
 _atom_site_fract_y
 _atom_site_fract_z
 _atom_site_occupancy
  U  U0  1  0.381225  0.381225  0.751829  1
  U  U1  1  0.618775  0.000000  0.751829  1
  U  U2  1  0.000000  0.618775  0.751829  1
  U  U3  1  0.618775  0.618775  0.248171  1
  U  U4  1  0.381225  0.000000  0.248171  1
  U  U5  1  0.000000  0.381225  0.248171  1
  V  V6  1  0.000000  0.000000  0.500000  1
  Mo  Mo7  1  0.000000  0.000000  0.000000  1
  As  As8  1  0.737648  0.737648  0.745935  1
  As  As9  1  0.262352  0.000000  0.745935  1
  As  As10  1  0.000000  0.262352  0.745935  1
  As  As11  1  0.262352  0.262352  0.254065  1
  As  As12  1  0.737648  0.000000  0.254065  1
  As  As13  1  0.000000  0.737648  0.254065  1
  As  As14  1  0.666667  0.333333  0.000000  1
  As  As15  1  0.333333  0.666667  0.000000  1
  As  As16  1  0.333333  0.666667  0.500000  1
  As  As17  1  0.666667  0.333333  0.500000  1
