# generated using pymatgen
data_Y16Al4Ni3Ru
_symmetry_space_group_name_H-M   'P 1'
_cell_length_a   9.54041379
_cell_length_b   9.49472212
_cell_length_c   9.49472200
_cell_angle_alpha   60.00000041
_cell_angle_beta   60.15830232
_cell_angle_gamma   60.15829898
_symmetry_Int_Tables_number   1
_chemical_formula_structural   Y16Al4Ni3Ru
_chemical_formula_sum   'Y16 Al4 Ni3 Ru1'
_cell_volume   609.60951350
_cell_formula_units_Z   1
loop_
 _symmetry_equiv_pos_site_id
 _symmetry_equiv_pos_as_xyz
  1  'x, y, z'
loop_
 _atom_site_type_symbol
 _atom_site_label
 _atom_site_symmetry_multiplicity
 _atom_site_fract_x
 _atom_site_fract_y
 _atom_site_fract_z
 _atom_site_occupancy
  Y  Y0  1  0.437228  0.436238  0.063267  1
  Y  Y1  1  0.064361  0.058999  0.438320  1
  Y  Y2  1  0.437228  0.063267  0.063267  1
  Y  Y3  1  0.849412  0.851519  0.851519  1
  Y  Y4  1  0.692587  0.307963  0.307963  1
  Y  Y5  1  0.064361  0.438320  0.438320  1
  Y  Y6  1  0.308904  0.691762  0.691762  1
  Y  Y7  1  0.308904  0.307572  0.691762  1
  Y  Y8  1  0.849412  0.851519  0.447550  1
  Y  Y9  1  0.692587  0.691486  0.307963  1
  Y  Y10  1  0.447958  0.850681  0.850681  1
  Y  Y11  1  0.064361  0.438320  0.058999  1
  Y  Y12  1  0.849412  0.447550  0.851519  1
  Y  Y13  1  0.437228  0.063267  0.436238  1
  Y  Y14  1  0.308904  0.691762  0.307572  1
  Y  Y15  1  0.692587  0.307963  0.691486  1
  Al  Al16  1  0.078319  0.768152  0.076765  1
  Al  Al17  1  0.078319  0.076765  0.768152  1
  Al  Al18  1  0.764691  0.078437  0.078437  1
  Al  Al19  1  0.078319  0.076765  0.076765  1
  Ni  Ni20  1  0.640309  0.074522  0.642584  1
  Ni  Ni21  1  0.640309  0.642584  0.642584  1
  Ni  Ni22  1  0.640309  0.642584  0.074522  1
  Ru  Ru23  1  0.073988  0.642004  0.642004  1
