# generated using pymatgen
data_Lu12Os2RuPt
_symmetry_space_group_name_H-M   'P 1'
_cell_length_a   7.21139627
_cell_length_b   8.87529900
_cell_length_c   6.25012123
_cell_angle_alpha   90.00000000
_cell_angle_beta   90.13257300
_cell_angle_gamma   90.00000000
_symmetry_Int_Tables_number   1
_chemical_formula_structural   Lu12Os2RuPt
_chemical_formula_sum   'Lu12 Os2 Ru1 Pt1'
_cell_volume   400.02730109
_cell_formula_units_Z   1
loop_
 _symmetry_equiv_pos_site_id
 _symmetry_equiv_pos_as_xyz
  1  'x, y, z'
loop_
 _atom_site_type_symbol
 _atom_site_label
 _atom_site_symmetry_multiplicity
 _atom_site_fract_x
 _atom_site_fract_y
 _atom_site_fract_z
 _atom_site_occupancy
  Lu  Lu0  1  0.671176  0.058101  0.334622  1
  Lu  Lu1  1  0.182472  0.441792  0.172941  1
  Lu  Lu2  1  0.323512  0.560755  0.670710  1
  Lu  Lu3  1  0.823146  0.934702  0.824475  1
  Lu  Lu4  1  0.323512  0.939245  0.670710  1
  Lu  Lu5  1  0.823146  0.565298  0.824475  1
  Lu  Lu6  1  0.671176  0.441899  0.334622  1
  Lu  Lu7  1  0.182472  0.058208  0.172941  1
  Lu  Lu8  1  0.532783  0.250000  0.878084  1
  Lu  Lu9  1  0.036450  0.250000  0.619608  1
  Lu  Lu10  1  0.464387  0.750000  0.119210  1
  Lu  Lu11  1  0.962957  0.750000  0.373983  1
  Os  Os12  1  0.384196  0.250000  0.464312  1
  Os  Os13  1  0.614653  0.750000  0.531959  1
  Ru  Ru14  1  0.115020  0.750000  0.966445  1
  Pt  Pt15  1  0.888939  0.250000  0.040904  1
