# generated using pymatgen
data_Th5Sc5(Si5Ir2)4
_symmetry_space_group_name_H-M   'P 1'
_cell_length_a   12.62028000
_cell_length_b   12.62028000
_cell_length_c   4.25693500
_cell_angle_alpha   90.00000000
_cell_angle_beta   90.00000000
_cell_angle_gamma   90.00000000
_symmetry_Int_Tables_number   1
_chemical_formula_structural   Th5Sc5(Si5Ir2)4
_chemical_formula_sum   'Th5 Sc5 Si20 Ir8'
_cell_volume   678.00828356
_cell_formula_units_Z   1
loop_
 _symmetry_equiv_pos_site_id
 _symmetry_equiv_pos_as_xyz
  1  'x, y, z'
loop_
 _atom_site_type_symbol
 _atom_site_label
 _atom_site_symmetry_multiplicity
 _atom_site_fract_x
 _atom_site_fract_y
 _atom_site_fract_z
 _atom_site_occupancy
  Th  Th0  1  0.000000  0.000000  0.000000  1
  Th  Th1  1  0.883810  0.386733  0.500000  1
  Th  Th2  1  0.116190  0.613267  0.500000  1
  Th  Th3  1  0.386733  0.116190  0.500000  1
  Th  Th4  1  0.613267  0.883810  0.500000  1
  Sc  Sc5  1  0.500000  0.500000  0.000000  1
  Sc  Sc6  1  0.672610  0.176119  0.500000  1
  Sc  Sc7  1  0.327390  0.823881  0.500000  1
  Sc  Sc8  1  0.176119  0.327390  0.500000  1
  Sc  Sc9  1  0.823881  0.672610  0.500000  1
  Si  Si10  1  0.566645  0.068994  0.000000  1
  Si  Si11  1  0.433355  0.931006  0.000000  1
  Si  Si12  1  0.068994  0.433355  0.000000  1
  Si  Si13  1  0.931006  0.566645  0.000000  1
  Si  Si14  1  0.664558  0.696285  0.000000  1
  Si  Si15  1  0.335442  0.303715  0.000000  1
  Si  Si16  1  0.167368  0.800255  0.000000  1
  Si  Si17  1  0.832632  0.199745  0.000000  1
  Si  Si18  1  0.303715  0.664558  0.000000  1
  Si  Si19  1  0.696285  0.335442  0.000000  1
  Si  Si20  1  0.199745  0.167368  0.000000  1
  Si  Si21  1  0.800255  0.832632  0.000000  1
  Si  Si22  1  0.651141  0.508106  0.500000  1
  Si  Si23  1  0.348859  0.491894  0.500000  1
  Si  Si24  1  0.161985  0.991808  0.500000  1
  Si  Si25  1  0.838015  0.008192  0.500000  1
  Si  Si26  1  0.491894  0.651141  0.500000  1
  Si  Si27  1  0.508106  0.348859  0.500000  1
  Si  Si28  1  0.008192  0.161985  0.500000  1
  Si  Si29  1  0.991808  0.838015  0.500000  1
  Ir  Ir30  1  0.741020  0.520736  0.000000  1
  Ir  Ir31  1  0.258980  0.479264  0.000000  1
  Ir  Ir32  1  0.246144  0.978259  0.000000  1
  Ir  Ir33  1  0.753856  0.021741  0.000000  1
  Ir  Ir34  1  0.479264  0.741020  0.000000  1
  Ir  Ir35  1  0.520736  0.258980  0.000000  1
  Ir  Ir36  1  0.021741  0.246144  0.000000  1
  Ir  Ir37  1  0.978259  0.753856  0.000000  1
