# generated using pymatgen
data_Hf6Si2Ge3AsOs6
_symmetry_space_group_name_H-M   'P 1'
_cell_length_a   7.67858615
_cell_length_b   7.67959617
_cell_length_c   7.67817958
_cell_angle_alpha   127.81819188
_cell_angle_beta   121.90253987
_cell_angle_gamma   81.86630232
_symmetry_Int_Tables_number   1
_chemical_formula_structural   Hf6Si2Ge3AsOs6
_chemical_formula_sum   'Hf6 Si2 Ge3 As1 Os6'
_cell_volume   292.17731295
_cell_formula_units_Z   1
loop_
 _symmetry_equiv_pos_site_id
 _symmetry_equiv_pos_as_xyz
  1  'x, y, z'
loop_
 _atom_site_type_symbol
 _atom_site_label
 _atom_site_symmetry_multiplicity
 _atom_site_fract_x
 _atom_site_fract_y
 _atom_site_fract_z
 _atom_site_occupancy
  Hf  Hf0  1  0.554730  0.098419  0.045823  1
  Hf  Hf1  1  0.447503  0.492697  0.547332  1
  Hf  Hf2  1  0.969511  0.492558  0.022844  1
  Hf  Hf3  1  0.031652  0.053214  0.523586  1
  Hf  Hf4  1  0.751594  0.913854  0.661929  1
  Hf  Hf5  1  0.248462  0.910776  0.164045  1
  Si  Si6  1  0.775278  0.533275  0.255519  1
  Si  Si7  1  0.223325  0.479305  0.754635  1
  Ge  Ge8  1  0.339627  0.828484  0.501663  1
  Ge  Ge9  1  0.662791  0.162756  0.491175  1
  Ge  Ge10  1  0.827390  0.828333  0.990618  1
  As  As11  1  0.173952  0.162973  0.003169  1
  Os  Os12  1  0.148663  0.741375  0.645993  1
  Os  Os13  1  0.851012  0.496887  0.590381  1
  Os  Os14  1  0.592813  0.740104  0.090724  1
  Os  Os15  1  0.403966  0.496067  0.144796  1
  Os  Os16  1  0.499542  0.255529  0.755769  1
  Os  Os17  1  0.998186  0.257396  0.253998  1
