# generated using pymatgen
data_Y3Np(WN2)4
_symmetry_space_group_name_H-M   'P 1'
_cell_length_a   3.21389100
_cell_length_b   5.70968168
_cell_length_c   10.64140974
_cell_angle_alpha   89.66537258
_cell_angle_beta   90.00000000
_cell_angle_gamma   90.00000000
_symmetry_Int_Tables_number   1
_chemical_formula_structural   Y3Np(WN2)4
_chemical_formula_sum   'Y3 Np1 W4 N8'
_cell_volume   195.26967316
_cell_formula_units_Z   1
loop_
 _symmetry_equiv_pos_site_id
 _symmetry_equiv_pos_as_xyz
  1  'x, y, z'
loop_
 _atom_site_type_symbol
 _atom_site_label
 _atom_site_symmetry_multiplicity
 _atom_site_fract_x
 _atom_site_fract_y
 _atom_site_fract_z
 _atom_site_occupancy
  Y  Y0  1  0.250000  0.574255  0.643853  1
  Y  Y1  1  0.750000  0.923245  0.149097  1
  Y  Y2  1  0.750000  0.421591  0.353207  1
  Np  Np3  1  0.250000  0.070082  0.857460  1
  W  W4  1  0.250000  0.437066  0.096128  1
  W  W5  1  0.250000  0.933157  0.405213  1
  W  W6  1  0.750000  0.568315  0.900031  1
  W  W7  1  0.750000  0.066672  0.593245  1
  N  N8  1  0.250000  0.166449  0.247450  1
  N  N9  1  0.250000  0.666900  0.252188  1
  N  N10  1  0.750000  0.839848  0.752996  1
  N  N11  1  0.750000  0.327873  0.748416  1
  N  N12  1  0.250000  0.760816  0.993714  1
  N  N13  1  0.250000  0.259239  0.506006  1
  N  N14  1  0.750000  0.245920  0.006417  1
  N  N15  1  0.750000  0.738572  0.494579  1
