# generated using pymatgen
data_K5HfP3
_symmetry_space_group_name_H-M   'P 1'
_cell_length_a   8.28607200
_cell_length_b   8.95226026
_cell_length_c   17.40348679
_cell_angle_alpha   59.67389033
_cell_angle_beta   90.00000000
_cell_angle_gamma   90.00000000
_symmetry_Int_Tables_number   1
_chemical_formula_structural   K5HfP3
_chemical_formula_sum   'K20 Hf4 P12'
_cell_volume   1114.32472687
_cell_formula_units_Z   4
loop_
 _symmetry_equiv_pos_site_id
 _symmetry_equiv_pos_as_xyz
  1  'x, y, z'
loop_
 _atom_site_type_symbol
 _atom_site_label
 _atom_site_symmetry_multiplicity
 _atom_site_fract_x
 _atom_site_fract_y
 _atom_site_fract_z
 _atom_site_occupancy
  K  K0  1  0.165901  0.842016  0.739543  1
  K  K1  1  0.665901  0.157984  0.760457  1
  K  K2  1  0.834099  0.157984  0.260457  1
  K  K3  1  0.334099  0.842016  0.239543  1
  K  K4  1  0.169692  0.162639  0.419263  1
  K  K5  1  0.669692  0.837361  0.080737  1
  K  K6  1  0.830308  0.837361  0.580737  1
  K  K7  1  0.330308  0.162639  0.919263  1
  K  K8  1  0.006204  0.085221  0.091778  1
  K  K9  1  0.506204  0.914779  0.408222  1
  K  K10  1  0.993796  0.914779  0.908222  1
  K  K11  1  0.493796  0.085221  0.591778  1
  K  K12  1  0.520444  0.259115  0.078908  1
  K  K13  1  0.020444  0.740885  0.421092  1
  K  K14  1  0.479556  0.740885  0.921092  1
  K  K15  1  0.979556  0.259115  0.578908  1
  K  K16  1  0.985899  0.550319  0.257866  1
  K  K17  1  0.485899  0.449681  0.242134  1
  K  K18  1  0.014101  0.449681  0.742134  1
  K  K19  1  0.514101  0.550319  0.757866  1
  Hf  Hf20  1  0.367383  0.492331  0.581348  1
  Hf  Hf21  1  0.867383  0.507669  0.918652  1
  Hf  Hf22  1  0.632617  0.507669  0.418652  1
  Hf  Hf23  1  0.132617  0.492331  0.081348  1
  P  P24  1  0.323263  0.487204  0.436333  1
  P  P25  1  0.823263  0.512796  0.063667  1
  P  P26  1  0.676737  0.512796  0.563667  1
  P  P27  1  0.176737  0.487204  0.936333  1
  P  P28  1  0.216738  0.213862  0.218052  1
  P  P29  1  0.716738  0.786138  0.281948  1
  P  P30  1  0.783262  0.786138  0.781948  1
  P  P31  1  0.283262  0.213862  0.718052  1
  P  P32  1  0.253543  0.754750  0.078234  1
  P  P33  1  0.753543  0.245250  0.421766  1
  P  P34  1  0.746457  0.245250  0.921766  1
  P  P35  1  0.246457  0.754750  0.578234  1
