# generated using pymatgen
data_K3CrS4
_symmetry_space_group_name_H-M   'P 1'
_cell_length_a   9.20317427
_cell_length_b   10.58781300
_cell_length_c   9.31310027
_cell_angle_alpha   90.00000000
_cell_angle_beta   89.97241130
_cell_angle_gamma   90.00000000
_symmetry_Int_Tables_number   1
_chemical_formula_structural   K3CrS4
_chemical_formula_sum   'K12 Cr4 S16'
_cell_volume   907.48224432
_cell_formula_units_Z   4
loop_
 _symmetry_equiv_pos_site_id
 _symmetry_equiv_pos_as_xyz
  1  'x, y, z'
loop_
 _atom_site_type_symbol
 _atom_site_label
 _atom_site_symmetry_multiplicity
 _atom_site_fract_x
 _atom_site_fract_y
 _atom_site_fract_z
 _atom_site_occupancy
  K  K0  1  0.140461  0.500000  0.080109  1
  K  K1  1  0.553308  0.205297  0.204303  1
  K  K2  1  0.553308  0.794702  0.204303  1
  K  K3  1  0.053420  0.205396  0.295640  1
  K  K4  1  0.053420  0.794603  0.295640  1
  K  K5  1  0.640534  0.500000  0.419803  1
  K  K6  1  0.359352  0.000000  0.580133  1
  K  K7  1  0.946654  0.294677  0.704230  1
  K  K8  1  0.946654  0.705324  0.704230  1
  K  K9  1  0.446594  0.294669  0.795718  1
  K  K10  1  0.446594  0.705332  0.795718  1
  K  K11  1  0.859537  0.000000  0.919903  1
  Cr  Cr12  1  0.278998  0.000000  0.016608  1
  Cr  Cr13  1  0.779077  0.000000  0.483515  1
  Cr  Cr14  1  0.221082  0.500000  0.516619  1
  Cr  Cr15  1  0.721017  0.500000  0.983395  1
  S  S16  1  0.834733  0.333412  0.044996  1
  S  S17  1  0.834733  0.666587  0.044996  1
  S  S18  1  0.509276  0.500000  0.080274  1
  S  S19  1  0.302480  0.000000  0.245007  1
  S  S20  1  0.802660  0.000000  0.255108  1
  S  S21  1  0.009585  0.500000  0.419933  1
  S  S22  1  0.334856  0.333422  0.455087  1
  S  S23  1  0.334856  0.666577  0.455087  1
  S  S24  1  0.665204  0.166538  0.545050  1
  S  S25  1  0.665204  0.833462  0.545050  1
  S  S26  1  0.990507  0.000000  0.580154  1
  S  S27  1  0.197380  0.500000  0.744913  1
  S  S28  1  0.697501  0.500000  0.754963  1
  S  S29  1  0.490676  0.000000  0.919627  1
  S  S30  1  0.165169  0.166537  0.954948  1
  S  S31  1  0.165169  0.833463  0.954948  1
