# generated using pymatgen
data_SrFe2BPO7
_symmetry_space_group_name_H-M   'P 1'
_cell_length_a   9.14039400
_cell_length_b   6.70254533
_cell_length_c   10.31038671
_cell_angle_alpha   68.19037126
_cell_angle_beta   90.00000000
_cell_angle_gamma   90.00000000
_symmetry_Int_Tables_number   1
_chemical_formula_structural   SrFe2BPO7
_chemical_formula_sum   'Sr4 Fe8 B4 P4 O28'
_cell_volume   586.44286990
_cell_formula_units_Z   4
loop_
 _symmetry_equiv_pos_site_id
 _symmetry_equiv_pos_as_xyz
  1  'x, y, z'
loop_
 _atom_site_type_symbol
 _atom_site_label
 _atom_site_symmetry_multiplicity
 _atom_site_fract_x
 _atom_site_fract_y
 _atom_site_fract_z
 _atom_site_occupancy
  Sr  Sr0  1  0.701891  0.162122  0.481671  1
  Sr  Sr1  1  0.201891  0.837878  0.018329  1
  Sr  Sr2  1  0.298109  0.837878  0.518329  1
  Sr  Sr3  1  0.798109  0.162122  0.981671  1
  Fe  Fe4  1  0.820147  0.705304  0.855639  1
  Fe  Fe5  1  0.320147  0.294696  0.644361  1
  Fe  Fe6  1  0.179853  0.294696  0.144361  1
  Fe  Fe7  1  0.679853  0.705304  0.355639  1
  Fe  Fe8  1  0.056289  0.430529  0.379173  1
  Fe  Fe9  1  0.556289  0.569471  0.120827  1
  Fe  Fe10  1  0.943711  0.569471  0.620827  1
  Fe  Fe11  1  0.443711  0.430529  0.879173  1
  B  B12  1  0.622496  0.533798  0.670445  1
  B  B13  1  0.122496  0.466202  0.829555  1
  B  B14  1  0.377504  0.466202  0.329555  1
  B  B15  1  0.877504  0.533798  0.170445  1
  P  P16  1  0.009154  0.042313  0.690489  1
  P  P17  1  0.509154  0.957687  0.809511  1
  P  P18  1  0.990846  0.957687  0.309511  1
  P  P19  1  0.490846  0.042313  0.190489  1
  O  O20  1  0.953609  0.267875  0.591460  1
  O  O21  1  0.453609  0.732125  0.908540  1
  O  O22  1  0.046391  0.732125  0.408540  1
  O  O23  1  0.546391  0.267875  0.091460  1
  O  O24  1  0.981264  0.992083  0.848695  1
  O  O25  1  0.481264  0.007917  0.651305  1
  O  O26  1  0.018736  0.007917  0.151305  1
  O  O27  1  0.518736  0.992083  0.348695  1
  O  O28  1  0.914071  0.878544  0.650104  1
  O  O29  1  0.414071  0.121456  0.849896  1
  O  O30  1  0.085929  0.121456  0.349896  1
  O  O31  1  0.585929  0.878544  0.150104  1
  O  O32  1  0.666046  0.487697  0.808378  1
  O  O33  1  0.166046  0.512303  0.691622  1
  O  O34  1  0.333954  0.512303  0.191622  1
  O  O35  1  0.833954  0.487697  0.308378  1
  O  O36  1  0.973133  0.467573  0.852676  1
  O  O37  1  0.473133  0.532427  0.647324  1
  O  O38  1  0.026867  0.532427  0.147324  1
  O  O39  1  0.526867  0.467573  0.352676  1
  O  O40  1  0.175065  0.020805  0.669046  1
  O  O41  1  0.675065  0.979195  0.830954  1
  O  O42  1  0.824935  0.979195  0.330954  1
  O  O43  1  0.324935  0.020805  0.169046  1
  O  O44  1  0.774354  0.577345  0.065543  1
  O  O45  1  0.274354  0.422655  0.434457  1
  O  O46  1  0.225646  0.422655  0.934457  1
  O  O47  1  0.725646  0.577345  0.565543  1
