# generated using pymatgen
data_Pr4Nd8Al2I17
_symmetry_space_group_name_H-M   'P 1'
_cell_length_a   10.04177084
_cell_length_b   11.99823524
_cell_length_c   11.80603558
_cell_angle_alpha   94.19323815
_cell_angle_beta   104.63542919
_cell_angle_gamma   115.17381844
_symmetry_Int_Tables_number   1
_chemical_formula_structural   Pr4Nd8Al2I17
_chemical_formula_sum   'Pr4 Nd8 Al2 I17'
_cell_volume   1218.78420065
_cell_formula_units_Z   1
loop_
 _symmetry_equiv_pos_site_id
 _symmetry_equiv_pos_as_xyz
  1  'x, y, z'
loop_
 _atom_site_type_symbol
 _atom_site_label
 _atom_site_symmetry_multiplicity
 _atom_site_fract_x
 _atom_site_fract_y
 _atom_site_fract_z
 _atom_site_occupancy
  Pr  Pr0  1  0.718805  0.996985  0.089855  1
  Pr  Pr1  1  0.163297  0.291017  0.143984  1
  Pr  Pr2  1  0.774831  0.337780  0.991755  1
  Pr  Pr3  1  0.836667  0.709036  0.856335  1
  Nd  Nd4  1  0.065895  0.528507  0.333593  1
  Nd  Nd5  1  0.989129  0.812664  0.573146  1
  Nd  Nd6  1  0.626550  0.238248  0.283771  1
  Nd  Nd7  1  0.011323  0.187114  0.427849  1
  Nd  Nd8  1  0.225284  0.663057  0.007324  1
  Nd  Nd9  1  0.280827  0.001624  0.909387  1
  Nd  Nd10  1  0.373036  0.761114  0.716465  1
  Nd  Nd11  1  0.934472  0.472001  0.667025  1
  Al  Al12  1  0.107310  0.736796  0.788379  1
  Al  Al13  1  0.893047  0.263337  0.212451  1
  I  I14  1  0.778110  0.528296  0.416292  1
  I  I15  1  0.628669  0.414984  0.739392  1
  I  I16  1  0.841730  0.893878  0.321293  1
  I  I17  1  0.321904  0.210986  0.371639  1
  I  I18  1  0.159514  0.105867  0.680734  1
  I  I19  1  0.585323  0.055548  0.829612  1
  I  I20  1  0.740609  0.168590  0.534872  1
  I  I21  1  0.534512  0.686336  0.952964  1
  I  I22  1  0.370037  0.586111  0.258212  1
  I  I23  1  0.221889  0.471640  0.583870  1
  I  I24  1  0.059653  0.364955  0.889220  1
  I  I25  1  0.462446  0.310569  0.046542  1
  I  I26  1  0.001353  0.000396  0.999519  1
  I  I27  1  0.259739  0.831728  0.465656  1
  I  I28  1  0.411201  0.944001  0.168594  1
  I  I29  1  0.678174  0.789027  0.628662  1
  I  I30  1  0.944665  0.637806  0.111607  1
