# generated using pymatgen
data_Nd2Cl5
_symmetry_space_group_name_H-M   'P 1'
_cell_length_a   4.06283300
_cell_length_b   7.43763170
_cell_length_c   12.75086249
_cell_angle_alpha   88.88524309
_cell_angle_beta   90.00000000
_cell_angle_gamma   90.00000000
_symmetry_Int_Tables_number   1
_chemical_formula_structural   Nd2Cl5
_chemical_formula_sum   'Nd4 Cl10'
_cell_volume   385.23079583
_cell_formula_units_Z   2
loop_
 _symmetry_equiv_pos_site_id
 _symmetry_equiv_pos_as_xyz
  1  'x, y, z'
loop_
 _atom_site_type_symbol
 _atom_site_label
 _atom_site_symmetry_multiplicity
 _atom_site_fract_x
 _atom_site_fract_y
 _atom_site_fract_z
 _atom_site_occupancy
  Nd  Nd0  1  0.250000  0.069746  0.162008  1
  Nd  Nd1  1  0.750000  0.930254  0.837992  1
  Nd  Nd2  1  0.750000  0.428233  0.340343  1
  Nd  Nd3  1  0.250000  0.571767  0.659657  1
  Cl  Cl4  1  0.750000  0.047623  0.320430  1
  Cl  Cl5  1  0.750000  0.683804  0.513971  1
  Cl  Cl6  1  0.250000  0.142412  0.931031  1
  Cl  Cl7  1  0.250000  0.661024  0.877243  1
  Cl  Cl8  1  0.250000  0.668941  0.270691  1
  Cl  Cl9  1  0.750000  0.331059  0.729309  1
  Cl  Cl10  1  0.250000  0.952377  0.679570  1
  Cl  Cl11  1  0.250000  0.316196  0.486029  1
  Cl  Cl12  1  0.750000  0.338976  0.122757  1
  Cl  Cl13  1  0.750000  0.857588  0.068969  1
