# generated using pymatgen
data_Ho2Sc3(In2Rh)2
_symmetry_space_group_name_H-M   'P 1'
_cell_length_a   3.50376900
_cell_length_b   7.80148100
_cell_length_c   17.81071800
_cell_angle_alpha   90.00000000
_cell_angle_beta   90.00000000
_cell_angle_gamma   90.00000000
_symmetry_Int_Tables_number   1
_chemical_formula_structural   Ho2Sc3(In2Rh)2
_chemical_formula_sum   'Ho4 Sc6 In8 Rh4'
_cell_volume   486.84862572
_cell_formula_units_Z   2
loop_
 _symmetry_equiv_pos_site_id
 _symmetry_equiv_pos_as_xyz
  1  'x, y, z'
loop_
 _atom_site_type_symbol
 _atom_site_label
 _atom_site_symmetry_multiplicity
 _atom_site_fract_x
 _atom_site_fract_y
 _atom_site_fract_z
 _atom_site_occupancy
  Ho  Ho0  1  0.000000  0.746843  0.780020  1
  Ho  Ho1  1  0.000000  0.253157  0.219980  1
  Ho  Ho2  1  0.000000  0.246843  0.719980  1
  Ho  Ho3  1  0.000000  0.753157  0.280020  1
  Sc  Sc4  1  0.000000  0.000000  0.000000  1
  Sc  Sc5  1  0.000000  0.500000  0.500000  1
  Sc  Sc6  1  0.000000  0.878083  0.586184  1
  Sc  Sc7  1  0.000000  0.121917  0.413816  1
  Sc  Sc8  1  0.000000  0.378083  0.913816  1
  Sc  Sc9  1  0.000000  0.621917  0.086184  1
  In  In10  1  0.500000  0.799042  0.438189  1
  In  In11  1  0.500000  0.200958  0.561811  1
  In  In12  1  0.500000  0.299042  0.061811  1
  In  In13  1  0.500000  0.700958  0.938189  1
  In  In14  1  0.500000  0.928740  0.145671  1
  In  In15  1  0.500000  0.071260  0.854329  1
  In  In16  1  0.500000  0.428740  0.354329  1
  In  In17  1  0.500000  0.571260  0.645671  1
  Rh  Rh18  1  0.500000  0.961906  0.691375  1
  Rh  Rh19  1  0.500000  0.038094  0.308625  1
  Rh  Rh20  1  0.500000  0.461906  0.808625  1
  Rh  Rh21  1  0.500000  0.538094  0.191375  1
