# generated using pymatgen
data_HoEr7(BeB14)2
_symmetry_space_group_name_H-M   'P 1'
_cell_length_a   7.17819216
_cell_length_b   7.17775116
_cell_length_c   7.33978100
_cell_angle_alpha   90.00000000
_cell_angle_beta   90.00000000
_cell_angle_gamma   89.97581403
_symmetry_Int_Tables_number   1
_chemical_formula_structural   HoEr7(BeB14)2
_chemical_formula_sum   'Ho1 Er7 Be2 B28'
_cell_volume   378.16953663
_cell_formula_units_Z   1
loop_
 _symmetry_equiv_pos_site_id
 _symmetry_equiv_pos_as_xyz
  1  'x, y, z'
loop_
 _atom_site_type_symbol
 _atom_site_label
 _atom_site_symmetry_multiplicity
 _atom_site_fract_x
 _atom_site_fract_y
 _atom_site_fract_z
 _atom_site_occupancy
  Ho  Ho0  1  0.170752  0.304984  0.500000  1
  Er  Er1  1  0.195014  0.329312  0.000000  1
  Er  Er2  1  0.670700  0.195011  0.000000  1
  Er  Er3  1  0.329315  0.804982  0.000000  1
  Er  Er4  1  0.694893  0.170663  0.500000  1
  Er  Er5  1  0.305016  0.829228  0.500000  1
  Er  Er6  1  0.804986  0.670712  0.000000  1
  Er  Er7  1  0.829236  0.695033  0.500000  1
  Be  Be8  1  0.000001  0.999996  0.000000  1
  Be  Be9  1  0.500165  0.500091  0.500000  1
  B  B10  1  0.174369  0.038853  0.227266  1
  B  B11  1  0.960911  0.174320  0.227192  1
  B  B12  1  0.038930  0.825543  0.227287  1
  B  B13  1  0.674442  0.461064  0.272616  1
  B  B14  1  0.325703  0.539150  0.272469  1
  B  B15  1  0.825541  0.961013  0.227306  1
  B  B16  1  0.538967  0.674456  0.272629  1
  B  B17  1  0.461253  0.325626  0.272515  1
  B  B18  1  0.825541  0.961013  0.772694  1
  B  B19  1  0.038930  0.825543  0.772713  1
  B  B20  1  0.960911  0.174320  0.772808  1
  B  B21  1  0.325703  0.539150  0.727531  1
  B  B22  1  0.674442  0.461064  0.727384  1
  B  B23  1  0.174369  0.038853  0.772734  1
  B  B24  1  0.461253  0.325626  0.727485  1
  B  B25  1  0.538967  0.674456  0.727371  1
  B  B26  1  0.088110  0.588206  0.249880  1
  B  B27  1  0.411890  0.088125  0.249953  1
  B  B28  1  0.588151  0.911848  0.249973  1
  B  B29  1  0.911750  0.411917  0.249806  1
  B  B30  1  0.911750  0.411917  0.750194  1
  B  B31  1  0.588151  0.911848  0.750027  1
  B  B32  1  0.411890  0.088125  0.750047  1
  B  B33  1  0.088110  0.588206  0.750120  1
  B  B34  1  0.999900  0.999834  0.387924  1
  B  B35  1  0.500044  0.500041  0.111987  1
  B  B36  1  0.999900  0.999834  0.612076  1
  B  B37  1  0.500044  0.500041  0.888013  1
