# generated using pymatgen
data_Ba9GdI20
_symmetry_space_group_name_H-M   'P 1'
_cell_length_a   12.38216300
_cell_length_b   19.80271600
_cell_length_c   19.80271600
_cell_angle_alpha   90.00000000
_cell_angle_beta   90.00000000
_cell_angle_gamma   90.00000000
_symmetry_Int_Tables_number   1
_chemical_formula_structural   Ba9GdI20
_chemical_formula_sum   'Ba9 Gd1 I20'
_cell_volume   4855.63502007
_cell_formula_units_Z   1
loop_
 _symmetry_equiv_pos_site_id
 _symmetry_equiv_pos_as_xyz
  1  'x, y, z'
loop_
 _atom_site_type_symbol
 _atom_site_label
 _atom_site_symmetry_multiplicity
 _atom_site_fract_x
 _atom_site_fract_y
 _atom_site_fract_z
 _atom_site_occupancy
  Ba  Ba0  1  0.751009  0.598612  0.089372  1
  Ba  Ba1  1  0.248921  0.910593  0.098620  1
  Ba  Ba2  1  0.248921  0.589408  0.401380  1
  Ba  Ba3  1  0.751009  0.901389  0.410629  1
  Ba  Ba4  1  0.248921  0.098620  0.589408  1
  Ba  Ba5  1  0.751009  0.410629  0.598612  1
  Ba  Ba6  1  0.135665  0.750000  0.750000  1
  Ba  Ba7  1  0.751009  0.089372  0.901389  1
  Ba  Ba8  1  0.248921  0.401380  0.910593  1
  Gd  Gd9  1  0.864517  0.250000  0.250000  1
  I  I10  1  0.631177  0.340278  0.038032  1
  I  I11  1  0.109811  0.162460  0.041806  1
  I  I12  1  0.631177  0.038032  0.159722  1
  I  I13  1  0.109811  0.458193  0.162460  1
  I  I14  1  0.000014  0.750000  0.250000  1
  I  I15  1  0.499956  0.750000  0.250000  1
  I  I16  1  0.109811  0.041806  0.337540  1
  I  I17  1  0.631177  0.461969  0.340278  1
  I  I18  1  0.109811  0.337540  0.458193  1
  I  I19  1  0.631177  0.159722  0.461969  1
  I  I20  1  0.369426  0.840540  0.537454  1
  I  I21  1  0.889629  0.662224  0.541238  1
  I  I22  1  0.369426  0.537454  0.659460  1
  I  I23  1  0.889629  0.958762  0.662224  1
  I  I24  1  0.000014  0.250000  0.750000  1
  I  I25  1  0.499956  0.250000  0.750000  1
  I  I26  1  0.889629  0.541238  0.837774  1
  I  I27  1  0.369426  0.962545  0.840540  1
  I  I28  1  0.889629  0.837774  0.958762  1
  I  I29  1  0.369426  0.659460  0.962545  1
