# generated using pymatgen
data_Tb12Ho7Er(CoBi2)4
_symmetry_space_group_name_H-M   'P 1'
_cell_length_a   8.01844730
_cell_length_b   8.90392218
_cell_length_c   12.46097445
_cell_angle_alpha   89.98385663
_cell_angle_beta   90.02642143
_cell_angle_gamma   89.98313333
_symmetry_Int_Tables_number   1
_chemical_formula_structural   Tb12Ho7Er(CoBi2)4
_chemical_formula_sum   'Tb12 Ho7 Er1 Co4 Bi8'
_cell_volume   889.65896314
_cell_formula_units_Z   1
loop_
 _symmetry_equiv_pos_site_id
 _symmetry_equiv_pos_as_xyz
  1  'x, y, z'
loop_
 _atom_site_type_symbol
 _atom_site_label
 _atom_site_symmetry_multiplicity
 _atom_site_fract_x
 _atom_site_fract_y
 _atom_site_fract_z
 _atom_site_occupancy
  Tb  Tb0  1  0.848940  0.750048  0.801671  1
  Tb  Tb1  1  0.150994  0.249982  0.198239  1
  Tb  Tb2  1  0.349240  0.249889  0.698197  1
  Tb  Tb3  1  0.650946  0.750061  0.301947  1
  Tb  Tb4  1  0.380058  0.750117  0.689013  1
  Tb  Tb5  1  0.620344  0.249798  0.310996  1
  Tb  Tb6  1  0.879755  0.250016  0.810795  1
  Tb  Tb7  1  0.120297  0.750014  0.189225  1
  Tb  Tb8  1  0.953062  0.750152  0.502526  1
  Tb  Tb9  1  0.046467  0.249876  0.497495  1
  Tb  Tb10  1  0.453344  0.249988  0.997501  1
  Tb  Tb11  1  0.546570  0.749988  0.002493  1
  Ho  Ho12  1  0.324884  0.965941  0.437268  1
  Ho  Ho13  1  0.175562  0.965929  0.937115  1
  Ho  Ho14  1  0.324542  0.534076  0.437178  1
  Ho  Ho15  1  0.824496  0.034165  0.062892  1
  Ho  Ho16  1  0.675475  0.465881  0.562862  1
  Ho  Ho17  1  0.824496  0.465826  0.062878  1
  Ho  Ho18  1  0.175599  0.534073  0.937095  1
  Er  Er19  1  0.674128  0.034061  0.562671  1
  Co  Co20  1  0.558755  0.750340  0.507700  1
  Co  Co21  1  0.442072  0.249646  0.492489  1
  Co  Co22  1  0.058445  0.250000  0.992321  1
  Co  Co23  1  0.941567  0.750002  0.007663  1
  Bi  Bi24  1  0.570171  0.492388  0.825700  1
  Bi  Bi25  1  0.429857  0.507632  0.174337  1
  Bi  Bi26  1  0.070167  0.507635  0.674282  1
  Bi  Bi27  1  0.429851  0.992392  0.174304  1
  Bi  Bi28  1  0.929890  0.492377  0.325700  1
  Bi  Bi29  1  0.570248  0.007628  0.825559  1
  Bi  Bi30  1  0.929975  0.007637  0.325716  1
  Bi  Bi31  1  0.069806  0.992443  0.674172  1
