# generated using pymatgen
data_Y6Er14CdIn5Ru2
_symmetry_space_group_name_H-M   'P 1'
_cell_length_a   9.70206812
_cell_length_b   9.76753523
_cell_length_c   9.62560100
_cell_angle_alpha   90.00000000
_cell_angle_beta   90.00000000
_cell_angle_gamma   120.22347024
_symmetry_Int_Tables_number   1
_chemical_formula_structural   Y6Er14CdIn5Ru2
_chemical_formula_sum   'Y6 Er14 Cd1 In5 Ru2'
_cell_volume   788.18002141
_cell_formula_units_Z   1
loop_
 _symmetry_equiv_pos_site_id
 _symmetry_equiv_pos_as_xyz
  1  'x, y, z'
loop_
 _atom_site_type_symbol
 _atom_site_label
 _atom_site_symmetry_multiplicity
 _atom_site_fract_x
 _atom_site_fract_y
 _atom_site_fract_z
 _atom_site_occupancy
  Y  Y0  1  0.540569  0.460603  0.250000  1
  Y  Y1  1  0.540569  0.079967  0.250000  1
  Y  Y2  1  0.923686  0.461843  0.250000  1
  Y  Y3  1  0.462300  0.541691  0.750000  1
  Y  Y4  1  0.462300  0.920608  0.750000  1
  Y  Y5  1  0.080791  0.540395  0.750000  1
  Er  Er6  1  0.996201  0.998101  0.502200  1
  Er  Er7  1  0.996201  0.998101  0.997800  1
  Er  Er8  1  0.210940  0.789957  0.439720  1
  Er  Er9  1  0.210940  0.420983  0.439720  1
  Er  Er10  1  0.578555  0.789278  0.437310  1
  Er  Er11  1  0.789777  0.211610  0.560392  1
  Er  Er12  1  0.789777  0.578166  0.560392  1
  Er  Er13  1  0.420420  0.210210  0.562243  1
  Er  Er14  1  0.789777  0.211610  0.939608  1
  Er  Er15  1  0.789777  0.578166  0.939608  1
  Er  Er16  1  0.420420  0.210210  0.937757  1
  Er  Er17  1  0.210940  0.789957  0.060280  1
  Er  Er18  1  0.210940  0.420983  0.060280  1
  Er  Er19  1  0.578555  0.789278  0.062690  1
  Cd  Cd20  1  0.767722  0.883861  0.750000  1
  In  In21  1  0.885116  0.117841  0.250000  1
  In  In22  1  0.885116  0.767275  0.250000  1
  In  In23  1  0.230237  0.115119  0.250000  1
  In  In24  1  0.114945  0.881808  0.750000  1
  In  In25  1  0.114945  0.233136  0.750000  1
  Ru  Ru26  1  0.330817  0.665409  0.250000  1
  Ru  Ru27  1  0.667668  0.333834  0.750000  1
