# generated using pymatgen
data_HfCo3P2
_symmetry_space_group_name_H-M   'P 1'
_cell_length_a   3.60338900
_cell_length_b   10.26965500
_cell_length_c   11.88076500
_cell_angle_alpha   90.00000000
_cell_angle_beta   90.00000000
_cell_angle_gamma   90.00000000
_symmetry_Int_Tables_number   1
_chemical_formula_structural   HfCo3P2
_chemical_formula_sum   'Hf6 Co18 P12'
_cell_volume   439.65438416
_cell_formula_units_Z   6
loop_
 _symmetry_equiv_pos_site_id
 _symmetry_equiv_pos_as_xyz
  1  'x, y, z'
loop_
 _atom_site_type_symbol
 _atom_site_label
 _atom_site_symmetry_multiplicity
 _atom_site_fract_x
 _atom_site_fract_y
 _atom_site_fract_z
 _atom_site_occupancy
  Hf  Hf0  1  0.750000  0.250000  0.471829  1
  Hf  Hf1  1  0.250000  0.750000  0.528171  1
  Hf  Hf2  1  0.250000  0.928829  0.792115  1
  Hf  Hf3  1  0.250000  0.571171  0.792115  1
  Hf  Hf4  1  0.750000  0.071171  0.207885  1
  Hf  Hf5  1  0.750000  0.428829  0.207885  1
  Co  Co6  1  0.250000  0.250000  0.834704  1
  Co  Co7  1  0.750000  0.750000  0.165296  1
  Co  Co8  1  0.250000  0.250000  0.296098  1
  Co  Co9  1  0.750000  0.750000  0.703902  1
  Co  Co10  1  0.750000  0.250000  0.012230  1
  Co  Co11  1  0.250000  0.750000  0.987770  1
  Co  Co12  1  0.250000  0.417397  0.005504  1
  Co  Co13  1  0.250000  0.082603  0.005504  1
  Co  Co14  1  0.750000  0.582603  0.994496  1
  Co  Co15  1  0.750000  0.917397  0.994496  1
  Co  Co16  1  0.250000  0.449870  0.567019  1
  Co  Co17  1  0.250000  0.050130  0.567019  1
  Co  Co18  1  0.750000  0.550130  0.432981  1
  Co  Co19  1  0.750000  0.949870  0.432981  1
  Co  Co20  1  0.250000  0.874603  0.293316  1
  Co  Co21  1  0.250000  0.625397  0.293316  1
  Co  Co22  1  0.750000  0.125397  0.706684  1
  Co  Co23  1  0.750000  0.374603  0.706684  1
  P  P24  1  0.250000  0.250000  0.119942  1
  P  P25  1  0.750000  0.750000  0.880058  1
  P  P26  1  0.250000  0.250000  0.646505  1
  P  P27  1  0.750000  0.750000  0.353495  1
  P  P28  1  0.250000  0.432372  0.382271  1
  P  P29  1  0.250000  0.067628  0.382271  1
  P  P30  1  0.750000  0.567628  0.617729  1
  P  P31  1  0.750000  0.932372  0.617729  1
  P  P32  1  0.250000  0.905847  0.111745  1
  P  P33  1  0.250000  0.594153  0.111745  1
  P  P34  1  0.750000  0.094153  0.888255  1
  P  P35  1  0.750000  0.405847  0.888255  1
