# generated using pymatgen
data_Be4TcRu
_symmetry_space_group_name_H-M   'P 1'
_cell_length_a   4.35235200
_cell_length_b   4.35235166
_cell_length_c   7.10265500
_cell_angle_alpha   90.00000000
_cell_angle_beta   90.00000000
_cell_angle_gamma   120.00000262
_symmetry_Int_Tables_number   1
_chemical_formula_structural   Be4TcRu
_chemical_formula_sum   'Be8 Tc2 Ru2'
_cell_volume   116.51969252
_cell_formula_units_Z   2
loop_
 _symmetry_equiv_pos_site_id
 _symmetry_equiv_pos_as_xyz
  1  'x, y, z'
loop_
 _atom_site_type_symbol
 _atom_site_label
 _atom_site_symmetry_multiplicity
 _atom_site_fract_x
 _atom_site_fract_y
 _atom_site_fract_z
 _atom_site_occupancy
  Be  Be0  1  0.000000  0.000000  0.500000  1
  Be  Be1  1  0.000000  0.000000  0.000000  1
  Be  Be2  1  0.831143  0.168857  0.245319  1
  Be  Be3  1  0.831143  0.662285  0.245319  1
  Be  Be4  1  0.337715  0.168857  0.245319  1
  Be  Be5  1  0.168857  0.831143  0.754681  1
  Be  Be6  1  0.168857  0.337715  0.754681  1
  Be  Be7  1  0.662285  0.831143  0.754681  1
  Tc  Tc8  1  0.333333  0.666667  0.442780  1
  Tc  Tc9  1  0.666667  0.333333  0.557220  1
  Ru  Ru10  1  0.666667  0.333333  0.933321  1
  Ru  Ru11  1  0.333333  0.666667  0.066679  1
