# generated using pymatgen
data_Tb19Ce(Sn3Bi)4
_symmetry_space_group_name_H-M   'P 1'
_cell_length_a   8.18266041
_cell_length_b   8.25969086
_cell_length_c   15.57794700
_cell_angle_alpha   90.02649162
_cell_angle_beta   89.77444088
_cell_angle_gamma   89.92047742
_symmetry_Int_Tables_number   1
_chemical_formula_structural   Tb19Ce(Sn3Bi)4
_chemical_formula_sum   'Tb19 Ce1 Sn12 Bi4'
_cell_volume   1052.84566048
_cell_formula_units_Z   1
loop_
 _symmetry_equiv_pos_site_id
 _symmetry_equiv_pos_as_xyz
  1  'x, y, z'
loop_
 _atom_site_type_symbol
 _atom_site_label
 _atom_site_symmetry_multiplicity
 _atom_site_fract_x
 _atom_site_fract_y
 _atom_site_fract_z
 _atom_site_occupancy
  Tb  Tb0  1  0.383749  0.838686  0.877048  1
  Tb  Tb1  1  0.884722  0.662308  0.622735  1
  Tb  Tb2  1  0.614844  0.161501  0.376847  1
  Tb  Tb3  1  0.116478  0.337272  0.122713  1
  Tb  Tb4  1  0.624953  0.161654  0.121297  1
  Tb  Tb5  1  0.123565  0.336860  0.378260  1
  Tb  Tb6  1  0.374816  0.837415  0.621092  1
  Tb  Tb7  1  0.874336  0.663056  0.878504  1
  Tb  Tb8  1  0.546714  0.327060  0.893638  1
  Tb  Tb9  1  0.047274  0.174640  0.606759  1
  Tb  Tb10  1  0.451242  0.673553  0.393077  1
  Tb  Tb11  1  0.954353  0.824045  0.105362  1
  Tb  Tb12  1  0.472637  0.673862  0.103569  1
  Tb  Tb13  1  0.968785  0.825430  0.394650  1
  Tb  Tb14  1  0.530658  0.326300  0.604774  1
  Tb  Tb15  1  0.209077  0.500383  0.746978  1
  Tb  Tb16  1  0.709500  0.000557  0.752346  1
  Tb  Tb17  1  0.790082  0.499315  0.246500  1
  Tb  Tb18  1  0.290082  0.999728  0.253039  1
  Ce  Ce19  1  0.029198  0.178740  0.901394  1
  Sn  Sn20  1  0.719776  0.969446  0.956711  1
  Sn  Sn21  1  0.219690  0.529656  0.542983  1
  Sn  Sn22  1  0.279396  0.029406  0.456781  1
  Sn  Sn23  1  0.781917  0.466852  0.041862  1
  Sn  Sn24  1  0.576056  0.623568  0.748036  1
  Sn  Sn25  1  0.075639  0.877911  0.752764  1
  Sn  Sn26  1  0.423589  0.376572  0.247690  1
  Sn  Sn27  1  0.923233  0.122597  0.251424  1
  Sn  Sn28  1  0.342886  0.144701  0.751909  1
  Sn  Sn29  1  0.843970  0.355647  0.749409  1
  Sn  Sn30  1  0.656628  0.854826  0.250675  1
  Sn  Sn31  1  0.156264  0.644183  0.247843  1
  Bi  Bi32  1  0.280541  0.024698  0.044541  1
  Bi  Bi33  1  0.775540  0.473883  0.456385  1
  Bi  Bi34  1  0.723612  0.974403  0.543365  1
  Bi  Bi35  1  0.224196  0.529292  0.957041  1
