# generated using pymatgen
data_Y8Ho11ErSn16
_symmetry_space_group_name_H-M   'P 1'
_cell_length_a   8.02024100
_cell_length_b   8.15975707
_cell_length_c   15.42883400
_cell_angle_alpha   90.00000000
_cell_angle_beta   90.00000000
_cell_angle_gamma   90.00731666
_symmetry_Int_Tables_number   1
_chemical_formula_structural   Y8Ho11ErSn16
_chemical_formula_sum   'Y8 Ho11 Er1 Sn16'
_cell_volume   1009.71254142
_cell_formula_units_Z   1
loop_
 _symmetry_equiv_pos_site_id
 _symmetry_equiv_pos_as_xyz
  1  'x, y, z'
loop_
 _atom_site_type_symbol
 _atom_site_label
 _atom_site_symmetry_multiplicity
 _atom_site_fract_x
 _atom_site_fract_y
 _atom_site_fract_z
 _atom_site_occupancy
  Y  Y0  1  0.521598  0.320021  0.902451  1
  Y  Y1  1  0.021426  0.180024  0.597557  1
  Y  Y2  1  0.478413  0.680016  0.402438  1
  Y  Y3  1  0.978564  0.819920  0.097575  1
  Y  Y4  1  0.478413  0.680016  0.097562  1
  Y  Y5  1  0.978564  0.819920  0.402425  1
  Y  Y6  1  0.521598  0.320021  0.597549  1
  Y  Y7  1  0.021426  0.180024  0.902443  1
  Ho  Ho8  1  0.367564  0.836505  0.877635  1
  Ho  Ho9  1  0.867533  0.663457  0.622429  1
  Ho  Ho10  1  0.632381  0.163385  0.377764  1
  Ho  Ho11  1  0.132510  0.336567  0.122259  1
  Ho  Ho12  1  0.632381  0.163385  0.122236  1
  Ho  Ho13  1  0.132510  0.336567  0.377741  1
  Ho  Ho14  1  0.367564  0.836505  0.622365  1
  Ho  Ho15  1  0.867533  0.663457  0.877571  1
  Ho  Ho16  1  0.198404  0.503321  0.750000  1
  Ho  Ho17  1  0.698435  0.996640  0.750000  1
  Ho  Ho18  1  0.801476  0.496674  0.250000  1
  Er  Er19  1  0.301488  0.003466  0.250000  1
  Sn  Sn20  1  0.293366  0.036572  0.041755  1
  Sn  Sn21  1  0.793371  0.463412  0.458392  1
  Sn  Sn22  1  0.706598  0.963335  0.541864  1
  Sn  Sn23  1  0.206561  0.536552  0.958147  1
  Sn  Sn24  1  0.706598  0.963335  0.958136  1
  Sn  Sn25  1  0.206561  0.536552  0.541853  1
  Sn  Sn26  1  0.293366  0.036572  0.458245  1
  Sn  Sn27  1  0.793371  0.463412  0.041608  1
  Sn  Sn28  1  0.565066  0.619221  0.750000  1
  Sn  Sn29  1  0.065329  0.880690  0.750000  1
  Sn  Sn30  1  0.434708  0.380739  0.250000  1
  Sn  Sn31  1  0.935136  0.119040  0.250000  1
  Sn  Sn32  1  0.330355  0.147531  0.750000  1
  Sn  Sn33  1  0.830354  0.352398  0.750000  1
  Sn  Sn34  1  0.669526  0.852603  0.250000  1
  Sn  Sn35  1  0.169959  0.648142  0.250000  1
