# generated using pymatgen
data_Ba4Tb3Dy5Te16
_symmetry_space_group_name_H-M   'P 1'
_cell_length_a   4.49609800
_cell_length_b   13.85660401
_cell_length_c   16.32514501
_cell_angle_alpha   90.00438793
_cell_angle_beta   90.00000000
_cell_angle_gamma   90.00000000
_symmetry_Int_Tables_number   1
_chemical_formula_structural   Ba4Tb3Dy5Te16
_chemical_formula_sum   'Ba4 Tb3 Dy5 Te16'
_cell_volume   1017.06713570
_cell_formula_units_Z   1
loop_
 _symmetry_equiv_pos_site_id
 _symmetry_equiv_pos_as_xyz
  1  'x, y, z'
loop_
 _atom_site_type_symbol
 _atom_site_label
 _atom_site_symmetry_multiplicity
 _atom_site_fract_x
 _atom_site_fract_y
 _atom_site_fract_z
 _atom_site_occupancy
  Ba  Ba0  1  0.750000  0.260621  0.830683  1
  Ba  Ba1  1  0.250000  0.739313  0.169278  1
  Ba  Ba2  1  0.750000  0.760790  0.669400  1
  Ba  Ba3  1  0.250000  0.239305  0.330664  1
  Tb  Tb4  1  0.250000  0.059806  0.109213  1
  Tb  Tb5  1  0.750000  0.440173  0.609245  1
  Tb  Tb6  1  0.250000  0.559829  0.390741  1
  Dy  Dy7  1  0.250000  0.080237  0.596342  1
  Dy  Dy8  1  0.750000  0.919692  0.403753  1
  Dy  Dy9  1  0.250000  0.580358  0.903766  1
  Dy  Dy10  1  0.750000  0.419712  0.096239  1
  Dy  Dy11  1  0.750000  0.940369  0.890683  1
  Te  Te12  1  0.250000  0.472702  0.215544  1
  Te  Te13  1  0.750000  0.527316  0.784455  1
  Te  Te14  1  0.250000  0.972698  0.284432  1
  Te  Te15  1  0.750000  0.027100  0.715871  1
  Te  Te16  1  0.250000  0.372664  0.971884  1
  Te  Te17  1  0.750000  0.627312  0.028103  1
  Te  Te18  1  0.250000  0.872670  0.528093  1
  Te  Te19  1  0.750000  0.127309  0.471930  1
  Te  Te20  1  0.250000  0.294352  0.662061  1
  Te  Te21  1  0.750000  0.705647  0.337931  1
  Te  Te22  1  0.250000  0.794946  0.838267  1
  Te  Te23  1  0.750000  0.205654  0.162070  1
  Te  Te24  1  0.750000  0.409948  0.423059  1
  Te  Te25  1  0.250000  0.590049  0.576936  1
  Te  Te26  1  0.750000  0.909982  0.076428  1
  Te  Te27  1  0.250000  0.089445  0.922928  1
