# generated using pymatgen
data_Sm4Tc3B16Os
_symmetry_space_group_name_H-M   'P 1'
_cell_length_a   6.03832800
_cell_length_b   11.67312044
_cell_length_c   3.63577400
_cell_angle_alpha   90.00000000
_cell_angle_beta   90.00000000
_cell_angle_gamma   90.12510834
_symmetry_Int_Tables_number   1
_chemical_formula_structural   Sm4Tc3B16Os
_chemical_formula_sum   'Sm4 Tc3 B16 Os1'
_cell_volume   256.27102793
_cell_formula_units_Z   1
loop_
 _symmetry_equiv_pos_site_id
 _symmetry_equiv_pos_as_xyz
  1  'x, y, z'
loop_
 _atom_site_type_symbol
 _atom_site_label
 _atom_site_symmetry_multiplicity
 _atom_site_fract_x
 _atom_site_fract_y
 _atom_site_fract_z
 _atom_site_occupancy
  Sm  Sm0  1  0.627742  0.350312  0.000000  1
  Sm  Sm1  1  0.373004  0.648954  0.000000  1
  Sm  Sm2  1  0.126306  0.151526  0.000000  1
  Sm  Sm3  1  0.873879  0.848949  0.000000  1
  Tc  Tc4  1  0.630432  0.085712  0.000000  1
  Tc  Tc5  1  0.368950  0.913316  0.000000  1
  Tc  Tc6  1  0.138368  0.410220  0.000000  1
  B  B7  1  0.784655  0.183921  0.500000  1
  B  B8  1  0.214060  0.815910  0.500000  1
  B  B9  1  0.285762  0.315462  0.500000  1
  B  B10  1  0.713845  0.684163  0.500000  1
  B  B11  1  0.861583  0.031965  0.500000  1
  B  B12  1  0.137779  0.968061  0.500000  1
  B  B13  1  0.361697  0.469256  0.500000  1
  B  B14  1  0.639118  0.531266  0.500000  1
  B  B15  1  0.887740  0.454321  0.500000  1
  B  B16  1  0.111985  0.546399  0.500000  1
  B  B17  1  0.387715  0.046058  0.500000  1
  B  B18  1  0.611821  0.953351  0.500000  1
  B  B19  1  0.975463  0.309718  0.500000  1
  B  B20  1  0.024761  0.690448  0.500000  1
  B  B21  1  0.477898  0.190755  0.500000  1
  B  B22  1  0.522981  0.808994  0.500000  1
  Os  Os23  1  0.862455  0.590967  0.000000  1
