# generated using pymatgen
data_Pr4ErSi2Au
_symmetry_space_group_name_H-M   'P 1'
_cell_length_a   7.65655041
_cell_length_b   7.65654976
_cell_length_c   9.41892300
_cell_angle_alpha   113.98172338
_cell_angle_beta   113.98172122
_cell_angle_gamma   90.00000687
_symmetry_Int_Tables_number   1
_chemical_formula_structural   Pr4ErSi2Au
_chemical_formula_sum   'Pr8 Er2 Si4 Au2'
_cell_volume   451.83170852
_cell_formula_units_Z   2
loop_
 _symmetry_equiv_pos_site_id
 _symmetry_equiv_pos_as_xyz
  1  'x, y, z'
loop_
 _atom_site_type_symbol
 _atom_site_label
 _atom_site_symmetry_multiplicity
 _atom_site_fract_x
 _atom_site_fract_y
 _atom_site_fract_z
 _atom_site_occupancy
  Pr  Pr0  1  0.964127  0.815302  0.279429  1
  Pr  Pr1  1  0.315302  0.464127  0.279429  1
  Pr  Pr2  1  0.815302  0.315302  0.279429  1
  Pr  Pr3  1  0.464127  0.964127  0.279429  1
  Pr  Pr4  1  0.035873  0.184698  0.720571  1
  Pr  Pr5  1  0.684698  0.535873  0.720571  1
  Pr  Pr6  1  0.184698  0.684698  0.720571  1
  Pr  Pr7  1  0.535873  0.035873  0.720571  1
  Er  Er8  1  0.500000  0.500000  0.000000  1
  Er  Er9  1  0.000000  0.000000  0.000000  1
  Si  Si10  1  0.618808  0.881192  0.000000  1
  Si  Si11  1  0.381192  0.118808  0.000000  1
  Si  Si12  1  0.881192  0.381192  0.000000  1
  Si  Si13  1  0.118808  0.618808  0.000000  1
  Au  Au14  1  0.750000  0.750000  0.500000  1
  Au  Au15  1  0.250000  0.250000  0.500000  1
