# generated using pymatgen
data_Dy3Lu5Sc11Si16Ru
_symmetry_space_group_name_H-M   'P 1'
_cell_length_a   6.96797508
_cell_length_b   7.33772687
_cell_length_c   13.81939829
_cell_angle_alpha   90.04655722
_cell_angle_beta   89.93621342
_cell_angle_gamma   90.07275001
_symmetry_Int_Tables_number   1
_chemical_formula_structural   Dy3Lu5Sc11Si16Ru
_chemical_formula_sum   'Dy3 Lu5 Sc11 Si16 Ru1'
_cell_volume   706.57212900
_cell_formula_units_Z   1
loop_
 _symmetry_equiv_pos_site_id
 _symmetry_equiv_pos_as_xyz
  1  'x, y, z'
loop_
 _atom_site_type_symbol
 _atom_site_label
 _atom_site_symmetry_multiplicity
 _atom_site_fract_x
 _atom_site_fract_y
 _atom_site_fract_z
 _atom_site_occupancy
  Dy  Dy0  1  0.012807  0.178851  0.407311  1
  Dy  Dy1  1  0.512326  0.323304  0.405656  1
  Dy  Dy2  1  0.489404  0.674048  0.597404  1
  Lu  Lu3  1  0.013320  0.180075  0.091783  1
  Lu  Lu4  1  0.990719  0.816857  0.902690  1
  Lu  Lu5  1  0.488588  0.674401  0.903586  1
  Lu  Lu6  1  0.991457  0.816420  0.600016  1
  Lu  Lu7  1  0.512574  0.321612  0.093470  1
  Sc  Sc8  1  0.842867  0.495352  0.248637  1
  Sc  Sc9  1  0.344052  0.004445  0.248677  1
  Sc  Sc10  1  0.653935  0.994294  0.750821  1
  Sc  Sc11  1  0.322400  0.175170  0.628431  1
  Sc  Sc12  1  0.674012  0.825759  0.373195  1
  Sc  Sc13  1  0.174046  0.673956  0.375856  1
  Sc  Sc14  1  0.673714  0.824930  0.124539  1
  Sc  Sc15  1  0.825709  0.330853  0.630385  1
  Sc  Sc16  1  0.323116  0.175799  0.873130  1
  Sc  Sc17  1  0.824545  0.329706  0.871779  1
  Sc  Sc18  1  0.174239  0.672881  0.121799  1
  Si  Si19  1  0.024778  0.106649  0.751418  1
  Si  Si20  1  0.975666  0.887801  0.248338  1
  Si  Si21  1  0.470967  0.613567  0.248504  1
  Si  Si22  1  0.512400  0.397906  0.751424  1
  Si  Si23  1  0.280974  0.857396  0.751668  1
  Si  Si24  1  0.719133  0.132006  0.247486  1
  Si  Si25  1  0.216475  0.369395  0.247615  1
  Si  Si26  1  0.794055  0.632452  0.751823  1
  Si  Si27  1  0.155710  0.467072  0.548227  1
  Si  Si28  1  0.844556  0.538447  0.464765  1
  Si  Si29  1  0.346104  0.964572  0.463312  1
  Si  Si30  1  0.841710  0.534623  0.035999  1
  Si  Si31  1  0.660890  0.034442  0.540350  1
  Si  Si32  1  0.157388  0.467768  0.950798  1
  Si  Si33  1  0.659428  0.033641  0.959771  1
  Si  Si34  1  0.344125  0.965792  0.037001  1
  Ru  Ru35  1  0.151812  0.507761  0.752338  1
