# generated using pymatgen
data_Hf4Co5Si2Ni
_symmetry_space_group_name_H-M   'P 1'
_cell_length_a   4.98077201
_cell_length_b   5.00193717
_cell_length_c   7.63743500
_cell_angle_alpha   90.00000000
_cell_angle_beta   90.00000000
_cell_angle_gamma   120.14065587
_symmetry_Int_Tables_number   1
_chemical_formula_structural   Hf4Co5Si2Ni
_chemical_formula_sum   'Hf4 Co5 Si2 Ni1'
_cell_volume   164.54919572
_cell_formula_units_Z   1
loop_
 _symmetry_equiv_pos_site_id
 _symmetry_equiv_pos_as_xyz
  1  'x, y, z'
loop_
 _atom_site_type_symbol
 _atom_site_label
 _atom_site_symmetry_multiplicity
 _atom_site_fract_x
 _atom_site_fract_y
 _atom_site_fract_z
 _atom_site_occupancy
  Hf  Hf0  1  0.329329  0.664665  0.439547  1
  Hf  Hf1  1  0.665605  0.332802  0.556552  1
  Hf  Hf2  1  0.665605  0.332802  0.943448  1
  Hf  Hf3  1  0.329329  0.664665  0.060453  1
  Co  Co4  1  0.832868  0.168836  0.250000  1
  Co  Co5  1  0.832868  0.664033  0.250000  1
  Co  Co6  1  0.338303  0.169151  0.250000  1
  Co  Co7  1  0.168803  0.831849  0.750000  1
  Co  Co8  1  0.168803  0.336954  0.750000  1
  Si  Si9  1  0.002257  0.001129  0.498570  1
  Si  Si10  1  0.002257  0.001129  0.001430  1
  Ni  Ni11  1  0.663972  0.831986  0.750000  1
