# generated using pymatgen
data_Yb2Eu6HoPt6
_symmetry_space_group_name_H-M   'P 1'
_cell_length_a   7.75490142
_cell_length_b   7.75490194
_cell_length_c   7.75490258
_cell_angle_alpha   69.31482131
_cell_angle_beta   69.31483152
_cell_angle_gamma   69.31482844
_symmetry_Int_Tables_number   1
_chemical_formula_structural   Yb2Eu6HoPt6
_chemical_formula_sum   'Yb2 Eu6 Ho1 Pt6'
_cell_volume   394.02675527
_cell_formula_units_Z   1
loop_
 _symmetry_equiv_pos_site_id
 _symmetry_equiv_pos_as_xyz
  1  'x, y, z'
loop_
 _atom_site_type_symbol
 _atom_site_label
 _atom_site_symmetry_multiplicity
 _atom_site_fract_x
 _atom_site_fract_y
 _atom_site_fract_z
 _atom_site_occupancy
  Yb  Yb0  1  0.001573  0.001573  0.001573  1
  Yb  Yb1  1  0.194123  0.194123  0.194123  1
  Eu  Eu2  1  0.333808  0.601101  0.848057  1
  Eu  Eu3  1  0.848057  0.333808  0.601101  1
  Eu  Eu4  1  0.601101  0.848057  0.333808  1
  Eu  Eu5  1  0.666516  0.396840  0.152973  1
  Eu  Eu6  1  0.152973  0.666516  0.396840  1
  Eu  Eu7  1  0.396840  0.152973  0.666516  1
  Ho  Ho8  1  0.808158  0.808158  0.808158  1
  Pt  Pt9  1  0.154610  0.955352  0.593416  1
  Pt  Pt10  1  0.593416  0.154610  0.955352  1
  Pt  Pt11  1  0.955352  0.593416  0.154610  1
  Pt  Pt12  1  0.836873  0.037874  0.418726  1
  Pt  Pt13  1  0.418726  0.836873  0.037874  1
  Pt  Pt14  1  0.037874  0.418726  0.836873  1
