# generated using pymatgen
data_Hf18FeCuMo7W
_symmetry_space_group_name_H-M   'P 1'
_cell_length_a   8.47365900
_cell_length_b   8.68716741
_cell_length_c   8.68716500
_cell_angle_alpha   119.99919090
_cell_angle_beta   89.99994131
_cell_angle_gamma   90.00005385
_symmetry_Int_Tables_number   1
_chemical_formula_structural   Hf18FeCuMo7W
_chemical_formula_sum   'Hf18 Fe1 Cu1 Mo7 W1'
_cell_volume   553.81079471
_cell_formula_units_Z   1
loop_
 _symmetry_equiv_pos_site_id
 _symmetry_equiv_pos_as_xyz
  1  'x, y, z'
loop_
 _atom_site_type_symbol
 _atom_site_label
 _atom_site_symmetry_multiplicity
 _atom_site_fract_x
 _atom_site_fract_y
 _atom_site_fract_z
 _atom_site_occupancy
  Hf  Hf0  1  0.554187  0.802767  0.605533  1
  Hf  Hf1  1  0.554194  0.802762  0.197238  1
  Hf  Hf2  1  0.554187  0.394467  0.197233  1
  Hf  Hf3  1  0.441306  0.202531  0.405061  1
  Hf  Hf4  1  0.441293  0.202533  0.797467  1
  Hf  Hf5  1  0.441306  0.594939  0.797469  1
  Hf  Hf6  1  0.059448  0.202513  0.405022  1
  Hf  Hf7  1  0.059461  0.202515  0.797485  1
  Hf  Hf8  1  0.059448  0.594978  0.797487  1
  Hf  Hf9  1  0.945282  0.802698  0.605394  1
  Hf  Hf10  1  0.945274  0.802693  0.197307  1
  Hf  Hf11  1  0.945282  0.394606  0.197302  1
  Hf  Hf12  1  0.750504  0.458157  0.916332  1
  Hf  Hf13  1  0.750500  0.458166  0.541834  1
  Hf  Hf14  1  0.750504  0.083668  0.541843  1
  Hf  Hf15  1  0.249639  0.541522  0.083033  1
  Hf  Hf16  1  0.249639  0.541517  0.458483  1
  Hf  Hf17  1  0.249639  0.916967  0.458478  1
  Fe  Fe18  1  0.249915  0.333346  0.666654  1
  Cu  Cu19  1  0.749977  0.666659  0.333341  1
  Mo  Mo20  1  0.749916  0.112035  0.224081  1
  Mo  Mo21  1  0.749919  0.112036  0.887964  1
  Mo  Mo22  1  0.749916  0.775919  0.887965  1
  Mo  Mo23  1  0.249792  0.887806  0.775604  1
  Mo  Mo24  1  0.249790  0.887804  0.112196  1
  Mo  Mo25  1  0.249792  0.224396  0.112194  1
  Mo  Mo26  1  0.002081  0.000000  0.000000  1
  W  W27  1  0.497809  0.999999  0.000001  1
