# generated using pymatgen
data_TbMgPaNi2
_symmetry_space_group_name_H-M   'P 1'
_cell_length_a   7.48935099
_cell_length_b   7.48935099
_cell_length_c   3.55125400
_cell_angle_alpha   90.00000000
_cell_angle_beta   90.00000000
_cell_angle_gamma   93.43470320
_symmetry_Int_Tables_number   1
_chemical_formula_structural   TbMgPaNi2
_chemical_formula_sum   'Tb2 Mg2 Pa2 Ni4'
_cell_volume   198.83337782
_cell_formula_units_Z   2
loop_
 _symmetry_equiv_pos_site_id
 _symmetry_equiv_pos_as_xyz
  1  'x, y, z'
loop_
 _atom_site_type_symbol
 _atom_site_label
 _atom_site_symmetry_multiplicity
 _atom_site_fract_x
 _atom_site_fract_y
 _atom_site_fract_z
 _atom_site_occupancy
  Tb  Tb0  1  0.170339  0.329661  0.500000  1
  Tb  Tb1  1  0.829661  0.670339  0.500000  1
  Mg  Mg2  1  0.000000  0.000000  0.000000  1
  Mg  Mg3  1  0.500000  0.500000  0.000000  1
  Pa  Pa4  1  0.671178  0.171178  0.500000  1
  Pa  Pa5  1  0.328822  0.828822  0.500000  1
  Ni  Ni6  1  0.138538  0.638538  0.000000  1
  Ni  Ni7  1  0.861462  0.361462  0.000000  1
  Ni  Ni8  1  0.616491  0.883509  0.000000  1
  Ni  Ni9  1  0.383509  0.116491  0.000000  1
