# generated using pymatgen
data_Nd12Ga7GeRh8
_symmetry_space_group_name_H-M   'P 1'
_cell_length_a   5.71372207
_cell_length_b   8.18651069
_cell_length_c   13.59260000
_cell_angle_alpha   90.00000000
_cell_angle_beta   90.00000000
_cell_angle_gamma   89.92958527
_symmetry_Int_Tables_number   1
_chemical_formula_structural   Nd12Ga7GeRh8
_chemical_formula_sum   'Nd12 Ga7 Ge1 Rh8'
_cell_volume   635.79945810
_cell_formula_units_Z   1
loop_
 _symmetry_equiv_pos_site_id
 _symmetry_equiv_pos_as_xyz
  1  'x, y, z'
loop_
 _atom_site_type_symbol
 _atom_site_label
 _atom_site_symmetry_multiplicity
 _atom_site_fract_x
 _atom_site_fract_y
 _atom_site_fract_z
 _atom_site_occupancy
  Nd  Nd0  1  0.631611  0.255512  0.250000  1
  Nd  Nd1  1  0.365469  0.742955  0.750000  1
  Nd  Nd2  1  0.366030  0.758562  0.250000  1
  Nd  Nd3  1  0.635305  0.247950  0.750000  1
  Nd  Nd4  1  0.147909  0.396668  0.097283  1
  Nd  Nd5  1  0.853502  0.603273  0.900315  1
  Nd  Nd6  1  0.853502  0.603273  0.599685  1
  Nd  Nd7  1  0.851921  0.897299  0.402689  1
  Nd  Nd8  1  0.147909  0.396668  0.402717  1
  Nd  Nd9  1  0.148996  0.102638  0.599272  1
  Nd  Nd10  1  0.148996  0.102638  0.900728  1
  Nd  Nd11  1  0.851921  0.897299  0.097311  1
  Ga  Ga12  1  0.131144  0.109140  0.250000  1
  Ga  Ga13  1  0.864438  0.893558  0.750000  1
  Ga  Ga14  1  0.864754  0.607239  0.250000  1
  Ga  Ga15  1  0.636428  0.250084  0.999322  1
  Ga  Ga16  1  0.365484  0.749011  0.998909  1
  Ga  Ga17  1  0.365484  0.749011  0.501091  1
  Ga  Ga18  1  0.636428  0.250084  0.500678  1
  Ge  Ge19  1  0.133179  0.390191  0.750000  1
  Rh  Rh20  1  0.360839  0.031455  0.091656  1
  Rh  Rh21  1  0.636475  0.968007  0.907920  1
  Rh  Rh22  1  0.636475  0.968007  0.592080  1
  Rh  Rh23  1  0.638832  0.532355  0.409252  1
  Rh  Rh24  1  0.360839  0.031455  0.408344  1
  Rh  Rh25  1  0.363646  0.466657  0.593788  1
  Rh  Rh26  1  0.363646  0.466657  0.906212  1
  Rh  Rh27  1  0.638832  0.532355  0.090748  1
