# generated using pymatgen
data_Dy2VCoB8
_symmetry_space_group_name_H-M   'P 1'
_cell_length_a   3.42092700
_cell_length_b   5.95399661
_cell_length_c   11.51035110
_cell_angle_alpha   89.93615530
_cell_angle_beta   90.00000000
_cell_angle_gamma   90.00000000
_symmetry_Int_Tables_number   1
_chemical_formula_structural   Dy2VCoB8
_chemical_formula_sum   'Dy4 V2 Co2 B16'
_cell_volume   234.44484695
_cell_formula_units_Z   2
loop_
 _symmetry_equiv_pos_site_id
 _symmetry_equiv_pos_as_xyz
  1  'x, y, z'
loop_
 _atom_site_type_symbol
 _atom_site_label
 _atom_site_symmetry_multiplicity
 _atom_site_fract_x
 _atom_site_fract_y
 _atom_site_fract_z
 _atom_site_occupancy
  Dy  Dy0  1  0.500000  0.124535  0.847334  1
  Dy  Dy1  1  0.500000  0.875465  0.152666  1
  Dy  Dy2  1  0.500000  0.628089  0.648193  1
  Dy  Dy3  1  0.500000  0.371911  0.351807  1
  V  V4  1  0.500000  0.626759  0.914642  1
  V  V5  1  0.500000  0.373241  0.085358  1
  Co  Co6  1  0.500000  0.135127  0.587387  1
  Co  Co7  1  0.500000  0.864873  0.412613  1
  B  B8  1  0.000000  0.280853  0.682430  1
  B  B9  1  0.000000  0.719147  0.317570  1
  B  B10  1  0.000000  0.786836  0.811774  1
  B  B11  1  0.000000  0.213164  0.188226  1
  B  B12  1  0.000000  0.360473  0.531461  1
  B  B13  1  0.000000  0.639527  0.468539  1
  B  B14  1  0.000000  0.865256  0.966811  1
  B  B15  1  0.000000  0.134744  0.033189  1
  B  B16  1  0.000000  0.020972  0.310913  1
  B  B17  1  0.000000  0.979028  0.689087  1
  B  B18  1  0.000000  0.525914  0.194281  1
  B  B19  1  0.000000  0.474086  0.805719  1
  B  B20  1  0.000000  0.111009  0.454332  1
  B  B21  1  0.000000  0.888991  0.545668  1
  B  B22  1  0.000000  0.614469  0.046968  1
  B  B23  1  0.000000  0.385531  0.953032  1
