# generated using pymatgen
data_Er3Tm3Zn23Se
_symmetry_space_group_name_H-M   'P 1'
_cell_length_a   8.99781789
_cell_length_b   8.99777065
_cell_length_c   8.99779000
_cell_angle_alpha   60.00016414
_cell_angle_beta   60.00020546
_cell_angle_gamma   60.00030117
_symmetry_Int_Tables_number   1
_chemical_formula_structural   Er3Tm3Zn23Se
_chemical_formula_sum   'Er3 Tm3 Zn23 Se1'
_cell_volume   515.10429871
_cell_formula_units_Z   1
loop_
 _symmetry_equiv_pos_site_id
 _symmetry_equiv_pos_as_xyz
  1  'x, y, z'
loop_
 _atom_site_type_symbol
 _atom_site_label
 _atom_site_symmetry_multiplicity
 _atom_site_fract_x
 _atom_site_fract_y
 _atom_site_fract_z
 _atom_site_occupancy
  Er  Er0  1  0.282924  0.717123  0.717139  1
  Er  Er1  1  0.282900  0.717193  0.282748  1
  Er  Er2  1  0.282895  0.282761  0.717192  1
  Tm  Tm3  1  0.717180  0.282932  0.282919  1
  Tm  Tm4  1  0.717208  0.282869  0.717031  1
  Tm  Tm5  1  0.717216  0.717026  0.282863  1
  Zn  Zn6  1  0.625987  0.124675  0.124667  1
  Zn  Zn7  1  0.124388  0.625530  0.125028  1
  Zn  Zn8  1  0.124386  0.125035  0.625523  1
  Zn  Zn9  1  0.124372  0.125045  0.125041  1
  Zn  Zn10  1  0.374731  0.875083  0.875095  1
  Zn  Zn11  1  0.874839  0.374226  0.875480  1
  Zn  Zn12  1  0.874841  0.875472  0.374235  1
  Zn  Zn13  1  0.874854  0.875462  0.875467  1
  Zn  Zn14  1  0.500281  0.999935  0.999933  1
  Zn  Zn15  1  0.500285  0.999931  0.499850  1
  Zn  Zn16  1  0.500283  0.499849  0.999933  1
  Zn  Zn17  1  0.999852  0.499936  0.499933  1
  Zn  Zn18  1  0.999854  0.499936  0.000280  1
  Zn  Zn19  1  0.999853  0.000282  0.499933  1
  Zn  Zn20  1  0.000025  0.999990  0.999992  1
  Zn  Zn21  1  0.010426  0.329887  0.329891  1
  Zn  Zn22  1  0.329854  0.011036  0.329522  1
  Zn  Zn23  1  0.329855  0.329519  0.011038  1
  Zn  Zn24  1  0.329771  0.329595  0.329599  1
  Zn  Zn25  1  0.988658  0.670417  0.670412  1
  Zn  Zn26  1  0.670370  0.989267  0.670213  1
  Zn  Zn27  1  0.670368  0.670214  0.989269  1
  Zn  Zn28  1  0.670451  0.670140  0.670138  1
  Se  Se29  1  0.501098  0.499632  0.499638  1
