# generated using pymatgen
data_Ho5Er7(RuRh)2
_symmetry_space_group_name_H-M   'P 1'
_cell_length_a   6.27906992
_cell_length_b   7.22804052
_cell_length_c   9.19725306
_cell_angle_alpha   90.00161943
_cell_angle_beta   89.95038255
_cell_angle_gamma   89.98079702
_symmetry_Int_Tables_number   1
_chemical_formula_structural   Ho5Er7(RuRh)2
_chemical_formula_sum   'Ho5 Er7 Ru2 Rh2'
_cell_volume   417.42056906
_cell_formula_units_Z   1
loop_
 _symmetry_equiv_pos_site_id
 _symmetry_equiv_pos_as_xyz
  1  'x, y, z'
loop_
 _atom_site_type_symbol
 _atom_site_label
 _atom_site_symmetry_multiplicity
 _atom_site_fract_x
 _atom_site_fract_y
 _atom_site_fract_z
 _atom_site_occupancy
  Ho  Ho0  1  0.672059  0.175742  0.064655  1
  Ho  Ho1  1  0.868559  0.961608  0.749747  1
  Ho  Ho2  1  0.368436  0.538636  0.250063  1
  Ho  Ho3  1  0.633821  0.464782  0.749909  1
  Ho  Ho4  1  0.134160  0.035089  0.250194  1
  Er  Er5  1  0.171768  0.324263  0.935017  1
  Er  Er6  1  0.828313  0.679432  0.437827  1
  Er  Er7  1  0.328185  0.820434  0.562261  1
  Er  Er8  1  0.327844  0.820309  0.937472  1
  Er  Er9  1  0.828149  0.679196  0.062163  1
  Er  Er10  1  0.171895  0.324256  0.564670  1
  Er  Er11  1  0.672062  0.175918  0.435623  1
  Ru  Ru12  1  0.045650  0.615617  0.749983  1
  Ru  Ru13  1  0.546066  0.884419  0.250586  1
  Rh  Rh14  1  0.451061  0.115766  0.749375  1
  Rh  Rh15  1  0.951973  0.384531  0.250452  1
