# generated using pymatgen
data_K5GdO4
_symmetry_space_group_name_H-M   'P 1'
_cell_length_a   6.36781000
_cell_length_b   8.35756700
_cell_length_c   8.83344600
_cell_angle_alpha   90.00000000
_cell_angle_beta   90.00000000
_cell_angle_gamma   90.00000000
_symmetry_Int_Tables_number   1
_chemical_formula_structural   K5GdO4
_chemical_formula_sum   'K10 Gd2 O8'
_cell_volume   470.11068473
_cell_formula_units_Z   2
loop_
 _symmetry_equiv_pos_site_id
 _symmetry_equiv_pos_as_xyz
  1  'x, y, z'
loop_
 _atom_site_type_symbol
 _atom_site_label
 _atom_site_symmetry_multiplicity
 _atom_site_fract_x
 _atom_site_fract_y
 _atom_site_fract_z
 _atom_site_occupancy
  K  K0  1  0.256854  0.762775  0.810378  1
  K  K1  1  0.256854  0.237225  0.810378  1
  K  K2  1  0.811750  0.500000  0.000000  1
  K  K3  1  0.256854  0.762775  0.189622  1
  K  K4  1  0.256854  0.237225  0.189622  1
  K  K5  1  0.743146  0.737225  0.310378  1
  K  K6  1  0.743146  0.262775  0.310378  1
  K  K7  1  0.188250  0.000000  0.500000  1
  K  K8  1  0.743146  0.737225  0.689622  1
  K  K9  1  0.743146  0.262775  0.689622  1
  Gd  Gd10  1  0.781009  0.000000  0.000000  1
  Gd  Gd11  1  0.218991  0.500000  0.500000  1
  O  O12  1  0.968273  0.000000  0.788304  1
  O  O13  1  0.597024  0.777163  0.000000  1
  O  O14  1  0.597024  0.222837  0.000000  1
  O  O15  1  0.968273  0.000000  0.211696  1
  O  O16  1  0.031727  0.500000  0.288304  1
  O  O17  1  0.402976  0.722837  0.500000  1
  O  O18  1  0.402976  0.277163  0.500000  1
  O  O19  1  0.031727  0.500000  0.711696  1
