# generated using pymatgen
data_Sc4Re24Mo
_symmetry_space_group_name_H-M   'P 1'
_cell_length_a   8.43224386
_cell_length_b   8.43224174
_cell_length_c   8.43224208
_cell_angle_alpha   109.42224055
_cell_angle_beta   109.42224168
_cell_angle_gamma   109.42223252
_symmetry_Int_Tables_number   1
_chemical_formula_structural   Sc4Re24Mo
_chemical_formula_sum   'Sc4 Re24 Mo1'
_cell_volume   462.37302902
_cell_formula_units_Z   1
loop_
 _symmetry_equiv_pos_site_id
 _symmetry_equiv_pos_as_xyz
  1  'x, y, z'
loop_
 _atom_site_type_symbol
 _atom_site_label
 _atom_site_symmetry_multiplicity
 _atom_site_fract_x
 _atom_site_fract_y
 _atom_site_fract_z
 _atom_site_occupancy
  Sc  Sc0  1  0.000651  0.632727  0.000651  1
  Sc  Sc1  1  0.632727  0.000651  0.000651  1
  Sc  Sc2  1  0.000651  0.000651  0.632727  1
  Sc  Sc3  1  0.002641  0.002641  0.002641  1
  Re  Re4  1  0.995653  0.393733  0.674961  1
  Re  Re5  1  0.280093  0.595968  0.595968  1
  Re  Re6  1  0.720121  0.323644  0.323644  1
  Re  Re7  1  0.323644  0.720121  0.323644  1
  Re  Re8  1  0.674961  0.995653  0.393733  1
  Re  Re9  1  0.995653  0.674961  0.393733  1
  Re  Re10  1  0.595968  0.595968  0.280093  1
  Re  Re11  1  0.810269  0.810269  0.186349  1
  Re  Re12  1  0.377841  0.195403  0.001462  1
  Re  Re13  1  0.195403  0.377841  0.001462  1
  Re  Re14  1  0.623815  0.817332  0.623815  1
  Re  Re15  1  0.377841  0.001462  0.195403  1
  Re  Re16  1  0.001462  0.377841  0.195403  1
  Re  Re17  1  0.817332  0.623815  0.623815  1
  Re  Re18  1  0.186349  0.810269  0.810269  1
  Re  Re19  1  0.810269  0.186349  0.810269  1
  Re  Re20  1  0.195403  0.001462  0.377841  1
  Re  Re21  1  0.001462  0.195403  0.377841  1
  Re  Re22  1  0.623815  0.623815  0.817332  1
  Re  Re23  1  0.393733  0.995653  0.674961  1
  Re  Re24  1  0.595968  0.280093  0.595968  1
  Re  Re25  1  0.674961  0.393733  0.995653  1
  Re  Re26  1  0.393733  0.674961  0.995653  1
  Re  Re27  1  0.323644  0.323644  0.720121  1
  Mo  Mo28  1  0.373937  0.373937  0.373937  1
