# generated using pymatgen
data_YTmAl2NiRh
_symmetry_space_group_name_H-M   'P 1'
_cell_length_a   4.21929000
_cell_length_b   6.76285100
_cell_length_c   7.80910700
_cell_angle_alpha   90.00000000
_cell_angle_beta   90.00000000
_cell_angle_gamma   90.00000000
_symmetry_Int_Tables_number   1
_chemical_formula_structural   YTmAl2NiRh
_chemical_formula_sum   'Y2 Tm2 Al4 Ni2 Rh2'
_cell_volume   222.82841390
_cell_formula_units_Z   2
loop_
 _symmetry_equiv_pos_site_id
 _symmetry_equiv_pos_as_xyz
  1  'x, y, z'
loop_
 _atom_site_type_symbol
 _atom_site_label
 _atom_site_symmetry_multiplicity
 _atom_site_fract_x
 _atom_site_fract_y
 _atom_site_fract_z
 _atom_site_occupancy
  Y  Y0  1  0.250000  0.968063  0.320684  1
  Y  Y1  1  0.250000  0.468063  0.179316  1
  Tm  Tm2  1  0.750000  0.536460  0.824605  1
  Tm  Tm3  1  0.750000  0.036460  0.675395  1
  Al  Al4  1  0.750000  0.632695  0.437759  1
  Al  Al5  1  0.750000  0.132695  0.062241  1
  Al  Al6  1  0.250000  0.360726  0.555366  1
  Al  Al7  1  0.250000  0.860726  0.944634  1
  Ni  Ni8  1  0.750000  0.768749  0.125444  1
  Ni  Ni9  1  0.750000  0.268749  0.374556  1
  Rh  Rh10  1  0.250000  0.233307  0.874555  1
  Rh  Rh11  1  0.250000  0.733307  0.625445  1
