# generated using pymatgen
data_HoLu15In4IrRh3
_symmetry_space_group_name_H-M   'P 1'
_cell_length_a   9.46881567
_cell_length_b   9.46775447
_cell_length_c   9.48059715
_cell_angle_alpha   60.04480138
_cell_angle_beta   60.01605807
_cell_angle_gamma   60.00370283
_symmetry_Int_Tables_number   1
_chemical_formula_structural   HoLu15In4IrRh3
_chemical_formula_sum   'Ho1 Lu15 In4 Ir1 Rh3'
_cell_volume   601.27763592
_cell_formula_units_Z   1
loop_
 _symmetry_equiv_pos_site_id
 _symmetry_equiv_pos_as_xyz
  1  'x, y, z'
loop_
 _atom_site_type_symbol
 _atom_site_label
 _atom_site_symmetry_multiplicity
 _atom_site_fract_x
 _atom_site_fract_y
 _atom_site_fract_z
 _atom_site_occupancy
  Ho  Ho0  1  0.438762  0.061800  0.437638  1
  Lu  Lu1  1  0.438945  0.439861  0.060119  1
  Lu  Lu2  1  0.651053  0.650762  0.047423  1
  Lu  Lu3  1  0.190309  0.809511  0.190669  1
  Lu  Lu4  1  0.061287  0.438718  0.061277  1
  Lu  Lu5  1  0.189960  0.809190  0.810716  1
  Lu  Lu6  1  0.059551  0.441033  0.438893  1
  Lu  Lu7  1  0.810673  0.190053  0.190370  1
  Lu  Lu8  1  0.651193  0.651493  0.650471  1
  Lu  Lu9  1  0.809985  0.190093  0.809829  1
  Lu  Lu10  1  0.189960  0.190133  0.810716  1
  Lu  Lu11  1  0.047246  0.651039  0.650676  1
  Lu  Lu12  1  0.438945  0.061073  0.060119  1
  Lu  Lu13  1  0.059551  0.060522  0.438893  1
  Lu  Lu14  1  0.651193  0.046843  0.650471  1
  Lu  Lu15  1  0.810673  0.808904  0.190370  1
  In  In16  1  0.416457  0.417224  0.416422  1
  In  In17  1  0.416440  0.416343  0.750875  1
  In  In18  1  0.416457  0.749898  0.416422  1
  In  In19  1  0.750892  0.416334  0.416441  1
  Ir  Ir20  1  0.859359  0.857926  0.424788  1
  Rh  Rh21  1  0.424571  0.857948  0.859532  1
  Rh  Rh22  1  0.858268  0.858325  0.858434  1
  Rh  Rh23  1  0.858268  0.424972  0.858434  1
