# generated using pymatgen
data_Sc10Al5GaC8
_symmetry_space_group_name_H-M   'P 1'
_cell_length_a   10.17989200
_cell_length_b   10.17989200
_cell_length_c   3.32033900
_cell_angle_alpha   90.00000000
_cell_angle_beta   90.00000000
_cell_angle_gamma   90.00000000
_symmetry_Int_Tables_number   1
_chemical_formula_structural   Sc10Al5GaC8
_chemical_formula_sum   'Sc10 Al5 Ga1 C8'
_cell_volume   344.08739840
_cell_formula_units_Z   1
loop_
 _symmetry_equiv_pos_site_id
 _symmetry_equiv_pos_as_xyz
  1  'x, y, z'
loop_
 _atom_site_type_symbol
 _atom_site_label
 _atom_site_symmetry_multiplicity
 _atom_site_fract_x
 _atom_site_fract_y
 _atom_site_fract_z
 _atom_site_occupancy
  Sc  Sc0  1  0.549434  0.733627  0.500000  1
  Sc  Sc1  1  0.450566  0.266373  0.500000  1
  Sc  Sc2  1  0.050465  0.764121  0.500000  1
  Sc  Sc3  1  0.949535  0.235879  0.500000  1
  Sc  Sc4  1  0.266373  0.549434  0.500000  1
  Sc  Sc5  1  0.733627  0.450566  0.500000  1
  Sc  Sc6  1  0.235879  0.050465  0.500000  1
  Sc  Sc7  1  0.764121  0.949535  0.500000  1
  Sc  Sc8  1  0.500000  0.000000  0.000000  1
  Sc  Sc9  1  0.000000  0.500000  0.000000  1
  Al  Al10  1  0.708020  0.196970  0.000000  1
  Al  Al11  1  0.291980  0.803030  0.000000  1
  Al  Al12  1  0.196970  0.291980  0.000000  1
  Al  Al13  1  0.803030  0.708020  0.000000  1
  Al  Al14  1  0.000000  0.000000  0.000000  1
  Ga  Ga15  1  0.500000  0.500000  0.000000  1
  C  C16  1  0.623935  0.125497  0.500000  1
  C  C17  1  0.376065  0.874503  0.500000  1
  C  C18  1  0.125497  0.376065  0.500000  1
  C  C19  1  0.874503  0.623935  0.500000  1
  C  C20  1  0.159225  0.657971  0.000000  1
  C  C21  1  0.840775  0.342029  0.000000  1
  C  C22  1  0.657971  0.840775  0.000000  1
  C  C23  1  0.342029  0.159225  0.000000  1
