# generated using pymatgen
data_Y2Er14In6CoPd
_symmetry_space_group_name_H-M   'P 1'
_cell_length_a   10.37534142
_cell_length_b   10.38436696
_cell_length_c   6.95134004
_cell_angle_alpha   90.01219497
_cell_angle_beta   89.99411704
_cell_angle_gamma   120.03080308
_symmetry_Int_Tables_number   1
_chemical_formula_structural   Y2Er14In6CoPd
_chemical_formula_sum   'Y2 Er14 In6 Co1 Pd1'
_cell_volume   648.40550511
_cell_formula_units_Z   1
loop_
 _symmetry_equiv_pos_site_id
 _symmetry_equiv_pos_as_xyz
  1  'x, y, z'
loop_
 _atom_site_type_symbol
 _atom_site_label
 _atom_site_symmetry_multiplicity
 _atom_site_fract_x
 _atom_site_fract_y
 _atom_site_fract_z
 _atom_site_occupancy
  Y  Y0  1  0.000218  0.000175  0.496399  1
  Y  Y1  1  0.000148  0.000178  0.997347  1
  Er  Er2  1  0.470929  0.529106  0.478913  1
  Er  Er3  1  0.058046  0.529015  0.478767  1
  Er  Er4  1  0.470930  0.941822  0.478910  1
  Er  Er5  1  0.535710  0.464245  0.980115  1
  Er  Er6  1  0.928503  0.464273  0.980263  1
  Er  Er7  1  0.535747  0.071537  0.980155  1
  Er  Er8  1  0.821124  0.178813  0.271927  1
  Er  Er9  1  0.357657  0.178841  0.271864  1
  Er  Er10  1  0.821151  0.642388  0.271818  1
  Er  Er11  1  0.175660  0.824178  0.776622  1
  Er  Er12  1  0.648608  0.824298  0.776361  1
  Er  Er13  1  0.175753  0.351402  0.776505  1
  Er  Er14  1  0.333300  0.666563  0.107092  1
  Er  Er15  1  0.666647  0.333392  0.590444  1
  In  In16  1  0.162353  0.837298  0.239142  1
  In  In17  1  0.675078  0.837498  0.239222  1
  In  In18  1  0.162590  0.325060  0.239144  1
  In  In19  1  0.836900  0.163166  0.733368  1
  In  In20  1  0.326282  0.163258  0.733458  1
  In  In21  1  0.836827  0.673737  0.733285  1
  Co  Co22  1  0.666745  0.333514  0.204833  1
  Pd  Pd23  1  0.333096  0.666243  0.708594  1
