# generated using pymatgen
data_La2HgPdRh
_symmetry_space_group_name_H-M   'P 1'
_cell_length_a   7.84719400
_cell_length_b   7.87194300
_cell_length_c   3.95311200
_cell_angle_alpha   90.00000000
_cell_angle_beta   90.00000000
_cell_angle_gamma   90.00000000
_symmetry_Int_Tables_number   1
_chemical_formula_structural   La2HgPdRh
_chemical_formula_sum   'La4 Hg2 Pd2 Rh2'
_cell_volume   244.19425885
_cell_formula_units_Z   2
loop_
 _symmetry_equiv_pos_site_id
 _symmetry_equiv_pos_as_xyz
  1  'x, y, z'
loop_
 _atom_site_type_symbol
 _atom_site_label
 _atom_site_symmetry_multiplicity
 _atom_site_fract_x
 _atom_site_fract_y
 _atom_site_fract_z
 _atom_site_occupancy
  La  La0  1  0.328368  0.160003  0.499999  1
  La  La1  1  0.828367  0.339998  0.499999  1
  La  La2  1  0.172953  0.683095  0.499999  1
  La  La3  1  0.672953  0.816905  0.499999  1
  Hg  Hg4  1  0.999337  0.000226  0.000000  1
  Hg  Hg5  1  0.499337  0.499774  0.000000  1
  Pd  Pd6  1  0.631383  0.130041  0.000000  1
  Pd  Pd7  1  0.131384  0.369959  0.000000  1
  Rh  Rh8  1  0.867960  0.631204  0.000000  1
  Rh  Rh9  1  0.367959  0.868796  0.000000  1
