# generated using pymatgen
data_Dy4Tm8InGaCo4
_symmetry_space_group_name_H-M   'P 1'
_cell_length_a   8.25747566
_cell_length_b   8.25780757
_cell_length_c   8.25747643
_cell_angle_alpha   106.74043700
_cell_angle_beta   109.73784776
_cell_angle_gamma   111.97610683
_symmetry_Int_Tables_number   1
_chemical_formula_structural   Dy4Tm8InGaCo4
_chemical_formula_sum   'Dy4 Tm8 In1 Ga1 Co4'
_cell_volume   432.54961363
_cell_formula_units_Z   1
loop_
 _symmetry_equiv_pos_site_id
 _symmetry_equiv_pos_as_xyz
  1  'x, y, z'
loop_
 _atom_site_type_symbol
 _atom_site_label
 _atom_site_symmetry_multiplicity
 _atom_site_fract_x
 _atom_site_fract_y
 _atom_site_fract_z
 _atom_site_occupancy
  Dy  Dy0  1  0.399849  0.217224  0.182627  1
  Dy  Dy1  1  0.034595  0.217224  0.817374  1
  Dy  Dy2  1  0.965405  0.782776  0.182626  1
  Dy  Dy3  1  0.600151  0.782776  0.817373  1
  Tm  Tm4  1  0.299684  0.267993  0.567677  1
  Tm  Tm5  1  0.700316  0.732007  0.432323  1
  Tm  Tm6  1  0.299685  0.732007  0.031691  1
  Tm  Tm7  1  0.700315  0.267993  0.968309  1
  Tm  Tm8  1  0.186843  0.511520  0.324677  1
  Tm  Tm9  1  0.186857  0.862184  0.675327  1
  Tm  Tm10  1  0.813157  0.488480  0.675323  1
  Tm  Tm11  1  0.813143  0.137816  0.324673  1
  In  In12  1  0.500000  0.000000  0.500000  1
  Ga  Ga13  1  0.500000  0.500000  0.000000  1
  Co  Co14  1  0.156192  0.500000  0.656192  1
  Co  Co15  1  0.843808  0.500000  0.343808  1
  Co  Co16  1  0.000001  0.114887  0.114886  1
  Co  Co17  1  0.999999  0.885113  0.885114  1
