# generated using pymatgen
data_Cs5BaNbAs4
_symmetry_space_group_name_H-M   'P 1'
_cell_length_a   11.26393160
_cell_length_b   11.26393214
_cell_length_c   8.58036875
_cell_angle_alpha   87.95992844
_cell_angle_beta   87.95992067
_cell_angle_gamma   121.07934813
_symmetry_Int_Tables_number   1
_chemical_formula_structural   Cs5BaNbAs4
_chemical_formula_sum   'Cs10 Ba2 Nb2 As8'
_cell_volume   929.92729431
_cell_formula_units_Z   2
loop_
 _symmetry_equiv_pos_site_id
 _symmetry_equiv_pos_as_xyz
  1  'x, y, z'
loop_
 _atom_site_type_symbol
 _atom_site_label
 _atom_site_symmetry_multiplicity
 _atom_site_fract_x
 _atom_site_fract_y
 _atom_site_fract_z
 _atom_site_occupancy
  Cs  Cs0  1  0.462106  0.526417  0.493633  1
  Cs  Cs1  1  0.065908  0.529683  0.499575  1
  Cs  Cs2  1  0.526417  0.462106  0.993633  1
  Cs  Cs3  1  0.529683  0.065908  0.999575  1
  Cs  Cs4  1  0.865316  0.141445  0.679526  1
  Cs  Cs5  1  0.291618  0.150177  0.720259  1
  Cs  Cs6  1  0.855482  0.714238  0.652339  1
  Cs  Cs7  1  0.141445  0.865316  0.179526  1
  Cs  Cs8  1  0.714238  0.855482  0.152339  1
  Cs  Cs9  1  0.150177  0.291618  0.220259  1
  Ba  Ba10  1  0.465072  0.936540  0.495234  1
  Ba  Ba11  1  0.936540  0.465072  0.995234  1
  Nb  Nb12  1  0.671464  0.328859  0.394279  1
  Nb  Nb13  1  0.328859  0.671464  0.894279  1
  As  As14  1  0.688926  0.338848  0.686933  1
  As  As15  1  0.338848  0.688926  0.186933  1
  As  As16  1  0.787104  0.202679  0.291228  1
  As  As17  1  0.418441  0.192920  0.333279  1
  As  As18  1  0.795385  0.571369  0.268003  1
  As  As19  1  0.202679  0.787104  0.791228  1
  As  As20  1  0.571369  0.795385  0.768003  1
  As  As21  1  0.192920  0.418441  0.833279  1
