# generated using pymatgen
data_DyHo19(NiSb2)4
_symmetry_space_group_name_H-M   'P 1'
_cell_length_a   7.88278807
_cell_length_b   8.78010900
_cell_length_c   12.09332911
_cell_angle_alpha   90.00000000
_cell_angle_beta   89.98476426
_cell_angle_gamma   90.00000000
_symmetry_Int_Tables_number   1
_chemical_formula_structural   DyHo19(NiSb2)4
_chemical_formula_sum   'Dy1 Ho19 Ni4 Sb8'
_cell_volume   837.00030185
_cell_formula_units_Z   1
loop_
 _symmetry_equiv_pos_site_id
 _symmetry_equiv_pos_as_xyz
  1  'x, y, z'
loop_
 _atom_site_type_symbol
 _atom_site_label
 _atom_site_symmetry_multiplicity
 _atom_site_fract_x
 _atom_site_fract_y
 _atom_site_fract_z
 _atom_site_occupancy
  Dy  Dy0  1  0.874472  0.250000  0.803401  1
  Ho  Ho1  1  0.320072  0.541090  0.434154  1
  Ho  Ho2  1  0.180080  0.541443  0.934275  1
  Ho  Ho3  1  0.320072  0.958910  0.434154  1
  Ho  Ho4  1  0.125203  0.750000  0.196488  1
  Ho  Ho5  1  0.841363  0.750000  0.793229  1
  Ho  Ho6  1  0.374771  0.750000  0.696362  1
  Ho  Ho7  1  0.954891  0.750000  0.500288  1
  Ho  Ho8  1  0.454764  0.250000  0.999584  1
  Ho  Ho9  1  0.679836  0.458891  0.565690  1
  Ho  Ho10  1  0.820043  0.041080  0.066027  1
  Ho  Ho11  1  0.658643  0.750000  0.293253  1
  Ho  Ho12  1  0.545064  0.750000  0.000462  1
  Ho  Ho13  1  0.045251  0.250000  0.499551  1
  Ho  Ho14  1  0.679836  0.041109  0.565690  1
  Ho  Ho15  1  0.180080  0.958557  0.934275  1
  Ho  Ho16  1  0.625164  0.250000  0.303605  1
  Ho  Ho17  1  0.341290  0.250000  0.706711  1
  Ho  Ho18  1  0.820043  0.458920  0.066027  1
  Ho  Ho19  1  0.158622  0.250000  0.206747  1
  Ni  Ni20  1  0.925406  0.750000  0.012029  1
  Ni  Ni21  1  0.575196  0.750000  0.512291  1
  Ni  Ni22  1  0.075325  0.250000  0.988004  1
  Ni  Ni23  1  0.425333  0.250000  0.487999  1
  Sb  Sb24  1  0.929047  0.491008  0.327319  1
  Sb  Sb25  1  0.429063  0.508951  0.172735  1
  Sb  Sb26  1  0.429063  0.991049  0.172735  1
  Sb  Sb27  1  0.570335  0.491312  0.827284  1
  Sb  Sb28  1  0.071144  0.509221  0.672514  1
  Sb  Sb29  1  0.570335  0.008688  0.827284  1
  Sb  Sb30  1  0.929047  0.008992  0.327319  1
  Sb  Sb31  1  0.071144  0.990779  0.672514  1
