# generated using pymatgen
data_AcTm7(P7Ir8)2
_symmetry_space_group_name_H-M   'P 1'
_cell_length_a   3.94255800
_cell_length_b   12.61536490
_cell_length_c   13.15222100
_cell_angle_alpha   80.68419174
_cell_angle_beta   90.00000000
_cell_angle_gamma   90.00000000
_symmetry_Int_Tables_number   1
_chemical_formula_structural   AcTm7(P7Ir8)2
_chemical_formula_sum   'Ac1 Tm7 P14 Ir16'
_cell_volume   645.52197006
_cell_formula_units_Z   1
loop_
 _symmetry_equiv_pos_site_id
 _symmetry_equiv_pos_as_xyz
  1  'x, y, z'
loop_
 _atom_site_type_symbol
 _atom_site_label
 _atom_site_symmetry_multiplicity
 _atom_site_fract_x
 _atom_site_fract_y
 _atom_site_fract_z
 _atom_site_occupancy
  Ac  Ac0  1  0.250000  0.279590  0.103917  1
  Tm  Tm1  1  0.750000  0.791153  0.562754  1
  Tm  Tm2  1  0.250000  0.208806  0.438675  1
  Tm  Tm3  1  0.750000  0.479682  0.706431  1
  Tm  Tm4  1  0.250000  0.522154  0.294364  1
  Tm  Tm5  1  0.750000  0.718762  0.899362  1
  Tm  Tm6  1  0.250000  0.102225  0.790217  1
  Tm  Tm7  1  0.750000  0.898268  0.211511  1
  P  P8  1  0.250000  0.905419  0.414414  1
  P  P9  1  0.750000  0.474873  0.130589  1
  P  P10  1  0.250000  0.530623  0.868811  1
  P  P11  1  0.750000  0.093482  0.587227  1
  P  P12  1  0.250000  0.740894  0.078745  1
  P  P13  1  0.750000  0.254493  0.912899  1
  P  P14  1  0.750000  0.157062  0.285940  1
  P  P15  1  0.250000  0.843201  0.718318  1
  P  P16  1  0.250000  0.043543  0.101407  1
  P  P17  1  0.750000  0.945271  0.897396  1
  P  P18  1  0.250000  0.311339  0.688610  1
  P  P19  1  0.750000  0.689155  0.310832  1
  P  P20  1  0.250000  0.608989  0.566952  1
  P  P21  1  0.750000  0.393130  0.436344  1
  Ir  Ir22  1  0.250000  0.991733  0.576345  1
  Ir  Ir23  1  0.750000  0.007724  0.425309  1
  Ir  Ir24  1  0.250000  0.662833  0.727829  1
  Ir  Ir25  1  0.750000  0.341555  0.277238  1
  Ir  Ir26  1  0.250000  0.556803  0.045326  1
  Ir  Ir27  1  0.750000  0.454778  0.946952  1
  Ir  Ir28  1  0.250000  0.056481  0.275101  1
  Ir  Ir29  1  0.750000  0.939386  0.725757  1
  Ir  Ir30  1  0.250000  0.422157  0.524083  1
  Ir  Ir31  1  0.750000  0.579742  0.477846  1
  Ir  Ir32  1  0.250000  0.912095  0.994743  1
  Ir  Ir33  1  0.750000  0.080428  0.999349  1
  Ir  Ir34  1  0.250000  0.728709  0.395389  1
  Ir  Ir35  1  0.750000  0.270671  0.605270  1
  Ir  Ir36  1  0.250000  0.342813  0.854900  1
  Ir  Ir37  1  0.750000  0.659980  0.142848  1
