# generated using pymatgen
data_Ta9BeNbSi5
_symmetry_space_group_name_H-M   'P 1'
_cell_length_a   7.54595279
_cell_length_b   7.54595184
_cell_length_c   7.53530194
_cell_angle_alpha   128.76918876
_cell_angle_beta   128.79079808
_cell_angle_gamma   75.46950471
_symmetry_Int_Tables_number   1
_chemical_formula_structural   Ta9BeNbSi5
_chemical_formula_sum   'Ta9 Be1 Nb1 Si5'
_cell_volume   253.59378245
_cell_formula_units_Z   1
loop_
 _symmetry_equiv_pos_site_id
 _symmetry_equiv_pos_as_xyz
  1  'x, y, z'
loop_
 _atom_site_type_symbol
 _atom_site_label
 _atom_site_symmetry_multiplicity
 _atom_site_fract_x
 _atom_site_fract_y
 _atom_site_fract_z
 _atom_site_occupancy
  Ta  Ta0  1  0.016922  0.190716  0.506574  1
  Ta  Ta1  1  0.515154  0.015645  0.830427  1
  Ta  Ta2  1  0.181663  0.681030  0.156796  1
  Ta  Ta3  1  0.475767  0.975133  0.156796  1
  Ta  Ta4  1  0.690227  0.516429  0.505724  1
  Ta  Ta5  1  0.989294  0.815497  0.505724  1
  Ta  Ta6  1  0.315858  0.489651  0.506574  1
  Ta  Ta7  1  0.814781  0.315273  0.830427  1
  Ta  Ta8  1  0.496023  0.500368  0.996390  1
  Be  Be9  1  0.125481  0.624990  0.750470  1
  Nb  Nb10  1  0.000205  0.996637  0.996840  1
  Si  Si11  1  0.628978  0.868726  0.497704  1
  Si  Si12  1  0.368781  0.128827  0.497608  1
  Si  Si13  1  0.877333  0.377717  0.255050  1
  Si  Si14  1  0.751805  0.751719  0.003447  1
  Si  Si15  1  0.251728  0.251642  0.003447  1
