# generated using pymatgen
data_PrDy15(Hg3Pt)2
_symmetry_space_group_name_H-M   'P 1'
_cell_length_a   10.15903300
_cell_length_b   10.15903355
_cell_length_c   7.18663900
_cell_angle_alpha   90.00000000
_cell_angle_beta   90.00000000
_cell_angle_gamma   120.00000147
_symmetry_Int_Tables_number   1
_chemical_formula_structural   PrDy15(Hg3Pt)2
_chemical_formula_sum   'Pr1 Dy15 Hg6 Pt2'
_cell_volume   642.33445851
_cell_formula_units_Z   1
loop_
 _symmetry_equiv_pos_site_id
 _symmetry_equiv_pos_as_xyz
  1  'x, y, z'
loop_
 _atom_site_type_symbol
 _atom_site_label
 _atom_site_symmetry_multiplicity
 _atom_site_fract_x
 _atom_site_fract_y
 _atom_site_fract_z
 _atom_site_occupancy
  Pr  Pr0  1  0.000000  0.000000  0.775114  1
  Dy  Dy1  1  0.170815  0.829185  0.985297  1
  Dy  Dy2  1  0.340042  0.170021  0.484034  1
  Dy  Dy3  1  0.829979  0.659958  0.484034  1
  Dy  Dy4  1  0.170815  0.341628  0.985297  1
  Dy  Dy5  1  0.658372  0.829185  0.985297  1
  Dy  Dy6  1  0.829979  0.170021  0.484034  1
  Dy  Dy7  1  0.333333  0.666667  0.666779  1
  Dy  Dy8  1  0.666667  0.333333  0.169369  1
  Dy  Dy9  1  0.465252  0.534748  0.292242  1
  Dy  Dy10  1  0.930059  0.465030  0.792722  1
  Dy  Dy11  1  0.534970  0.069941  0.792722  1
  Dy  Dy12  1  0.465252  0.930504  0.292242  1
  Dy  Dy13  1  0.069496  0.534748  0.292242  1
  Dy  Dy14  1  0.534970  0.465030  0.792722  1
  Dy  Dy15  1  0.000000  0.000000  0.265756  1
  Hg  Hg16  1  0.168642  0.831358  0.544273  1
  Hg  Hg17  1  0.336557  0.168278  0.049257  1
  Hg  Hg18  1  0.831722  0.663443  0.049257  1
  Hg  Hg19  1  0.168642  0.337285  0.544273  1
  Hg  Hg20  1  0.662715  0.831358  0.544273  1
  Hg  Hg21  1  0.831722  0.168278  0.049257  1
  Pt  Pt22  1  0.333333  0.666667  0.051540  1
  Pt  Pt23  1  0.666667  0.333333  0.553961  1
