# generated using pymatgen
data_PrSmY4PtI10
_symmetry_space_group_name_H-M   'P 1'
_cell_length_a   7.78737161
_cell_length_b   9.82168288
_cell_length_c   9.95561901
_cell_angle_alpha   107.22232232
_cell_angle_beta   96.51292682
_cell_angle_gamma   105.06529994
_symmetry_Int_Tables_number   1
_chemical_formula_structural   PrSmY4PtI10
_chemical_formula_sum   'Pr1 Sm1 Y4 Pt1 I10'
_cell_volume   687.19257758
_cell_formula_units_Z   1
loop_
 _symmetry_equiv_pos_site_id
 _symmetry_equiv_pos_as_xyz
  1  'x, y, z'
loop_
 _atom_site_type_symbol
 _atom_site_label
 _atom_site_symmetry_multiplicity
 _atom_site_fract_x
 _atom_site_fract_y
 _atom_site_fract_z
 _atom_site_occupancy
  Pr  Pr0  1  0.880746  0.957052  0.246669  1
  Sm  Sm1  1  0.118525  0.042876  0.758047  1
  Y  Y2  1  0.349138  0.126164  0.164014  1
  Y  Y3  1  0.650886  0.874226  0.836457  1
  Y  Y4  1  0.971313  0.286419  0.085877  1
  Y  Y5  1  0.028390  0.712969  0.912052  1
  Pt  Pt6  1  0.000545  0.999924  0.999281  1
  I  I7  1  0.351730  0.450395  0.270103  1
  I  I8  1  0.647508  0.549623  0.729809  1
  I  I9  1  0.917751  0.620288  0.172409  1
  I  I10  1  0.083804  0.374645  0.823585  1
  I  I11  1  0.445791  0.816119  0.086232  1
  I  I12  1  0.549812  0.182021  0.910621  1
  I  I13  1  0.270104  0.090094  0.460496  1
  I  I14  1  0.735267  0.912010  0.545897  1
  I  I15  1  0.774441  0.264764  0.341693  1
  I  I16  1  0.224248  0.740409  0.656759  1
