# generated using pymatgen
data_K2CaThB24
_symmetry_space_group_name_H-M   'P 1'
_cell_length_a   4.17032200
_cell_length_b   4.17032200
_cell_length_c   16.71667200
_cell_angle_alpha   90.00000000
_cell_angle_beta   90.00000000
_cell_angle_gamma   90.00000000
_symmetry_Int_Tables_number   1
_chemical_formula_structural   K2CaThB24
_chemical_formula_sum   'K2 Ca1 Th1 B24'
_cell_volume   290.72943176
_cell_formula_units_Z   1
loop_
 _symmetry_equiv_pos_site_id
 _symmetry_equiv_pos_as_xyz
  1  'x, y, z'
loop_
 _atom_site_type_symbol
 _atom_site_label
 _atom_site_symmetry_multiplicity
 _atom_site_fract_x
 _atom_site_fract_y
 _atom_site_fract_z
 _atom_site_occupancy
  K  K0  1  0.500000  0.500000  0.253697  1
  K  K1  1  0.500000  0.500000  0.746303  1
  Ca  Ca2  1  0.500000  0.500000  0.500000  1
  Th  Th3  1  0.500000  0.500000  0.000000  1
  B  B4  1  0.000000  0.000000  0.048925  1
  B  B5  1  0.000000  0.000000  0.301604  1
  B  B6  1  0.000000  0.000000  0.549243  1
  B  B7  1  0.000000  0.000000  0.800939  1
  B  B8  1  0.000000  0.298668  0.877421  1
  B  B9  1  0.000000  0.298668  0.122579  1
  B  B10  1  0.000000  0.299563  0.376796  1
  B  B11  1  0.000000  0.299563  0.623204  1
  B  B12  1  0.298668  0.000000  0.877421  1
  B  B13  1  0.298668  0.000000  0.122579  1
  B  B14  1  0.299563  0.000000  0.376796  1
  B  B15  1  0.299563  0.000000  0.623204  1
  B  B16  1  0.000000  0.000000  0.951075  1
  B  B17  1  0.000000  0.000000  0.199061  1
  B  B18  1  0.000000  0.000000  0.450757  1
  B  B19  1  0.000000  0.000000  0.698396  1
  B  B20  1  0.000000  0.701332  0.877421  1
  B  B21  1  0.000000  0.701332  0.122579  1
  B  B22  1  0.000000  0.700437  0.376796  1
  B  B23  1  0.000000  0.700437  0.623204  1
  B  B24  1  0.701332  0.000000  0.877421  1
  B  B25  1  0.701332  0.000000  0.122579  1
  B  B26  1  0.700437  0.000000  0.376796  1
  B  B27  1  0.700437  0.000000  0.623204  1
