# generated using pymatgen
data_Fe3Sb9Te3Ru
_symmetry_space_group_name_H-M   'P 1'
_cell_length_a   7.97696334
_cell_length_b   7.97696313
_cell_length_c   7.97696300
_cell_angle_alpha   109.55304182
_cell_angle_beta   109.55304891
_cell_angle_gamma   109.55305383
_symmetry_Int_Tables_number   1
_chemical_formula_structural   Fe3Sb9Te3Ru
_chemical_formula_sum   'Fe3 Sb9 Te3 Ru1'
_cell_volume   389.55441062
_cell_formula_units_Z   1
loop_
 _symmetry_equiv_pos_site_id
 _symmetry_equiv_pos_as_xyz
  1  'x, y, z'
loop_
 _atom_site_type_symbol
 _atom_site_label
 _atom_site_symmetry_multiplicity
 _atom_site_fract_x
 _atom_site_fract_y
 _atom_site_fract_z
 _atom_site_occupancy
  Fe  Fe0  1  0.500487  0.995725  0.999853  1
  Fe  Fe1  1  0.995725  0.999853  0.500487  1
  Fe  Fe2  1  0.999853  0.500487  0.995725  1
  Sb  Sb3  1  0.666781  0.166235  0.834614  1
  Sb  Sb4  1  0.842545  0.167438  0.324435  1
  Sb  Sb5  1  0.166235  0.834614  0.666781  1
  Sb  Sb6  1  0.167438  0.324435  0.842545  1
  Sb  Sb7  1  0.152661  0.492103  0.327459  1
  Sb  Sb8  1  0.327459  0.152661  0.492103  1
  Sb  Sb9  1  0.492103  0.327459  0.152661  1
  Sb  Sb10  1  0.324435  0.842545  0.167438  1
  Sb  Sb11  1  0.834614  0.666781  0.166235  1
  Te  Te12  1  0.666352  0.851648  0.507582  1
  Te  Te13  1  0.851648  0.507582  0.666352  1
  Te  Te14  1  0.507582  0.666352  0.851648  1
  Ru  Ru15  1  0.504081  0.504081  0.504081  1
