# generated using pymatgen
data_Nd6Dy10Cd4IrPt3
_symmetry_space_group_name_H-M   'P 1'
_cell_length_a   9.80934035
_cell_length_b   9.78205740
_cell_length_c   9.78205700
_cell_angle_alpha   60.00000473
_cell_angle_beta   60.09196759
_cell_angle_gamma   60.09197465
_symmetry_Int_Tables_number   1
_chemical_formula_structural   Nd6Dy10Cd4IrPt3
_chemical_formula_sum   'Nd6 Dy10 Cd4 Ir1 Pt3'
_cell_volume   664.64164793
_cell_formula_units_Z   1
loop_
 _symmetry_equiv_pos_site_id
 _symmetry_equiv_pos_as_xyz
  1  'x, y, z'
loop_
 _atom_site_type_symbol
 _atom_site_label
 _atom_site_symmetry_multiplicity
 _atom_site_fract_x
 _atom_site_fract_y
 _atom_site_fract_z
 _atom_site_occupancy
  Nd  Nd0  1  0.938089  0.562592  0.562592  1
  Nd  Nd1  1  0.564295  0.937577  0.937577  1
  Nd  Nd2  1  0.564295  0.937577  0.560552  1
  Nd  Nd3  1  0.938089  0.562592  0.936728  1
  Nd  Nd4  1  0.564295  0.560552  0.937577  1
  Nd  Nd5  1  0.938089  0.936728  0.562592  1
  Dy  Dy6  1  0.350910  0.347192  0.347192  1
  Dy  Dy7  1  0.350910  0.347192  0.954705  1
  Dy  Dy8  1  0.350910  0.954705  0.347192  1
  Dy  Dy9  1  0.948541  0.350486  0.350486  1
  Dy  Dy10  1  0.808572  0.188026  0.188026  1
  Dy  Dy11  1  0.189522  0.811034  0.811034  1
  Dy  Dy12  1  0.189522  0.811034  0.188410  1
  Dy  Dy13  1  0.808572  0.188026  0.815377  1
  Dy  Dy14  1  0.189522  0.188410  0.811034  1
  Dy  Dy15  1  0.808572  0.815377  0.188026  1
  Cd  Cd16  1  0.579650  0.579976  0.579976  1
  Cd  Cd17  1  0.579650  0.579976  0.260397  1
  Cd  Cd18  1  0.579650  0.260397  0.579976  1
  Cd  Cd19  1  0.261219  0.579593  0.579593  1
  Ir  Ir20  1  0.574786  0.141738  0.141738  1
  Pt  Pt21  1  0.140781  0.142539  0.142539  1
  Pt  Pt22  1  0.140781  0.142539  0.574139  1
  Pt  Pt23  1  0.140781  0.574139  0.142539  1
