# generated using pymatgen
data_Lu20Cd6SiRh
_symmetry_space_group_name_H-M   'P 1'
_cell_length_a   9.40750500
_cell_length_b   9.40750448
_cell_length_c   9.61746300
_cell_angle_alpha   90.00000000
_cell_angle_beta   90.00000000
_cell_angle_gamma   119.99999833
_symmetry_Int_Tables_number   1
_chemical_formula_structural   Lu20Cd6SiRh
_chemical_formula_sum   'Lu20 Cd6 Si1 Rh1'
_cell_volume   737.12315651
_cell_formula_units_Z   1
loop_
 _symmetry_equiv_pos_site_id
 _symmetry_equiv_pos_as_xyz
  1  'x, y, z'
loop_
 _atom_site_type_symbol
 _atom_site_label
 _atom_site_symmetry_multiplicity
 _atom_site_fract_x
 _atom_site_fract_y
 _atom_site_fract_z
 _atom_site_occupancy
  Lu  Lu0  1  0.000000  0.000000  0.499648  1
  Lu  Lu1  1  0.000000  0.000000  0.000352  1
  Lu  Lu2  1  0.210556  0.789444  0.444166  1
  Lu  Lu3  1  0.210556  0.421114  0.444166  1
  Lu  Lu4  1  0.578886  0.789444  0.444166  1
  Lu  Lu5  1  0.792043  0.207957  0.548187  1
  Lu  Lu6  1  0.792043  0.584084  0.548187  1
  Lu  Lu7  1  0.415916  0.207957  0.548187  1
  Lu  Lu8  1  0.792043  0.207957  0.951813  1
  Lu  Lu9  1  0.792043  0.584084  0.951813  1
  Lu  Lu10  1  0.415916  0.207957  0.951813  1
  Lu  Lu11  1  0.210556  0.789444  0.055834  1
  Lu  Lu12  1  0.210556  0.421114  0.055834  1
  Lu  Lu13  1  0.578886  0.789444  0.055834  1
  Lu  Lu14  1  0.540731  0.459269  0.250000  1
  Lu  Lu15  1  0.540731  0.081463  0.250000  1
  Lu  Lu16  1  0.918537  0.459269  0.250000  1
  Lu  Lu17  1  0.457492  0.542508  0.750000  1
  Lu  Lu18  1  0.457492  0.914987  0.750000  1
  Lu  Lu19  1  0.085013  0.542508  0.750000  1
  Cd  Cd20  1  0.885973  0.114027  0.250000  1
  Cd  Cd21  1  0.885973  0.771948  0.250000  1
  Cd  Cd22  1  0.228052  0.114027  0.250000  1
  Cd  Cd23  1  0.114625  0.885375  0.750000  1
  Cd  Cd24  1  0.114625  0.229249  0.750000  1
  Cd  Cd25  1  0.770751  0.885375  0.750000  1
  Si  Si26  1  0.666667  0.333333  0.750000  1
  Rh  Rh27  1  0.333333  0.666667  0.250000  1
