# generated using pymatgen
data_ScBeCrO4
_symmetry_space_group_name_H-M   'P 1'
_cell_length_a   4.66254940
_cell_length_b   5.96980332
_cell_length_c   10.25222801
_cell_angle_alpha   89.99665764
_cell_angle_beta   90.00302650
_cell_angle_gamma   89.99496131
_symmetry_Int_Tables_number   1
_chemical_formula_structural   ScBeCrO4
_chemical_formula_sum   'Sc4 Be4 Cr4 O16'
_cell_volume   285.36566798
_cell_formula_units_Z   4
loop_
 _symmetry_equiv_pos_site_id
 _symmetry_equiv_pos_as_xyz
  1  'x, y, z'
loop_
 _atom_site_type_symbol
 _atom_site_label
 _atom_site_symmetry_multiplicity
 _atom_site_fract_x
 _atom_site_fract_y
 _atom_site_fract_z
 _atom_site_occupancy
  Sc  Sc0  1  0.486931  0.749950  0.225246  1
  Sc  Sc1  1  0.013113  0.750036  0.725275  1
  Sc  Sc2  1  0.513062  0.250033  0.774759  1
  Sc  Sc3  1  0.986969  0.249971  0.274759  1
  Be  Be4  1  0.923065  0.749969  0.412107  1
  Be  Be5  1  0.576874  0.750013  0.912148  1
  Be  Be6  1  0.076881  0.250021  0.587871  1
  Be  Be7  1  0.423062  0.249972  0.087906  1
  Cr  Cr8  1  0.499974  0.500047  0.499971  1
  Cr  Cr9  1  0.999974  0.000007  0.000047  1
  Cr  Cr10  1  0.499983  0.999926  0.499968  1
  Cr  Cr11  1  0.999963  0.500024  0.000047  1
  O  O12  1  0.266671  0.749980  0.414534  1
  O  O13  1  0.233333  0.750012  0.914584  1
  O  O14  1  0.733323  0.250003  0.585425  1
  O  O15  1  0.766659  0.250015  0.085465  1
  O  O16  1  0.743866  0.750026  0.059038  1
  O  O17  1  0.756169  0.749986  0.558991  1
  O  O18  1  0.256157  0.250020  0.941004  1
  O  O19  1  0.243859  0.249992  0.440950  1
  O  O20  1  0.762403  0.969549  0.342070  1
  O  O21  1  0.737632  0.530436  0.842126  1
  O  O22  1  0.237635  0.469607  0.657851  1
  O  O23  1  0.262400  0.030394  0.157903  1
  O  O24  1  0.237663  0.030418  0.657845  1
  O  O25  1  0.262358  0.469582  0.157887  1
  O  O26  1  0.762378  0.530369  0.342086  1
  O  O27  1  0.737641  0.969646  0.842138  1
