# generated using pymatgen
data_Ag2AsRhF14
_symmetry_space_group_name_H-M   'P 1'
_cell_length_a   7.24721500
_cell_length_b   7.88934467
_cell_length_c   10.19469185
_cell_angle_alpha   90.36443142
_cell_angle_beta   90.00000000
_cell_angle_gamma   90.00000000
_symmetry_Int_Tables_number   1
_chemical_formula_structural   Ag2AsRhF14
_chemical_formula_sum   'Ag4 As2 Rh2 F28'
_cell_volume   582.87763732
_cell_formula_units_Z   2
loop_
 _symmetry_equiv_pos_site_id
 _symmetry_equiv_pos_as_xyz
  1  'x, y, z'
loop_
 _atom_site_type_symbol
 _atom_site_label
 _atom_site_symmetry_multiplicity
 _atom_site_fract_x
 _atom_site_fract_y
 _atom_site_fract_z
 _atom_site_occupancy
  Ag  Ag0  1  0.250000  0.636170  0.741039  1
  Ag  Ag1  1  0.750000  0.363830  0.258961  1
  Ag  Ag2  1  0.250000  0.137602  0.754919  1
  Ag  Ag3  1  0.750000  0.862398  0.245081  1
  As  As4  1  0.250000  0.300615  0.440936  1
  As  As5  1  0.750000  0.699385  0.559064  1
  Rh  Rh6  1  0.250000  0.800670  0.059225  1
  Rh  Rh7  1  0.750000  0.199330  0.940775  1
  F  F8  1  0.934411  0.119743  0.819514  1
  F  F9  1  0.434411  0.880257  0.180486  1
  F  F10  1  0.576293  0.625876  0.668292  1
  F  F11  1  0.076293  0.374124  0.331708  1
  F  F12  1  0.065589  0.880257  0.180486  1
  F  F13  1  0.565589  0.119743  0.819514  1
  F  F14  1  0.423707  0.374124  0.331708  1
  F  F15  1  0.923707  0.625876  0.668292  1
  F  F16  1  0.750000  0.608678  0.194141  1
  F  F17  1  0.250000  0.391322  0.805859  1
  F  F18  1  0.750000  0.112062  0.304999  1
  F  F19  1  0.250000  0.887938  0.695001  1
  F  F20  1  0.750000  0.493999  0.482575  1
  F  F21  1  0.250000  0.506001  0.517425  1
  F  F22  1  0.750000  0.981953  0.019211  1
  F  F23  1  0.250000  0.018047  0.980789  1
  F  F24  1  0.750000  0.898182  0.633641  1
  F  F25  1  0.250000  0.101818  0.366359  1
  F  F26  1  0.750000  0.410558  0.862424  1
  F  F27  1  0.250000  0.589442  0.137576  1
  F  F28  1  0.921518  0.766379  0.443976  1
  F  F29  1  0.421518  0.233621  0.556024  1
  F  F30  1  0.570202  0.273252  0.066611  1
  F  F31  1  0.070202  0.726748  0.933389  1
  F  F32  1  0.078482  0.233621  0.556024  1
  F  F33  1  0.578482  0.766379  0.443976  1
  F  F34  1  0.429798  0.726748  0.933389  1
  F  F35  1  0.929798  0.273252  0.066611  1
