# generated using pymatgen
data_K8Tb3ErF20
_symmetry_space_group_name_H-M   'P 1'
_cell_length_a   6.71171959
_cell_length_b   7.33105300
_cell_length_c   11.00607061
_cell_angle_alpha   90.00000000
_cell_angle_beta   90.07886740
_cell_angle_gamma   90.00000000
_symmetry_Int_Tables_number   1
_chemical_formula_structural   K8Tb3ErF20
_chemical_formula_sum   'K8 Tb3 Er1 F20'
_cell_volume   541.54187728
_cell_formula_units_Z   1
loop_
 _symmetry_equiv_pos_site_id
 _symmetry_equiv_pos_as_xyz
  1  'x, y, z'
loop_
 _atom_site_type_symbol
 _atom_site_label
 _atom_site_symmetry_multiplicity
 _atom_site_fract_x
 _atom_site_fract_y
 _atom_site_fract_z
 _atom_site_occupancy
  K  K0  1  0.533874  0.996602  0.829217  1
  K  K1  1  0.465682  0.497190  0.170789  1
  K  K2  1  0.965941  0.996767  0.328789  1
  K  K3  1  0.034197  0.497107  0.671218  1
  K  K4  1  0.533874  0.503398  0.829217  1
  K  K5  1  0.465682  0.002810  0.170789  1
  K  K6  1  0.965941  0.503233  0.328789  1
  K  K7  1  0.034197  0.002893  0.671218  1
  Tb  Tb8  1  0.564671  0.250000  0.503037  1
  Tb  Tb9  1  0.435410  0.750000  0.496985  1
  Tb  Tb10  1  0.936125  0.250000  0.002927  1
  Er  Er11  1  0.064338  0.750000  0.997348  1
  F  F12  1  0.877997  0.750000  0.834409  1
  F  F13  1  0.125512  0.250000  0.168675  1
  F  F14  1  0.625493  0.750000  0.331533  1
  F  F15  1  0.374415  0.250000  0.668517  1
  F  F16  1  0.841388  0.250000  0.808299  1
  F  F17  1  0.157194  0.750000  0.188827  1
  F  F18  1  0.658779  0.250000  0.308351  1
  F  F19  1  0.341555  0.750000  0.691432  1
  F  F20  1  0.649541  0.963954  0.574735  1
  F  F21  1  0.350532  0.464005  0.425271  1
  F  F22  1  0.852951  0.961367  0.073553  1
  F  F23  1  0.148204  0.467129  0.926312  1
  F  F24  1  0.389366  0.750000  0.986349  1
  F  F25  1  0.605932  0.250000  0.013708  1
  F  F26  1  0.105091  0.750000  0.486353  1
  F  F27  1  0.894890  0.250000  0.513481  1
  F  F28  1  0.148204  0.032871  0.926312  1
  F  F29  1  0.852951  0.538633  0.073553  1
  F  F30  1  0.350532  0.035995  0.425271  1
  F  F31  1  0.649541  0.536046  0.574735  1
