# generated using pymatgen
data_Y2Lu4MgCo17P12
_symmetry_space_group_name_H-M   'P 1'
_cell_length_a   3.68706300
_cell_length_b   10.50526700
_cell_length_c   12.15849600
_cell_angle_alpha   90.00000000
_cell_angle_beta   90.00000000
_cell_angle_gamma   90.00000000
_symmetry_Int_Tables_number   1
_chemical_formula_structural   Y2Lu4MgCo17P12
_chemical_formula_sum   'Y2 Lu4 Mg1 Co17 P12'
_cell_volume   470.94209283
_cell_formula_units_Z   1
loop_
 _symmetry_equiv_pos_site_id
 _symmetry_equiv_pos_as_xyz
  1  'x, y, z'
loop_
 _atom_site_type_symbol
 _atom_site_label
 _atom_site_symmetry_multiplicity
 _atom_site_fract_x
 _atom_site_fract_y
 _atom_site_fract_z
 _atom_site_occupancy
  Y  Y0  1  0.000000  0.500000  0.525828  1
  Y  Y1  1  0.500000  0.000000  0.477380  1
  Lu  Lu2  1  0.500000  0.822475  0.207146  1
  Lu  Lu3  1  0.500000  0.177525  0.207146  1
  Lu  Lu4  1  0.000000  0.681900  0.794788  1
  Lu  Lu5  1  0.000000  0.318100  0.794788  1
  Mg  Mg6  1  0.500000  0.500000  0.153875  1
  Co  Co7  1  0.000000  0.000000  0.838683  1
  Co  Co8  1  0.500000  0.500000  0.706724  1
  Co  Co9  1  0.000000  0.000000  0.293903  1
  Co  Co10  1  0.000000  0.500000  0.986268  1
  Co  Co11  1  0.500000  0.000000  0.011981  1
  Co  Co12  1  0.500000  0.329012  0.992867  1
  Co  Co13  1  0.500000  0.670988  0.992867  1
  Co  Co14  1  0.000000  0.163570  0.001662  1
  Co  Co15  1  0.000000  0.836430  0.001662  1
  Co  Co16  1  0.500000  0.295378  0.432633  1
  Co  Co17  1  0.500000  0.704622  0.432633  1
  Co  Co18  1  0.000000  0.202728  0.570805  1
  Co  Co19  1  0.000000  0.797272  0.570805  1
  Co  Co20  1  0.500000  0.879112  0.709324  1
  Co  Co21  1  0.500000  0.120888  0.709324  1
  Co  Co22  1  0.000000  0.623875  0.291933  1
  Co  Co23  1  0.000000  0.376125  0.291933  1
  P  P24  1  0.500000  0.500000  0.883524  1
  P  P25  1  0.000000  0.000000  0.116150  1
  P  P26  1  0.500000  0.500000  0.353921  1
  P  P27  1  0.000000  0.000000  0.655136  1
  P  P28  1  0.500000  0.310115  0.619047  1
  P  P29  1  0.500000  0.689885  0.619047  1
  P  P30  1  0.000000  0.188908  0.384001  1
  P  P31  1  0.000000  0.811092  0.384001  1
  P  P32  1  0.500000  0.848261  0.889324  1
  P  P33  1  0.500000  0.151739  0.889324  1
  P  P34  1  0.000000  0.664164  0.104782  1
  P  P35  1  0.000000  0.335836  0.104782  1
