# generated using pymatgen
data_Pr9Nd(In2Ru3)2
_symmetry_space_group_name_H-M   'P 1'
_cell_length_a   8.78340588
_cell_length_b   8.78340603
_cell_length_c   8.78340406
_cell_angle_alpha   109.52308953
_cell_angle_beta   109.52308162
_cell_angle_gamma   109.52308650
_symmetry_Int_Tables_number   1
_chemical_formula_structural   Pr9Nd(In2Ru3)2
_chemical_formula_sum   'Pr9 Nd1 In4 Ru6'
_cell_volume   520.63110649
_cell_formula_units_Z   1
loop_
 _symmetry_equiv_pos_site_id
 _symmetry_equiv_pos_as_xyz
  1  'x, y, z'
loop_
 _atom_site_type_symbol
 _atom_site_label
 _atom_site_symmetry_multiplicity
 _atom_site_fract_x
 _atom_site_fract_y
 _atom_site_fract_z
 _atom_site_occupancy
  Pr  Pr0  1  0.476211  0.156589  0.224443  1
  Pr  Pr1  1  0.156589  0.224443  0.476211  1
  Pr  Pr2  1  0.224443  0.476211  0.156589  1
  Pr  Pr3  1  0.408328  0.698303  0.905836  1
  Pr  Pr4  1  0.698303  0.905836  0.408328  1
  Pr  Pr5  1  0.905836  0.408328  0.698303  1
  Pr  Pr6  1  0.656732  0.089965  0.839704  1
  Pr  Pr7  1  0.089965  0.839704  0.656732  1
  Pr  Pr8  1  0.839704  0.656732  0.089965  1
  Nd  Nd9  1  0.614327  0.614327  0.614327  1
  In  In10  1  0.406553  0.314441  0.909316  1
  In  In11  1  0.314441  0.909316  0.406553  1
  In  In12  1  0.909316  0.406553  0.314441  1
  In  In13  1  0.999449  0.999449  0.999449  1
  Ru  Ru14  1  0.023622  0.158734  0.775817  1
  Ru  Ru15  1  0.158734  0.775817  0.023622  1
  Ru  Ru16  1  0.775817  0.023622  0.158734  1
  Ru  Ru17  1  0.659798  0.539361  0.292470  1
  Ru  Ru18  1  0.539361  0.292470  0.659798  1
  Ru  Ru19  1  0.292470  0.659798  0.539361  1
