# generated using pymatgen
data_Lu3Sc4Pa(ReB6)4
_symmetry_space_group_name_H-M   'P 1'
_cell_length_a   3.58604800
_cell_length_b   8.96585952
_cell_length_c   11.32692427
_cell_angle_alpha   90.09738551
_cell_angle_beta   90.00000000
_cell_angle_gamma   90.00000000
_symmetry_Int_Tables_number   1
_chemical_formula_structural   Lu3Sc4Pa(ReB6)4
_chemical_formula_sum   'Lu3 Sc4 Pa1 Re4 B24'
_cell_volume   364.18277262
_cell_formula_units_Z   1
loop_
 _symmetry_equiv_pos_site_id
 _symmetry_equiv_pos_as_xyz
  1  'x, y, z'
loop_
 _atom_site_type_symbol
 _atom_site_label
 _atom_site_symmetry_multiplicity
 _atom_site_fract_x
 _atom_site_fract_y
 _atom_site_fract_z
 _atom_site_occupancy
  Lu  Lu0  1  0.000000  0.681076  0.587782  1
  Lu  Lu1  1  0.000000  0.820942  0.085147  1
  Lu  Lu2  1  0.000000  0.177719  0.913559  1
  Sc  Sc3  1  0.000000  0.943309  0.372060  1
  Sc  Sc4  1  0.000000  0.053659  0.629356  1
  Sc  Sc5  1  0.000000  0.444874  0.126603  1
  Sc  Sc6  1  0.000000  0.556502  0.871679  1
  Pa  Pa7  1  0.000000  0.321624  0.414381  1
  Re  Re8  1  0.000000  0.638650  0.319318  1
  Re  Re9  1  0.000000  0.360406  0.679618  1
  Re  Re10  1  0.000000  0.141723  0.182050  1
  Re  Re11  1  0.000000  0.860116  0.819021  1
  B  B12  1  0.500000  0.554443  0.432431  1
  B  B13  1  0.500000  0.445599  0.568066  1
  B  B14  1  0.500000  0.053961  0.066121  1
  B  B15  1  0.500000  0.946326  0.933876  1
  B  B16  1  0.500000  0.753540  0.418908  1
  B  B17  1  0.500000  0.246373  0.582462  1
  B  B18  1  0.500000  0.252848  0.079022  1
  B  B19  1  0.500000  0.746782  0.919698  1
  B  B20  1  0.500000  0.794785  0.264461  1
  B  B21  1  0.500000  0.205407  0.736726  1
  B  B22  1  0.500000  0.294011  0.233695  1
  B  B23  1  0.500000  0.705432  0.765113  1
  B  B24  1  0.500000  0.630177  0.181799  1
  B  B25  1  0.500000  0.371217  0.817475  1
  B  B26  1  0.500000  0.128906  0.316287  1
  B  B27  1  0.500000  0.870490  0.683587  1
  B  B28  1  0.500000  0.980384  0.212478  1
  B  B29  1  0.500000  0.019323  0.787286  1
  B  B30  1  0.500000  0.482037  0.285240  1
  B  B31  1  0.500000  0.519828  0.714850  1
  B  B32  1  0.500000  0.598098  0.026175  1
  B  B33  1  0.500000  0.402255  0.972619  1
  B  B34  1  0.500000  0.096693  0.473612  1
  B  B35  1  0.500000  0.900486  0.527439  1
