# generated using pymatgen
data_Li2Al4PtRh
_symmetry_space_group_name_H-M   'P 1'
_cell_length_a   6.04855400
_cell_length_b   4.30548000
_cell_length_c   8.57519300
_cell_angle_alpha   90.00000000
_cell_angle_beta   89.99997048
_cell_angle_gamma   90.00000000
_symmetry_Int_Tables_number   1
_chemical_formula_structural   Li2Al4PtRh
_chemical_formula_sum   'Li4 Al8 Pt2 Rh2'
_cell_volume   223.31456106
_cell_formula_units_Z   2
loop_
 _symmetry_equiv_pos_site_id
 _symmetry_equiv_pos_as_xyz
  1  'x, y, z'
loop_
 _atom_site_type_symbol
 _atom_site_label
 _atom_site_symmetry_multiplicity
 _atom_site_fract_x
 _atom_site_fract_y
 _atom_site_fract_z
 _atom_site_occupancy
  Li  Li0  1  0.249936  0.250000  0.125632  1
  Li  Li1  1  0.749935  0.750001  0.374366  1
  Li  Li2  1  0.250076  0.250000  0.624308  1
  Li  Li3  1  0.750077  0.750001  0.875699  1
  Al  Al4  1  0.502555  0.750001  0.128036  1
  Al  Al5  1  0.997421  0.750001  0.128096  1
  Al  Al6  1  0.497428  0.250000  0.371902  1
  Al  Al7  1  0.002549  0.250000  0.371962  1
  Al  Al8  1  0.003106  0.750001  0.621246  1
  Al  Al9  1  0.496917  0.750001  0.621301  1
  Al  Al10  1  0.996914  0.250000  0.878700  1
  Al  Al11  1  0.503110  0.250000  0.878755  1
  Pt  Pt12  1  0.749966  0.250000  0.626378  1
  Pt  Pt13  1  0.249967  0.750001  0.873614  1
  Rh  Rh14  1  0.750022  0.250000  0.124040  1
  Rh  Rh15  1  0.250024  0.750001  0.375964  1
