# generated using pymatgen
data_Sc12InCo4Cu
_symmetry_space_group_name_H-M   'P 1'
_cell_length_a   7.73715575
_cell_length_b   7.73715478
_cell_length_c   7.73715558
_cell_angle_alpha   110.89516064
_cell_angle_beta   111.66271189
_cell_angle_gamma   105.91427689
_symmetry_Int_Tables_number   1
_chemical_formula_structural   Sc12InCo4Cu
_chemical_formula_sum   'Sc12 In1 Co4 Cu1'
_cell_volume   355.51192034
_cell_formula_units_Z   1
loop_
 _symmetry_equiv_pos_site_id
 _symmetry_equiv_pos_as_xyz
  1  'x, y, z'
loop_
 _atom_site_type_symbol
 _atom_site_label
 _atom_site_symmetry_multiplicity
 _atom_site_fract_x
 _atom_site_fract_y
 _atom_site_fract_z
 _atom_site_occupancy
  Sc  Sc0  1  0.429838  0.226229  0.203608  1
  Sc  Sc1  1  0.570162  0.773771  0.796392  1
  Sc  Sc2  1  0.022620  0.226229  0.796392  1
  Sc  Sc3  1  0.977380  0.773771  0.203608  1
  Sc  Sc4  1  0.314096  0.614952  0.300855  1
  Sc  Sc5  1  0.685904  0.385048  0.699145  1
  Sc  Sc6  1  0.314096  0.013240  0.699145  1
  Sc  Sc7  1  0.685904  0.986760  0.300855  1
  Sc  Sc8  1  0.187367  0.282589  0.469957  1
  Sc  Sc9  1  0.812633  0.717410  0.530043  1
  Sc  Sc10  1  0.187367  0.717410  0.904777  1
  Sc  Sc11  1  0.812633  0.282589  0.095223  1
  In  In12  1  0.500000  0.500000  0.000000  1
  Co  Co13  1  0.365260  0.000000  0.365260  1
  Co  Co14  1  0.634740  0.000000  0.634740  1
  Co  Co15  1  0.118674  0.618674  0.500000  1
  Co  Co16  1  0.881326  0.381326  0.500000  1
  Cu  Cu17  1  0.000000  0.000000  0.000000  1
