# generated using pymatgen
data_Zr6Cu3Ir3N2
_symmetry_space_group_name_H-M   'P 1'
_cell_length_a   8.49024408
_cell_length_b   8.49655716
_cell_length_c   8.49601300
_cell_angle_alpha   60.00374351
_cell_angle_beta   59.97896909
_cell_angle_gamma   60.13298721
_symmetry_Int_Tables_number   1
_chemical_formula_structural   Zr6Cu3Ir3N2
_chemical_formula_sum   'Zr12 Cu6 Ir6 N4'
_cell_volume   433.75152007
_cell_formula_units_Z   2
loop_
 _symmetry_equiv_pos_site_id
 _symmetry_equiv_pos_as_xyz
  1  'x, y, z'
loop_
 _atom_site_type_symbol
 _atom_site_label
 _atom_site_symmetry_multiplicity
 _atom_site_fract_x
 _atom_site_fract_y
 _atom_site_fract_z
 _atom_site_occupancy
  Zr  Zr0  1  0.805041  0.190710  0.199510  1
  Zr  Zr1  1  0.190727  0.804957  0.199560  1
  Zr  Zr2  1  0.805023  0.804963  0.195009  1
  Zr  Zr3  1  0.190728  0.804957  0.804755  1
  Zr  Zr4  1  0.805041  0.190713  0.804736  1
  Zr  Zr5  1  0.193861  0.193850  0.806144  1
  Zr  Zr6  1  0.443745  0.057400  0.057454  1
  Zr  Zr7  1  0.057399  0.443804  0.057435  1
  Zr  Zr8  1  0.440307  0.440412  0.059640  1
  Zr  Zr9  1  0.057397  0.443802  0.441365  1
  Zr  Zr10  1  0.443744  0.057398  0.441405  1
  Zr  Zr11  1  0.057440  0.057379  0.442592  1
  Cu  Cu12  1  0.508656  0.831354  0.829993  1
  Cu  Cu13  1  0.831406  0.508659  0.829965  1
  Cu  Cu14  1  0.624498  0.624543  0.116829  1
  Cu  Cu15  1  0.624504  0.624548  0.634127  1
  Cu  Cu16  1  0.122663  0.617686  0.629823  1
  Cu  Cu17  1  0.617632  0.122685  0.629839  1
  Ir  Ir18  1  0.416860  0.416896  0.752280  1
  Ir  Ir19  1  0.416861  0.416898  0.413964  1
  Ir  Ir20  1  0.750593  0.418082  0.415663  1
  Ir  Ir21  1  0.418049  0.750661  0.415645  1
  Ir  Ir22  1  0.835943  0.835811  0.495386  1
  Ir  Ir23  1  0.835947  0.835813  0.832856  1
  N  N24  1  0.126355  0.126378  0.624440  1
  N  N25  1  0.126356  0.126378  0.122826  1
  N  N26  1  0.625761  0.127501  0.123370  1
  N  N27  1  0.127460  0.625762  0.123389  1
