# generated using pymatgen
data_Li2VFeRh4
_symmetry_space_group_name_H-M   'P 1'
_cell_length_a   4.19451600
_cell_length_b   5.93329100
_cell_length_c   12.53555900
_cell_angle_alpha   89.99997663
_cell_angle_beta   89.99862685
_cell_angle_gamma   90.00003297
_symmetry_Int_Tables_number   1
_chemical_formula_structural   Li2VFeRh4
_chemical_formula_sum   'Li6 V3 Fe3 Rh12'
_cell_volume   311.97601729
_cell_formula_units_Z   3
loop_
 _symmetry_equiv_pos_site_id
 _symmetry_equiv_pos_as_xyz
  1  'x, y, z'
loop_
 _atom_site_type_symbol
 _atom_site_label
 _atom_site_symmetry_multiplicity
 _atom_site_fract_x
 _atom_site_fract_y
 _atom_site_fract_z
 _atom_site_occupancy
  Li  Li0  1  0.999978  0.000000  0.999004  1
  Li  Li1  1  0.499860  0.500000  0.166624  1
  Li  Li2  1  0.999905  0.000000  0.334333  1
  Li  Li3  1  0.499979  0.500000  0.501306  1
  Li  Li4  1  0.000090  0.000000  0.666664  1
  Li  Li5  1  0.500110  0.500000  0.832080  1
  V  V6  1  0.000005  0.500000  0.995503  1
  V  V7  1  0.499603  0.000000  0.166682  1
  V  V8  1  0.999588  0.500000  0.337840  1
  Fe  Fe9  1  0.500016  0.000000  0.502573  1
  Fe  Fe10  1  0.000401  0.500000  0.666654  1
  Fe  Fe11  1  0.500412  0.000000  0.830746  1
  Rh  Rh12  1  0.499978  0.250813  0.001966  1
  Rh  Rh13  1  0.499978  0.749186  0.001966  1
  Rh  Rh14  1  0.999765  0.249654  0.166676  1
  Rh  Rh15  1  0.999765  0.750347  0.166676  1
  Rh  Rh16  1  0.499719  0.250867  0.331359  1
  Rh  Rh17  1  0.499719  0.749132  0.331359  1
  Rh  Rh18  1  0.999980  0.252392  0.496672  1
  Rh  Rh19  1  0.999980  0.747607  0.496672  1
  Rh  Rh20  1  0.500292  0.250611  0.666672  1
  Rh  Rh21  1  0.500292  0.749389  0.666672  1
  Rh  Rh22  1  0.000291  0.252333  0.836651  1
  Rh  Rh23  1  0.000291  0.747668  0.836651  1
