# generated using pymatgen
data_Tb2Ho10Tc3Pt
_symmetry_space_group_name_H-M   'P 1'
_cell_length_a   6.28495400
_cell_length_b   7.38034557
_cell_length_c   9.14195600
_cell_angle_alpha   90.00000000
_cell_angle_beta   90.00000000
_cell_angle_gamma   89.93427600
_symmetry_Int_Tables_number   1
_chemical_formula_structural   Tb2Ho10Tc3Pt
_chemical_formula_sum   'Tb2 Ho10 Tc3 Pt1'
_cell_volume   424.05056062
_cell_formula_units_Z   1
loop_
 _symmetry_equiv_pos_site_id
 _symmetry_equiv_pos_as_xyz
  1  'x, y, z'
loop_
 _atom_site_type_symbol
 _atom_site_label
 _atom_site_symmetry_multiplicity
 _atom_site_fract_x
 _atom_site_fract_y
 _atom_site_fract_z
 _atom_site_occupancy
  Tb  Tb0  1  0.873220  0.542871  0.250000  1
  Tb  Tb1  1  0.127976  0.455472  0.750000  1
  Ho  Ho2  1  0.329833  0.676516  0.066835  1
  Ho  Ho3  1  0.164994  0.177437  0.436136  1
  Ho  Ho4  1  0.667276  0.317987  0.558872  1
  Ho  Ho5  1  0.837163  0.827258  0.939955  1
  Ho  Ho6  1  0.667276  0.317987  0.941128  1
  Ho  Ho7  1  0.837163  0.827258  0.560045  1
  Ho  Ho8  1  0.329833  0.676516  0.433165  1
  Ho  Ho9  1  0.164994  0.177437  0.063864  1
  Ho  Ho10  1  0.622966  0.038512  0.250000  1
  Ho  Ho11  1  0.371495  0.964867  0.750000  1
  Tc  Tc12  1  0.037868  0.885976  0.250000  1
  Tc  Tc13  1  0.463837  0.386945  0.250000  1
  Tc  Tc14  1  0.957399  0.113391  0.750000  1
  Pt  Pt15  1  0.546710  0.613570  0.750000  1
