# generated using pymatgen
data_TbLuPa2(Al3Ir)6
_symmetry_space_group_name_H-M   'P 1'
_cell_length_a   7.59104016
_cell_length_b   7.60025254
_cell_length_c   9.35461300
_cell_angle_alpha   90.00000000
_cell_angle_beta   90.00000000
_cell_angle_gamma   119.70214336
_symmetry_Int_Tables_number   1
_chemical_formula_structural   TbLuPa2(Al3Ir)6
_chemical_formula_sum   'Tb1 Lu1 Pa2 Al18 Ir6'
_cell_volume   468.79336053
_cell_formula_units_Z   1
loop_
 _symmetry_equiv_pos_site_id
 _symmetry_equiv_pos_as_xyz
  1  'x, y, z'
loop_
 _atom_site_type_symbol
 _atom_site_label
 _atom_site_symmetry_multiplicity
 _atom_site_fract_x
 _atom_site_fract_y
 _atom_site_fract_z
 _atom_site_occupancy
  Tb  Tb0  1  0.669442  0.993270  0.250000  1
  Lu  Lu1  1  0.330134  0.006742  0.750000  1
  Pa  Pa2  1  0.998132  0.670981  0.250000  1
  Pa  Pa3  1  0.001829  0.328920  0.750000  1
  Al  Al4  1  0.131369  0.127142  0.250000  1
  Al  Al5  1  0.869641  0.873134  0.750000  1
  Al  Al6  1  0.000844  0.331662  0.077862  1
  Al  Al7  1  0.000305  0.669419  0.921204  1
  Al  Al8  1  0.000305  0.669419  0.578796  1
  Al  Al9  1  0.337927  0.003198  0.426513  1
  Al  Al10  1  0.000844  0.331662  0.422138  1
  Al  Al11  1  0.660960  0.996744  0.575393  1
  Al  Al12  1  0.660960  0.996744  0.924607  1
  Al  Al13  1  0.337927  0.003198  0.073487  1
  Al  Al14  1  0.335129  0.332796  0.554541  1
  Al  Al15  1  0.664892  0.666368  0.446605  1
  Al  Al16  1  0.664892  0.666368  0.053395  1
  Al  Al17  1  0.335129  0.332796  0.945459  1
  Al  Al18  1  0.341120  0.547448  0.250000  1
  Al  Al19  1  0.657976  0.451334  0.750000  1
  Al  Al20  1  0.548631  0.340542  0.250000  1
  Al  Al21  1  0.450967  0.659773  0.750000  1
  Ir  Ir22  1  0.676006  0.329780  0.999122  1
  Ir  Ir23  1  0.323612  0.670234  0.000074  1
  Ir  Ir24  1  0.323612  0.670234  0.499926  1
  Ir  Ir25  1  0.676006  0.329780  0.500878  1
  Ir  Ir26  1  0.000705  0.000155  0.999447  1
  Ir  Ir27  1  0.000705  0.000155  0.500553  1
