# generated using pymatgen
data_Dy8YEr11Bi12
_symmetry_space_group_name_H-M   'P 1'
_cell_length_a   8.22619669
_cell_length_b   9.47457004
_cell_length_c   12.03417718
_cell_angle_alpha   89.99614988
_cell_angle_beta   90.01347133
_cell_angle_gamma   90.00064569
_symmetry_Int_Tables_number   1
_chemical_formula_structural   Dy8YEr11Bi12
_chemical_formula_sum   'Dy8 Y1 Er11 Bi12'
_cell_volume   937.93985036
_cell_formula_units_Z   1
loop_
 _symmetry_equiv_pos_site_id
 _symmetry_equiv_pos_as_xyz
  1  'x, y, z'
loop_
 _atom_site_type_symbol
 _atom_site_label
 _atom_site_symmetry_multiplicity
 _atom_site_fract_x
 _atom_site_fract_y
 _atom_site_fract_z
 _atom_site_occupancy
  Dy  Dy0  1  0.186278  0.749976  0.718733  1
  Dy  Dy1  1  0.686374  0.749981  0.781284  1
  Dy  Dy2  1  0.813636  0.249811  0.281122  1
  Dy  Dy3  1  0.313601  0.249952  0.218660  1
  Dy  Dy4  1  0.806624  0.436777  0.559777  1
  Dy  Dy5  1  0.353920  0.749935  0.215764  1
  Dy  Dy6  1  0.853784  0.749809  0.284224  1
  Dy  Dy7  1  0.645704  0.249670  0.784428  1
  Y  Y8  1  0.146386  0.249711  0.715727  1
  Er  Er9  1  0.025623  0.749911  0.988889  1
  Er  Er10  1  0.525432  0.750010  0.511168  1
  Er  Er11  1  0.974493  0.249951  0.011145  1
  Er  Er12  1  0.474001  0.249741  0.488819  1
  Er  Er13  1  0.306649  0.435641  0.940391  1
  Er  Er14  1  0.806520  0.064331  0.559832  1
  Er  Er15  1  0.693426  0.935647  0.059670  1
  Er  Er16  1  0.193318  0.564428  0.440240  1
  Er  Er17  1  0.693353  0.564384  0.059706  1
  Er  Er18  1  0.193669  0.935715  0.440118  1
  Er  Er19  1  0.306620  0.064332  0.940434  1
  Bi  Bi20  1  0.433725  0.003654  0.673108  1
  Bi  Bi21  1  0.933755  0.496079  0.827182  1
  Bi  Bi22  1  0.566290  0.503740  0.326816  1
  Bi  Bi23  1  0.066358  0.995997  0.172997  1
  Bi  Bi24  1  0.566300  0.996026  0.326944  1
  Bi  Bi25  1  0.066443  0.503860  0.172942  1
  Bi  Bi26  1  0.433431  0.496050  0.673143  1
  Bi  Bi27  1  0.933623  0.003730  0.827088  1
  Bi  Bi28  1  0.407899  0.749988  0.957843  1
  Bi  Bi29  1  0.908443  0.751474  0.541875  1
  Bi  Bi30  1  0.592142  0.250027  0.042231  1
  Bi  Bi31  1  0.092179  0.249663  0.457701  1
