# generated using pymatgen
data_SrMn2(Co3O8)2
_symmetry_space_group_name_H-M   'P 1'
_cell_length_a   5.74164909
_cell_length_b   6.94878128
_cell_length_c   6.89390529
_cell_angle_alpha   87.97063979
_cell_angle_beta   102.04759153
_cell_angle_gamma   101.95929755
_symmetry_Int_Tables_number   1
_chemical_formula_structural   SrMn2(Co3O8)2
_chemical_formula_sum   'Sr1 Mn2 Co6 O16'
_cell_volume   263.14397971
_cell_formula_units_Z   1
loop_
 _symmetry_equiv_pos_site_id
 _symmetry_equiv_pos_as_xyz
  1  'x, y, z'
loop_
 _atom_site_type_symbol
 _atom_site_label
 _atom_site_symmetry_multiplicity
 _atom_site_fract_x
 _atom_site_fract_y
 _atom_site_fract_z
 _atom_site_occupancy
  Sr  Sr0  1  0.995259  0.987035  0.994906  1
  Mn  Mn1  1  0.575321  0.821732  0.481053  1
  Mn  Mn2  1  0.077620  0.820312  0.488242  1
  Co  Co3  1  0.926963  0.190380  0.515529  1
  Co  Co4  1  0.426726  0.188758  0.519071  1
  Co  Co5  1  0.165271  0.479048  0.181734  1
  Co  Co6  1  0.664060  0.473969  0.182175  1
  Co  Co7  1  0.334499  0.512478  0.819697  1
  Co  Co8  1  0.830017  0.507844  0.819892  1
  O  O9  1  0.679697  0.054910  0.649297  1
  O  O10  1  0.173584  0.055841  0.652007  1
  O  O11  1  0.830649  0.958871  0.347551  1
  O  O12  1  0.322469  0.958351  0.347974  1
  O  O13  1  0.652006  0.637821  0.959249  1
  O  O14  1  0.145970  0.639167  0.956243  1
  O  O15  1  0.851600  0.343653  0.046457  1
  O  O16  1  0.343352  0.345435  0.045119  1
  O  O17  1  0.975735  0.622788  0.285601  1
  O  O18  1  0.477948  0.616424  0.289337  1
  O  O19  1  0.521015  0.383975  0.701795  1
  O  O20  1  0.020465  0.379988  0.700262  1
  O  O21  1  0.667752  0.295291  0.378252  1
  O  O22  1  0.167784  0.293612  0.374790  1
  O  O23  1  0.836615  0.718485  0.635664  1
  O  O24  1  0.337623  0.713832  0.628104  1
