# generated using pymatgen
data_Tb2B6Ir4Rh5
_symmetry_space_group_name_H-M   'P 1'
_cell_length_a   5.62725200
_cell_length_b   5.63088954
_cell_length_c   8.61991900
_cell_angle_alpha   90.00000000
_cell_angle_beta   90.00000000
_cell_angle_gamma   119.97863289
_symmetry_Int_Tables_number   1
_chemical_formula_structural   Tb2B6Ir4Rh5
_chemical_formula_sum   'Tb2 B6 Ir4 Rh5'
_cell_volume   236.59232703
_cell_formula_units_Z   1
loop_
 _symmetry_equiv_pos_site_id
 _symmetry_equiv_pos_as_xyz
  1  'x, y, z'
loop_
 _atom_site_type_symbol
 _atom_site_label
 _atom_site_symmetry_multiplicity
 _atom_site_fract_x
 _atom_site_fract_y
 _atom_site_fract_z
 _atom_site_occupancy
  Tb  Tb0  1  0.000000  0.000000  0.702057  1
  Tb  Tb1  1  0.000000  0.000000  0.298356  1
  B  B2  1  0.666349  0.332696  0.999863  1
  B  B3  1  0.333651  0.667304  0.999863  1
  B  B4  1  0.666364  0.332728  0.667770  1
  B  B5  1  0.333636  0.667272  0.667770  1
  B  B6  1  0.333262  0.666524  0.332204  1
  B  B7  1  0.666738  0.333476  0.332204  1
  Ir  Ir8  1  0.500000  0.000000  0.837050  1
  Ir  Ir9  1  0.500000  0.500000  0.499796  1
  Ir  Ir10  1  0.500000  0.000000  0.499078  1
  Ir  Ir11  1  0.000000  0.500000  0.499796  1
  Rh  Rh12  1  0.500000  0.500000  0.836741  1
  Rh  Rh13  1  0.000000  0.500000  0.836741  1
  Rh  Rh14  1  0.500000  0.500000  0.163398  1
  Rh  Rh15  1  0.500000  0.000000  0.163915  1
  Rh  Rh16  1  0.000000  0.500000  0.163398  1
