# generated using pymatgen
data_Pr19ErSi15As
_symmetry_space_group_name_H-M   'P 1'
_cell_length_a   7.92676290
_cell_length_b   7.91825324
_cell_length_c   15.33354792
_cell_angle_alpha   89.96958669
_cell_angle_beta   89.66528551
_cell_angle_gamma   89.95243952
_symmetry_Int_Tables_number   1
_chemical_formula_structural   Pr19ErSi15As
_chemical_formula_sum   'Pr19 Er1 Si15 As1'
_cell_volume   962.41036064
_cell_formula_units_Z   1
loop_
 _symmetry_equiv_pos_site_id
 _symmetry_equiv_pos_as_xyz
  1  'x, y, z'
loop_
 _atom_site_type_symbol
 _atom_site_label
 _atom_site_symmetry_multiplicity
 _atom_site_fract_x
 _atom_site_fract_y
 _atom_site_fract_z
 _atom_site_occupancy
  Pr  Pr0  1  0.190003  0.809124  0.249753  1
  Pr  Pr1  1  0.804704  0.190645  0.751311  1
  Pr  Pr2  1  0.689141  0.690282  0.498194  1
  Pr  Pr3  1  0.379442  0.009831  0.445792  1
  Pr  Pr4  1  0.490150  0.877388  0.697752  1
  Pr  Pr5  1  0.509849  0.122304  0.195989  1
  Pr  Pr6  1  0.877659  0.488076  0.301787  1
  Pr  Pr7  1  0.123230  0.510279  0.804342  1
  Pr  Pr8  1  0.623998  0.987696  0.947933  1
  Pr  Pr9  1  0.006906  0.378683  0.551279  1
  Pr  Pr10  1  0.988883  0.620956  0.052878  1
  Pr  Pr11  1  0.130132  0.983562  0.876380  1
  Pr  Pr12  1  0.518660  0.627711  0.125683  1
  Pr  Pr13  1  0.480020  0.372876  0.628611  1
  Pr  Pr14  1  0.628557  0.519214  0.874358  1
  Pr  Pr15  1  0.372589  0.479571  0.373140  1
  Pr  Pr16  1  0.873283  0.019046  0.376754  1
  Pr  Pr17  1  0.981302  0.127924  0.123295  1
  Pr  Pr18  1  0.017768  0.871784  0.623215  1
  Er  Er19  1  0.312702  0.311091  0.999791  1
  Si  Si20  1  0.329292  0.692258  0.953340  1
  Si  Si21  1  0.667209  0.304728  0.453454  1
  Si  Si22  1  0.693546  0.330768  0.046980  1
  Si  Si23  1  0.303746  0.667831  0.548232  1
  Si  Si24  1  0.804078  0.831778  0.202422  1
  Si  Si25  1  0.168328  0.196044  0.296377  1
  Si  Si26  1  0.834811  0.804090  0.797358  1
  Si  Si27  1  0.288572  0.925454  0.058626  1
  Si  Si28  1  0.577958  0.787738  0.308986  1
  Si  Si29  1  0.428999  0.213038  0.818484  1
  Si  Si30  1  0.788469  0.578874  0.689731  1
  Si  Si31  1  0.213908  0.419208  0.186664  1
  Si  Si32  1  0.708050  0.077222  0.560464  1
  Si  Si33  1  0.927969  0.289750  0.941067  1
  Si  Si34  1  0.078571  0.711245  0.440449  1
  As  As35  1  0.187518  0.171928  0.699129  1
