# generated using pymatgen
data_DyErSc2(CrB6)2
_symmetry_space_group_name_H-M   'P 1'
_cell_length_a   3.45777600
_cell_length_b   8.99504300
_cell_length_c   11.34804800
_cell_angle_alpha   90.00252344
_cell_angle_beta   90.00000000
_cell_angle_gamma   90.00000000
_symmetry_Int_Tables_number   1
_chemical_formula_structural   DyErSc2(CrB6)2
_chemical_formula_sum   'Dy2 Er2 Sc4 Cr4 B24'
_cell_volume   352.95656426
_cell_formula_units_Z   2
loop_
 _symmetry_equiv_pos_site_id
 _symmetry_equiv_pos_as_xyz
  1  'x, y, z'
loop_
 _atom_site_type_symbol
 _atom_site_label
 _atom_site_symmetry_multiplicity
 _atom_site_fract_x
 _atom_site_fract_y
 _atom_site_fract_z
 _atom_site_occupancy
  Dy  Dy0  1  0.000000  0.822886  0.085241  1
  Dy  Dy1  1  0.000000  0.177114  0.914759  1
  Er  Er2  1  0.000000  0.323080  0.414817  1
  Er  Er3  1  0.000000  0.676920  0.585183  1
  Sc  Sc4  1  0.000000  0.443054  0.131285  1
  Sc  Sc5  1  0.000000  0.556946  0.868715  1
  Sc  Sc6  1  0.000000  0.943254  0.369414  1
  Sc  Sc7  1  0.000000  0.056746  0.630586  1
  Cr  Cr8  1  0.000000  0.142012  0.182659  1
  Cr  Cr9  1  0.000000  0.857988  0.817341  1
  Cr  Cr10  1  0.000000  0.641153  0.318599  1
  Cr  Cr11  1  0.000000  0.358847  0.681401  1
  B  B12  1  0.500000  0.054951  0.068192  1
  B  B13  1  0.500000  0.945049  0.931808  1
  B  B14  1  0.500000  0.554540  0.432721  1
  B  B15  1  0.500000  0.445460  0.567279  1
  B  B16  1  0.500000  0.253246  0.083250  1
  B  B17  1  0.500000  0.746754  0.916750  1
  B  B18  1  0.500000  0.752872  0.417866  1
  B  B19  1  0.500000  0.247128  0.582134  1
  B  B20  1  0.500000  0.294793  0.236476  1
  B  B21  1  0.500000  0.705207  0.763524  1
  B  B22  1  0.500000  0.794423  0.264769  1
  B  B23  1  0.500000  0.205577  0.735231  1
  B  B24  1  0.500000  0.130075  0.317355  1
  B  B25  1  0.500000  0.869925  0.682645  1
  B  B26  1  0.500000  0.629441  0.183595  1
  B  B27  1  0.500000  0.370559  0.816405  1
  B  B28  1  0.500000  0.482310  0.287086  1
  B  B29  1  0.500000  0.517690  0.712914  1
  B  B30  1  0.500000  0.982828  0.214018  1
  B  B31  1  0.500000  0.017172  0.785982  1
  B  B32  1  0.500000  0.096497  0.473954  1
  B  B33  1  0.500000  0.903503  0.526046  1
  B  B34  1  0.500000  0.595755  0.025921  1
  B  B35  1  0.500000  0.404245  0.974079  1
