# generated using pymatgen
data_La2Al6GaNi
_symmetry_space_group_name_H-M   'P 1'
_cell_length_a   6.12587348
_cell_length_b   6.13277414
_cell_length_c   11.56806220
_cell_angle_alpha   74.62868088
_cell_angle_beta   74.64640115
_cell_angle_gamma   90.00000267
_symmetry_Int_Tables_number   1
_chemical_formula_structural   La2Al6GaNi
_chemical_formula_sum   'La4 Al12 Ga2 Ni2'
_cell_volume   402.94096081
_cell_formula_units_Z   2
loop_
 _symmetry_equiv_pos_site_id
 _symmetry_equiv_pos_as_xyz
  1  'x, y, z'
loop_
 _atom_site_type_symbol
 _atom_site_label
 _atom_site_symmetry_multiplicity
 _atom_site_fract_x
 _atom_site_fract_y
 _atom_site_fract_z
 _atom_site_occupancy
  La  La0  1  0.995982  0.995982  0.008036  1
  La  La1  1  0.499147  0.499147  0.001705  1
  La  La2  1  0.748776  0.248776  0.502449  1
  La  La3  1  0.246161  0.746161  0.507680  1
  Al  Al4  1  0.603204  0.129772  0.255403  1
  Al  Al5  1  0.141392  0.614823  0.255403  1
  Al  Al6  1  0.603204  0.614823  0.255403  1
  Al  Al7  1  0.141392  0.129772  0.255403  1
  Al  Al8  1  0.864857  0.351006  0.754327  1
  Al  Al9  1  0.380816  0.894666  0.754327  1
  Al  Al10  1  0.864857  0.894666  0.754327  1
  Al  Al11  1  0.380816  0.351006  0.754327  1
  Al  Al12  1  0.692902  0.692902  0.614196  1
  Al  Al13  1  0.061880  0.561880  0.876240  1
  Al  Al14  1  0.453502  0.953502  0.092995  1
  Al  Al15  1  0.942727  0.442727  0.114546  1
  Ga  Ga16  1  0.203893  0.203893  0.592215  1
  Ga  Ga17  1  0.810615  0.810615  0.378770  1
  Ni  Ni18  1  0.314621  0.314621  0.370759  1
  Ni  Ni19  1  0.564090  0.064090  0.871822  1
