# generated using pymatgen
data_Ho2UAl3IrRu2
_symmetry_space_group_name_H-M   'P 1'
_cell_length_a   6.77899661
_cell_length_b   7.26403666
_cell_length_c   4.07390200
_cell_angle_alpha   90.00000000
_cell_angle_beta   90.00000000
_cell_angle_gamma   122.39650388
_symmetry_Int_Tables_number   1
_chemical_formula_structural   Ho2UAl3IrRu2
_chemical_formula_sum   'Ho2 U1 Al3 Ir1 Ru2'
_cell_volume   169.38774718
_cell_formula_units_Z   1
loop_
 _symmetry_equiv_pos_site_id
 _symmetry_equiv_pos_as_xyz
  1  'x, y, z'
loop_
 _atom_site_type_symbol
 _atom_site_label
 _atom_site_symmetry_multiplicity
 _atom_site_fract_x
 _atom_site_fract_y
 _atom_site_fract_z
 _atom_site_occupancy
  Ho  Ho0  1  0.418042  0.418977  0.500000  1
  Ho  Ho1  1  0.581958  0.000935  0.500000  1
  U  U2  1  0.000000  0.584130  0.500000  1
  Al  Al3  1  0.743930  0.757659  0.000000  1
  Al  Al4  1  0.256070  0.013730  0.000000  1
  Al  Al5  1  0.000000  0.216850  0.000000  1
  Ir  Ir6  1  0.000000  0.982694  0.500000  1
  Ru  Ru7  1  0.732813  0.378920  0.000000  1
  Ru  Ru8  1  0.267187  0.646107  0.000000  1
