# generated using pymatgen
data_Li6Hg3(AsS3)4
_symmetry_space_group_name_H-M   'P 1'
_cell_length_a   8.83036607
_cell_length_b   8.83036653
_cell_length_c   8.83036758
_cell_angle_alpha   107.17162097
_cell_angle_beta   107.17162455
_cell_angle_gamma   107.17162740
_symmetry_Int_Tables_number   1
_chemical_formula_structural   Li6Hg3(AsS3)4
_chemical_formula_sum   'Li6 Hg3 As4 S12'
_cell_volume   570.72607651
_cell_formula_units_Z   1
loop_
 _symmetry_equiv_pos_site_id
 _symmetry_equiv_pos_as_xyz
  1  'x, y, z'
loop_
 _atom_site_type_symbol
 _atom_site_label
 _atom_site_symmetry_multiplicity
 _atom_site_fract_x
 _atom_site_fract_y
 _atom_site_fract_z
 _atom_site_occupancy
  Li  Li0  1  0.905201  0.748378  0.272736  1
  Li  Li1  1  0.272736  0.905201  0.748378  1
  Li  Li2  1  0.574912  0.791073  0.520159  1
  Li  Li3  1  0.791073  0.520159  0.574912  1
  Li  Li4  1  0.748378  0.272736  0.905201  1
  Li  Li5  1  0.520159  0.574912  0.791073  1
  Hg  Hg6  1  0.673504  0.063886  0.202588  1
  Hg  Hg7  1  0.063886  0.202588  0.673504  1
  Hg  Hg8  1  0.202588  0.673504  0.063886  1
  As  As9  1  0.428182  0.367815  0.146123  1
  As  As10  1  0.146123  0.428182  0.367815  1
  As  As11  1  0.367815  0.146123  0.428182  1
  As  As12  1  0.993661  0.993661  0.993661  1
  S  S13  1  0.670092  0.605025  0.346248  1
  S  S14  1  0.605025  0.346248  0.670092  1
  S  S15  1  0.346248  0.670092  0.605025  1
  S  S16  1  0.043048  0.769161  0.838449  1
  S  S17  1  0.470597  0.934775  0.338869  1
  S  S18  1  0.934775  0.338869  0.470597  1
  S  S19  1  0.338869  0.470597  0.934775  1
  S  S20  1  0.514948  0.174054  0.994015  1
  S  S21  1  0.838449  0.043048  0.769161  1
  S  S22  1  0.994015  0.514948  0.174054  1
  S  S23  1  0.769161  0.838449  0.043048  1
  S  S24  1  0.174054  0.994015  0.514948  1
