# generated using pymatgen
data_LiPr2WN4
_symmetry_space_group_name_H-M   'P 1'
_cell_length_a   5.84058400
_cell_length_b   6.13138034
_cell_length_c   6.79012386
_cell_angle_alpha   73.31591801
_cell_angle_beta   90.00000000
_cell_angle_gamma   90.00000000
_symmetry_Int_Tables_number   1
_chemical_formula_structural   LiPr2WN4
_chemical_formula_sum   'Li2 Pr4 W2 N8'
_cell_volume   232.92357131
_cell_formula_units_Z   2
loop_
 _symmetry_equiv_pos_site_id
 _symmetry_equiv_pos_as_xyz
  1  'x, y, z'
loop_
 _atom_site_type_symbol
 _atom_site_label
 _atom_site_symmetry_multiplicity
 _atom_site_fract_x
 _atom_site_fract_y
 _atom_site_fract_z
 _atom_site_occupancy
  Li  Li0  1  0.750000  0.295879  0.308781  1
  Li  Li1  1  0.250000  0.704121  0.691219  1
  Pr  Pr2  1  0.250000  0.260673  0.059960  1
  Pr  Pr3  1  0.750000  0.739327  0.940040  1
  Pr  Pr4  1  0.750000  0.777462  0.430871  1
  Pr  Pr5  1  0.250000  0.222538  0.569129  1
  W  W6  1  0.250000  0.728897  0.196802  1
  W  W7  1  0.750000  0.271103  0.803198  1
  N  N8  1  0.503140  0.475541  0.751925  1
  N  N9  1  0.003140  0.524459  0.248075  1
  N  N10  1  0.496860  0.524459  0.248075  1
  N  N11  1  0.996860  0.475541  0.751925  1
  N  N12  1  0.750000  0.083880  0.619172  1
  N  N13  1  0.250000  0.916120  0.380828  1
  N  N14  1  0.750000  0.091690  0.084746  1
  N  N15  1  0.250000  0.908310  0.915254  1
