# generated using pymatgen
data_Tm2Tc3Os
_symmetry_space_group_name_H-M   'P 1'
_cell_length_a   5.28079500
_cell_length_b   5.28079352
_cell_length_c   8.99797900
_cell_angle_alpha   90.00000000
_cell_angle_beta   90.00000000
_cell_angle_gamma   119.99327938
_symmetry_Int_Tables_number   1
_chemical_formula_structural   Tm2Tc3Os
_chemical_formula_sum   'Tm4 Tc6 Os2'
_cell_volume   217.32190809
_cell_formula_units_Z   2
loop_
 _symmetry_equiv_pos_site_id
 _symmetry_equiv_pos_as_xyz
  1  'x, y, z'
loop_
 _atom_site_type_symbol
 _atom_site_label
 _atom_site_symmetry_multiplicity
 _atom_site_fract_x
 _atom_site_fract_y
 _atom_site_fract_z
 _atom_site_occupancy
  Tm  Tm0  1  0.666685  0.333315  0.562014  1
  Tm  Tm1  1  0.333315  0.666685  0.437986  1
  Tm  Tm2  1  0.333315  0.666685  0.062014  1
  Tm  Tm3  1  0.666685  0.333315  0.937986  1
  Tc  Tc4  1  0.170988  0.341935  0.750000  1
  Tc  Tc5  1  0.170972  0.829028  0.750000  1
  Tc  Tc6  1  0.658065  0.829012  0.750000  1
  Tc  Tc7  1  0.829012  0.658065  0.250000  1
  Tc  Tc8  1  0.829028  0.170972  0.250000  1
  Tc  Tc9  1  0.341935  0.170988  0.250000  1
  Os  Os10  1  0.000000  0.000000  0.500000  1
  Os  Os11  1  0.000000  0.000000  0.000000  1
