# generated using pymatgen
data_Tm12Mn2In2Pt
_symmetry_space_group_name_H-M   'P 1'
_cell_length_a   8.27366996
_cell_length_b   8.27366959
_cell_length_c   8.27367100
_cell_angle_alpha   108.60458913
_cell_angle_beta   108.60460287
_cell_angle_gamma   111.21874227
_symmetry_Int_Tables_number   1
_chemical_formula_structural   Tm12Mn2In2Pt
_chemical_formula_sum   'Tm12 Mn2 In2 Pt1'
_cell_volume   435.68089218
_cell_formula_units_Z   1
loop_
 _symmetry_equiv_pos_site_id
 _symmetry_equiv_pos_as_xyz
  1  'x, y, z'
loop_
 _atom_site_type_symbol
 _atom_site_label
 _atom_site_symmetry_multiplicity
 _atom_site_fract_x
 _atom_site_fract_y
 _atom_site_fract_z
 _atom_site_occupancy
  Tm  Tm0  1  0.195538  0.435960  0.240422  1
  Tm  Tm1  1  0.804462  0.564040  0.759578  1
  Tm  Tm2  1  0.195538  0.955117  0.759578  1
  Tm  Tm3  1  0.955117  0.195538  0.759578  1
  Tm  Tm4  1  0.804462  0.044883  0.240422  1
  Tm  Tm5  1  0.044883  0.804462  0.240422  1
  Tm  Tm6  1  0.435960  0.195538  0.240422  1
  Tm  Tm7  1  0.564040  0.804462  0.759578  1
  Tm  Tm8  1  0.307741  0.307741  0.615482  1
  Tm  Tm9  1  0.692259  0.692259  0.384518  1
  Tm  Tm10  1  0.692259  0.307741  0.000000  1
  Tm  Tm11  1  0.307741  0.692259  0.000000  1
  Mn  Mn12  1  0.387884  0.387884  0.000000  1
  Mn  Mn13  1  0.612116  0.612116  0.000000  1
  In  In14  1  0.000000  0.500000  0.500000  1
  In  In15  1  0.500000  0.000000  0.500000  1
  Pt  Pt16  1  0.000000  0.000000  0.000000  1
