# generated using pymatgen
data_AcSm(ReH9)2
_symmetry_space_group_name_H-M   'P 1'
_cell_length_a   4.99453000
_cell_length_b   4.99453062
_cell_length_c   8.71428400
_cell_angle_alpha   90.00000000
_cell_angle_beta   90.00000000
_cell_angle_gamma   120.00000913
_symmetry_Int_Tables_number   1
_chemical_formula_structural   AcSm(ReH9)2
_chemical_formula_sum   'Ac1 Sm1 Re2 H18'
_cell_volume   188.25720541
_cell_formula_units_Z   1
loop_
 _symmetry_equiv_pos_site_id
 _symmetry_equiv_pos_as_xyz
  1  'x, y, z'
loop_
 _atom_site_type_symbol
 _atom_site_label
 _atom_site_symmetry_multiplicity
 _atom_site_fract_x
 _atom_site_fract_y
 _atom_site_fract_z
 _atom_site_occupancy
  Ac  Ac0  1  0.000000  0.000000  0.000000  1
  Sm  Sm1  1  0.000000  0.000000  0.500000  1
  Re  Re2  1  0.333333  0.666667  0.256040  1
  Re  Re3  1  0.666667  0.333333  0.743960  1
  H  H4  1  0.468423  0.531577  0.400399  1
  H  H5  1  0.468423  0.936846  0.400399  1
  H  H6  1  0.063154  0.531577  0.400399  1
  H  H7  1  0.957638  0.478819  0.881019  1
  H  H8  1  0.133763  0.267526  0.263674  1
  H  H9  1  0.866237  0.133763  0.736326  1
  H  H10  1  0.267526  0.133763  0.736326  1
  H  H11  1  0.732474  0.866237  0.263674  1
  H  H12  1  0.133763  0.866237  0.263674  1
  H  H13  1  0.866237  0.732474  0.736326  1
  H  H14  1  0.478819  0.957638  0.118981  1
  H  H15  1  0.531577  0.468423  0.599601  1
  H  H16  1  0.936846  0.468423  0.599601  1
  H  H17  1  0.042362  0.521181  0.118981  1
  H  H18  1  0.478819  0.521181  0.118981  1
  H  H19  1  0.521181  0.042362  0.881019  1
  H  H20  1  0.521181  0.478819  0.881019  1
  H  H21  1  0.531577  0.063154  0.599601  1
