# generated using pymatgen
data_Dy(Y3In2)3
_symmetry_space_group_name_H-M   'P 1'
_cell_length_a   9.18994482
_cell_length_b   9.18994314
_cell_length_c   9.18519763
_cell_angle_alpha   96.43577538
_cell_angle_beta   96.22852280
_cell_angle_gamma   141.21759145
_symmetry_Int_Tables_number   1
_chemical_formula_structural   Dy(Y3In2)3
_chemical_formula_sum   'Dy1 Y9 In6'
_cell_volume   458.30052661
_cell_formula_units_Z   1
loop_
 _symmetry_equiv_pos_site_id
 _symmetry_equiv_pos_as_xyz
  1  'x, y, z'
loop_
 _atom_site_type_symbol
 _atom_site_label
 _atom_site_symmetry_multiplicity
 _atom_site_fract_x
 _atom_site_fract_y
 _atom_site_fract_z
 _atom_site_occupancy
  Dy  Dy0  1  0.081842  0.783453  0.865295  1
  Y  Y1  1  0.716043  0.418091  0.134134  1
  Y  Y2  1  0.283357  0.581943  0.865299  1
  Y  Y3  1  0.581805  0.716352  0.298156  1
  Y  Y4  1  0.216287  0.081725  0.298012  1
  Y  Y5  1  0.918138  0.216279  0.134417  1
  Y  Y6  1  0.750149  0.250136  0.500175  1
  Y  Y7  1  0.250039  0.750026  0.500175  1
  Y  Y8  1  0.783705  0.918342  0.702048  1
  Y  Y9  1  0.418539  0.283717  0.702257  1
  In  In10  1  0.838211  0.661591  0.499803  1
  In  In11  1  0.338531  0.838402  0.176933  1
  In  In12  1  0.749960  0.750150  0.999997  1
  In  In13  1  0.661832  0.161587  0.823420  1
  In  In14  1  0.161716  0.338168  0.499885  1
  In  In15  1  0.249846  0.250036  0.999997  1
