# generated using pymatgen
data_LaTbSiNiI
_symmetry_space_group_name_H-M   'P 1'
_cell_length_a   4.12247500
_cell_length_b   4.12247468
_cell_length_c   8.47437300
_cell_angle_alpha   90.00000000
_cell_angle_beta   90.00000000
_cell_angle_gamma   119.99999451
_symmetry_Int_Tables_number   1
_chemical_formula_structural   LaTbSiNiI
_chemical_formula_sum   'La1 Tb1 Si1 Ni1 I1'
_cell_volume   124.72521442
_cell_formula_units_Z   1
loop_
 _symmetry_equiv_pos_site_id
 _symmetry_equiv_pos_as_xyz
  1  'x, y, z'
loop_
 _atom_site_type_symbol
 _atom_site_label
 _atom_site_symmetry_multiplicity
 _atom_site_fract_x
 _atom_site_fract_y
 _atom_site_fract_z
 _atom_site_occupancy
  La  La0  1  0.000000  0.000000  0.785545  1
  Tb  Tb1  1  0.000000  0.000000  0.212995  1
  Si  Si2  1  0.333333  0.666667  0.022404  1
  Ni  Ni3  1  0.666667  0.333333  0.993071  1
  I  I4  1  0.666667  0.333333  0.485985  1
