# generated using pymatgen
data_Ac7SmAg7Sn8Pd
_symmetry_space_group_name_H-M   'P 1'
_cell_length_a   9.75290100
_cell_length_b   9.75290109
_cell_length_c   8.26083100
_cell_angle_alpha   90.00000000
_cell_angle_beta   90.00000000
_cell_angle_gamma   119.99998951
_symmetry_Int_Tables_number   1
_chemical_formula_structural   Ac7SmAg7Sn8Pd
_chemical_formula_sum   'Ac7 Sm1 Ag7 Sn8 Pd1'
_cell_volume   680.49047522
_cell_formula_units_Z   1
loop_
 _symmetry_equiv_pos_site_id
 _symmetry_equiv_pos_as_xyz
  1  'x, y, z'
loop_
 _atom_site_type_symbol
 _atom_site_label
 _atom_site_symmetry_multiplicity
 _atom_site_fract_x
 _atom_site_fract_y
 _atom_site_fract_z
 _atom_site_occupancy
  Ac  Ac0  1  0.482380  0.517620  0.508758  1
  Ac  Ac1  1  0.482380  0.964761  0.508758  1
  Ac  Ac2  1  0.035239  0.517620  0.508758  1
  Ac  Ac3  1  0.514077  0.485923  0.002397  1
  Ac  Ac4  1  0.514077  0.028152  0.002397  1
  Ac  Ac5  1  0.971848  0.485923  0.002397  1
  Ac  Ac6  1  0.000000  0.000000  0.504326  1
  Sm  Sm7  1  0.000000  0.000000  0.001960  1
  Ag  Ag8  1  0.834633  0.165367  0.723403  1
  Ag  Ag9  1  0.834633  0.669269  0.723403  1
  Ag  Ag10  1  0.330731  0.165367  0.723403  1
  Ag  Ag11  1  0.163789  0.836211  0.196763  1
  Ag  Ag12  1  0.163789  0.327576  0.196763  1
  Ag  Ag13  1  0.672424  0.836211  0.196763  1
  Ag  Ag14  1  0.666667  0.333333  0.301963  1
  Sn  Sn15  1  0.835372  0.164628  0.282586  1
  Sn  Sn16  1  0.835372  0.670744  0.282586  1
  Sn  Sn17  1  0.329256  0.164628  0.282586  1
  Sn  Sn18  1  0.165073  0.834927  0.798120  1
  Sn  Sn19  1  0.165073  0.330150  0.798120  1
  Sn  Sn20  1  0.669850  0.834927  0.798120  1
  Sn  Sn21  1  0.666667  0.333333  0.710884  1
  Sn  Sn22  1  0.333333  0.666667  0.217488  1
  Pd  Pd23  1  0.333333  0.666667  0.785314  1
