# generated using pymatgen
data_NaNd3(P3Rh4)2
_symmetry_space_group_name_H-M   'P 1'
_cell_length_a   4.00255700
_cell_length_b   11.38644000
_cell_length_c   13.02706500
_cell_angle_alpha   90.00000000
_cell_angle_beta   90.00000000
_cell_angle_gamma   90.00000000
_symmetry_Int_Tables_number   1
_chemical_formula_structural   NaNd3(P3Rh4)2
_chemical_formula_sum   'Na2 Nd6 P12 Rh16'
_cell_volume   593.70686065
_cell_formula_units_Z   2
loop_
 _symmetry_equiv_pos_site_id
 _symmetry_equiv_pos_as_xyz
  1  'x, y, z'
loop_
 _atom_site_type_symbol
 _atom_site_label
 _atom_site_symmetry_multiplicity
 _atom_site_fract_x
 _atom_site_fract_y
 _atom_site_fract_z
 _atom_site_occupancy
  Na  Na0  1  0.500000  0.500000  0.155525  1
  Na  Na1  1  0.000000  0.000000  0.844475  1
  Nd  Nd2  1  0.000000  0.500000  0.519491  1
  Nd  Nd3  1  0.500000  0.000000  0.480509  1
  Nd  Nd4  1  0.500000  0.819427  0.206092  1
  Nd  Nd5  1  0.500000  0.180573  0.206092  1
  Nd  Nd6  1  0.000000  0.680573  0.793908  1
  Nd  Nd7  1  0.000000  0.319427  0.793908  1
  P  P8  1  0.500000  0.500000  0.884415  1
  P  P9  1  0.000000  0.000000  0.115585  1
  P  P10  1  0.500000  0.500000  0.351721  1
  P  P11  1  0.000000  0.000000  0.648279  1
  P  P12  1  0.500000  0.310144  0.615936  1
  P  P13  1  0.500000  0.689856  0.615936  1
  P  P14  1  0.000000  0.189856  0.384064  1
  P  P15  1  0.000000  0.810144  0.384064  1
  P  P16  1  0.500000  0.839940  0.893915  1
  P  P17  1  0.500000  0.160060  0.893915  1
  P  P18  1  0.000000  0.660060  0.106085  1
  P  P19  1  0.000000  0.339940  0.106085  1
  Rh  Rh20  1  0.500000  0.500000  0.704174  1
  Rh  Rh21  1  0.000000  0.000000  0.295826  1
  Rh  Rh22  1  0.000000  0.500000  0.984751  1
  Rh  Rh23  1  0.500000  0.000000  0.015249  1
  Rh  Rh24  1  0.500000  0.332141  0.994933  1
  Rh  Rh25  1  0.500000  0.667859  0.994933  1
  Rh  Rh26  1  0.000000  0.167859  0.005067  1
  Rh  Rh27  1  0.000000  0.832141  0.005067  1
  Rh  Rh28  1  0.500000  0.291933  0.431880  1
  Rh  Rh29  1  0.500000  0.708067  0.431880  1
  Rh  Rh30  1  0.000000  0.208067  0.568120  1
  Rh  Rh31  1  0.000000  0.791933  0.568120  1
  Rh  Rh32  1  0.500000  0.874276  0.705868  1
  Rh  Rh33  1  0.500000  0.125724  0.705868  1
  Rh  Rh34  1  0.000000  0.625724  0.294132  1
  Rh  Rh35  1  0.000000  0.374276  0.294132  1
