# generated using pymatgen
data_Ta4Pb3O13
_symmetry_space_group_name_H-M   'P 1'
_cell_length_a   7.52246420
_cell_length_b   7.52246356
_cell_length_c   7.52246420
_cell_angle_alpha   60.29274024
_cell_angle_beta   60.29274638
_cell_angle_gamma   60.29275472
_symmetry_Int_Tables_number   1
_chemical_formula_structural   Ta4Pb3O13
_chemical_formula_sum   'Ta4 Pb3 O13'
_cell_volume   302.99331289
_cell_formula_units_Z   1
loop_
 _symmetry_equiv_pos_site_id
 _symmetry_equiv_pos_as_xyz
  1  'x, y, z'
loop_
 _atom_site_type_symbol
 _atom_site_label
 _atom_site_symmetry_multiplicity
 _atom_site_fract_x
 _atom_site_fract_y
 _atom_site_fract_z
 _atom_site_occupancy
  Ta  Ta0  1  0.499649  0.499649  0.499649  1
  Ta  Ta1  1  0.000001  0.499609  0.499609  1
  Ta  Ta2  1  0.499609  0.499609  0.000001  1
  Ta  Ta3  1  0.499609  0.000001  0.499609  1
  Pb  Pb4  1  0.494514  0.002400  0.002400  1
  Pb  Pb5  1  0.002400  0.002400  0.494514  1
  Pb  Pb6  1  0.002400  0.494514  0.002400  1
  O  O7  1  0.813340  0.433228  0.433228  1
  O  O8  1  0.444139  0.810279  0.810279  1
  O  O9  1  0.433228  0.433228  0.813340  1
  O  O10  1  0.810279  0.810279  0.444139  1
  O  O11  1  0.810279  0.444139  0.810279  1
  O  O12  1  0.433228  0.813340  0.433228  1
  O  O13  1  0.187691  0.562830  0.562830  1
  O  O14  1  0.555032  0.187951  0.187951  1
  O  O15  1  0.562830  0.562830  0.187691  1
  O  O16  1  0.187951  0.187951  0.555032  1
  O  O17  1  0.187951  0.555032  0.187951  1
  O  O18  1  0.562830  0.187691  0.562830  1
  O  O19  1  0.138037  0.138037  0.138037  1
