# generated using pymatgen
data_BaYb3(RuO3)8
_symmetry_space_group_name_H-M   'P 1'
_cell_length_a   5.33697745
_cell_length_b   7.37460052
_cell_length_c   10.94637700
_cell_angle_alpha   90.00526761
_cell_angle_beta   89.84934682
_cell_angle_gamma   89.97907555
_symmetry_Int_Tables_number   1
_chemical_formula_structural   BaYb3(RuO3)8
_chemical_formula_sum   'Ba1 Yb3 Ru8 O24'
_cell_volume   430.82682555
_cell_formula_units_Z   1
loop_
 _symmetry_equiv_pos_site_id
 _symmetry_equiv_pos_as_xyz
  1  'x, y, z'
loop_
 _atom_site_type_symbol
 _atom_site_label
 _atom_site_symmetry_multiplicity
 _atom_site_fract_x
 _atom_site_fract_y
 _atom_site_fract_z
 _atom_site_occupancy
  Ba  Ba0  1  0.035368  0.250063  0.454575  1
  Yb  Yb1  1  0.449953  0.250004  0.953486  1
  Yb  Yb2  1  0.946036  0.749944  0.551607  1
  Yb  Yb3  1  0.544978  0.749989  0.045335  1
  Ru  Ru4  1  0.556306  0.992223  0.359894  1
  Ru  Ru5  1  0.061666  0.999890  0.136386  1
  Ru  Ru6  1  0.436215  0.995765  0.643419  1
  Ru  Ru7  1  0.934624  0.999649  0.860831  1
  Ru  Ru8  1  0.556043  0.508207  0.360019  1
  Ru  Ru9  1  0.061260  0.501131  0.136421  1
  Ru  Ru10  1  0.436035  0.503601  0.643570  1
  Ru  Ru11  1  0.935372  0.499450  0.860879  1
  O  O12  1  0.692277  0.749872  0.370972  1
  O  O13  1  0.181518  0.250055  0.125944  1
  O  O14  1  0.353214  0.249871  0.631591  1
  O  O15  1  0.828601  0.749989  0.877872  1
  O  O16  1  0.474871  0.250137  0.356522  1
  O  O17  1  0.941438  0.750130  0.136393  1
  O  O18  1  0.564580  0.750122  0.659752  1
  O  O19  1  0.061102  0.249935  0.852448  1
  O  O20  1  0.627397  0.436271  0.786275  1
  O  O21  1  0.121789  0.565056  0.715845  1
  O  O22  1  0.366683  0.568166  0.215476  1
  O  O23  1  0.854207  0.447916  0.271353  1
  O  O24  1  0.772174  0.044138  0.021347  1
  O  O25  1  0.282401  0.940017  0.479791  1
  O  O26  1  0.230574  0.960950  0.975412  1
  O  O27  1  0.719176  0.019740  0.525477  1
  O  O28  1  0.718908  0.480328  0.525414  1
  O  O29  1  0.230761  0.538949  0.975111  1
  O  O30  1  0.282261  0.559956  0.480185  1
  O  O31  1  0.772134  0.456216  0.021459  1
  O  O32  1  0.626462  0.064347  0.786440  1
  O  O33  1  0.122733  0.935552  0.716011  1
  O  O34  1  0.366931  0.931724  0.215277  1
  O  O35  1  0.853949  0.050651  0.271212  1
