# generated using pymatgen
data_Ba8YHo3(FeO5)4
_symmetry_space_group_name_H-M   'P 1'
_cell_length_a   6.15339002
_cell_length_b   7.96440007
_cell_length_c   12.74744357
_cell_angle_alpha   91.20467692
_cell_angle_beta   90.00424304
_cell_angle_gamma   89.99097380
_symmetry_Int_Tables_number   1
_chemical_formula_structural   Ba8YHo3(FeO5)4
_chemical_formula_sum   'Ba8 Y1 Ho3 Fe4 O20'
_cell_volume   624.58938618
_cell_formula_units_Z   1
loop_
 _symmetry_equiv_pos_site_id
 _symmetry_equiv_pos_as_xyz
  1  'x, y, z'
loop_
 _atom_site_type_symbol
 _atom_site_label
 _atom_site_symmetry_multiplicity
 _atom_site_fract_x
 _atom_site_fract_y
 _atom_site_fract_z
 _atom_site_occupancy
  Ba  Ba0  1  0.761335  0.489657  0.353898  1
  Ba  Ba1  1  0.739364  0.988967  0.854979  1
  Ba  Ba2  1  0.238300  0.511711  0.645800  1
  Ba  Ba3  1  0.260478  0.010107  0.145289  1
  Ba  Ba4  1  0.758700  0.995511  0.375575  1
  Ba  Ba5  1  0.741876  0.496569  0.876970  1
  Ba  Ba6  1  0.240894  0.003262  0.623906  1
  Ba  Ba7  1  0.258104  0.503999  0.123658  1
  Y  Y8  1  0.748898  0.261406  0.630127  1
  Ho  Ho9  1  0.750498  0.760848  0.130271  1
  Ho  Ho10  1  0.250664  0.738790  0.369538  1
  Ho  Ho11  1  0.249064  0.239277  0.869811  1
  Fe  Fe12  1  0.735580  0.744967  0.584233  1
  Fe  Fe13  1  0.765202  0.245204  0.084015  1
  Fe  Fe14  1  0.265636  0.254773  0.415130  1
  Fe  Fe15  1  0.235841  0.754821  0.915996  1
  O  O16  1  0.765775  0.967754  0.640415  1
  O  O17  1  0.735018  0.469015  0.139423  1
  O  O18  1  0.234283  0.030862  0.359940  1
  O  O19  1  0.264616  0.531094  0.860551  1
  O  O20  1  0.734766  0.052852  0.168957  1
  O  O21  1  0.765771  0.554867  0.670342  1
  O  O22  1  0.264849  0.947066  0.831020  1
  O  O23  1  0.234239  0.446706  0.330396  1
  O  O24  1  0.545640  0.747777  0.273472  1
  O  O25  1  0.952366  0.248146  0.775411  1
  O  O26  1  0.450323  0.252467  0.725643  1
  O  O27  1  0.045410  0.751835  0.226345  1
  O  O28  1  0.547844  0.231132  0.976218  1
  O  O29  1  0.952413  0.730677  0.476173  1
  O  O30  1  0.452895  0.768885  0.023574  1
  O  O31  1  0.050470  0.269259  0.524127  1
  O  O32  1  0.046316  0.238287  0.020622  1
  O  O33  1  0.454128  0.738021  0.520001  1
  O  O34  1  0.954759  0.762020  0.980407  1
  O  O35  1  0.547684  0.261411  0.477770  1
