# generated using pymatgen
data_Tb3YAl18Pd5W
_symmetry_space_group_name_H-M   'P 1'
_cell_length_a   7.64195991
_cell_length_b   7.64189538
_cell_length_c   9.54848538
_cell_angle_alpha   89.64668181
_cell_angle_beta   89.65335101
_cell_angle_gamma   118.92477669
_symmetry_Int_Tables_number   1
_chemical_formula_structural   Tb3YAl18Pd5W
_chemical_formula_sum   'Tb3 Y1 Al18 Pd5 W1'
_cell_volume   488.02691125
_cell_formula_units_Z   1
loop_
 _symmetry_equiv_pos_site_id
 _symmetry_equiv_pos_as_xyz
  1  'x, y, z'
loop_
 _atom_site_type_symbol
 _atom_site_label
 _atom_site_symmetry_multiplicity
 _atom_site_fract_x
 _atom_site_fract_y
 _atom_site_fract_z
 _atom_site_occupancy
  Tb  Tb0  1  0.995133  0.678410  0.247155  1
  Tb  Tb1  1  0.004998  0.321579  0.752781  1
  Tb  Tb2  1  0.678379  0.995066  0.247208  1
  Y  Y3  1  0.321577  0.004918  0.752874  1
  Al  Al4  1  0.135545  0.135498  0.249158  1
  Al  Al5  1  0.864630  0.864582  0.750836  1
  Al  Al6  1  0.003097  0.335582  0.075917  1
  Al  Al7  1  0.997073  0.664613  0.924011  1
  Al  Al8  1  0.998288  0.661077  0.577863  1
  Al  Al9  1  0.338939  0.001707  0.422123  1
  Al  Al10  1  0.001736  0.338983  0.422151  1
  Al  Al11  1  0.661026  0.998243  0.577843  1
  Al  Al12  1  0.664325  0.996938  0.924059  1
  Al  Al13  1  0.335552  0.003069  0.075826  1
  Al  Al14  1  0.333698  0.333659  0.554677  1
  Al  Al15  1  0.666296  0.666291  0.445386  1
  Al  Al16  1  0.666546  0.666536  0.052093  1
  Al  Al17  1  0.333417  0.333286  0.947826  1
  Al  Al18  1  0.342183  0.550452  0.250256  1
  Al  Al19  1  0.657891  0.449543  0.749732  1
  Al  Al20  1  0.550450  0.342134  0.250275  1
  Al  Al21  1  0.449515  0.657819  0.749732  1
  Pd  Pd22  1  0.672194  0.327646  0.999910  1
  Pd  Pd23  1  0.327716  0.672367  0.999913  1
  Pd  Pd24  1  0.327974  0.672168  0.500107  1
  Pd  Pd25  1  0.671827  0.327813  0.500130  1
  Pd  Pd26  1  0.000106  0.000012  0.500106  1
  W  W27  1  0.999888  0.000006  0.000052  1
