# generated using pymatgen
data_Hf3Zr3Sn2Ge
_symmetry_space_group_name_H-M   'P 1'
_cell_length_a   7.67131400
_cell_length_b   7.67131467
_cell_length_c   3.85856500
_cell_angle_alpha   90.00000000
_cell_angle_beta   90.00000000
_cell_angle_gamma   120.00000574
_symmetry_Int_Tables_number   1
_chemical_formula_structural   Hf3Zr3Sn2Ge
_chemical_formula_sum   'Hf3 Zr3 Sn2 Ge1'
_cell_volume   196.65092073
_cell_formula_units_Z   1
loop_
 _symmetry_equiv_pos_site_id
 _symmetry_equiv_pos_as_xyz
  1  'x, y, z'
loop_
 _atom_site_type_symbol
 _atom_site_label
 _atom_site_symmetry_multiplicity
 _atom_site_fract_x
 _atom_site_fract_y
 _atom_site_fract_z
 _atom_site_occupancy
  Hf  Hf0  1  0.246438  0.000000  0.500000  1
  Hf  Hf1  1  0.000000  0.246438  0.500000  1
  Hf  Hf2  1  0.753562  0.753562  0.500000  1
  Zr  Zr3  1  0.605817  0.000000  0.000000  1
  Zr  Zr4  1  0.000000  0.605817  0.000000  1
  Zr  Zr5  1  0.394183  0.394183  0.000000  1
  Sn  Sn6  1  0.333333  0.666667  0.500000  1
  Sn  Sn7  1  0.666667  0.333333  0.500000  1
  Ge  Ge8  1  0.000000  0.000000  0.000000  1
