# generated using pymatgen
data_Ho12Co3NiBiRu
_symmetry_space_group_name_H-M   'P 1'
_cell_length_a   8.28657514
_cell_length_b   8.28608229
_cell_length_c   8.28657500
_cell_angle_alpha   111.43292597
_cell_angle_beta   109.78168630
_cell_angle_gamma   107.22892474
_symmetry_Int_Tables_number   1
_chemical_formula_structural   Ho12Co3NiBiRu
_chemical_formula_sum   'Ho12 Co3 Ni1 Bi1 Ru1'
_cell_volume   437.39475138
_cell_formula_units_Z   1
loop_
 _symmetry_equiv_pos_site_id
 _symmetry_equiv_pos_as_xyz
  1  'x, y, z'
loop_
 _atom_site_type_symbol
 _atom_site_label
 _atom_site_symmetry_multiplicity
 _atom_site_fract_x
 _atom_site_fract_y
 _atom_site_fract_z
 _atom_site_occupancy
  Ho  Ho0  1  0.822190  0.715939  0.538128  1
  Ho  Ho1  1  0.180897  0.281466  0.462363  1
  Ho  Ho2  1  0.180899  0.718534  0.899432  1
  Ho  Ho3  1  0.822188  0.284061  0.106252  1
  Ho  Ho4  1  0.681869  0.372748  0.686728  1
  Ho  Ho5  1  0.313978  0.627252  0.309120  1
  Ho  Ho6  1  0.681866  0.995137  0.309120  1
  Ho  Ho7  1  0.313983  0.004863  0.686728  1
  Ho  Ho8  1  0.589450  0.783289  0.806151  1
  Ho  Ho9  1  0.409975  0.216176  0.193807  1
  Ho  Ho10  1  0.977630  0.783824  0.193798  1
  Ho  Ho11  1  0.022862  0.216711  0.806160  1
  Co  Co12  1  0.359548  0.000000  0.359548  1
  Co  Co13  1  0.114493  0.612665  0.501819  1
  Co  Co14  1  0.889154  0.387335  0.501828  1
  Ni  Ni15  1  0.638348  0.000000  0.638348  1
  Bi  Bi16  1  0.500720  0.500000  0.000720  1
  Ru  Ru17  1  0.999949  0.000000  0.999949  1
