# generated using pymatgen
data_Tb3Ho2InBi2
_symmetry_space_group_name_H-M   'P 1'
_cell_length_a   9.11223261
_cell_length_b   9.11223076
_cell_length_c   6.51528600
_cell_angle_alpha   90.00000000
_cell_angle_beta   90.00000000
_cell_angle_gamma   119.76802924
_symmetry_Int_Tables_number   1
_chemical_formula_structural   Tb3Ho2InBi2
_chemical_formula_sum   'Tb6 Ho4 In2 Bi4'
_cell_volume   469.59562728
_cell_formula_units_Z   2
loop_
 _symmetry_equiv_pos_site_id
 _symmetry_equiv_pos_as_xyz
  1  'x, y, z'
loop_
 _atom_site_type_symbol
 _atom_site_label
 _atom_site_symmetry_multiplicity
 _atom_site_fract_x
 _atom_site_fract_y
 _atom_site_fract_z
 _atom_site_occupancy
  Tb  Tb0  1  0.761503  0.761503  0.750000  1
  Tb  Tb1  1  0.236334  0.998507  0.750000  1
  Tb  Tb2  1  0.998507  0.236334  0.750000  1
  Tb  Tb3  1  0.234784  0.234784  0.250000  1
  Tb  Tb4  1  0.764801  0.008098  0.250000  1
  Tb  Tb5  1  0.008098  0.764801  0.250000  1
  Ho  Ho6  1  0.668787  0.328896  0.003487  1
  Ho  Ho7  1  0.328896  0.668787  0.003487  1
  Ho  Ho8  1  0.328896  0.668787  0.496513  1
  Ho  Ho9  1  0.668787  0.328896  0.496513  1
  In  In10  1  0.396451  0.001346  0.250000  1
  In  In11  1  0.001346  0.396451  0.250000  1
  Bi  Bi12  1  0.394028  0.394028  0.750000  1
  Bi  Bi13  1  0.603040  0.997031  0.750000  1
  Bi  Bi14  1  0.997031  0.603040  0.750000  1
  Bi  Bi15  1  0.608712  0.608712  0.250000  1
