# generated using pymatgen
data_TbEr5(Co3P2)6
_symmetry_space_group_name_H-M   'P 1'
_cell_length_a   3.67733500
_cell_length_b   10.49727100
_cell_length_c   12.13198500
_cell_angle_alpha   90.00000000
_cell_angle_beta   90.00000000
_cell_angle_gamma   90.00000000
_symmetry_Int_Tables_number   1
_chemical_formula_structural   TbEr5(Co3P2)6
_chemical_formula_sum   'Tb1 Er5 Co18 P12'
_cell_volume   468.31866723
_cell_formula_units_Z   1
loop_
 _symmetry_equiv_pos_site_id
 _symmetry_equiv_pos_as_xyz
  1  'x, y, z'
loop_
 _atom_site_type_symbol
 _atom_site_label
 _atom_site_symmetry_multiplicity
 _atom_site_fract_x
 _atom_site_fract_y
 _atom_site_fract_z
 _atom_site_occupancy
  Tb  Tb0  1  0.750000  0.250000  0.477914  1
  Er  Er1  1  0.250000  0.750000  0.521911  1
  Er  Er2  1  0.250000  0.932851  0.793939  1
  Er  Er3  1  0.250000  0.567149  0.793939  1
  Er  Er4  1  0.750000  0.066973  0.205906  1
  Er  Er5  1  0.750000  0.433027  0.205906  1
  Co  Co6  1  0.250000  0.250000  0.841282  1
  Co  Co7  1  0.750000  0.750000  0.158770  1
  Co  Co8  1  0.250000  0.250000  0.296321  1
  Co  Co9  1  0.750000  0.750000  0.702793  1
  Co  Co10  1  0.750000  0.250000  0.014580  1
  Co  Co11  1  0.250000  0.750000  0.985441  1
  Co  Co12  1  0.250000  0.416681  0.005808  1
  Co  Co13  1  0.250000  0.083319  0.005808  1
  Co  Co14  1  0.750000  0.583283  0.994187  1
  Co  Co15  1  0.750000  0.916717  0.994187  1
  Co  Co16  1  0.250000  0.453630  0.569553  1
  Co  Co17  1  0.250000  0.046370  0.569553  1
  Co  Co18  1  0.750000  0.547256  0.430676  1
  Co  Co19  1  0.750000  0.952744  0.430676  1
  Co  Co20  1  0.250000  0.871227  0.290413  1
  Co  Co21  1  0.250000  0.628773  0.290413  1
  Co  Co22  1  0.750000  0.128611  0.709873  1
  Co  Co23  1  0.750000  0.371389  0.709873  1
  P  P24  1  0.250000  0.250000  0.117971  1
  P  P25  1  0.750000  0.750000  0.881928  1
  P  P26  1  0.250000  0.250000  0.656777  1
  P  P27  1  0.750000  0.750000  0.344146  1
  P  P28  1  0.250000  0.439228  0.383453  1
  P  P29  1  0.250000  0.060772  0.383453  1
  P  P30  1  0.750000  0.561591  0.616239  1
  P  P31  1  0.750000  0.938409  0.616239  1
  P  P32  1  0.250000  0.902484  0.107119  1
  P  P33  1  0.250000  0.597516  0.107119  1
  P  P34  1  0.750000  0.097522  0.892916  1
  P  P35  1  0.750000  0.402478  0.892916  1
