# generated using pymatgen
data_Hf2ScPaI12
_symmetry_space_group_name_H-M   'P 1'
_cell_length_a   6.73764800
_cell_length_b   7.91419434
_cell_length_c   13.80255300
_cell_angle_alpha   90.00000000
_cell_angle_beta   90.00000000
_cell_angle_gamma   90.01672353
_symmetry_Int_Tables_number   1
_chemical_formula_structural   Hf2ScPaI12
_chemical_formula_sum   'Hf2 Sc1 Pa1 I12'
_cell_volume   735.99427034
_cell_formula_units_Z   1
loop_
 _symmetry_equiv_pos_site_id
 _symmetry_equiv_pos_as_xyz
  1  'x, y, z'
loop_
 _atom_site_type_symbol
 _atom_site_label
 _atom_site_symmetry_multiplicity
 _atom_site_fract_x
 _atom_site_fract_y
 _atom_site_fract_z
 _atom_site_occupancy
  Hf  Hf0  1  0.750092  0.249374  0.500000  1
  Hf  Hf1  1  0.749829  0.750525  0.000000  1
  Sc  Sc2  1  0.249999  0.249411  0.500000  1
  Pa  Pa3  1  0.249989  0.750605  0.000000  1
  I  I4  1  0.504554  0.398345  0.352006  1
  I  I5  1  0.981173  0.596872  0.844792  1
  I  I6  1  0.981173  0.596872  0.155208  1
  I  I7  1  0.504554  0.398345  0.647994  1
  I  I8  1  0.518750  0.904446  0.844903  1
  I  I9  1  0.995611  0.100331  0.352028  1
  I  I10  1  0.995611  0.100331  0.647972  1
  I  I11  1  0.518750  0.904446  0.155097  1
  I  I12  1  0.504744  0.951753  0.500000  1
  I  I13  1  0.981464  0.062526  0.000000  1
  I  I14  1  0.518409  0.438706  0.000000  1
  I  I15  1  0.995297  0.547112  0.500000  1
