# generated using pymatgen
data_SmHo2Co2P6Ru7
_symmetry_space_group_name_H-M   'P 1'
_cell_length_a   3.88647700
_cell_length_b   10.89755400
_cell_length_c   12.72296200
_cell_angle_alpha   90.00000000
_cell_angle_beta   90.00000000
_cell_angle_gamma   90.00000000
_symmetry_Int_Tables_number   1
_chemical_formula_structural   SmHo2Co2P6Ru7
_chemical_formula_sum   'Sm2 Ho4 Co4 P12 Ru14'
_cell_volume   538.85679253
_cell_formula_units_Z   2
loop_
 _symmetry_equiv_pos_site_id
 _symmetry_equiv_pos_as_xyz
  1  'x, y, z'
loop_
 _atom_site_type_symbol
 _atom_site_label
 _atom_site_symmetry_multiplicity
 _atom_site_fract_x
 _atom_site_fract_y
 _atom_site_fract_z
 _atom_site_occupancy
  Sm  Sm0  1  0.000000  0.500000  0.525938  1
  Sm  Sm1  1  0.500000  0.000000  0.473254  1
  Ho  Ho2  1  0.500000  0.821733  0.202430  1
  Ho  Ho3  1  0.500000  0.178267  0.202430  1
  Ho  Ho4  1  0.000000  0.681077  0.798137  1
  Ho  Ho5  1  0.000000  0.318923  0.798137  1
  Co  Co6  1  0.000000  0.500000  0.988590  1
  Co  Co7  1  0.500000  0.000000  0.012688  1
  Co  Co8  1  0.000000  0.162439  0.010120  1
  Co  Co9  1  0.000000  0.837561  0.010120  1
  P  P10  1  0.500000  0.305715  0.617283  1
  P  P11  1  0.500000  0.694285  0.617283  1
  P  P12  1  0.000000  0.194370  0.383305  1
  P  P13  1  0.000000  0.805630  0.383305  1
  P  P14  1  0.500000  0.500000  0.886871  1
  P  P15  1  0.000000  0.000000  0.112215  1
  P  P16  1  0.500000  0.851816  0.896345  1
  P  P17  1  0.500000  0.148184  0.896345  1
  P  P18  1  0.000000  0.656116  0.100941  1
  P  P19  1  0.000000  0.343884  0.100941  1
  P  P20  1  0.500000  0.500000  0.335137  1
  P  P21  1  0.000000  0.000000  0.664181  1
  Ru  Ru22  1  0.500000  0.299042  0.428313  1
  Ru  Ru23  1  0.500000  0.700958  0.428313  1
  Ru  Ru24  1  0.000000  0.200808  0.572134  1
  Ru  Ru25  1  0.000000  0.799192  0.572134  1
  Ru  Ru26  1  0.500000  0.877567  0.716725  1
  Ru  Ru27  1  0.500000  0.122433  0.716725  1
  Ru  Ru28  1  0.000000  0.623989  0.281354  1
  Ru  Ru29  1  0.000000  0.376011  0.281354  1
  Ru  Ru30  1  0.500000  0.326764  0.992461  1
  Ru  Ru31  1  0.500000  0.673236  0.992461  1
  Ru  Ru32  1  0.500000  0.500000  0.151738  1
  Ru  Ru33  1  0.000000  0.000000  0.851357  1
  Ru  Ru34  1  0.500000  0.500000  0.702523  1
  Ru  Ru35  1  0.000000  0.000000  0.296413  1
