# generated using pymatgen
data_Dy2Cu3Ni4
_symmetry_space_group_name_H-M   'P 1'
_cell_length_a   4.99036351
_cell_length_b   4.98186110
_cell_length_c   12.48749358
_cell_angle_alpha   78.49381104
_cell_angle_beta   78.39629777
_cell_angle_gamma   60.05634366
_symmetry_Int_Tables_number   1
_chemical_formula_structural   Dy2Cu3Ni4
_chemical_formula_sum   'Dy4 Cu6 Ni8'
_cell_volume   261.71540146
_cell_formula_units_Z   2
loop_
 _symmetry_equiv_pos_site_id
 _symmetry_equiv_pos_as_xyz
  1  'x, y, z'
loop_
 _atom_site_type_symbol
 _atom_site_label
 _atom_site_symmetry_multiplicity
 _atom_site_fract_x
 _atom_site_fract_y
 _atom_site_fract_z
 _atom_site_occupancy
  Dy  Dy0  1  0.947055  0.946168  0.160611  1
  Dy  Dy1  1  0.052945  0.053832  0.839389  1
  Dy  Dy2  1  0.852580  0.851815  0.443788  1
  Dy  Dy3  1  0.147420  0.148185  0.556212  1
  Cu  Cu4  1  0.726307  0.720837  0.832020  1
  Cu  Cu5  1  0.273693  0.279163  0.167980  1
  Cu  Cu6  1  0.615495  0.608186  0.168134  1
  Cu  Cu7  1  0.384505  0.391814  0.831866  1
  Cu  Cu8  1  0.500000  0.000000  0.000000  1
  Cu  Cu9  1  0.500000  0.500000  0.000000  1
  Ni  Ni10  1  0.500000  0.500000  0.500000  1
  Ni  Ni11  1  0.000000  0.500000  0.000000  1
  Ni  Ni12  1  0.389359  0.388262  0.332685  1
  Ni  Ni13  1  0.889823  0.388391  0.333394  1
  Ni  Ni14  1  0.389359  0.889694  0.332685  1
  Ni  Ni15  1  0.610641  0.611738  0.667315  1
  Ni  Ni16  1  0.110177  0.611609  0.666606  1
  Ni  Ni17  1  0.610641  0.110306  0.667315  1
