# generated using pymatgen
data_Cs8Tl10Ge
_symmetry_space_group_name_H-M   'P 1'
_cell_length_a   11.12925700
_cell_length_b   11.12925700
_cell_length_c   15.11976400
_cell_angle_alpha   90.00000000
_cell_angle_beta   90.00000000
_cell_angle_gamma   90.00000000
_symmetry_Int_Tables_number   1
_chemical_formula_structural   Cs8Tl10Ge
_chemical_formula_sum   'Cs16 Tl20 Ge2'
_cell_volume   1872.73943290
_cell_formula_units_Z   2
loop_
 _symmetry_equiv_pos_site_id
 _symmetry_equiv_pos_as_xyz
  1  'x, y, z'
loop_
 _atom_site_type_symbol
 _atom_site_label
 _atom_site_symmetry_multiplicity
 _atom_site_fract_x
 _atom_site_fract_y
 _atom_site_fract_z
 _atom_site_occupancy
  Cs  Cs0  1  0.956980  0.179937  0.107845  1
  Cs  Cs1  1  0.543019  0.320063  0.107845  1
  Cs  Cs2  1  0.179937  0.543019  0.107845  1
  Cs  Cs3  1  0.320063  0.956980  0.107845  1
  Cs  Cs4  1  0.543019  0.179937  0.392156  1
  Cs  Cs5  1  0.956980  0.320063  0.392156  1
  Cs  Cs6  1  0.320063  0.543019  0.392156  1
  Cs  Cs7  1  0.179937  0.956980  0.392156  1
  Cs  Cs8  1  0.820063  0.043019  0.607844  1
  Cs  Cs9  1  0.679937  0.456980  0.607844  1
  Cs  Cs10  1  0.043019  0.679937  0.607844  1
  Cs  Cs11  1  0.456980  0.820063  0.607844  1
  Cs  Cs12  1  0.679937  0.043019  0.892156  1
  Cs  Cs13  1  0.820063  0.456980  0.892156  1
  Cs  Cs14  1  0.456980  0.679937  0.892156  1
  Cs  Cs15  1  0.043019  0.820063  0.892156  1
  Tl  Tl16  1  0.750000  0.750000  0.035234  1
  Tl  Tl17  1  0.838611  0.526293  0.161113  1
  Tl  Tl18  1  0.526293  0.661390  0.161113  1
  Tl  Tl19  1  0.973707  0.838611  0.161113  1
  Tl  Tl20  1  0.661390  0.973707  0.161113  1
  Tl  Tl21  1  0.661390  0.526293  0.338886  1
  Tl  Tl22  1  0.973707  0.661390  0.338886  1
  Tl  Tl23  1  0.526293  0.838611  0.338886  1
  Tl  Tl24  1  0.838611  0.973707  0.338886  1
  Tl  Tl25  1  0.750000  0.750000  0.464766  1
  Tl  Tl26  1  0.250000  0.250000  0.535234  1
  Tl  Tl27  1  0.161390  0.026293  0.661113  1
  Tl  Tl28  1  0.473707  0.161390  0.661113  1
  Tl  Tl29  1  0.026293  0.338610  0.661113  1
  Tl  Tl30  1  0.338610  0.473707  0.661113  1
  Tl  Tl31  1  0.338610  0.026293  0.838886  1
  Tl  Tl32  1  0.026293  0.161390  0.838886  1
  Tl  Tl33  1  0.473707  0.338610  0.838886  1
  Tl  Tl34  1  0.161390  0.473707  0.838886  1
  Tl  Tl35  1  0.250000  0.250000  0.964766  1
  Ge  Ge36  1  0.750000  0.750000  0.250000  1
  Ge  Ge37  1  0.250000  0.250000  0.750000  1
