# generated using pymatgen
data_LuScNi7HgB2
_symmetry_space_group_name_H-M   'P 1'
_cell_length_a   4.93176668
_cell_length_b   4.93212054
_cell_length_c   14.06458000
_cell_angle_alpha   90.00000000
_cell_angle_beta   90.00000000
_cell_angle_gamma   119.93732480
_symmetry_Int_Tables_number   1
_chemical_formula_structural   LuScNi7HgB2
_chemical_formula_sum   'Lu2 Sc2 Ni14 Hg2 B4'
_cell_volume   296.46097981
_cell_formula_units_Z   2
loop_
 _symmetry_equiv_pos_site_id
 _symmetry_equiv_pos_as_xyz
  1  'x, y, z'
loop_
 _atom_site_type_symbol
 _atom_site_label
 _atom_site_symmetry_multiplicity
 _atom_site_fract_x
 _atom_site_fract_y
 _atom_site_fract_z
 _atom_site_occupancy
  Lu  Lu0  1  0.333332  0.666667  0.744707  1
  Lu  Lu1  1  0.666668  0.333333  0.244707  1
  Sc  Sc2  1  0.666676  0.333311  0.472082  1
  Sc  Sc3  1  0.333324  0.666689  0.972082  1
  Ni  Ni4  1  0.000021  0.999991  0.999852  1
  Ni  Ni5  1  0.999979  0.000009  0.499852  1
  Ni  Ni6  1  0.166156  0.332319  0.146790  1
  Ni  Ni7  1  0.833844  0.667681  0.646790  1
  Ni  Ni8  1  0.667681  0.833856  0.146796  1
  Ni  Ni9  1  0.166205  0.833813  0.146762  1
  Ni  Ni10  1  0.833795  0.166187  0.646762  1
  Ni  Ni11  1  0.332319  0.166144  0.646796  1
  Ni  Ni12  1  0.834128  0.668247  0.853207  1
  Ni  Ni13  1  0.834147  0.165890  0.853170  1
  Ni  Ni14  1  0.331755  0.165875  0.853213  1
  Ni  Ni15  1  0.668245  0.834125  0.353213  1
  Ni  Ni16  1  0.165853  0.834110  0.353170  1
  Ni  Ni17  1  0.165872  0.331753  0.353207  1
  Hg  Hg18  1  0.333335  0.666671  0.530867  1
  Hg  Hg19  1  0.666665  0.333329  0.030867  1
  B  B20  1  0.333338  0.666670  0.250260  1
  B  B21  1  0.666662  0.333330  0.750260  1
  B  B22  1  0.999988  0.999989  0.252293  1
  B  B23  1  0.000012  0.000011  0.752293  1
