# generated using pymatgen
data_Ce4AlB4(Ir2Rh)3
_symmetry_space_group_name_H-M   'P 1'
_cell_length_a   10.80422194
_cell_length_b   10.80422177
_cell_length_c   10.80422172
_cell_angle_alpha   29.78574252
_cell_angle_beta   29.78574453
_cell_angle_gamma   29.78574509
_symmetry_Int_Tables_number   1
_chemical_formula_structural   Ce4AlB4(Ir2Rh)3
_chemical_formula_sum   'Ce4 Al1 B4 Ir6 Rh3'
_cell_volume   275.58757315
_cell_formula_units_Z   1
loop_
 _symmetry_equiv_pos_site_id
 _symmetry_equiv_pos_as_xyz
  1  'x, y, z'
loop_
 _atom_site_type_symbol
 _atom_site_label
 _atom_site_symmetry_multiplicity
 _atom_site_fract_x
 _atom_site_fract_y
 _atom_site_fract_z
 _atom_site_occupancy
  Ce  Ce0  1  0.149030  0.149030  0.149030  1
  Ce  Ce1  1  0.947997  0.947997  0.947997  1
  Ce  Ce2  1  0.850970  0.850970  0.850970  1
  Ce  Ce3  1  0.052003  0.052003  0.052003  1
  Al  Al4  1  0.500000  0.500000  0.500000  1
  B  B5  1  0.615676  0.615676  0.615676  1
  B  B6  1  0.718018  0.718018  0.718018  1
  B  B7  1  0.384324  0.384324  0.384324  1
  B  B8  1  0.281982  0.281982  0.281982  1
  Ir  Ir9  1  0.402104  0.902003  0.402104  1
  Ir  Ir10  1  0.902003  0.402104  0.402104  1
  Ir  Ir11  1  0.597896  0.097997  0.597896  1
  Ir  Ir12  1  0.597896  0.597896  0.097997  1
  Ir  Ir13  1  0.097997  0.597896  0.597896  1
  Ir  Ir14  1  0.402104  0.402104  0.902003  1
  Rh  Rh15  1  0.500000  0.500000  0.000000  1
  Rh  Rh16  1  0.500000  0.000000  0.500000  1
  Rh  Rh17  1  0.000000  0.500000  0.500000  1
