# generated using pymatgen
data_YbPr3Y3FeI12
_symmetry_space_group_name_H-M   'P 1'
_cell_length_a   9.94926688
_cell_length_b   9.90904697
_cell_length_c   9.91966014
_cell_angle_alpha   107.06894840
_cell_angle_beta   106.51652218
_cell_angle_gamma   107.37767203
_symmetry_Int_Tables_number   1
_chemical_formula_structural   YbPr3Y3FeI12
_chemical_formula_sum   'Yb1 Pr3 Y3 Fe1 I12'
_cell_volume   814.68823406
_cell_formula_units_Z   1
loop_
 _symmetry_equiv_pos_site_id
 _symmetry_equiv_pos_as_xyz
  1  'x, y, z'
loop_
 _atom_site_type_symbol
 _atom_site_label
 _atom_site_symmetry_multiplicity
 _atom_site_fract_x
 _atom_site_fract_y
 _atom_site_fract_z
 _atom_site_occupancy
  Yb  Yb0  1  0.998868  0.999577  0.000592  1
  Pr  Pr1  1  0.476008  0.404375  0.206214  1
  Pr  Pr2  1  0.595861  0.793957  0.524629  1
  Pr  Pr3  1  0.404402  0.206418  0.473938  1
  Y  Y4  1  0.801837  0.528377  0.599816  1
  Y  Y5  1  0.524250  0.593419  0.783378  1
  Y  Y6  1  0.198969  0.472589  0.403469  1
  Fe  Fe7  1  0.500674  0.499661  0.497077  1
  I  I8  1  0.734700  0.192525  0.578200  1
  I  I9  1  0.963645  0.877883  0.658076  1
  I  I10  1  0.574306  0.728191  0.178093  1
  I  I11  1  0.114800  0.347246  0.048142  1
  I  I12  1  0.653826  0.953003  0.885649  1
  I  I13  1  0.873068  0.650498  0.951640  1
  I  I14  1  0.036987  0.122047  0.343954  1
  I  I15  1  0.827404  0.430722  0.286209  1
  I  I16  1  0.338762  0.034422  0.113430  1
  I  I17  1  0.266010  0.808283  0.423571  1
  I  I18  1  0.186810  0.572970  0.723862  1
  I  I19  1  0.428813  0.283837  0.820059  1
