# generated using pymatgen
data_Zr10AgBi4Pb3
_symmetry_space_group_name_H-M   'P 1'
_cell_length_a   8.98106402
_cell_length_b   8.98106259
_cell_length_c   6.03775401
_cell_angle_alpha   89.99770352
_cell_angle_beta   89.99770378
_cell_angle_gamma   119.99246991
_symmetry_Int_Tables_number   1
_chemical_formula_structural   Zr10AgBi4Pb3
_chemical_formula_sum   'Zr10 Ag1 Bi4 Pb3'
_cell_volume   421.78828055
_cell_formula_units_Z   1
loop_
 _symmetry_equiv_pos_site_id
 _symmetry_equiv_pos_as_xyz
  1  'x, y, z'
loop_
 _atom_site_type_symbol
 _atom_site_label
 _atom_site_symmetry_multiplicity
 _atom_site_fract_x
 _atom_site_fract_y
 _atom_site_fract_z
 _atom_site_occupancy
  Zr  Zr0  1  0.666658  0.333336  0.002645  1
  Zr  Zr1  1  0.333334  0.666656  0.002645  1
  Zr  Zr2  1  0.333317  0.666665  0.498528  1
  Zr  Zr3  1  0.666667  0.333319  0.498528  1
  Zr  Zr4  1  0.719442  0.719443  0.743354  1
  Zr  Zr5  1  0.280549  0.999986  0.743344  1
  Zr  Zr6  1  0.999988  0.280548  0.743344  1
  Zr  Zr7  1  0.282717  0.282717  0.256397  1
  Zr  Zr8  1  0.717305  0.000019  0.256380  1
  Zr  Zr9  1  0.000017  0.717304  0.256380  1
  Ag  Ag10  1  0.000012  0.000012  0.497501  1
  Bi  Bi11  1  0.000008  0.000008  0.001383  1
  Bi  Bi12  1  0.383899  0.383901  0.749219  1
  Bi  Bi13  1  0.616106  0.000002  0.749248  1
  Bi  Bi14  1  0.000001  0.616103  0.749248  1
  Pb  Pb15  1  0.619082  0.619082  0.250652  1
  Pb  Pb16  1  0.380906  0.999988  0.250604  1
  Pb  Pb17  1  0.999990  0.380910  0.250604  1
