# generated using pymatgen
data_SrLa2Nd(Pt2O7)2
_symmetry_space_group_name_H-M   'P 1'
_cell_length_a   7.50280584
_cell_length_b   7.46738086
_cell_length_c   7.50576800
_cell_angle_alpha   59.82981157
_cell_angle_beta   59.98694784
_cell_angle_gamma   59.89619472
_symmetry_Int_Tables_number   1
_chemical_formula_structural   SrLa2Nd(Pt2O7)2
_chemical_formula_sum   'Sr1 La2 Nd1 Pt4 O14'
_cell_volume   296.70630171
_cell_formula_units_Z   1
loop_
 _symmetry_equiv_pos_site_id
 _symmetry_equiv_pos_as_xyz
  1  'x, y, z'
loop_
 _atom_site_type_symbol
 _atom_site_label
 _atom_site_symmetry_multiplicity
 _atom_site_fract_x
 _atom_site_fract_y
 _atom_site_fract_z
 _atom_site_occupancy
  Sr  Sr0  1  0.125000  0.625000  0.125000  1
  La  La1  1  0.125000  0.125000  0.625000  1
  La  La2  1  0.125000  0.125000  0.125000  1
  Nd  Nd3  1  0.625000  0.125000  0.125000  1
  Pt  Pt4  1  0.125000  0.625000  0.625000  1
  Pt  Pt5  1  0.625000  0.125000  0.625000  1
  Pt  Pt6  1  0.625000  0.625000  0.125000  1
  Pt  Pt7  1  0.625000  0.625000  0.625000  1
  O  O8  1  0.695914  0.712892  0.295597  1
  O  O9  1  0.294907  0.292584  0.706254  1
  O  O10  1  0.702921  0.291833  0.711601  1
  O  O11  1  0.297061  0.707256  0.296422  1
  O  O12  1  0.297061  0.707256  0.699260  1
  O  O13  1  0.702921  0.291833  0.293645  1
  O  O14  1  0.554086  0.537108  0.954403  1
  O  O15  1  0.955093  0.957416  0.543746  1
  O  O16  1  0.547079  0.958167  0.538399  1
  O  O17  1  0.952939  0.542744  0.953578  1
  O  O18  1  0.952939  0.542744  0.550740  1
  O  O19  1  0.547079  0.958167  0.956355  1
  O  O20  1  0.254792  0.237744  0.253731  1
  O  O21  1  0.995208  0.012256  0.996269  1
