# generated using pymatgen
data_LiTb6Ho10Cd3Pt4
_symmetry_space_group_name_H-M   'P 1'
_cell_length_a   9.67120304
_cell_length_b   9.67120324
_cell_length_c   9.67120229
_cell_angle_alpha   59.97875418
_cell_angle_beta   59.97874968
_cell_angle_gamma   59.97875797
_symmetry_Int_Tables_number   1
_chemical_formula_structural   LiTb6Ho10Cd3Pt4
_chemical_formula_sum   'Li1 Tb6 Ho10 Cd3 Pt4'
_cell_volume   639.31839812
_cell_formula_units_Z   1
loop_
 _symmetry_equiv_pos_site_id
 _symmetry_equiv_pos_as_xyz
  1  'x, y, z'
loop_
 _atom_site_type_symbol
 _atom_site_label
 _atom_site_symmetry_multiplicity
 _atom_site_fract_x
 _atom_site_fract_y
 _atom_site_fract_z
 _atom_site_occupancy
  Li  Li0  1  0.571433  0.571433  0.571433  1
  Tb  Tb1  1  0.936178  0.564730  0.564730  1
  Tb  Tb2  1  0.563072  0.936646  0.936646  1
  Tb  Tb3  1  0.564730  0.936178  0.564730  1
  Tb  Tb4  1  0.936646  0.563072  0.936646  1
  Tb  Tb5  1  0.564730  0.564730  0.936178  1
  Tb  Tb6  1  0.936646  0.936646  0.563072  1
  Ho  Ho7  1  0.350940  0.350940  0.350940  1
  Ho  Ho8  1  0.351724  0.351724  0.945842  1
  Ho  Ho9  1  0.351724  0.945842  0.351724  1
  Ho  Ho10  1  0.945842  0.351724  0.351724  1
  Ho  Ho11  1  0.810302  0.191418  0.191418  1
  Ho  Ho12  1  0.187021  0.812995  0.812995  1
  Ho  Ho13  1  0.191418  0.810302  0.191418  1
  Ho  Ho14  1  0.812995  0.187021  0.812995  1
  Ho  Ho15  1  0.191418  0.191418  0.810302  1
  Ho  Ho16  1  0.812995  0.812995  0.187021  1
  Cd  Cd17  1  0.582061  0.582061  0.254807  1
  Cd  Cd18  1  0.582061  0.254807  0.582061  1
  Cd  Cd19  1  0.254807  0.582061  0.582061  1
  Pt  Pt20  1  0.143733  0.143733  0.143733  1
  Pt  Pt21  1  0.143000  0.143000  0.571526  1
  Pt  Pt22  1  0.143000  0.571526  0.143000  1
  Pt  Pt23  1  0.571526  0.143000  0.143000  1
