# generated using pymatgen
data_TbY3Al4OsPd3
_symmetry_space_group_name_H-M   'P 1'
_cell_length_a   4.37087300
_cell_length_b   6.93194414
_cell_length_c   7.88843303
_cell_angle_alpha   90.00701734
_cell_angle_beta   90.00000000
_cell_angle_gamma   90.00000000
_symmetry_Int_Tables_number   1
_chemical_formula_structural   TbY3Al4OsPd3
_chemical_formula_sum   'Tb1 Y3 Al4 Os1 Pd3'
_cell_volume   239.00884971
_cell_formula_units_Z   1
loop_
 _symmetry_equiv_pos_site_id
 _symmetry_equiv_pos_as_xyz
  1  'x, y, z'
loop_
 _atom_site_type_symbol
 _atom_site_label
 _atom_site_symmetry_multiplicity
 _atom_site_fract_x
 _atom_site_fract_y
 _atom_site_fract_z
 _atom_site_occupancy
  Tb  Tb0  1  0.750000  0.981082  0.678763  1
  Y  Y1  1  0.250000  0.034264  0.321375  1
  Y  Y2  1  0.250000  0.529753  0.181021  1
  Y  Y3  1  0.750000  0.464975  0.814672  1
  Al  Al4  1  0.250000  0.146649  0.935260  1
  Al  Al5  1  0.250000  0.638382  0.562348  1
  Al  Al6  1  0.750000  0.855427  0.061228  1
  Al  Al7  1  0.750000  0.353399  0.441828  1
  Os  Os8  1  0.250000  0.269159  0.620975  1
  Pd  Pd9  1  0.250000  0.775328  0.882457  1
  Pd  Pd10  1  0.750000  0.726204  0.379530  1
  Pd  Pd11  1  0.750000  0.225377  0.120542  1
