# generated using pymatgen
data_Ho8Tm2IrOs3
_symmetry_space_group_name_H-M   'P 1'
_cell_length_a   6.30932782
_cell_length_b   7.31821666
_cell_length_c   8.38267100
_cell_angle_alpha   96.81491097
_cell_angle_beta   112.20168322
_cell_angle_gamma   90.03240903
_symmetry_Int_Tables_number   1
_chemical_formula_structural   Ho8Tm2IrOs3
_chemical_formula_sum   'Ho8 Tm2 Ir1 Os3'
_cell_volume   355.39081208
_cell_formula_units_Z   1
loop_
 _symmetry_equiv_pos_site_id
 _symmetry_equiv_pos_as_xyz
  1  'x, y, z'
loop_
 _atom_site_type_symbol
 _atom_site_label
 _atom_site_symmetry_multiplicity
 _atom_site_fract_x
 _atom_site_fract_y
 _atom_site_fract_z
 _atom_site_occupancy
  Ho  Ho0  1  0.791878  0.084126  0.818042  1
  Ho  Ho1  1  0.974093  0.416841  0.182643  1
  Ho  Ho2  1  0.209426  0.917102  0.186450  1
  Ho  Ho3  1  0.025521  0.582370  0.818408  1
  Ho  Ho4  1  0.205181  0.184812  0.563685  1
  Ho  Ho5  1  0.641780  0.316844  0.435589  1
  Ho  Ho6  1  0.792264  0.815763  0.433424  1
  Ho  Ho7  1  0.359697  0.681671  0.563218  1
  Tm  Tm8  1  0.422700  0.250969  0.001157  1
  Tm  Tm9  1  0.579143  0.749744  0.000230  1
  Ir  Ir10  1  0.178943  0.923017  0.780034  1
  Os  Os11  1  0.603000  0.423092  0.782598  1
  Os  Os12  1  0.820932  0.075965  0.217888  1
  Os  Os13  1  0.395442  0.577683  0.216634  1
