# generated using pymatgen
data_Sr3Cd2HgPd2Au
_symmetry_space_group_name_H-M   'P 1'
_cell_length_a   7.90940000
_cell_length_b   7.90292808
_cell_length_c   4.32904200
_cell_angle_alpha   90.00000000
_cell_angle_beta   90.00000000
_cell_angle_gamma   119.56910253
_symmetry_Int_Tables_number   1
_chemical_formula_structural   Sr3Cd2HgPd2Au
_chemical_formula_sum   'Sr3 Cd2 Hg1 Pd2 Au1'
_cell_volume   235.35497454
_cell_formula_units_Z   1
loop_
 _symmetry_equiv_pos_site_id
 _symmetry_equiv_pos_as_xyz
  1  'x, y, z'
loop_
 _atom_site_type_symbol
 _atom_site_label
 _atom_site_symmetry_multiplicity
 _atom_site_fract_x
 _atom_site_fract_y
 _atom_site_fract_z
 _atom_site_occupancy
  Sr  Sr0  1  0.597307  0.004090  0.500000  1
  Sr  Sr1  1  0.413546  0.407318  0.500000  1
  Sr  Sr2  1  0.990442  0.590355  0.500000  1
  Cd  Cd3  1  0.995230  0.241696  0.000000  1
  Cd  Cd4  1  0.249037  0.008595  0.000000  1
  Hg  Hg5  1  0.755879  0.747127  0.000000  1
  Pd  Pd6  1  0.006446  0.006639  0.500000  1
  Pd  Pd7  1  0.666456  0.328158  0.000000  1
  Au  Au8  1  0.325657  0.666021  0.000000  1
