# generated using pymatgen
data_Lu10GaPb5S2
_symmetry_space_group_name_H-M   'P 1'
_cell_length_a   8.86033299
_cell_length_b   8.86033323
_cell_length_c   6.57189700
_cell_angle_alpha   90.00000000
_cell_angle_beta   90.00000000
_cell_angle_gamma   120.09405701
_symmetry_Int_Tables_number   1
_chemical_formula_structural   Lu10GaPb5S2
_chemical_formula_sum   'Lu10 Ga1 Pb5 S2'
_cell_volume   446.38447596
_cell_formula_units_Z   1
loop_
 _symmetry_equiv_pos_site_id
 _symmetry_equiv_pos_as_xyz
  1  'x, y, z'
loop_
 _atom_site_type_symbol
 _atom_site_label
 _atom_site_symmetry_multiplicity
 _atom_site_fract_x
 _atom_site_fract_y
 _atom_site_fract_z
 _atom_site_occupancy
  Lu  Lu0  1  0.750298  0.750298  0.750000  1
  Lu  Lu1  1  0.250153  0.014965  0.750000  1
  Lu  Lu2  1  0.014965  0.250153  0.750000  1
  Lu  Lu3  1  0.242411  0.242411  0.250000  1
  Lu  Lu4  1  0.755928  0.000832  0.250000  1
  Lu  Lu5  1  0.000832  0.755928  0.250000  1
  Lu  Lu6  1  0.657369  0.335394  0.995946  1
  Lu  Lu7  1  0.335394  0.657369  0.995946  1
  Lu  Lu8  1  0.335394  0.657369  0.504054  1
  Lu  Lu9  1  0.657369  0.335394  0.504054  1
  Ga  Ga10  1  0.398671  0.398671  0.750000  1
  Pb  Pb11  1  0.605792  0.002095  0.750000  1
  Pb  Pb12  1  0.002095  0.605792  0.750000  1
  Pb  Pb13  1  0.603412  0.603412  0.250000  1
  Pb  Pb14  1  0.397334  0.996999  0.250000  1
  Pb  Pb15  1  0.996999  0.397334  0.250000  1
  S  S16  1  0.997792  0.997792  0.000063  1
  S  S17  1  0.997792  0.997792  0.499937  1
