# generated using pymatgen
data_Ho8Ta9Ti2Si16Ag
_symmetry_space_group_name_H-M   'P 1'
_cell_length_a   7.05153305
_cell_length_b   7.04909423
_cell_length_c   12.92390403
_cell_angle_alpha   90.17614739
_cell_angle_beta   89.79621940
_cell_angle_gamma   89.67776546
_symmetry_Int_Tables_number   1
_chemical_formula_structural   Ho8Ta9Ti2Si16Ag
_chemical_formula_sum   'Ho8 Ta9 Ti2 Si16 Ag1'
_cell_volume   642.39017847
_cell_formula_units_Z   1
loop_
 _symmetry_equiv_pos_site_id
 _symmetry_equiv_pos_as_xyz
  1  'x, y, z'
loop_
 _atom_site_type_symbol
 _atom_site_label
 _atom_site_symmetry_multiplicity
 _atom_site_fract_x
 _atom_site_fract_y
 _atom_site_fract_z
 _atom_site_occupancy
  Ho  Ho0  1  0.341904  0.001551  0.467114  1
  Ho  Ho1  1  0.496686  0.842699  0.717388  1
  Ho  Ho2  1  0.502735  0.157502  0.216300  1
  Ho  Ho3  1  0.842364  0.496194  0.282943  1
  Ho  Ho4  1  0.158092  0.502276  0.784012  1
  Ho  Ho5  1  0.655237  0.003146  0.967911  1
  Ho  Ho6  1  0.001903  0.340468  0.532244  1
  Ho  Ho7  1  0.001547  0.658080  0.031914  1
  Ta  Ta8  1  0.171430  0.826055  0.249997  1
  Ta  Ta9  1  0.826008  0.172898  0.750119  1
  Ta  Ta10  1  0.670522  0.670599  0.499614  1
  Ta  Ta11  1  0.148327  0.009165  0.875503  1
  Ta  Ta12  1  0.499717  0.650488  0.121183  1
  Ta  Ta13  1  0.503410  0.349032  0.622235  1
  Ta  Ta14  1  0.651375  0.498075  0.878692  1
  Ta  Ta15  1  0.349715  0.504607  0.377695  1
  Ta  Ta16  1  0.848921  0.989857  0.374250  1
  Ti  Ti17  1  0.010147  0.149129  0.124142  1
  Ti  Ti18  1  0.989964  0.849113  0.625901  1
  Si  Si19  1  0.200924  0.133730  0.682320  1
  Si  Si20  1  0.371288  0.721242  0.927663  1
  Si  Si21  1  0.635127  0.291634  0.430548  1
  Si  Si22  1  0.723554  0.368905  0.072879  1
  Si  Si23  1  0.291968  0.636731  0.570072  1
  Si  Si24  1  0.797999  0.867187  0.181066  1
  Si  Si25  1  0.135871  0.201098  0.316377  1
  Si  Si26  1  0.865373  0.798098  0.818235  1
  Si  Si27  1  0.288002  0.940720  0.065521  1
  Si  Si28  1  0.545078  0.791932  0.312073  1
  Si  Si29  1  0.454608  0.208344  0.809899  1
  Si  Si30  1  0.793203  0.546350  0.686613  1
  Si  Si31  1  0.206576  0.455403  0.189722  1
  Si  Si32  1  0.706422  0.045029  0.564461  1
  Si  Si33  1  0.942080  0.290469  0.935598  1
  Si  Si34  1  0.045863  0.704473  0.437117  1
  Ag  Ag35  1  0.326057  0.327721  0.000679  1
