# generated using pymatgen
data_CaTb(ZnGa)2
_symmetry_space_group_name_H-M   'P 1'
_cell_length_a   4.51183500
_cell_length_b   4.51183462
_cell_length_c   7.25225700
_cell_angle_alpha   90.00000000
_cell_angle_beta   90.00000000
_cell_angle_gamma   120.00001012
_symmetry_Int_Tables_number   1
_chemical_formula_structural   CaTb(ZnGa)2
_chemical_formula_sum   'Ca1 Tb1 Zn2 Ga2'
_cell_volume   127.85277378
_cell_formula_units_Z   1
loop_
 _symmetry_equiv_pos_site_id
 _symmetry_equiv_pos_as_xyz
  1  'x, y, z'
loop_
 _atom_site_type_symbol
 _atom_site_label
 _atom_site_symmetry_multiplicity
 _atom_site_fract_x
 _atom_site_fract_y
 _atom_site_fract_z
 _atom_site_occupancy
  Ca  Ca0  1  0.000000  0.000000  0.500000  1
  Tb  Tb1  1  0.000000  0.000000  0.000000  1
  Zn  Zn2  1  0.333333  0.666667  0.777356  1
  Zn  Zn3  1  0.666667  0.333333  0.222644  1
  Ga  Ga4  1  0.333333  0.666667  0.219508  1
  Ga  Ga5  1  0.666667  0.333333  0.780492  1
