# generated using pymatgen
data_Ce2Mn21FeC3
_symmetry_space_group_name_H-M   'P 1'
_cell_length_a   6.52255752
_cell_length_b   7.77309378
_cell_length_c   7.79540212
_cell_angle_alpha   99.17872410
_cell_angle_beta   114.94667268
_cell_angle_gamma   65.40918656
_symmetry_Int_Tables_number   1
_chemical_formula_structural   Ce2Mn21FeC3
_chemical_formula_sum   'Ce2 Mn21 Fe1 C3'
_cell_volume   325.79248775
_cell_formula_units_Z   1
loop_
 _symmetry_equiv_pos_site_id
 _symmetry_equiv_pos_as_xyz
  1  'x, y, z'
loop_
 _atom_site_type_symbol
 _atom_site_label
 _atom_site_symmetry_multiplicity
 _atom_site_fract_x
 _atom_site_fract_y
 _atom_site_fract_z
 _atom_site_occupancy
  Ce  Ce0  1  0.381834  0.749213  0.249213  1
  Ce  Ce1  1  0.618166  0.250787  0.750787  1
  Mn  Mn2  1  0.000000  0.500000  0.000000  1
  Mn  Mn3  1  0.000000  0.500000  0.500000  1
  Mn  Mn4  1  0.500000  0.000000  0.000000  1
  Mn  Mn5  1  0.119865  0.246809  0.746809  1
  Mn  Mn6  1  0.880135  0.753191  0.253191  1
  Mn  Mn7  1  0.175641  0.177168  0.416794  1
  Mn  Mn8  1  0.436015  0.916794  0.677168  1
  Mn  Mn9  1  0.854108  0.823674  0.920014  1
  Mn  Mn10  1  0.257767  0.420014  0.323674  1
  Mn  Mn11  1  0.189006  0.573057  0.832361  1
  Mn  Mn12  1  0.429702  0.332361  0.073057  1
  Mn  Mn13  1  0.848769  0.089985  0.172205  1
  Mn  Mn14  1  0.266549  0.672205  0.589985  1
  Mn  Mn15  1  0.824359  0.822832  0.583206  1
  Mn  Mn16  1  0.563985  0.083206  0.322832  1
  Mn  Mn17  1  0.145892  0.176326  0.079986  1
  Mn  Mn18  1  0.742233  0.579986  0.676326  1
  Mn  Mn19  1  0.810994  0.426943  0.167639  1
  Mn  Mn20  1  0.570298  0.667639  0.926943  1
  Mn  Mn21  1  0.151231  0.910015  0.827795  1
  Mn  Mn22  1  0.733451  0.327795  0.410015  1
  Fe  Fe23  1  0.000000  0.000000  0.500000  1
  C  C24  1  0.500000  0.500000  0.500000  1
  C  C25  1  0.000000  0.000000  0.000000  1
  C  C26  1  0.500000  0.000000  0.500000  1
