# generated using pymatgen
data_Tb10Nd6Cd4Co3Ir
_symmetry_space_group_name_H-M   'P 1'
_cell_length_a   9.68921409
_cell_length_b   9.66352262
_cell_length_c   9.66352200
_cell_angle_alpha   59.99999527
_cell_angle_beta   60.08766929
_cell_angle_gamma   60.08767108
_symmetry_Int_Tables_number   1
_chemical_formula_structural   Tb10Nd6Cd4Co3Ir
_chemical_formula_sum   'Tb10 Nd6 Cd4 Co3 Ir1'
_cell_volume   640.64682078
_cell_formula_units_Z   1
loop_
 _symmetry_equiv_pos_site_id
 _symmetry_equiv_pos_as_xyz
  1  'x, y, z'
loop_
 _atom_site_type_symbol
 _atom_site_label
 _atom_site_symmetry_multiplicity
 _atom_site_fract_x
 _atom_site_fract_y
 _atom_site_fract_z
 _atom_site_occupancy
  Tb  Tb0  1  0.341679  0.348593  0.348593  1
  Tb  Tb1  1  0.341679  0.348593  0.961134  1
  Tb  Tb2  1  0.341679  0.961134  0.348593  1
  Tb  Tb3  1  0.963786  0.345405  0.345405  1
  Tb  Tb4  1  0.817800  0.186769  0.186769  1
  Tb  Tb5  1  0.186794  0.813641  0.813641  1
  Tb  Tb6  1  0.186794  0.813641  0.185924  1
  Tb  Tb7  1  0.817800  0.186769  0.808662  1
  Tb  Tb8  1  0.186794  0.185924  0.813641  1
  Tb  Tb9  1  0.817800  0.808662  0.186769  1
  Nd  Nd10  1  0.939402  0.560391  0.560391  1
  Nd  Nd11  1  0.560424  0.940179  0.940179  1
  Nd  Nd12  1  0.560424  0.940179  0.559218  1
  Nd  Nd13  1  0.939402  0.560391  0.939816  1
  Nd  Nd14  1  0.560424  0.559218  0.940179  1
  Nd  Nd15  1  0.939402  0.939816  0.560391  1
  Cd  Cd16  1  0.579422  0.579061  0.579061  1
  Cd  Cd17  1  0.579422  0.579061  0.262455  1
  Cd  Cd18  1  0.579422  0.262455  0.579061  1
  Cd  Cd19  1  0.262160  0.579280  0.579280  1
  Co  Co20  1  0.140576  0.141244  0.141244  1
  Co  Co21  1  0.140576  0.141244  0.576936  1
  Co  Co22  1  0.140576  0.576936  0.141244  1
  Ir  Ir23  1  0.575762  0.141413  0.141413  1
