# generated using pymatgen
data_Tm3Lu9Ir3I16
_symmetry_space_group_name_H-M   'P 1'
_cell_length_a   9.48543136
_cell_length_b   12.14217776
_cell_length_c   12.85482598
_cell_angle_alpha   117.03898449
_cell_angle_beta   101.38436177
_cell_angle_gamma   100.77895160
_symmetry_Int_Tables_number   1
_chemical_formula_structural   Tm3Lu9Ir3I16
_chemical_formula_sum   'Tm3 Lu9 Ir3 I16'
_cell_volume   1226.11414505
_cell_formula_units_Z   1
loop_
 _symmetry_equiv_pos_site_id
 _symmetry_equiv_pos_as_xyz
  1  'x, y, z'
loop_
 _atom_site_type_symbol
 _atom_site_label
 _atom_site_symmetry_multiplicity
 _atom_site_fract_x
 _atom_site_fract_y
 _atom_site_fract_z
 _atom_site_occupancy
  Tm  Tm0  1  0.085145  0.267485  0.356286  1
  Tm  Tm1  1  0.914752  0.732665  0.644170  1
  Tm  Tm2  1  0.781813  0.534070  0.327484  1
  Lu  Lu3  1  0.217589  0.466177  0.671287  1
  Lu  Lu4  1  0.274586  0.731510  0.642232  1
  Lu  Lu5  1  0.725189  0.268260  0.357993  1
  Lu  Lu6  1  0.142649  0.535034  0.329060  1
  Lu  Lu7  1  0.857717  0.464967  0.670962  1
  Lu  Lu8  1  0.405406  0.357970  0.273132  1
  Lu  Lu9  1  0.594242  0.641826  0.727040  1
  Lu  Lu10  1  0.459695  0.312233  0.520831  1
  Lu  Lu11  1  0.540049  0.687812  0.479533  1
  Ir  Ir12  1  0.000368  0.499946  0.500359  1
  Ir  Ir13  1  0.341210  0.500554  0.499776  1
  Ir  Ir14  1  0.658645  0.499401  0.500516  1
  I  I15  1  0.395840  0.746394  0.892768  1
  I  I16  1  0.603573  0.252781  0.106841  1
  I  I17  1  0.193596  0.975151  0.788362  1
  I  I18  1  0.806390  0.024832  0.211618  1
  I  I19  1  0.334533  0.087329  0.247331  1
  I  I20  1  0.665589  0.912660  0.752728  1
  I  I21  1  0.559673  0.436103  0.804616  1
  I  I22  1  0.440033  0.563863  0.195496  1
  I  I23  1  0.306100  0.834128  0.461598  1
  I  I24  1  0.693888  0.165812  0.538431  1
  I  I25  1  0.162425  0.166227  0.536468  1
  I  I26  1  0.837636  0.834479  0.464085  1
  I  I27  1  0.926742  0.578588  0.153764  1
  I  I28  1  0.074875  0.421667  0.845094  1
  I  I29  1  0.930772  0.744663  0.893762  1
  I  I30  1  0.069281  0.255415  0.106377  1
