# generated using pymatgen
data_Pr2B2Pt6RhAu
_symmetry_space_group_name_H-M   'P 1'
_cell_length_a   5.54349244
_cell_length_b   5.54349284
_cell_length_c   7.70487416
_cell_angle_alpha   90.07447475
_cell_angle_beta   89.92552585
_cell_angle_gamma   120.26002378
_symmetry_Int_Tables_number   1
_chemical_formula_structural   Pr2B2Pt6RhAu
_chemical_formula_sum   'Pr2 B2 Pt6 Rh1 Au1'
_cell_volume   204.51197582
_cell_formula_units_Z   1
loop_
 _symmetry_equiv_pos_site_id
 _symmetry_equiv_pos_as_xyz
  1  'x, y, z'
loop_
 _atom_site_type_symbol
 _atom_site_label
 _atom_site_symmetry_multiplicity
 _atom_site_fract_x
 _atom_site_fract_y
 _atom_site_fract_z
 _atom_site_occupancy
  Pr  Pr0  1  0.999964  0.000036  0.496779  1
  Pr  Pr1  1  0.999302  0.000698  0.001907  1
  B  B2  1  0.664912  0.335088  0.497805  1
  B  B3  1  0.335545  0.664455  0.497965  1
  Pt  Pt4  1  0.499458  0.998445  0.302059  1
  Pt  Pt5  1  0.499367  0.998794  0.696984  1
  Pt  Pt6  1  0.499348  0.500652  0.695887  1
  Pt  Pt7  1  0.001206  0.500633  0.696984  1
  Pt  Pt8  1  0.336099  0.663901  0.001158  1
  Pt  Pt9  1  0.001555  0.500542  0.302059  1
  Rh  Rh10  1  0.499376  0.500624  0.308783  1
  Au  Au11  1  0.663869  0.336131  0.001629  1
