# generated using pymatgen
data_DyHo2ZnIn3Pt2
_symmetry_space_group_name_H-M   'P 1'
_cell_length_a   7.66931400
_cell_length_b   7.67709467
_cell_length_c   3.87853000
_cell_angle_alpha   90.00000000
_cell_angle_beta   90.00000000
_cell_angle_gamma   119.96648826
_symmetry_Int_Tables_number   1
_chemical_formula_structural   DyHo2ZnIn3Pt2
_chemical_formula_sum   'Dy1 Ho2 Zn1 In3 Pt2'
_cell_volume   197.83255422
_cell_formula_units_Z   1
loop_
 _symmetry_equiv_pos_site_id
 _symmetry_equiv_pos_as_xyz
  1  'x, y, z'
loop_
 _atom_site_type_symbol
 _atom_site_label
 _atom_site_symmetry_multiplicity
 _atom_site_fract_x
 _atom_site_fract_y
 _atom_site_fract_z
 _atom_site_occupancy
  Dy  Dy0  1  0.591324  0.000000  0.500000  1
  Ho  Ho1  1  0.408807  0.408801  0.500000  1
  Ho  Ho2  1  0.000006  0.591199  0.500000  1
  Zn  Zn3  1  0.999917  0.000000  0.500000  1
  In  In4  1  0.740522  0.740390  0.000000  1
  In  In5  1  0.000132  0.259610  0.000000  1
  In  In6  1  0.259589  0.000000  0.000000  1
  Pt  Pt7  1  0.332808  0.665914  0.000000  1
  Pt  Pt8  1  0.666895  0.334086  0.000000  1
