# generated using pymatgen
data_Tb8YHo(SiB4)4
_symmetry_space_group_name_H-M   'P 1'
_cell_length_a   7.25611500
_cell_length_b   7.25611500
_cell_length_c   8.13038600
_cell_angle_alpha   90.00000000
_cell_angle_beta   90.00000000
_cell_angle_gamma   90.00000000
_symmetry_Int_Tables_number   1
_chemical_formula_structural   Tb8YHo(SiB4)4
_chemical_formula_sum   'Tb8 Y1 Ho1 Si4 B16'
_cell_volume   428.07461915
_cell_formula_units_Z   1
loop_
 _symmetry_equiv_pos_site_id
 _symmetry_equiv_pos_as_xyz
  1  'x, y, z'
loop_
 _atom_site_type_symbol
 _atom_site_label
 _atom_site_symmetry_multiplicity
 _atom_site_fract_x
 _atom_site_fract_y
 _atom_site_fract_z
 _atom_site_occupancy
  Tb  Tb0  1  0.680162  0.180357  0.224507  1
  Tb  Tb1  1  0.319838  0.819643  0.775493  1
  Tb  Tb2  1  0.319838  0.819643  0.224507  1
  Tb  Tb3  1  0.819643  0.680162  0.224507  1
  Tb  Tb4  1  0.819643  0.680162  0.775493  1
  Tb  Tb5  1  0.680162  0.180357  0.775493  1
  Tb  Tb6  1  0.180357  0.319838  0.775493  1
  Tb  Tb7  1  0.180357  0.319838  0.224507  1
  Y  Y8  1  0.000000  0.000000  0.500000  1
  Ho  Ho9  1  0.500000  0.500000  0.500000  1
  Si  Si10  1  0.115071  0.614618  0.500000  1
  Si  Si11  1  0.884929  0.385382  0.500000  1
  Si  Si12  1  0.385382  0.115071  0.500000  1
  Si  Si13  1  0.614618  0.884929  0.500000  1
  B  B14  1  0.172288  0.039077  0.000000  1
  B  B15  1  0.827712  0.960923  0.000000  1
  B  B16  1  0.960923  0.172288  0.000000  1
  B  B17  1  0.327723  0.539086  0.000000  1
  B  B18  1  0.039077  0.827712  0.000000  1
  B  B19  1  0.672277  0.460914  0.000000  1
  B  B20  1  0.539086  0.672277  0.000000  1
  B  B21  1  0.460914  0.327723  0.000000  1
  B  B22  1  0.089881  0.589891  0.000000  1
  B  B23  1  0.910119  0.410109  0.000000  1
  B  B24  1  0.410109  0.089881  0.000000  1
  B  B25  1  0.589891  0.910119  0.000000  1
  B  B26  1  0.000000  0.000000  0.161176  1
  B  B27  1  0.000000  0.000000  0.838824  1
  B  B28  1  0.500000  0.500000  0.838501  1
  B  B29  1  0.500000  0.500000  0.161499  1
