# generated using pymatgen
data_Pr8Dy12Si15Ru
_symmetry_space_group_name_H-M   'P 1'
_cell_length_a   7.54694073
_cell_length_b   7.81824971
_cell_length_c   14.93673000
_cell_angle_alpha   90.00000000
_cell_angle_beta   90.00000000
_cell_angle_gamma   90.53186782
_symmetry_Int_Tables_number   1
_chemical_formula_structural   Pr8Dy12Si15Ru
_chemical_formula_sum   'Pr8 Dy12 Si15 Ru1'
_cell_volume   881.28686138
_cell_formula_units_Z   1
loop_
 _symmetry_equiv_pos_site_id
 _symmetry_equiv_pos_as_xyz
  1  'x, y, z'
loop_
 _atom_site_type_symbol
 _atom_site_label
 _atom_site_symmetry_multiplicity
 _atom_site_fract_x
 _atom_site_fract_y
 _atom_site_fract_z
 _atom_site_occupancy
  Pr  Pr0  1  0.023361  0.178749  0.401462  1
  Pr  Pr1  1  0.522460  0.323924  0.402309  1
  Pr  Pr2  1  0.474507  0.679870  0.904239  1
  Pr  Pr3  1  0.474507  0.679870  0.595761  1
  Pr  Pr4  1  0.979503  0.821738  0.597800  1
  Pr  Pr5  1  0.979503  0.821738  0.902200  1
  Pr  Pr6  1  0.522460  0.323924  0.097691  1
  Pr  Pr7  1  0.023361  0.178749  0.098538  1
  Dy  Dy8  1  0.315122  0.172275  0.624928  1
  Dy  Dy9  1  0.680429  0.819592  0.377901  1
  Dy  Dy10  1  0.636742  0.981081  0.750000  1
  Dy  Dy11  1  0.179441  0.680342  0.376838  1
  Dy  Dy12  1  0.822365  0.321793  0.876287  1
  Dy  Dy13  1  0.822365  0.321793  0.623713  1
  Dy  Dy14  1  0.848538  0.489688  0.250000  1
  Dy  Dy15  1  0.349576  0.014763  0.250000  1
  Dy  Dy16  1  0.315122  0.172275  0.875072  1
  Dy  Dy17  1  0.179441  0.680342  0.123162  1
  Dy  Dy18  1  0.680429  0.819592  0.122099  1
  Dy  Dy19  1  0.160359  0.523693  0.750000  1
  Si  Si20  1  0.472390  0.615858  0.250000  1
  Si  Si21  1  0.022072  0.104684  0.750000  1
  Si  Si22  1  0.530225  0.386363  0.750000  1
  Si  Si23  1  0.145780  0.466981  0.538296  1
  Si  Si24  1  0.972520  0.887324  0.250000  1
  Si  Si25  1  0.730768  0.118804  0.250000  1
  Si  Si26  1  0.857313  0.527795  0.040623  1
  Si  Si27  1  0.357439  0.971738  0.040861  1
  Si  Si28  1  0.145780  0.466981  0.961704  1
  Si  Si29  1  0.646410  0.035375  0.538048  1
  Si  Si30  1  0.357439  0.971738  0.459139  1
  Si  Si31  1  0.857313  0.527795  0.459377  1
  Si  Si32  1  0.766538  0.614691  0.750000  1
  Si  Si33  1  0.231271  0.382409  0.250000  1
  Si  Si34  1  0.646410  0.035375  0.961952  1
  Ru  Ru35  1  0.270741  0.880296  0.750000  1
