# generated using pymatgen
data_Ti3Be8Ru9
_symmetry_space_group_name_H-M   'P 1'
_cell_length_a   6.24118200
_cell_length_b   6.24234300
_cell_length_c   5.95373900
_cell_angle_alpha   90.00000000
_cell_angle_beta   90.00000000
_cell_angle_gamma   89.99558470
_symmetry_Int_Tables_number   1
_chemical_formula_structural   Ti3Be8Ru9
_chemical_formula_sum   'Ti3 Be8 Ru9'
_cell_volume   231.95528227
_cell_formula_units_Z   1
loop_
 _symmetry_equiv_pos_site_id
 _symmetry_equiv_pos_as_xyz
  1  'x, y, z'
loop_
 _atom_site_type_symbol
 _atom_site_label
 _atom_site_symmetry_multiplicity
 _atom_site_fract_x
 _atom_site_fract_y
 _atom_site_fract_z
 _atom_site_occupancy
  Ti  Ti0  1  0.000000  0.500000  0.006158  1
  Ti  Ti1  1  0.500000  0.000000  0.506728  1
  Ti  Ti2  1  0.000000  0.500000  0.506202  1
  Be  Be3  1  0.135182  0.110933  0.007201  1
  Be  Be4  1  0.864818  0.889067  0.007201  1
  Be  Be5  1  0.120957  0.117381  0.505119  1
  Be  Be6  1  0.879044  0.882620  0.505119  1
  Be  Be7  1  0.617361  0.379016  0.507046  1
  Be  Be8  1  0.382640  0.620985  0.507046  1
  Be  Be9  1  0.610871  0.364858  0.005231  1
  Be  Be10  1  0.389129  0.635142  0.005231  1
  Ru  Ru11  1  0.500000  0.000000  0.006011  1
  Ru  Ru12  1  0.836004  0.180508  0.255532  1
  Ru  Ru13  1  0.163997  0.819493  0.255532  1
  Ru  Ru14  1  0.322679  0.334185  0.255600  1
  Ru  Ru15  1  0.677322  0.665816  0.255600  1
  Ru  Ru16  1  0.319512  0.336036  0.757099  1
  Ru  Ru17  1  0.680487  0.663963  0.757099  1
  Ru  Ru18  1  0.834404  0.177469  0.756621  1
  Ru  Ru19  1  0.165596  0.822531  0.756621  1
