# generated using pymatgen
data_BeV10B3As2
_symmetry_space_group_name_H-M   'P 1'
_cell_length_a   5.85756752
_cell_length_b   5.85756718
_cell_length_c   6.83667135
_cell_angle_alpha   115.52356286
_cell_angle_beta   115.52354625
_cell_angle_gamma   89.66711606
_symmetry_Int_Tables_number   1
_chemical_formula_structural   BeV10B3As2
_chemical_formula_sum   'Be1 V10 B3 As2'
_cell_volume   186.30596853
_cell_formula_units_Z   1
loop_
 _symmetry_equiv_pos_site_id
 _symmetry_equiv_pos_as_xyz
  1  'x, y, z'
loop_
 _atom_site_type_symbol
 _atom_site_label
 _atom_site_symmetry_multiplicity
 _atom_site_fract_x
 _atom_site_fract_y
 _atom_site_fract_z
 _atom_site_occupancy
  Be  Be0  1  0.619661  0.119661  0.000000  1
  V  V1  1  0.498834  0.504534  0.000000  1
  V  V2  1  0.004534  0.998834  0.000000  1
  V  V3  1  0.031909  0.531909  0.729823  1
  V  V4  1  0.700254  0.200254  0.723043  1
  V  V5  1  0.189837  0.031312  0.726431  1
  V  V6  1  0.531312  0.689837  0.726431  1
  V  V7  1  0.977212  0.477212  0.276957  1
  V  V8  1  0.302087  0.802087  0.270177  1
  V  V9  1  0.804882  0.963408  0.273569  1
  V  V10  1  0.463408  0.304882  0.273569  1
  B  B11  1  0.381018  0.881018  0.000000  1
  B  B12  1  0.883468  0.616238  0.000000  1
  B  B13  1  0.116238  0.383468  0.000000  1
  As  As14  1  0.247673  0.247673  0.500000  1
  As  As15  1  0.747673  0.747673  0.500000  1
