# generated using pymatgen
data_Sm8In(Pd5Pt3)3
_symmetry_space_group_name_H-M   'P 1'
_cell_length_a   8.49688702
_cell_length_b   8.50882000
_cell_length_c   8.50365202
_cell_angle_alpha   90.00000000
_cell_angle_beta   89.99181707
_cell_angle_gamma   90.00000000
_symmetry_Int_Tables_number   1
_chemical_formula_structural   Sm8In(Pd5Pt3)3
_chemical_formula_sum   'Sm8 In1 Pd15 Pt9'
_cell_volume   614.80112829
_cell_formula_units_Z   1
loop_
 _symmetry_equiv_pos_site_id
 _symmetry_equiv_pos_as_xyz
  1  'x, y, z'
loop_
 _atom_site_type_symbol
 _atom_site_label
 _atom_site_symmetry_multiplicity
 _atom_site_fract_x
 _atom_site_fract_y
 _atom_site_fract_z
 _atom_site_occupancy
  Sm  Sm0  1  0.251334  0.250456  0.251075  1
  Sm  Sm1  1  0.748825  0.747870  0.748621  1
  Sm  Sm2  1  0.748558  0.748509  0.251423  1
  Sm  Sm3  1  0.748825  0.252130  0.748621  1
  Sm  Sm4  1  0.251197  0.250731  0.748966  1
  Sm  Sm5  1  0.251334  0.749544  0.251075  1
  Sm  Sm6  1  0.251197  0.749269  0.748966  1
  Sm  Sm7  1  0.748558  0.251491  0.251423  1
  In  In8  1  0.000679  0.000000  0.000212  1
  Pd  Pd9  1  0.500117  0.000000  0.732556  1
  Pd  Pd10  1  0.733014  0.000000  0.500027  1
  Pd  Pd11  1  0.999916  0.500000  0.267053  1
  Pd  Pd12  1  0.999866  0.500000  0.733087  1
  Pd  Pd13  1  0.255043  0.500000  0.500097  1
  Pd  Pd14  1  0.745167  0.500000  0.500141  1
  Pd  Pd15  1  0.500029  0.255111  0.499880  1
  Pd  Pd16  1  0.500029  0.744889  0.499880  1
  Pd  Pd17  1  0.500208  0.500000  0.255382  1
  Pd  Pd18  1  0.500253  0.500000  0.744576  1
  Pd  Pd19  1  0.686152  0.000000  0.999916  1
  Pd  Pd20  1  0.999657  0.315209  0.999936  1
  Pd  Pd21  1  0.999657  0.684791  0.999936  1
  Pd  Pd22  1  0.999511  0.000000  0.315024  1
  Pd  Pd23  1  0.999587  0.000000  0.684910  1
  Pt  Pt24  1  0.265756  0.500000  0.999997  1
  Pt  Pt25  1  0.733678  0.500000  0.999960  1
  Pt  Pt26  1  0.999825  0.266602  0.500090  1
  Pt  Pt27  1  0.499904  0.266702  0.999825  1
  Pt  Pt28  1  0.999825  0.733398  0.500090  1
  Pt  Pt29  1  0.499904  0.733298  0.999825  1
  Pt  Pt30  1  0.499995  0.000000  0.267584  1
  Pt  Pt31  1  0.266589  0.000000  0.499902  1
  Pt  Pt32  1  0.315812  0.000000  0.999938  1
