# generated using pymatgen
data_Y2Mn10Fe2P7
_symmetry_space_group_name_H-M   'P 1'
_cell_length_a   9.28744753
_cell_length_b   9.28478766
_cell_length_c   3.56787300
_cell_angle_alpha   90.00000000
_cell_angle_beta   90.00000000
_cell_angle_gamma   119.96515861
_symmetry_Int_Tables_number   1
_chemical_formula_structural   Y2Mn10Fe2P7
_chemical_formula_sum   'Y2 Mn10 Fe2 P7'
_cell_volume   266.53898221
_cell_formula_units_Z   1
loop_
 _symmetry_equiv_pos_site_id
 _symmetry_equiv_pos_as_xyz
  1  'x, y, z'
loop_
 _atom_site_type_symbol
 _atom_site_label
 _atom_site_symmetry_multiplicity
 _atom_site_fract_x
 _atom_site_fract_y
 _atom_site_fract_z
 _atom_site_occupancy
  Y  Y0  1  0.667306  0.333378  0.000000  1
  Y  Y1  1  0.333497  0.666571  0.500000  1
  Mn  Mn2  1  0.048941  0.621828  0.000000  1
  Mn  Mn3  1  0.573188  0.949618  0.000000  1
  Mn  Mn4  1  0.376547  0.425712  0.000000  1
  Mn  Mn5  1  0.274620  0.118787  0.000000  1
  Mn  Mn6  1  0.436584  0.045207  0.500000  1
  Mn  Mn7  1  0.607350  0.562992  0.500000  1
  Mn  Mn8  1  0.955011  0.393141  0.500000  1
  Mn  Mn9  1  0.102736  0.873372  0.500000  1
  Mn  Mn10  1  0.770535  0.897282  0.500000  1
  Mn  Mn11  1  0.126597  0.229855  0.500000  1
  Fe  Fe12  1  0.843548  0.726476  0.000000  1
  Fe  Fe13  1  0.883190  0.156155  0.000000  1
  P  P14  1  0.289014  0.879888  0.000000  1
  P  P15  1  0.591746  0.710461  0.000000  1
  P  P16  1  0.118748  0.408505  0.000000  1
  P  P17  1  0.407853  0.280819  0.500000  1
  P  P18  1  0.873043  0.595122  0.500000  1
  P  P19  1  0.721120  0.125609  0.500000  1
  P  P20  1  0.998827  0.999224  0.000000  1
