# generated using pymatgen
data_Tb3U(Ge2Ir)4
_symmetry_space_group_name_H-M   'P 1'
_cell_length_a   9.42543626
_cell_length_b   9.42543564
_cell_length_c   9.42543617
_cell_angle_alpha   153.16424266
_cell_angle_beta   123.99500851
_cell_angle_gamma   63.16485699
_symmetry_Int_Tables_number   1
_chemical_formula_structural   Tb3U(Ge2Ir)4
_chemical_formula_sum   'Tb3 U1 Ge8 Ir4'
_cell_volume   310.86781919
_cell_formula_units_Z   1
loop_
 _symmetry_equiv_pos_site_id
 _symmetry_equiv_pos_as_xyz
  1  'x, y, z'
loop_
 _atom_site_type_symbol
 _atom_site_label
 _atom_site_symmetry_multiplicity
 _atom_site_fract_x
 _atom_site_fract_y
 _atom_site_fract_z
 _atom_site_occupancy
  Tb  Tb0  1  0.268024  0.999527  0.268497  1
  Tb  Tb1  1  0.294693  0.794693  0.500000  1
  Tb  Tb2  1  0.731030  0.999527  0.731503  1
  U  U3  1  0.707666  0.207666  0.500000  1
  Ge  Ge4  1  0.044910  0.197107  0.847803  1
  Ge  Ge5  1  0.957164  0.802182  0.154983  1
  Ge  Ge6  1  0.647200  0.802182  0.845017  1
  Ge  Ge7  1  0.349303  0.197107  0.152197  1
  Ge  Ge8  1  0.577008  0.577008  0.000000  1
  Ge  Ge9  1  0.924284  0.424284  0.500000  1
  Ge  Ge10  1  0.079946  0.579946  0.500000  1
  Ge  Ge11  1  0.420810  0.420810  0.000000  1
  Ir  Ir12  1  0.605286  0.350956  0.254329  1
  Ir  Ir13  1  0.398951  0.648025  0.750927  1
  Ir  Ir14  1  0.897098  0.648025  0.249073  1
  Ir  Ir15  1  0.096627  0.350956  0.745671  1
