# generated using pymatgen
data_Ag(S8Cl)3
_symmetry_space_group_name_H-M   'P 1'
_cell_length_a   4.85890841
_cell_length_b   14.85759596
_cell_length_c   15.63448252
_cell_angle_alpha   120.87539073
_cell_angle_beta   93.71022144
_cell_angle_gamma   97.50523234
_symmetry_Int_Tables_number   1
_chemical_formula_structural   Ag(S8Cl)3
_chemical_formula_sum   'Ag1 S24 Cl3'
_cell_volume   948.85042914
_cell_formula_units_Z   1
loop_
 _symmetry_equiv_pos_site_id
 _symmetry_equiv_pos_as_xyz
  1  'x, y, z'
loop_
 _atom_site_type_symbol
 _atom_site_label
 _atom_site_symmetry_multiplicity
 _atom_site_fract_x
 _atom_site_fract_y
 _atom_site_fract_z
 _atom_site_occupancy
  Ag  Ag0  1  0.607709  0.002255  0.120485  1
  S  S1  1  0.356342  0.399541  0.991612  1
  S  S2  1  0.564716  0.731702  0.006374  1
  S  S3  1  0.263154  0.521015  0.124212  1
  S  S4  1  0.402521  0.753499  0.133398  1
  S  S5  1  0.559490  0.657726  0.176392  1
  S  S6  1  0.651239  0.377012  0.256115  1
  S  S7  1  0.831969  0.268473  0.274593  1
  S  S8  1  0.897087  0.527251  0.346977  1
  S  S9  1  0.132187  0.866279  0.392750  1
  S  S10  1  0.648358  0.246213  0.379809  1
  S  S11  1  0.367236  0.000312  0.406723  1
  S  S12  1  0.367338  0.810786  0.464002  1
  S  S13  1  0.733074  0.608274  0.478976  1
  S  S14  1  0.263824  0.133560  0.526189  1
  S  S15  1  0.901883  0.341926  0.518079  1
  S  S16  1  0.956125  0.600189  0.591030  1
  S  S17  1  0.263181  0.865927  0.606515  1
  S  S18  1  0.742136  0.478333  0.602424  1
  S  S19  1  0.554532  0.189785  0.652970  1
  S  S20  1  0.554116  0.000134  0.709780  1
  S  S21  1  0.396471  0.134089  0.740331  1
  S  S22  1  0.371796  0.473016  0.820627  1
  S  S23  1  0.275850  0.623161  0.879603  1
  S  S24  1  0.126052  0.391443  0.871372  1
  Cl  Cl25  1  0.067060  0.078777  0.935199  1
  Cl  Cl26  1  0.110628  0.999799  0.137775  1
  Cl  Cl27  1  0.986842  0.919523  0.855690  1
