# generated using pymatgen
data_SmHoRe4(SiC)2
_symmetry_space_group_name_H-M   'P 1'
_cell_length_a   5.83041672
_cell_length_b   5.83041649
_cell_length_c   7.28090800
_cell_angle_alpha   90.00000000
_cell_angle_beta   90.00000000
_cell_angle_gamma   140.13314793
_symmetry_Int_Tables_number   1
_chemical_formula_structural   SmHoRe4(SiC)2
_chemical_formula_sum   'Sm1 Ho1 Re4 Si2 C2'
_cell_volume   158.65238399
_cell_formula_units_Z   1
loop_
 _symmetry_equiv_pos_site_id
 _symmetry_equiv_pos_as_xyz
  1  'x, y, z'
loop_
 _atom_site_type_symbol
 _atom_site_label
 _atom_site_symmetry_multiplicity
 _atom_site_fract_x
 _atom_site_fract_y
 _atom_site_fract_z
 _atom_site_occupancy
  Sm  Sm0  1  0.543233  0.456767  0.250000  1
  Ho  Ho1  1  0.456887  0.543113  0.750000  1
  Re  Re2  1  0.826770  0.173230  0.060635  1
  Re  Re3  1  0.173420  0.826580  0.936637  1
  Re  Re4  1  0.173420  0.826580  0.563363  1
  Re  Re5  1  0.826770  0.173230  0.439365  1
  Si  Si6  1  0.265976  0.734024  0.250000  1
  Si  Si7  1  0.734165  0.265835  0.750000  1
  C  C8  1  0.999679  0.000321  0.996389  1
  C  C9  1  0.999679  0.000321  0.503611  1
