# generated using pymatgen
data_Sr5Pr3(Si3Au)4
_symmetry_space_group_name_H-M   'P 1'
_cell_length_a   8.36035000
_cell_length_b   8.39512195
_cell_length_c   9.01955900
_cell_angle_alpha   90.00000000
_cell_angle_beta   90.00000000
_cell_angle_gamma   119.86306688
_symmetry_Int_Tables_number   1
_chemical_formula_structural   Sr5Pr3(Si3Au)4
_chemical_formula_sum   'Sr5 Pr3 Si12 Au4'
_cell_volume   548.99072089
_cell_formula_units_Z   1
loop_
 _symmetry_equiv_pos_site_id
 _symmetry_equiv_pos_as_xyz
  1  'x, y, z'
loop_
 _atom_site_type_symbol
 _atom_site_label
 _atom_site_symmetry_multiplicity
 _atom_site_fract_x
 _atom_site_fract_y
 _atom_site_fract_z
 _atom_site_occupancy
  Sr  Sr0  1  0.499493  0.500378  0.750000  1
  Sr  Sr1  1  0.500464  0.499631  0.250000  1
  Sr  Sr2  1  0.000883  0.500378  0.750000  1
  Sr  Sr3  1  0.999168  0.499632  0.250000  1
  Sr  Sr4  1  0.499570  0.999140  0.750000  1
  Pr  Pr5  1  0.500337  0.000673  0.250000  1
  Pr  Pr6  1  0.000020  0.000040  0.750000  1
  Pr  Pr7  1  0.999983  0.999965  0.250000  1
  Si  Si8  1  0.837423  0.161131  0.003240  1
  Si  Si9  1  0.162572  0.838842  0.003285  1
  Si  Si10  1  0.323709  0.161131  0.003240  1
  Si  Si11  1  0.162572  0.838842  0.496715  1
  Si  Si12  1  0.676269  0.838841  0.003285  1
  Si  Si13  1  0.837423  0.161131  0.496760  1
  Si  Si14  1  0.837697  0.675393  0.001167  1
  Si  Si15  1  0.676269  0.838841  0.496715  1
  Si  Si16  1  0.162340  0.324680  0.001468  1
  Si  Si17  1  0.323709  0.161131  0.496760  1
  Si  Si18  1  0.162340  0.324680  0.498532  1
  Si  Si19  1  0.837697  0.675393  0.498833  1
  Au  Au20  1  0.666279  0.332557  0.002969  1
  Au  Au21  1  0.333752  0.667503  0.005562  1
  Au  Au22  1  0.333752  0.667503  0.494438  1
  Au  Au23  1  0.666279  0.332557  0.497031  1
