# generated using pymatgen
data_Dy3Y17(Ag3Ru)2
_symmetry_space_group_name_H-M   'P 1'
_cell_length_a   9.52997363
_cell_length_b   9.52997430
_cell_length_c   9.68456806
_cell_angle_alpha   90.09084818
_cell_angle_beta   89.90915294
_cell_angle_gamma   119.89985922
_symmetry_Int_Tables_number   1
_chemical_formula_structural   Dy3Y17(Ag3Ru)2
_chemical_formula_sum   'Dy3 Y17 Ag6 Ru2'
_cell_volume   762.48436607
_cell_formula_units_Z   1
loop_
 _symmetry_equiv_pos_site_id
 _symmetry_equiv_pos_as_xyz
  1  'x, y, z'
loop_
 _atom_site_type_symbol
 _atom_site_label
 _atom_site_symmetry_multiplicity
 _atom_site_fract_x
 _atom_site_fract_y
 _atom_site_fract_z
 _atom_site_occupancy
  Dy  Dy0  1  0.000191  0.999809  0.499806  1
  Dy  Dy1  1  0.000041  0.999959  0.999958  1
  Dy  Dy2  1  0.208830  0.791170  0.440135  1
  Y  Y3  1  0.208503  0.417108  0.441126  1
  Y  Y4  1  0.582892  0.791497  0.441126  1
  Y  Y5  1  0.791476  0.208524  0.559012  1
  Y  Y6  1  0.791502  0.582817  0.559011  1
  Y  Y7  1  0.417183  0.208498  0.559011  1
  Y  Y8  1  0.791510  0.208490  0.940992  1
  Y  Y9  1  0.791472  0.582815  0.940960  1
  Y  Y10  1  0.417185  0.208528  0.940960  1
  Y  Y11  1  0.208448  0.791552  0.059180  1
  Y  Y12  1  0.208625  0.417085  0.058897  1
  Y  Y13  1  0.582915  0.791375  0.058897  1
  Y  Y14  1  0.541137  0.458863  0.249949  1
  Y  Y15  1  0.541014  0.082029  0.250112  1
  Y  Y16  1  0.917971  0.458986  0.250112  1
  Y  Y17  1  0.459068  0.540932  0.749923  1
  Y  Y18  1  0.458901  0.917771  0.749884  1
  Y  Y19  1  0.082229  0.541099  0.749884  1
  Ag  Ag20  1  0.883840  0.116160  0.249997  1
  Ag  Ag21  1  0.883937  0.767786  0.249967  1
  Ag  Ag22  1  0.232214  0.116063  0.249967  1
  Ag  Ag23  1  0.116138  0.883862  0.750021  1
  Ag  Ag24  1  0.116117  0.232362  0.750032  1
  Ag  Ag25  1  0.767638  0.883883  0.750032  1
  Ru  Ru26  1  0.332484  0.667516  0.251292  1
  Ru  Ru27  1  0.666537  0.333463  0.749755  1
