# generated using pymatgen
data_Dy2Co6Ge2BC
_symmetry_space_group_name_H-M   'P 1'
_cell_length_a   5.17252900
_cell_length_b   5.17339586
_cell_length_c   6.51370700
_cell_angle_alpha   90.00000000
_cell_angle_beta   90.00000000
_cell_angle_gamma   119.99833309
_symmetry_Int_Tables_number   1
_chemical_formula_structural   Dy2Co6Ge2BC
_chemical_formula_sum   'Dy2 Co6 Ge2 B1 C1'
_cell_volume   150.95405759
_cell_formula_units_Z   1
loop_
 _symmetry_equiv_pos_site_id
 _symmetry_equiv_pos_as_xyz
  1  'x, y, z'
loop_
 _atom_site_type_symbol
 _atom_site_label
 _atom_site_symmetry_multiplicity
 _atom_site_fract_x
 _atom_site_fract_y
 _atom_site_fract_z
 _atom_site_occupancy
  Dy  Dy0  1  0.999960  0.000000  0.000000  1
  Dy  Dy1  1  0.000011  0.999977  0.500000  1
  Co  Co2  1  0.497741  0.995481  0.295867  1
  Co  Co3  1  0.497728  0.502264  0.295897  1
  Co  Co4  1  0.004490  0.502258  0.295890  1
  Co  Co5  1  0.497741  0.995481  0.704133  1
  Co  Co6  1  0.497728  0.502264  0.704103  1
  Co  Co7  1  0.004490  0.502258  0.704110  1
  Ge  Ge8  1  0.333269  0.666594  0.000000  1
  Ge  Ge9  1  0.666683  0.333421  0.000000  1
  B  B10  1  0.666626  0.333308  0.500000  1
  C  C11  1  0.333332  0.666692  0.500000  1
