# generated using pymatgen
data_RbCl2F7
_symmetry_space_group_name_H-M   'P 1'
_cell_length_a   7.63689736
_cell_length_b   7.92736300
_cell_length_c   14.04883037
_cell_angle_alpha   90.00000000
_cell_angle_beta   124.29121736
_cell_angle_gamma   90.00000000
_symmetry_Int_Tables_number   1
_chemical_formula_structural   RbCl2F7
_chemical_formula_sum   'Rb4 Cl8 F28'
_cell_volume   702.68874520
_cell_formula_units_Z   4
loop_
 _symmetry_equiv_pos_site_id
 _symmetry_equiv_pos_as_xyz
  1  'x, y, z'
loop_
 _atom_site_type_symbol
 _atom_site_label
 _atom_site_symmetry_multiplicity
 _atom_site_fract_x
 _atom_site_fract_y
 _atom_site_fract_z
 _atom_site_occupancy
  Rb  Rb0  1  0.879315  0.917039  0.309191  1
  Rb  Rb1  1  0.120685  0.417039  0.190809  1
  Rb  Rb2  1  0.120685  0.082961  0.690809  1
  Rb  Rb3  1  0.879315  0.582961  0.809191  1
  Cl  Cl4  1  0.237331  0.912761  0.120227  1
  Cl  Cl5  1  0.762669  0.412761  0.379773  1
  Cl  Cl6  1  0.762669  0.087239  0.879773  1
  Cl  Cl7  1  0.237331  0.587239  0.620227  1
  Cl  Cl8  1  0.519579  0.722682  0.987876  1
  Cl  Cl9  1  0.480421  0.222682  0.512124  1
  Cl  Cl10  1  0.480421  0.277318  0.012124  1
  Cl  Cl11  1  0.519579  0.777318  0.487876  1
  F  F12  1  0.372166  0.101920  0.191841  1
  F  F13  1  0.627834  0.601920  0.308159  1
  F  F14  1  0.627834  0.898080  0.808159  1
  F  F15  1  0.372166  0.398080  0.691841  1
  F  F16  1  0.099539  0.716470  0.047722  1
  F  F17  1  0.900461  0.216470  0.452278  1
  F  F18  1  0.900461  0.283530  0.952278  1
  F  F19  1  0.099539  0.783530  0.547722  1
  F  F20  1  0.049117  0.957569  0.146045  1
  F  F21  1  0.950883  0.457569  0.353955  1
  F  F22  1  0.950883  0.042431  0.853955  1
  F  F23  1  0.049117  0.542431  0.646045  1
  F  F24  1  0.473335  0.877132  0.090861  1
  F  F25  1  0.526665  0.377132  0.409139  1
  F  F26  1  0.526665  0.122868  0.909139  1
  F  F27  1  0.473335  0.622868  0.590861  1
  F  F28  1  0.265573  0.777524  0.858940  1
  F  F29  1  0.734427  0.277524  0.641060  1
  F  F30  1  0.734427  0.222476  0.141060  1
  F  F31  1  0.265573  0.722476  0.358940  1
  F  F32  1  0.574040  0.597852  0.909082  1
  F  F33  1  0.425960  0.097852  0.590918  1
  F  F34  1  0.425960  0.402148  0.090918  1
  F  F35  1  0.574040  0.902148  0.409082  1
  F  F36  1  0.771035  0.664044  0.116488  1
  F  F37  1  0.228965  0.164044  0.383512  1
  F  F38  1  0.228965  0.335956  0.883512  1
  F  F39  1  0.771035  0.835956  0.616488  1
