# generated using pymatgen
data_Tc4P3
_symmetry_space_group_name_H-M   'P 1'
_cell_length_a   3.05117700
_cell_length_b   10.45942600
_cell_length_c   12.45557500
_cell_angle_alpha   90.00000000
_cell_angle_beta   90.00000000
_cell_angle_gamma   90.00000000
_symmetry_Int_Tables_number   1
_chemical_formula_structural   Tc4P3
_chemical_formula_sum   'Tc16 P12'
_cell_volume   397.50174065
_cell_formula_units_Z   4
loop_
 _symmetry_equiv_pos_site_id
 _symmetry_equiv_pos_as_xyz
  1  'x, y, z'
loop_
 _atom_site_type_symbol
 _atom_site_label
 _atom_site_symmetry_multiplicity
 _atom_site_fract_x
 _atom_site_fract_y
 _atom_site_fract_z
 _atom_site_occupancy
  Tc  Tc0  1  0.250000  0.935210  0.769691  1
  Tc  Tc1  1  0.250000  0.413767  0.071549  1
  Tc  Tc2  1  0.750000  0.878689  0.970959  1
  Tc  Tc3  1  0.750000  0.586233  0.928451  1
  Tc  Tc4  1  0.250000  0.291723  0.291874  1
  Tc  Tc5  1  0.250000  0.378689  0.529041  1
  Tc  Tc6  1  0.750000  0.064790  0.230309  1
  Tc  Tc7  1  0.250000  0.086233  0.571549  1
  Tc  Tc8  1  0.250000  0.564790  0.269691  1
  Tc  Tc9  1  0.750000  0.621311  0.470959  1
  Tc  Tc10  1  0.750000  0.913767  0.428451  1
  Tc  Tc11  1  0.750000  0.435210  0.730309  1
  Tc  Tc12  1  0.250000  0.121311  0.029041  1
  Tc  Tc13  1  0.750000  0.791723  0.208126  1
  Tc  Tc14  1  0.750000  0.708277  0.708126  1
  Tc  Tc15  1  0.250000  0.208277  0.791874  1
  P  P16  1  0.750000  0.908132  0.617265  1
  P  P17  1  0.750000  0.071594  0.878183  1
  P  P18  1  0.750000  0.241645  0.636967  1
  P  P19  1  0.250000  0.091868  0.382735  1
  P  P20  1  0.250000  0.741645  0.863033  1
  P  P21  1  0.250000  0.571594  0.621817  1
  P  P22  1  0.250000  0.928406  0.121817  1
  P  P23  1  0.750000  0.591868  0.117265  1
  P  P24  1  0.250000  0.408132  0.882735  1
  P  P25  1  0.750000  0.258355  0.136967  1
  P  P26  1  0.750000  0.428406  0.378183  1
  P  P27  1  0.250000  0.758355  0.363033  1
