# generated using pymatgen
data_Tm10ReAg3
_symmetry_space_group_name_H-M   'P 1'
_cell_length_a   9.29392000
_cell_length_b   9.29328009
_cell_length_c   9.67384500
_cell_angle_alpha   90.00071197
_cell_angle_beta   89.99943853
_cell_angle_gamma   120.00471792
_symmetry_Int_Tables_number   1
_chemical_formula_structural   Tm10ReAg3
_chemical_formula_sum   'Tm20 Re2 Ag6'
_cell_volume   723.56418830
_cell_formula_units_Z   2
loop_
 _symmetry_equiv_pos_site_id
 _symmetry_equiv_pos_as_xyz
  1  'x, y, z'
loop_
 _atom_site_type_symbol
 _atom_site_label
 _atom_site_symmetry_multiplicity
 _atom_site_fract_x
 _atom_site_fract_y
 _atom_site_fract_z
 _atom_site_occupancy
  Tm  Tm0  1  0.999992  0.999995  0.500000  1
  Tm  Tm1  1  0.999994  0.999995  0.999987  1
  Tm  Tm2  1  0.538150  0.461702  0.249996  1
  Tm  Tm3  1  0.538225  0.076436  0.250001  1
  Tm  Tm4  1  0.923556  0.461702  0.249998  1
  Tm  Tm5  1  0.461819  0.538296  0.749989  1
  Tm  Tm6  1  0.461760  0.923553  0.749990  1
  Tm  Tm7  1  0.076456  0.538300  0.749993  1
  Tm  Tm8  1  0.208691  0.791296  0.443379  1
  Tm  Tm9  1  0.208695  0.417391  0.443418  1
  Tm  Tm10  1  0.582591  0.791291  0.443373  1
  Tm  Tm11  1  0.791300  0.208700  0.556624  1
  Tm  Tm12  1  0.791290  0.582589  0.556583  1
  Tm  Tm13  1  0.417403  0.208707  0.556631  1
  Tm  Tm14  1  0.791300  0.208694  0.943371  1
  Tm  Tm15  1  0.791291  0.582589  0.943412  1
  Tm  Tm16  1  0.417401  0.208703  0.943360  1
  Tm  Tm17  1  0.208696  0.791295  0.056621  1
  Tm  Tm18  1  0.208699  0.417397  0.056573  1
  Tm  Tm19  1  0.582588  0.791288  0.056620  1
  Re  Re20  1  0.333200  0.666549  0.249984  1
  Re  Re21  1  0.666944  0.333579  0.750132  1
  Ag  Ag22  1  0.884538  0.115457  0.250002  1
  Ag  Ag23  1  0.884506  0.769023  0.249995  1
  Ag  Ag24  1  0.230925  0.115458  0.249996  1
  Ag  Ag25  1  0.115453  0.884534  0.749994  1
  Ag  Ag26  1  0.115485  0.230970  0.749993  1
  Ag  Ag27  1  0.769053  0.884513  0.749986  1
