# generated using pymatgen
data_Nd8Zn(Si4Ir)3
_symmetry_space_group_name_H-M   'P 1'
_cell_length_a   8.23837400
_cell_length_b   8.23837558
_cell_length_c   8.53185500
_cell_angle_alpha   90.00000000
_cell_angle_beta   90.00000000
_cell_angle_gamma   119.99999364
_symmetry_Int_Tables_number   1
_chemical_formula_structural   Nd8Zn(Si4Ir)3
_chemical_formula_sum   'Nd8 Zn1 Si12 Ir3'
_cell_volume   501.48415647
_cell_formula_units_Z   1
loop_
 _symmetry_equiv_pos_site_id
 _symmetry_equiv_pos_as_xyz
  1  'x, y, z'
loop_
 _atom_site_type_symbol
 _atom_site_label
 _atom_site_symmetry_multiplicity
 _atom_site_fract_x
 _atom_site_fract_y
 _atom_site_fract_z
 _atom_site_occupancy
  Nd  Nd0  1  0.497509  0.502491  0.745581  1
  Nd  Nd1  1  0.498205  0.501795  0.254392  1
  Nd  Nd2  1  0.004981  0.502491  0.745581  1
  Nd  Nd3  1  0.003589  0.501795  0.254392  1
  Nd  Nd4  1  0.497509  0.995019  0.745581  1
  Nd  Nd5  1  0.498205  0.996411  0.254392  1
  Nd  Nd6  1  0.000000  0.000000  0.749819  1
  Nd  Nd7  1  0.000000  0.000000  0.250685  1
  Zn  Zn8  1  0.666667  0.333333  0.997524  1
  Si  Si9  1  0.836599  0.163401  0.000445  1
  Si  Si10  1  0.168057  0.831943  0.999894  1
  Si  Si11  1  0.326802  0.163401  0.000445  1
  Si  Si12  1  0.166715  0.833285  0.499744  1
  Si  Si13  1  0.663886  0.831943  0.999894  1
  Si  Si14  1  0.832665  0.167335  0.500381  1
  Si  Si15  1  0.836599  0.673198  0.000445  1
  Si  Si16  1  0.666569  0.833285  0.499744  1
  Si  Si17  1  0.168057  0.336114  0.999894  1
  Si  Si18  1  0.334671  0.167335  0.500381  1
  Si  Si19  1  0.166715  0.333431  0.499744  1
  Si  Si20  1  0.832665  0.665329  0.500381  1
  Ir  Ir21  1  0.333333  0.666667  0.000653  1
  Ir  Ir22  1  0.333333  0.666667  0.499197  1
  Ir  Ir23  1  0.666667  0.333333  0.500812  1
