# generated using pymatgen
data_DyYRe3Tc
_symmetry_space_group_name_H-M   'P 1'
_cell_length_a   5.38776600
_cell_length_b   5.38776567
_cell_length_c   8.99650900
_cell_angle_alpha   90.00000000
_cell_angle_beta   90.00000000
_cell_angle_gamma   119.99997746
_symmetry_Int_Tables_number   1
_chemical_formula_structural   DyYRe3Tc
_chemical_formula_sum   'Dy2 Y2 Re6 Tc2'
_cell_volume   226.16332120
_cell_formula_units_Z   2
loop_
 _symmetry_equiv_pos_site_id
 _symmetry_equiv_pos_as_xyz
  1  'x, y, z'
loop_
 _atom_site_type_symbol
 _atom_site_label
 _atom_site_symmetry_multiplicity
 _atom_site_fract_x
 _atom_site_fract_y
 _atom_site_fract_z
 _atom_site_occupancy
  Dy  Dy0  1  0.666667  0.333333  0.937252  1
  Dy  Dy1  1  0.333333  0.666667  0.062748  1
  Y  Y2  1  0.333333  0.666667  0.437186  1
  Y  Y3  1  0.666667  0.333333  0.562814  1
  Re  Re4  1  0.828666  0.171334  0.249947  1
  Re  Re5  1  0.828666  0.657332  0.249947  1
  Re  Re6  1  0.342668  0.171334  0.249947  1
  Re  Re7  1  0.171334  0.828666  0.750053  1
  Re  Re8  1  0.171334  0.342668  0.750053  1
  Re  Re9  1  0.657332  0.828666  0.750053  1
  Tc  Tc10  1  0.000000  0.000000  0.500000  1
  Tc  Tc11  1  0.000000  0.000000  0.000000  1
