# generated using pymatgen
data_Tb5Nd3(InIr)2
_symmetry_space_group_name_H-M   'P 1'
_cell_length_a   9.79454270
_cell_length_b   9.79454285
_cell_length_c   9.79454300
_cell_angle_alpha   60.00000287
_cell_angle_beta   60.00000237
_cell_angle_gamma   60.00000208
_symmetry_Int_Tables_number   1
_chemical_formula_structural   Tb5Nd3(InIr)2
_chemical_formula_sum   'Tb10 Nd6 In4 Ir4'
_cell_volume   664.41210746
_cell_formula_units_Z   2
loop_
 _symmetry_equiv_pos_site_id
 _symmetry_equiv_pos_as_xyz
  1  'x, y, z'
loop_
 _atom_site_type_symbol
 _atom_site_label
 _atom_site_symmetry_multiplicity
 _atom_site_fract_x
 _atom_site_fract_y
 _atom_site_fract_z
 _atom_site_occupancy
  Tb  Tb0  1  0.347464  0.347464  0.347464  1
  Tb  Tb1  1  0.347464  0.347464  0.957608  1
  Tb  Tb2  1  0.347464  0.957608  0.347464  1
  Tb  Tb3  1  0.957608  0.347464  0.347464  1
  Tb  Tb4  1  0.810464  0.189536  0.189536  1
  Tb  Tb5  1  0.189536  0.810464  0.810464  1
  Tb  Tb6  1  0.189536  0.810464  0.189536  1
  Tb  Tb7  1  0.810464  0.189536  0.810464  1
  Tb  Tb8  1  0.189536  0.189536  0.810464  1
  Tb  Tb9  1  0.810464  0.810464  0.189536  1
  Nd  Nd10  1  0.940979  0.559021  0.559021  1
  Nd  Nd11  1  0.559021  0.940979  0.940979  1
  Nd  Nd12  1  0.559021  0.940979  0.559021  1
  Nd  Nd13  1  0.940979  0.559021  0.940979  1
  Nd  Nd14  1  0.559021  0.559021  0.940979  1
  Nd  Nd15  1  0.940979  0.940979  0.559021  1
  In  In16  1  0.580503  0.580503  0.580503  1
  In  In17  1  0.580503  0.580503  0.258492  1
  In  In18  1  0.580503  0.258492  0.580503  1
  In  In19  1  0.258492  0.580503  0.580503  1
  Ir  Ir20  1  0.140832  0.140832  0.140832  1
  Ir  Ir21  1  0.140832  0.140832  0.577503  1
  Ir  Ir22  1  0.140832  0.577503  0.140832  1
  Ir  Ir23  1  0.577503  0.140832  0.140832  1
