# generated using pymatgen
data_TmU2Ga3Ru2Pt
_symmetry_space_group_name_H-M   'P 1'
_cell_length_a   6.91695100
_cell_length_b   7.17458759
_cell_length_c   3.88874700
_cell_angle_alpha   90.00000000
_cell_angle_beta   90.00000000
_cell_angle_gamma   118.81905802
_symmetry_Int_Tables_number   1
_chemical_formula_structural   TmU2Ga3Ru2Pt
_chemical_formula_sum   'Tm1 U2 Ga3 Ru2 Pt1'
_cell_volume   169.08224474
_cell_formula_units_Z   1
loop_
 _symmetry_equiv_pos_site_id
 _symmetry_equiv_pos_as_xyz
  1  'x, y, z'
loop_
 _atom_site_type_symbol
 _atom_site_label
 _atom_site_symmetry_multiplicity
 _atom_site_fract_x
 _atom_site_fract_y
 _atom_site_fract_z
 _atom_site_occupancy
  Tm  Tm0  1  0.412216  0.000000  0.500000  1
  U  U1  1  0.001063  0.424782  0.500000  1
  U  U2  1  0.576281  0.575218  0.500000  1
  Ga  Ga3  1  0.731206  0.000000  0.000000  1
  Ga  Ga4  1  0.018013  0.768267  0.000000  1
  Ga  Ga5  1  0.249746  0.231733  0.000000  1
  Ru  Ru6  1  0.328871  0.627359  0.000000  1
  Ru  Ru7  1  0.701513  0.372641  0.000000  1
  Pt  Pt8  1  0.981092  0.000000  0.500000  1
