# generated using pymatgen
data_Lu12MnIn2FeOs
_symmetry_space_group_name_H-M   'P 1'
_cell_length_a   8.20335935
_cell_length_b   8.20336114
_cell_length_c   8.20336001
_cell_angle_alpha   108.72190815
_cell_angle_beta   108.72189803
_cell_angle_gamma   110.98047846
_symmetry_Int_Tables_number   1
_chemical_formula_structural   Lu12MnIn2FeOs
_chemical_formula_sum   'Lu12 Mn1 In2 Fe1 Os1'
_cell_volume   424.74347136
_cell_formula_units_Z   1
loop_
 _symmetry_equiv_pos_site_id
 _symmetry_equiv_pos_as_xyz
  1  'x, y, z'
loop_
 _atom_site_type_symbol
 _atom_site_label
 _atom_site_symmetry_multiplicity
 _atom_site_fract_x
 _atom_site_fract_y
 _atom_site_fract_z
 _atom_site_occupancy
  Lu  Lu0  1  0.191657  0.429172  0.237514  1
  Lu  Lu1  1  0.807953  0.570750  0.762797  1
  Lu  Lu2  1  0.191657  0.954144  0.762486  1
  Lu  Lu3  1  0.954144  0.191657  0.762486  1
  Lu  Lu4  1  0.807953  0.045155  0.237203  1
  Lu  Lu5  1  0.045155  0.807953  0.237203  1
  Lu  Lu6  1  0.429172  0.191657  0.237514  1
  Lu  Lu7  1  0.570750  0.807953  0.762797  1
  Lu  Lu8  1  0.307786  0.307786  0.617373  1
  Lu  Lu9  1  0.690412  0.690412  0.382627  1
  Lu  Lu10  1  0.690412  0.307786  0.000000  1
  Lu  Lu11  1  0.307786  0.690412  0.000000  1
  Mn  Mn12  1  0.387178  0.387178  0.000000  1
  In  In13  1  0.000589  0.500589  0.500000  1
  In  In14  1  0.500589  0.000589  0.500000  1
  Fe  Fe15  1  0.617320  0.617320  0.000000  1
  Os  Os16  1  0.999485  0.999485  0.000000  1
