# generated using pymatgen
data_Y2MgSc2P12Ru19
_symmetry_space_group_name_H-M   'P 1'
_cell_length_a   12.43358405
_cell_length_b   12.42474578
_cell_length_c   3.97125200
_cell_angle_alpha   90.00000000
_cell_angle_beta   90.00000000
_cell_angle_gamma   119.97648448
_symmetry_Int_Tables_number   1
_chemical_formula_structural   Y2MgSc2P12Ru19
_chemical_formula_sum   'Y2 Mg1 Sc2 P12 Ru19'
_cell_volume   531.42843092
_cell_formula_units_Z   1
loop_
 _symmetry_equiv_pos_site_id
 _symmetry_equiv_pos_as_xyz
  1  'x, y, z'
loop_
 _atom_site_type_symbol
 _atom_site_label
 _atom_site_symmetry_multiplicity
 _atom_site_fract_x
 _atom_site_fract_y
 _atom_site_fract_z
 _atom_site_occupancy
  Y  Y0  1  0.672490  0.333770  0.000000  1
  Y  Y1  1  0.327510  0.661281  0.000000  1
  Mg  Mg2  1  0.000000  0.187514  0.500000  1
  Sc  Sc3  1  0.818948  0.816769  0.500000  1
  Sc  Sc4  1  0.181052  0.997821  0.500000  1
  P  P5  1  0.000000  0.829686  0.000000  1
  P  P6  1  0.192341  0.176773  0.000000  1
  P  P7  1  0.807659  0.984431  0.000000  1
  P  P8  1  0.698772  0.168287  0.500000  1
  P  P9  1  0.832058  0.527316  0.500000  1
  P  P10  1  0.480035  0.307176  0.500000  1
  P  P11  1  0.167942  0.695259  0.500000  1
  P  P12  1  0.519965  0.827142  0.500000  1
  P  P13  1  0.301228  0.469516  0.500000  1
  P  P14  1  0.000000  0.381719  0.000000  1
  P  P15  1  0.624894  0.625706  0.000000  1
  P  P16  1  0.375106  0.000811  0.000000  1
  Ru  Ru17  1  0.000000  0.562592  0.000000  1
  Ru  Ru18  1  0.439007  0.444127  0.000000  1
  Ru  Ru19  1  0.560993  0.005120  0.000000  1
  Ru  Ru20  1  0.000000  0.726398  0.500000  1
  Ru  Ru21  1  0.280554  0.275288  0.500000  1
  Ru  Ru22  1  0.719446  0.994734  0.500000  1
  Ru  Ru23  1  0.826293  0.182227  0.000000  1
  Ru  Ru24  1  0.815575  0.632617  0.000000  1
  Ru  Ru25  1  0.381623  0.191020  0.000000  1
  Ru  Ru26  1  0.184425  0.817041  0.000000  1
  Ru  Ru27  1  0.618377  0.809396  0.000000  1
  Ru  Ru28  1  0.173707  0.355933  0.000000  1
  Ru  Ru29  1  0.874139  0.365400  0.500000  1
  Ru  Ru30  1  0.634534  0.509942  0.500000  1
  Ru  Ru31  1  0.496841  0.127319  0.500000  1
  Ru  Ru32  1  0.365466  0.875408  0.500000  1
  Ru  Ru33  1  0.503159  0.630479  0.500000  1
  Ru  Ru34  1  0.125861  0.491262  0.500000  1
  Ru  Ru35  1  0.000000  0.012721  0.000000  1
