# generated using pymatgen
data_EuCuHgPt3
_symmetry_space_group_name_H-M   'P 1'
_cell_length_a   5.27145921
_cell_length_b   5.27145860
_cell_length_c   5.27145826
_cell_angle_alpha   62.69639551
_cell_angle_beta   62.69639574
_cell_angle_gamma   62.69639159
_symmetry_Int_Tables_number   1
_chemical_formula_structural   EuCuHgPt3
_chemical_formula_sum   'Eu1 Cu1 Hg1 Pt3'
_cell_volume   109.79527684
_cell_formula_units_Z   1
loop_
 _symmetry_equiv_pos_site_id
 _symmetry_equiv_pos_as_xyz
  1  'x, y, z'
loop_
 _atom_site_type_symbol
 _atom_site_label
 _atom_site_symmetry_multiplicity
 _atom_site_fract_x
 _atom_site_fract_y
 _atom_site_fract_z
 _atom_site_occupancy
  Eu  Eu0  1  0.001239  0.001239  0.001239  1
  Cu  Cu1  1  0.624059  0.624059  0.624059  1
  Hg  Hg2  1  0.252021  0.252021  0.252021  1
  Pt  Pt3  1  0.623426  0.623426  0.125828  1
  Pt  Pt4  1  0.623426  0.125828  0.623426  1
  Pt  Pt5  1  0.125828  0.623426  0.623426  1
