# generated using pymatgen
data_Eu4Ta3IrO14
_symmetry_space_group_name_H-M   'P 1'
_cell_length_a   7.44866606
_cell_length_b   7.44866604
_cell_length_c   7.44866588
_cell_angle_alpha   60.67810344
_cell_angle_beta   60.67809972
_cell_angle_gamma   60.67811207
_symmetry_Int_Tables_number   1
_chemical_formula_structural   Eu4Ta3IrO14
_chemical_formula_sum   'Eu4 Ta3 Ir1 O14'
_cell_volume   296.70028012
_cell_formula_units_Z   1
loop_
 _symmetry_equiv_pos_site_id
 _symmetry_equiv_pos_as_xyz
  1  'x, y, z'
loop_
 _atom_site_type_symbol
 _atom_site_label
 _atom_site_symmetry_multiplicity
 _atom_site_fract_x
 _atom_site_fract_y
 _atom_site_fract_z
 _atom_site_occupancy
  Eu  Eu0  1  0.625000  0.125000  0.125000  1
  Eu  Eu1  1  0.125000  0.625000  0.125000  1
  Eu  Eu2  1  0.125000  0.125000  0.625000  1
  Eu  Eu3  1  0.125000  0.125000  0.125000  1
  Ta  Ta4  1  0.125000  0.625000  0.625000  1
  Ta  Ta5  1  0.625000  0.125000  0.625000  1
  Ta  Ta6  1  0.625000  0.625000  0.125000  1
  Ir  Ir7  1  0.625000  0.625000  0.625000  1
  O  O8  1  0.249782  0.249782  0.249782  1
  O  O9  1  0.000218  0.000218  0.000218  1
  O  O10  1  0.700503  0.700503  0.293949  1
  O  O11  1  0.307000  0.307000  0.695169  1
  O  O12  1  0.700503  0.293949  0.700503  1
  O  O13  1  0.307000  0.695169  0.307000  1
  O  O14  1  0.293949  0.700503  0.700503  1
  O  O15  1  0.695169  0.307000  0.307000  1
  O  O16  1  0.549497  0.549497  0.956051  1
  O  O17  1  0.943000  0.943000  0.554831  1
  O  O18  1  0.549497  0.956051  0.549497  1
  O  O19  1  0.943000  0.554831  0.943000  1
  O  O20  1  0.956051  0.549497  0.549497  1
  O  O21  1  0.554831  0.943000  0.943000  1
