# generated using pymatgen
data_LaAl4Cu9
_symmetry_space_group_name_H-M   'P 1'
_cell_length_a   8.31106177
_cell_length_b   8.31183422
_cell_length_c   8.31454646
_cell_angle_alpha   120.11445029
_cell_angle_beta   120.07884665
_cell_angle_gamma   89.83334116
_symmetry_Int_Tables_number   1
_chemical_formula_structural   LaAl4Cu9
_chemical_formula_sum   'La2 Al8 Cu18'
_cell_volume   405.54355896
_cell_formula_units_Z   2
loop_
 _symmetry_equiv_pos_site_id
 _symmetry_equiv_pos_as_xyz
  1  'x, y, z'
loop_
 _atom_site_type_symbol
 _atom_site_label
 _atom_site_symmetry_multiplicity
 _atom_site_fract_x
 _atom_site_fract_y
 _atom_site_fract_z
 _atom_site_occupancy
  La  La0  1  0.749988  0.750038  0.999979  1
  La  La1  1  0.250012  0.249962  0.000021  1
  Al  Al2  1  0.059030  0.559033  0.860138  1
  Al  Al3  1  0.698913  0.199016  0.139834  1
  Al  Al4  1  0.559180  0.698963  0.500034  1
  Al  Al5  1  0.198929  0.059118  0.500015  1
  Al  Al6  1  0.940970  0.440967  0.139862  1
  Al  Al7  1  0.301087  0.800984  0.860166  1
  Al  Al8  1  0.440820  0.301037  0.499966  1
  Al  Al9  1  0.801071  0.940882  0.499985  1
  Cu  Cu10  1  0.060665  0.203148  0.263802  1
  Cu  Cu11  1  0.939335  0.796852  0.736198  1
  Cu  Cu12  1  0.560880  0.297026  0.857642  1
  Cu  Cu13  1  0.439120  0.702974  0.142358  1
  Cu  Cu14  1  0.796833  0.060849  0.857530  1
  Cu  Cu15  1  0.203167  0.939151  0.142470  1
  Cu  Cu16  1  0.703440  0.560935  0.263984  1
  Cu  Cu17  1  0.296560  0.439065  0.736016  1
  Cu  Cu18  1  0.438107  0.938117  0.733416  1
  Cu  Cu19  1  0.204685  0.704676  0.266786  1
  Cu  Cu20  1  0.937785  0.204516  0.499703  1
  Cu  Cu21  1  0.704582  0.437948  0.499905  1
  Cu  Cu22  1  0.561893  0.061883  0.266584  1
  Cu  Cu23  1  0.795315  0.295324  0.733214  1
  Cu  Cu24  1  0.062215  0.795484  0.500297  1
  Cu  Cu25  1  0.295418  0.562052  0.500095  1
  Cu  Cu26  1  0.000000  0.500000  0.500000  1
  Cu  Cu27  1  0.500000  0.000000  0.500000  1
