# generated using pymatgen
data_ErNb8InS16
_symmetry_space_group_name_H-M   'P 1'
_cell_length_a   6.68699400
_cell_length_b   6.68699514
_cell_length_c   13.53037800
_cell_angle_alpha   90.00000000
_cell_angle_beta   90.00000000
_cell_angle_gamma   119.99999434
_symmetry_Int_Tables_number   1
_chemical_formula_structural   ErNb8InS16
_chemical_formula_sum   'Er1 Nb8 In1 S16'
_cell_volume   523.96530129
_cell_formula_units_Z   1
loop_
 _symmetry_equiv_pos_site_id
 _symmetry_equiv_pos_as_xyz
  1  'x, y, z'
loop_
 _atom_site_type_symbol
 _atom_site_label
 _atom_site_symmetry_multiplicity
 _atom_site_fract_x
 _atom_site_fract_y
 _atom_site_fract_z
 _atom_site_occupancy
  Er  Er0  1  0.000000  0.000000  0.500000  1
  Nb  Nb1  1  0.000000  0.000000  0.253902  1
  Nb  Nb2  1  0.000000  0.000000  0.746098  1
  Nb  Nb3  1  0.504444  0.008886  0.250187  1
  Nb  Nb4  1  0.495556  0.991114  0.749813  1
  Nb  Nb5  1  0.991114  0.495556  0.250187  1
  Nb  Nb6  1  0.008886  0.504444  0.749813  1
  Nb  Nb7  1  0.504444  0.495556  0.250187  1
  Nb  Nb8  1  0.495556  0.504444  0.749813  1
  In  In9  1  0.000000  0.000000  0.000000  1
  S  S10  1  0.333333  0.666667  0.630877  1
  S  S11  1  0.666667  0.333333  0.369123  1
  S  S12  1  0.666667  0.333333  0.132984  1
  S  S13  1  0.333333  0.666667  0.867016  1
  S  S14  1  0.167035  0.334071  0.136411  1
  S  S15  1  0.832965  0.665929  0.863589  1
  S  S16  1  0.665929  0.832965  0.136411  1
  S  S17  1  0.829877  0.659754  0.632799  1
  S  S18  1  0.334071  0.167035  0.863589  1
  S  S19  1  0.170123  0.340246  0.367201  1
  S  S20  1  0.167035  0.832965  0.136411  1
  S  S21  1  0.340246  0.170123  0.632799  1
  S  S22  1  0.832965  0.167035  0.863589  1
  S  S23  1  0.659754  0.829877  0.367201  1
  S  S24  1  0.829877  0.170123  0.632799  1
  S  S25  1  0.170123  0.829877  0.367201  1
