# generated using pymatgen
data_Y6ScFeO12
_symmetry_space_group_name_H-M   'P 1'
_cell_length_a   6.59132525
_cell_length_b   6.59132591
_cell_length_c   6.59132540
_cell_angle_alpha   92.61576475
_cell_angle_beta   92.61576673
_cell_angle_gamma   92.61576616
_symmetry_Int_Tables_number   1
_chemical_formula_structural   Y6ScFeO12
_chemical_formula_sum   'Y6 Sc1 Fe1 O12'
_cell_volume   285.44053422
_cell_formula_units_Z   1
loop_
 _symmetry_equiv_pos_site_id
 _symmetry_equiv_pos_as_xyz
  1  'x, y, z'
loop_
 _atom_site_type_symbol
 _atom_site_label
 _atom_site_symmetry_multiplicity
 _atom_site_fract_x
 _atom_site_fract_y
 _atom_site_fract_z
 _atom_site_occupancy
  Y  Y0  1  0.743962  0.927559  0.436539  1
  Y  Y1  1  0.927559  0.436539  0.743962  1
  Y  Y2  1  0.436539  0.743962  0.927559  1
  Y  Y3  1  0.256038  0.072441  0.563461  1
  Y  Y4  1  0.072441  0.563461  0.256038  1
  Y  Y5  1  0.563461  0.256038  0.072441  1
  Sc  Sc6  1  0.000000  0.000000  0.000000  1
  Fe  Fe7  1  0.500000  0.500000  0.500000  1
  O  O8  1  0.588188  0.460296  0.800157  1
  O  O9  1  0.460296  0.800157  0.588188  1
  O  O10  1  0.800157  0.588188  0.460296  1
  O  O11  1  0.411812  0.539704  0.199843  1
  O  O12  1  0.539704  0.199843  0.411812  1
  O  O13  1  0.199843  0.411812  0.539704  1
  O  O14  1  0.068401  0.915562  0.306745  1
  O  O15  1  0.915562  0.306745  0.068401  1
  O  O16  1  0.693255  0.931599  0.084438  1
  O  O17  1  0.084438  0.693255  0.931599  1
  O  O18  1  0.931599  0.084438  0.693255  1
  O  O19  1  0.306745  0.068401  0.915562  1
