# generated using pymatgen
data_BeB2AsRu4
_symmetry_space_group_name_H-M   'P 1'
_cell_length_a   7.01533310
_cell_length_b   7.01533367
_cell_length_c   7.01533401
_cell_angle_alpha   132.41163661
_cell_angle_beta   132.41162629
_cell_angle_gamma   69.57966502
_symmetry_Int_Tables_number   1
_chemical_formula_structural   BeB2AsRu4
_chemical_formula_sum   'Be2 B4 As2 Ru8'
_cell_volume   184.61426757
_cell_formula_units_Z   2
loop_
 _symmetry_equiv_pos_site_id
 _symmetry_equiv_pos_as_xyz
  1  'x, y, z'
loop_
 _atom_site_type_symbol
 _atom_site_label
 _atom_site_symmetry_multiplicity
 _atom_site_fract_x
 _atom_site_fract_y
 _atom_site_fract_z
 _atom_site_occupancy
  Be  Be0  1  0.000000  0.000000  0.000000  1
  Be  Be1  1  0.500000  0.500000  0.000000  1
  B  B2  1  0.888877  0.388877  0.277754  1
  B  B3  1  0.388877  0.111123  0.500000  1
  B  B4  1  0.611123  0.888877  0.500000  1
  B  B5  1  0.111123  0.611123  0.722246  1
  As  As6  1  0.750000  0.750000  0.000000  1
  As  As7  1  0.250000  0.250000  0.000000  1
  Ru  Ru8  1  0.182528  0.682528  0.113174  1
  Ru  Ru9  1  0.430646  0.930646  0.113174  1
  Ru  Ru10  1  0.569354  0.069354  0.886826  1
  Ru  Ru11  1  0.069354  0.182528  0.500000  1
  Ru  Ru12  1  0.682528  0.569354  0.500000  1
  Ru  Ru13  1  0.930646  0.817472  0.500000  1
  Ru  Ru14  1  0.317472  0.430646  0.500000  1
  Ru  Ru15  1  0.817472  0.317472  0.886826  1
