# generated using pymatgen
data_Yb2U4TaVSb10
_symmetry_space_group_name_H-M   'P 1'
_cell_length_a   9.22414204
_cell_length_b   9.17281239
_cell_length_c   6.13801703
_cell_angle_alpha   90.00520328
_cell_angle_beta   89.98965134
_cell_angle_gamma   120.18528961
_symmetry_Int_Tables_number   1
_chemical_formula_structural   Yb2U4TaVSb10
_chemical_formula_sum   'Yb2 U4 Ta1 V1 Sb10'
_cell_volume   448.92449509
_cell_formula_units_Z   1
loop_
 _symmetry_equiv_pos_site_id
 _symmetry_equiv_pos_as_xyz
  1  'x, y, z'
loop_
 _atom_site_type_symbol
 _atom_site_label
 _atom_site_symmetry_multiplicity
 _atom_site_fract_x
 _atom_site_fract_y
 _atom_site_fract_z
 _atom_site_occupancy
  Yb  Yb0  1  0.615369  0.000000  0.750416  1
  Yb  Yb1  1  0.384631  0.000000  0.249584  1
  U  U2  1  0.007100  0.618069  0.752406  1
  U  U3  1  0.992900  0.381931  0.247594  1
  U  U4  1  0.389031  0.381931  0.752406  1
  U  U5  1  0.610969  0.618069  0.247594  1
  Ta  Ta6  1  0.000000  0.000000  0.000000  1
  V  V7  1  0.000000  0.000000  0.500000  1
  Sb  Sb8  1  0.256417  0.000000  0.744284  1
  Sb  Sb9  1  0.743583  0.000000  0.255716  1
  Sb  Sb10  1  0.005009  0.264682  0.744995  1
  Sb  Sb11  1  0.994991  0.735318  0.255005  1
  Sb  Sb12  1  0.740327  0.735318  0.744995  1
  Sb  Sb13  1  0.259673  0.264682  0.255005  1
  Sb  Sb14  1  0.328020  0.656042  0.500000  1
  Sb  Sb15  1  0.671980  0.343958  0.500000  1
  Sb  Sb16  1  0.671477  0.342951  0.000000  1
  Sb  Sb17  1  0.328523  0.657049  0.000000  1
