# generated using pymatgen
data_Er2Mn2Fe6Co4P7
_symmetry_space_group_name_H-M   'P 1'
_cell_length_a   9.00685613
_cell_length_b   8.99648035
_cell_length_c   3.59662200
_cell_angle_alpha   90.00000000
_cell_angle_beta   90.00000000
_cell_angle_gamma   119.94828207
_symmetry_Int_Tables_number   1
_chemical_formula_structural   Er2Mn2Fe6Co4P7
_chemical_formula_sum   'Er2 Mn2 Fe6 Co4 P7'
_cell_volume   252.52093218
_cell_formula_units_Z   1
loop_
 _symmetry_equiv_pos_site_id
 _symmetry_equiv_pos_as_xyz
  1  'x, y, z'
loop_
 _atom_site_type_symbol
 _atom_site_label
 _atom_site_symmetry_multiplicity
 _atom_site_fract_x
 _atom_site_fract_y
 _atom_site_fract_z
 _atom_site_occupancy
  Er  Er0  1  0.332004  0.664950  0.000000  1
  Er  Er1  1  0.999194  0.000473  0.500000  1
  Mn  Mn2  1  0.770810  0.557055  0.500000  1
  Mn  Mn3  1  0.443433  0.212465  0.500000  1
  Fe  Fe4  1  0.724546  0.764177  0.000000  1
  Fe  Fe5  1  0.236662  0.962068  0.000000  1
  Fe  Fe6  1  0.547343  0.058233  0.000000  1
  Fe  Fe7  1  0.941724  0.489234  0.000000  1
  Fe  Fe8  1  0.511189  0.451213  0.000000  1
  Fe  Fe9  1  0.794228  0.232245  0.500000  1
  Co  Co10  1  0.037723  0.274650  0.000000  1
  Co  Co11  1  0.614071  0.897317  0.500000  1
  Co  Co12  1  0.104133  0.718541  0.500000  1
  Co  Co13  1  0.279824  0.385358  0.500000  1
  P  P14  1  0.778734  0.036591  0.000000  1
  P  P15  1  0.965525  0.746591  0.000000  1
  P  P16  1  0.254818  0.219105  0.000000  1
  P  P17  1  0.376609  0.926893  0.500000  1
  P  P18  1  0.066423  0.447147  0.500000  1
  P  P19  1  0.551572  0.623744  0.500000  1
  P  P20  1  0.669434  0.331950  0.000000  1
