# generated using pymatgen
data_NaLi2AsS4
_symmetry_space_group_name_H-M   'P 1'
_cell_length_a   6.22819809
_cell_length_b   6.32270373
_cell_length_c   6.19333194
_cell_angle_alpha   59.73828539
_cell_angle_beta   61.13293800
_cell_angle_gamma   59.15376500
_symmetry_Int_Tables_number   1
_chemical_formula_structural   NaLi2AsS4
_chemical_formula_sum   'Na1 Li2 As1 S4'
_cell_volume   172.37762169
_cell_formula_units_Z   1
loop_
 _symmetry_equiv_pos_site_id
 _symmetry_equiv_pos_as_xyz
  1  'x, y, z'
loop_
 _atom_site_type_symbol
 _atom_site_label
 _atom_site_symmetry_multiplicity
 _atom_site_fract_x
 _atom_site_fract_y
 _atom_site_fract_z
 _atom_site_occupancy
  Na  Na0  1  0.049844  0.451913  0.300289  1
  Li  Li1  1  0.815076  0.187400  0.064977  1
  Li  Li2  1  0.315597  0.686866  0.565073  1
  As  As3  1  0.565316  0.935928  0.816713  1
  S  S4  1  0.621727  0.281309  0.470731  1
  S  S5  1  0.219916  0.878433  0.873838  1
  S  S6  1  0.913884  0.588405  0.756758  1
  S  S7  1  0.505729  0.996833  0.164121  1
