# generated using pymatgen
data_Tb5Sc2Ir3
_symmetry_space_group_name_H-M   'P 1'
_cell_length_a   8.57218356
_cell_length_b   8.57218322
_cell_length_c   8.57218500
_cell_angle_alpha   109.47122485
_cell_angle_beta   109.47122403
_cell_angle_gamma   109.47121806
_symmetry_Int_Tables_number   1
_chemical_formula_structural   Tb5Sc2Ir3
_chemical_formula_sum   'Tb10 Sc4 Ir6'
_cell_volume   484.90038022
_cell_formula_units_Z   2
loop_
 _symmetry_equiv_pos_site_id
 _symmetry_equiv_pos_as_xyz
  1  'x, y, z'
loop_
 _atom_site_type_symbol
 _atom_site_label
 _atom_site_symmetry_multiplicity
 _atom_site_fract_x
 _atom_site_fract_y
 _atom_site_fract_z
 _atom_site_occupancy
  Tb  Tb0  1  0.791367  0.791367  0.791367  1
  Tb  Tb1  1  0.337742  0.587742  0.750000  1
  Tb  Tb2  1  0.750000  0.337742  0.587742  1
  Tb  Tb3  1  0.587742  0.750000  0.337742  1
  Tb  Tb4  1  0.708633  0.500000  0.000000  1
  Tb  Tb5  1  0.000000  0.708633  0.500000  1
  Tb  Tb6  1  0.500000  0.000000  0.708633  1
  Tb  Tb7  1  0.250000  0.162258  0.912258  1
  Tb  Tb8  1  0.912258  0.250000  0.162258  1
  Tb  Tb9  1  0.162258  0.912258  0.250000  1
  Sc  Sc10  1  0.377341  0.377341  0.377341  1
  Sc  Sc11  1  0.122659  0.500000  0.000000  1
  Sc  Sc12  1  0.000000  0.122659  0.500000  1
  Sc  Sc13  1  0.500000  0.000000  0.122659  1
  Ir  Ir14  1  0.870981  0.120981  0.750000  1
  Ir  Ir15  1  0.750000  0.870981  0.120981  1
  Ir  Ir16  1  0.120981  0.750000  0.870981  1
  Ir  Ir17  1  0.250000  0.629019  0.379019  1
  Ir  Ir18  1  0.379019  0.250000  0.629019  1
  Ir  Ir19  1  0.629019  0.379019  0.250000  1
