# generated using pymatgen
data_Er4Tm2FeBi2
_symmetry_space_group_name_H-M   'P 1'
_cell_length_a   8.25143103
_cell_length_b   8.25143020
_cell_length_c   4.15425000
_cell_angle_alpha   90.00000000
_cell_angle_beta   90.00000000
_cell_angle_gamma   120.01020237
_symmetry_Int_Tables_number   1
_chemical_formula_structural   Er4Tm2FeBi2
_chemical_formula_sum   'Er4 Tm2 Fe1 Bi2'
_cell_volume   244.92725069
_cell_formula_units_Z   1
loop_
 _symmetry_equiv_pos_site_id
 _symmetry_equiv_pos_as_xyz
  1  'x, y, z'
loop_
 _atom_site_type_symbol
 _atom_site_label
 _atom_site_symmetry_multiplicity
 _atom_site_fract_x
 _atom_site_fract_y
 _atom_site_fract_z
 _atom_site_occupancy
  Er  Er0  1  0.770377  0.770377  0.500000  1
  Er  Er1  1  0.610450  0.000188  0.000000  1
  Er  Er2  1  0.000188  0.610450  0.000000  1
  Er  Er3  1  0.389185  0.389185  0.000000  1
  Tm  Tm4  1  0.229775  0.000094  0.500000  1
  Tm  Tm5  1  0.000094  0.229775  0.500000  1
  Fe  Fe6  1  0.000180  0.000180  0.000000  1
  Bi  Bi7  1  0.333079  0.666670  0.500000  1
  Bi  Bi8  1  0.666670  0.333079  0.500000  1
