# generated using pymatgen
data_NdY5ZrCo17P12
_symmetry_space_group_name_H-M   'P 1'
_cell_length_a   3.72119800
_cell_length_b   10.62341900
_cell_length_c   12.35443600
_cell_angle_alpha   90.00000000
_cell_angle_beta   90.00000000
_cell_angle_gamma   90.00000000
_symmetry_Int_Tables_number   1
_chemical_formula_structural   NdY5ZrCo17P12
_chemical_formula_sum   'Nd1 Y5 Zr1 Co17 P12'
_cell_volume   488.39365564
_cell_formula_units_Z   1
loop_
 _symmetry_equiv_pos_site_id
 _symmetry_equiv_pos_as_xyz
  1  'x, y, z'
loop_
 _atom_site_type_symbol
 _atom_site_label
 _atom_site_symmetry_multiplicity
 _atom_site_fract_x
 _atom_site_fract_y
 _atom_site_fract_z
 _atom_site_occupancy
  Nd  Nd0  1  0.500000  0.000000  0.477349  1
  Y  Y1  1  0.000000  0.500000  0.529079  1
  Y  Y2  1  0.500000  0.820350  0.206537  1
  Y  Y3  1  0.500000  0.179650  0.206537  1
  Y  Y4  1  0.000000  0.682980  0.795911  1
  Y  Y5  1  0.000000  0.317020  0.795911  1
  Zr  Zr6  1  0.500000  0.500000  0.153812  1
  Co  Co7  1  0.000000  0.000000  0.838851  1
  Co  Co8  1  0.500000  0.500000  0.703129  1
  Co  Co9  1  0.000000  0.000000  0.293614  1
  Co  Co10  1  0.000000  0.500000  0.982653  1
  Co  Co11  1  0.500000  0.000000  0.013185  1
  Co  Co12  1  0.500000  0.327045  0.987652  1
  Co  Co13  1  0.500000  0.672955  0.987652  1
  Co  Co14  1  0.000000  0.161543  0.001334  1
  Co  Co15  1  0.000000  0.838457  0.001334  1
  Co  Co16  1  0.500000  0.296102  0.434579  1
  Co  Co17  1  0.500000  0.703898  0.434579  1
  Co  Co18  1  0.000000  0.204174  0.571215  1
  Co  Co19  1  0.000000  0.795826  0.571215  1
  Co  Co20  1  0.500000  0.880239  0.709357  1
  Co  Co21  1  0.500000  0.119761  0.709357  1
  Co  Co22  1  0.000000  0.621466  0.297901  1
  Co  Co23  1  0.000000  0.378534  0.297901  1
  P  P24  1  0.500000  0.500000  0.881259  1
  P  P25  1  0.000000  0.000000  0.115512  1
  P  P26  1  0.500000  0.500000  0.361095  1
  P  P27  1  0.000000  0.000000  0.658892  1
  P  P28  1  0.500000  0.308790  0.618097  1
  P  P29  1  0.500000  0.691210  0.618097  1
  P  P30  1  0.000000  0.191765  0.385816  1
  P  P31  1  0.000000  0.808235  0.385816  1
  P  P32  1  0.500000  0.852369  0.889296  1
  P  P33  1  0.500000  0.147631  0.889296  1
  P  P34  1  0.000000  0.664634  0.098090  1
  P  P35  1  0.000000  0.335366  0.098090  1
