# generated using pymatgen
data_RbNpNiSe3
_symmetry_space_group_name_H-M   'P 1'
_cell_length_a   7.87287116
_cell_length_b   7.87287108
_cell_length_c   10.59099400
_cell_angle_alpha   90.00000000
_cell_angle_beta   90.00000000
_cell_angle_gamma   150.17176819
_symmetry_Int_Tables_number   1
_chemical_formula_structural   RbNpNiSe3
_chemical_formula_sum   'Rb2 Np2 Ni2 Se6'
_cell_volume   326.52022027
_cell_formula_units_Z   2
loop_
 _symmetry_equiv_pos_site_id
 _symmetry_equiv_pos_as_xyz
  1  'x, y, z'
loop_
 _atom_site_type_symbol
 _atom_site_label
 _atom_site_symmetry_multiplicity
 _atom_site_fract_x
 _atom_site_fract_y
 _atom_site_fract_z
 _atom_site_occupancy
  Rb  Rb0  1  0.743179  0.256821  0.250000  1
  Rb  Rb1  1  0.256821  0.743179  0.750000  1
  Np  Np2  1  0.000000  0.000000  0.500000  1
  Np  Np3  1  0.000000  0.000000  0.000000  1
  Ni  Ni4  1  0.530523  0.469477  0.750000  1
  Ni  Ni5  1  0.469477  0.530523  0.250000  1
  Se  Se6  1  0.621019  0.378981  0.563592  1
  Se  Se7  1  0.378981  0.621019  0.436408  1
  Se  Se8  1  0.057502  0.942498  0.250000  1
  Se  Se9  1  0.942498  0.057502  0.750000  1
  Se  Se10  1  0.621019  0.378981  0.936408  1
  Se  Se11  1  0.378981  0.621019  0.063592  1
