# generated using pymatgen
data_Tb16InAg3Rh4
_symmetry_space_group_name_H-M   'P 1'
_cell_length_a   9.59264250
_cell_length_b   9.59209382
_cell_length_c   9.59209400
_cell_angle_alpha   60.00000627
_cell_angle_beta   60.00189835
_cell_angle_gamma   60.00189120
_symmetry_Int_Tables_number   1
_chemical_formula_structural   Tb16InAg3Rh4
_chemical_formula_sum   'Tb16 In1 Ag3 Rh4'
_cell_volume   624.11204379
_cell_formula_units_Z   1
loop_
 _symmetry_equiv_pos_site_id
 _symmetry_equiv_pos_as_xyz
  1  'x, y, z'
loop_
 _atom_site_type_symbol
 _atom_site_label
 _atom_site_symmetry_multiplicity
 _atom_site_fract_x
 _atom_site_fract_y
 _atom_site_fract_z
 _atom_site_occupancy
  Tb  Tb0  1  0.811333  0.809971  0.189348  1
  Tb  Tb1  1  0.811333  0.189348  0.809971  1
  Tb  Tb2  1  0.186659  0.187783  0.812779  1
  Tb  Tb3  1  0.648297  0.056076  0.647813  1
  Tb  Tb4  1  0.068230  0.060956  0.435407  1
  Tb  Tb5  1  0.436699  0.434241  0.064530  1
  Tb  Tb6  1  0.648297  0.647813  0.647813  1
  Tb  Tb7  1  0.811333  0.189348  0.189348  1
  Tb  Tb8  1  0.186659  0.812779  0.812779  1
  Tb  Tb9  1  0.058107  0.647298  0.647298  1
  Tb  Tb10  1  0.436699  0.064530  0.064530  1
  Tb  Tb11  1  0.436699  0.064530  0.434241  1
  Tb  Tb12  1  0.068230  0.435407  0.060956  1
  Tb  Tb13  1  0.648297  0.647813  0.056076  1
  Tb  Tb14  1  0.186659  0.812779  0.187783  1
  Tb  Tb15  1  0.068230  0.435407  0.435407  1
  In  In16  1  0.737917  0.420694  0.420694  1
  Ag  Ag17  1  0.416704  0.417707  0.417707  1
  Ag  Ag18  1  0.416704  0.417707  0.747882  1
  Ag  Ag19  1  0.416704  0.747882  0.417707  1
  Rh  Rh20  1  0.856913  0.429405  0.856841  1
  Rh  Rh21  1  0.856913  0.856841  0.856841  1
  Rh  Rh22  1  0.856913  0.856841  0.429405  1
  Rh  Rh23  1  0.429472  0.856843  0.856843  1
