# generated using pymatgen
data_Yb3Sn3HgPdPt
_symmetry_space_group_name_H-M   'P 1'
_cell_length_a   7.81241200
_cell_length_b   7.81241228
_cell_length_c   3.94535200
_cell_angle_alpha   90.00000000
_cell_angle_beta   90.00000000
_cell_angle_gamma   120.00000729
_symmetry_Int_Tables_number   1
_chemical_formula_structural   Yb3Sn3HgPdPt
_chemical_formula_sum   'Yb3 Sn3 Hg1 Pd1 Pt1'
_cell_volume   208.53869363
_cell_formula_units_Z   1
loop_
 _symmetry_equiv_pos_site_id
 _symmetry_equiv_pos_as_xyz
  1  'x, y, z'
loop_
 _atom_site_type_symbol
 _atom_site_label
 _atom_site_symmetry_multiplicity
 _atom_site_fract_x
 _atom_site_fract_y
 _atom_site_fract_z
 _atom_site_occupancy
  Yb  Yb0  1  0.982685  0.587525  0.000000  1
  Yb  Yb1  1  0.412475  0.395159  0.000000  1
  Yb  Yb2  1  0.604841  0.017315  0.000000  1
  Sn  Sn3  1  0.749026  0.739103  0.500000  1
  Sn  Sn4  1  0.990076  0.250974  0.500000  1
  Sn  Sn5  1  0.260897  0.009924  0.500000  1
  Hg  Hg6  1  0.333333  0.666667  0.500000  1
  Pd  Pd7  1  0.000000  0.000000  0.000000  1
  Pt  Pt8  1  0.666667  0.333333  0.500000  1
