# generated using pymatgen
data_Dy16MgHg3RuRh3
_symmetry_space_group_name_H-M   'P 1'
_cell_length_a   9.62968559
_cell_length_b   9.64628460
_cell_length_c   9.63293821
_cell_angle_alpha   59.85932515
_cell_angle_beta   59.85018609
_cell_angle_gamma   59.86722718
_symmetry_Int_Tables_number   1
_chemical_formula_structural   Dy16MgHg3RuRh3
_chemical_formula_sum   'Dy16 Mg1 Hg3 Ru1 Rh3'
_cell_volume   630.70061764
_cell_formula_units_Z   1
loop_
 _symmetry_equiv_pos_site_id
 _symmetry_equiv_pos_as_xyz
  1  'x, y, z'
loop_
 _atom_site_type_symbol
 _atom_site_label
 _atom_site_symmetry_multiplicity
 _atom_site_fract_x
 _atom_site_fract_y
 _atom_site_fract_z
 _atom_site_occupancy
  Dy  Dy0  1  0.062396  0.436393  0.439864  1
  Dy  Dy1  1  0.648075  0.046450  0.651389  1
  Dy  Dy2  1  0.812656  0.811710  0.188809  1
  Dy  Dy3  1  0.437703  0.063113  0.063831  1
  Dy  Dy4  1  0.440974  0.434581  0.061660  1
  Dy  Dy5  1  0.189450  0.191691  0.810508  1
  Dy  Dy6  1  0.814762  0.189224  0.186025  1
  Dy  Dy7  1  0.062749  0.436764  0.061055  1
  Dy  Dy8  1  0.437715  0.062505  0.435397  1
  Dy  Dy9  1  0.056382  0.646614  0.648097  1
  Dy  Dy10  1  0.192750  0.808734  0.808841  1
  Dy  Dy11  1  0.650319  0.651030  0.044727  1
  Dy  Dy12  1  0.192076  0.809176  0.190913  1
  Dy  Dy13  1  0.064268  0.061727  0.437257  1
  Dy  Dy14  1  0.813595  0.190282  0.811245  1
  Dy  Dy15  1  0.651523  0.651875  0.653065  1
  Mg  Mg16  1  0.715412  0.428697  0.428609  1
  Hg  Hg17  1  0.417618  0.412418  0.757334  1
  Hg  Hg18  1  0.417861  0.412560  0.413093  1
  Hg  Hg19  1  0.417690  0.757023  0.412794  1
  Ru  Ru20  1  0.858991  0.425651  0.855780  1
  Rh  Rh21  1  0.424795  0.857646  0.857378  1
  Rh  Rh22  1  0.859524  0.856530  0.425508  1
  Rh  Rh23  1  0.860716  0.857607  0.856821  1
