# generated using pymatgen
data_Hf7U(Ta3Si4)4
_symmetry_space_group_name_H-M   'P 1'
_cell_length_a   6.86183971
_cell_length_b   6.87710799
_cell_length_c   12.70330999
_cell_angle_alpha   89.92050546
_cell_angle_beta   89.94300746
_cell_angle_gamma   90.17793759
_symmetry_Int_Tables_number   1
_chemical_formula_structural   Hf7U(Ta3Si4)4
_chemical_formula_sum   'Hf7 U1 Ta12 Si16'
_cell_volume   599.46051120
_cell_formula_units_Z   1
loop_
 _symmetry_equiv_pos_site_id
 _symmetry_equiv_pos_as_xyz
  1  'x, y, z'
loop_
 _atom_site_type_symbol
 _atom_site_label
 _atom_site_symmetry_multiplicity
 _atom_site_fract_x
 _atom_site_fract_y
 _atom_site_fract_z
 _atom_site_occupancy
  Hf  Hf0  1  0.001844  0.342019  0.219397  1
  Hf  Hf1  1  0.000538  0.660855  0.719544  1
  Hf  Hf2  1  0.162177  0.501900  0.470634  1
  Hf  Hf3  1  0.500570  0.837427  0.028551  1
  Hf  Hf4  1  0.839603  0.499145  0.968257  1
  Hf  Hf5  1  0.501383  0.160300  0.531485  1
  Hf  Hf6  1  0.338720  0.999530  0.779733  1
  U  U7  1  0.661044  0.001794  0.280773  1
  Ta  Ta8  1  0.168807  0.169583  0.998754  1
  Ta  Ta9  1  0.829872  0.832640  0.499651  1
  Ta  Ta10  1  0.331257  0.669696  0.250360  1
  Ta  Ta11  1  0.669897  0.330995  0.750209  1
  Ta  Ta12  1  0.152099  0.994716  0.378404  1
  Ta  Ta13  1  0.847544  0.003849  0.875574  1
  Ta  Ta14  1  0.503341  0.653237  0.627416  1
  Ta  Ta15  1  0.347469  0.498363  0.872994  1
  Ta  Ta16  1  0.495550  0.342559  0.125331  1
  Ta  Ta17  1  0.652791  0.499282  0.374503  1
  Ta  Ta18  1  0.997624  0.153720  0.625544  1
  Ta  Ta19  1  0.999589  0.846116  0.121906  1
  Si  Si20  1  0.295482  0.040837  0.185073  1
  Si  Si21  1  0.700069  0.957121  0.686085  1
  Si  Si22  1  0.456268  0.798188  0.437883  1
  Si  Si23  1  0.201299  0.544002  0.063254  1
  Si  Si24  1  0.542355  0.200104  0.935198  1
  Si  Si25  1  0.799915  0.458314  0.564095  1
  Si  Si26  1  0.043649  0.300945  0.813831  1
  Si  Si27  1  0.957300  0.698726  0.313905  1
  Si  Si28  1  0.361848  0.293009  0.323272  1
  Si  Si29  1  0.636280  0.708869  0.823196  1
  Si  Si30  1  0.208131  0.864945  0.573649  1
  Si  Si31  1  0.135637  0.792538  0.926331  1
  Si  Si32  1  0.792717  0.136530  0.071285  1
  Si  Si33  1  0.868720  0.212232  0.430194  1
  Si  Si34  1  0.293314  0.363821  0.677033  1
  Si  Si35  1  0.705297  0.632092  0.176699  1
