# generated using pymatgen
data_Ba8Sb4TeSe
_symmetry_space_group_name_H-M   'P 1'
_cell_length_a   9.10886432
_cell_length_b   9.10886303
_cell_length_c   9.10886383
_cell_angle_alpha   109.59917579
_cell_angle_beta   109.59916653
_cell_angle_gamma   109.21562050
_symmetry_Int_Tables_number   1
_chemical_formula_structural   Ba8Sb4TeSe
_chemical_formula_sum   'Ba8 Sb4 Te1 Se1'
_cell_volume   581.78731895
_cell_formula_units_Z   1
loop_
 _symmetry_equiv_pos_site_id
 _symmetry_equiv_pos_as_xyz
  1  'x, y, z'
loop_
 _atom_site_type_symbol
 _atom_site_label
 _atom_site_symmetry_multiplicity
 _atom_site_fract_x
 _atom_site_fract_y
 _atom_site_fract_z
 _atom_site_occupancy
  Ba  Ba0  1  0.620102  0.877507  0.879605  1
  Ba  Ba1  1  0.259503  0.379898  0.257406  1
  Ba  Ba2  1  0.122493  0.002098  0.742594  1
  Ba  Ba3  1  0.488369  0.237499  0.605424  1
  Ba  Ba4  1  0.117055  0.511631  0.749131  1
  Ba  Ba5  1  0.762501  0.367924  0.250869  1
  Ba  Ba6  1  0.997902  0.740497  0.120395  1
  Ba  Ba7  1  0.632076  0.882945  0.394576  1
  Sb  Sb8  1  0.375605  0.997665  0.122342  1
  Sb  Sb9  1  0.002335  0.124676  0.377940  1
  Sb  Sb10  1  0.875324  0.253263  0.877658  1
  Sb  Sb11  1  0.746737  0.624395  0.622060  1
  Te  Te12  1  0.500000  0.500000  0.000000  1
  Se  Se13  1  0.250000  0.750000  0.500000  1
