# generated using pymatgen
data_Sr2Cd3SnPd2
_symmetry_space_group_name_H-M   'P 1'
_cell_length_a   5.92193237
_cell_length_b   5.92193276
_cell_length_c   8.18490908
_cell_angle_alpha   90.41936748
_cell_angle_beta   89.58063403
_cell_angle_gamma   135.84338211
_symmetry_Int_Tables_number   1
_chemical_formula_structural   Sr2Cd3SnPd2
_chemical_formula_sum   'Sr2 Cd3 Sn1 Pd2'
_cell_volume   199.95140844
_cell_formula_units_Z   1
loop_
 _symmetry_equiv_pos_site_id
 _symmetry_equiv_pos_as_xyz
  1  'x, y, z'
loop_
 _atom_site_type_symbol
 _atom_site_label
 _atom_site_symmetry_multiplicity
 _atom_site_fract_x
 _atom_site_fract_y
 _atom_site_fract_z
 _atom_site_occupancy
  Sr  Sr0  1  0.937393  0.062607  0.243782  1
  Sr  Sr1  1  0.061822  0.938178  0.751917  1
  Cd  Cd2  1  0.357373  0.642627  0.559700  1
  Cd  Cd3  1  0.651557  0.348443  0.049104  1
  Cd  Cd4  1  0.348461  0.651539  0.947197  1
  Sn  Sn5  1  0.651999  0.348001  0.444332  1
  Pd  Pd6  1  0.217231  0.782769  0.261448  1
  Pd  Pd7  1  0.774164  0.225836  0.742521  1
