# generated using pymatgen
data_Sc4GaTc6Os
_symmetry_space_group_name_H-M   'P 1'
_cell_length_a   5.18589000
_cell_length_b   5.18588872
_cell_length_c   8.74627800
_cell_angle_alpha   90.00000000
_cell_angle_beta   90.00000000
_cell_angle_gamma   120.00000818
_symmetry_Int_Tables_number   1
_chemical_formula_structural   Sc4GaTc6Os
_chemical_formula_sum   'Sc4 Ga1 Tc6 Os1'
_cell_volume   203.70437981
_cell_formula_units_Z   1
loop_
 _symmetry_equiv_pos_site_id
 _symmetry_equiv_pos_as_xyz
  1  'x, y, z'
loop_
 _atom_site_type_symbol
 _atom_site_label
 _atom_site_symmetry_multiplicity
 _atom_site_fract_x
 _atom_site_fract_y
 _atom_site_fract_z
 _atom_site_occupancy
  Sc  Sc0  1  0.333333  0.666667  0.435681  1
  Sc  Sc1  1  0.666667  0.333333  0.564319  1
  Sc  Sc2  1  0.666667  0.333333  0.932319  1
  Sc  Sc3  1  0.333333  0.666667  0.067681  1
  Ga  Ga4  1  0.000000  0.000000  0.000000  1
  Tc  Tc5  1  0.170985  0.341967  0.750189  1
  Tc  Tc6  1  0.170985  0.829015  0.750189  1
  Tc  Tc7  1  0.341967  0.170985  0.249811  1
  Tc  Tc8  1  0.829015  0.658033  0.249811  1
  Tc  Tc9  1  0.658033  0.829015  0.750189  1
  Tc  Tc10  1  0.829015  0.170985  0.249811  1
  Os  Os11  1  0.000000  0.000000  0.500000  1
