# generated using pymatgen
data_Ca2TbYHg4
_symmetry_space_group_name_H-M   'P 1'
_cell_length_a   7.51733900
_cell_length_b   7.54161500
_cell_length_c   7.47496200
_cell_angle_alpha   90.00000000
_cell_angle_beta   90.00093254
_cell_angle_gamma   90.00000000
_symmetry_Int_Tables_number   1
_chemical_formula_structural   Ca2TbYHg4
_chemical_formula_sum   'Ca4 Tb2 Y2 Hg8'
_cell_volume   423.77709795
_cell_formula_units_Z   2
loop_
 _symmetry_equiv_pos_site_id
 _symmetry_equiv_pos_as_xyz
  1  'x, y, z'
loop_
 _atom_site_type_symbol
 _atom_site_label
 _atom_site_symmetry_multiplicity
 _atom_site_fract_x
 _atom_site_fract_y
 _atom_site_fract_z
 _atom_site_occupancy
  Ca  Ca0  1  0.749521  0.250000  0.000124  1
  Ca  Ca1  1  0.249533  0.750000  0.499878  1
  Ca  Ca2  1  0.750465  0.250000  0.500122  1
  Ca  Ca3  1  0.250480  0.750000  0.999877  1
  Tb  Tb4  1  0.250688  0.250000  0.999998  1
  Tb  Tb5  1  0.749311  0.750000  0.000002  1
  Y  Y6  1  0.750725  0.750000  0.499986  1
  Y  Y7  1  0.249274  0.250000  0.500014  1
  Hg  Hg8  1  0.000210  0.500120  0.248616  1
  Hg  Hg9  1  0.000210  0.999882  0.248616  1
  Hg  Hg10  1  0.500203  0.000122  0.251342  1
  Hg  Hg11  1  0.500203  0.499878  0.251342  1
  Hg  Hg12  1  0.499796  0.500124  0.748657  1
  Hg  Hg13  1  0.499796  0.999878  0.748657  1
  Hg  Hg14  1  0.999792  0.000118  0.751385  1
  Hg  Hg15  1  0.999792  0.499882  0.751385  1
