# generated using pymatgen
data_LaTb4Y(SiPd5)2
_symmetry_space_group_name_H-M   'P 1'
_cell_length_a   8.30001938
_cell_length_b   8.30383455
_cell_length_c   8.30383496
_cell_angle_alpha   127.56750899
_cell_angle_beta   125.89549720
_cell_angle_gamma   78.70707728
_symmetry_Int_Tables_number   1
_chemical_formula_structural   LaTb4Y(SiPd5)2
_chemical_formula_sum   'La1 Tb4 Y1 Si2 Pd10'
_cell_volume   355.65188959
_cell_formula_units_Z   1
loop_
 _symmetry_equiv_pos_site_id
 _symmetry_equiv_pos_as_xyz
  1  'x, y, z'
loop_
 _atom_site_type_symbol
 _atom_site_label
 _atom_site_symmetry_multiplicity
 _atom_site_fract_x
 _atom_site_fract_y
 _atom_site_fract_z
 _atom_site_occupancy
  La  La0  1  0.617125  0.750129  0.866996  1
  Tb  Tb1  1  0.826050  0.050851  0.775199  1
  Tb  Tb2  1  0.224540  0.449178  0.775363  1
  Tb  Tb3  1  0.177356  0.951235  0.226122  1
  Tb  Tb4  1  0.389791  0.250038  0.139753  1
  Y  Y5  1  0.774650  0.548807  0.225842  1
  Si  Si6  1  0.210507  0.749908  0.460598  1
  Si  Si7  1  0.781814  0.250018  0.531795  1
  Pd  Pd8  1  0.834816  0.598267  0.640995  1
  Pd  Pd9  1  0.542577  0.306081  0.640873  1
  Pd  Pd10  1  0.453246  0.098484  0.764324  1
  Pd  Pd11  1  0.834816  0.193821  0.236549  1
  Pd  Pd12  1  0.165822  0.401601  0.354819  1
  Pd  Pd13  1  0.453246  0.688923  0.354763  1
  Pd  Pd14  1  0.542577  0.901704  0.236497  1
  Pd  Pd15  1  0.165822  0.811004  0.764221  1
  Pd  Pd16  1  0.002622  0.005859  0.508532  1
  Pd  Pd17  1  0.002622  0.494092  0.996764  1
