# generated using pymatgen
data_Ca7ThSbPd24
_symmetry_space_group_name_H-M   'P 1'
_cell_length_a   8.47653817
_cell_length_b   8.47653817
_cell_length_c   8.47653817
_cell_angle_alpha   90.10541296
_cell_angle_beta   90.10541296
_cell_angle_gamma   89.89458704
_symmetry_Int_Tables_number   1
_chemical_formula_structural   Ca7ThSbPd24
_chemical_formula_sum   'Ca7 Th1 Sb1 Pd24'
_cell_volume   609.05058276
_cell_formula_units_Z   1
loop_
 _symmetry_equiv_pos_site_id
 _symmetry_equiv_pos_as_xyz
  1  'x, y, z'
loop_
 _atom_site_type_symbol
 _atom_site_label
 _atom_site_symmetry_multiplicity
 _atom_site_fract_x
 _atom_site_fract_y
 _atom_site_fract_z
 _atom_site_occupancy
  Ca  Ca0  1  0.748795  0.251001  0.748999  1
  Ca  Ca1  1  0.251001  0.748795  0.748999  1
  Ca  Ca2  1  0.748846  0.748846  0.749035  1
  Ca  Ca3  1  0.748846  0.250965  0.251154  1
  Ca  Ca4  1  0.251537  0.251537  0.748463  1
  Ca  Ca5  1  0.250965  0.748846  0.251154  1
  Ca  Ca6  1  0.251001  0.251001  0.251205  1
  Th  Th7  1  0.744557  0.744557  0.255443  1
  Sb  Sb8  1  0.001312  0.001312  0.998688  1
  Pd  Pd9  1  0.999931  0.999931  0.313852  1
  Pd  Pd10  1  0.732346  0.998522  0.498819  1
  Pd  Pd11  1  0.732346  0.501181  0.001478  1
  Pd  Pd12  1  0.500018  0.999809  0.731733  1
  Pd  Pd13  1  0.998522  0.732346  0.498819  1
  Pd  Pd14  1  0.501181  0.998522  0.267654  1
  Pd  Pd15  1  0.999809  0.268267  0.499982  1
  Pd  Pd16  1  0.501181  0.732346  0.001478  1
  Pd  Pd17  1  0.256343  0.499960  0.500040  1
  Pd  Pd18  1  0.499960  0.499960  0.743657  1
  Pd  Pd19  1  0.500998  0.500998  0.256580  1
  Pd  Pd20  1  0.499960  0.256343  0.500040  1
  Pd  Pd21  1  0.500998  0.743420  0.499002  1
  Pd  Pd22  1  0.743420  0.500998  0.499002  1
  Pd  Pd23  1  0.314705  0.000230  0.999770  1
  Pd  Pd24  1  0.000230  0.000230  0.685295  1
  Pd  Pd25  1  0.998522  0.501181  0.267654  1
  Pd  Pd26  1  0.000230  0.314705  0.999770  1
  Pd  Pd27  1  0.999931  0.686148  0.000069  1
  Pd  Pd28  1  0.686148  0.999931  0.000069  1
  Pd  Pd29  1  0.268267  0.500018  0.000191  1
  Pd  Pd30  1  0.268267  0.999809  0.499982  1
  Pd  Pd31  1  0.999809  0.500018  0.731733  1
  Pd  Pd32  1  0.500018  0.268267  0.000191  1
