# generated using pymatgen
data_Ta8V3ReOs4
_symmetry_space_group_name_H-M   'P 1'
_cell_length_a   6.37647800
_cell_length_b   4.49373800
_cell_length_c   8.95792400
_cell_angle_alpha   90.00000000
_cell_angle_beta   89.99984238
_cell_angle_gamma   90.00000000
_symmetry_Int_Tables_number   1
_chemical_formula_structural   Ta8V3ReOs4
_chemical_formula_sum   'Ta8 V3 Re1 Os4'
_cell_volume   256.68233843
_cell_formula_units_Z   1
loop_
 _symmetry_equiv_pos_site_id
 _symmetry_equiv_pos_as_xyz
  1  'x, y, z'
loop_
 _atom_site_type_symbol
 _atom_site_label
 _atom_site_symmetry_multiplicity
 _atom_site_fract_x
 _atom_site_fract_y
 _atom_site_fract_z
 _atom_site_occupancy
  Ta  Ta0  1  0.002473  0.750001  0.124999  1
  Ta  Ta1  1  0.497512  0.750001  0.124998  1
  Ta  Ta2  1  0.001111  0.250000  0.376875  1
  Ta  Ta3  1  0.498897  0.250000  0.376878  1
  Ta  Ta4  1  0.500307  0.750001  0.624992  1
  Ta  Ta5  1  0.999694  0.750001  0.624990  1
  Ta  Ta6  1  0.498874  0.250000  0.873131  1
  Ta  Ta7  1  0.001139  0.250000  0.873132  1
  V  V8  1  0.249996  0.750001  0.374258  1
  V  V9  1  0.750003  0.250000  0.625004  1
  V  V10  1  0.249999  0.750001  0.875729  1
  Re  Re11  1  0.749989  0.250000  0.125020  1
  Os  Os12  1  0.250002  0.250000  0.124996  1
  Os  Os13  1  0.749996  0.750001  0.375904  1
  Os  Os14  1  0.250002  0.250000  0.624980  1
  Os  Os15  1  0.750005  0.750001  0.874115  1
