# generated using pymatgen
data_Er4Ga3SiNi4
_symmetry_space_group_name_H-M   'P 1'
_cell_length_a   4.21879900
_cell_length_b   6.77937321
_cell_length_c   7.26644352
_cell_angle_alpha   90.97381233
_cell_angle_beta   90.00000000
_cell_angle_gamma   90.00000000
_symmetry_Int_Tables_number   1
_chemical_formula_structural   Er4Ga3SiNi4
_chemical_formula_sum   'Er4 Ga3 Si1 Ni4'
_cell_volume   207.79617471
_cell_formula_units_Z   1
loop_
 _symmetry_equiv_pos_site_id
 _symmetry_equiv_pos_as_xyz
  1  'x, y, z'
loop_
 _atom_site_type_symbol
 _atom_site_label
 _atom_site_symmetry_multiplicity
 _atom_site_fract_x
 _atom_site_fract_y
 _atom_site_fract_z
 _atom_site_occupancy
  Er  Er0  1  0.250000  0.484936  0.203023  1
  Er  Er1  1  0.750000  0.513281  0.797248  1
  Er  Er2  1  0.750000  0.016889  0.700636  1
  Er  Er3  1  0.250000  0.989690  0.302731  1
  Ga  Ga4  1  0.250000  0.816721  0.919402  1
  Ga  Ga5  1  0.750000  0.187083  0.080008  1
  Ga  Ga6  1  0.750000  0.690317  0.418131  1
  Si  Si7  1  0.250000  0.317726  0.580542  1
  Ni  Ni8  1  0.250000  0.687625  0.589752  1
  Ni  Ni9  1  0.750000  0.290145  0.418893  1
  Ni  Ni10  1  0.750000  0.791615  0.091384  1
  Ni  Ni11  1  0.250000  0.213971  0.898250  1
