# generated using pymatgen
data_SrHgPd3O8
_symmetry_space_group_name_H-M   'P 1'
_cell_length_a   6.51103404
_cell_length_b   6.51103358
_cell_length_c   6.51103426
_cell_angle_alpha   57.52812990
_cell_angle_beta   57.52813024
_cell_angle_gamma   57.52812981
_symmetry_Int_Tables_number   1
_chemical_formula_structural   SrHgPd3O8
_chemical_formula_sum   'Sr1 Hg1 Pd3 O8'
_cell_volume   184.08511788
_cell_formula_units_Z   1
loop_
 _symmetry_equiv_pos_site_id
 _symmetry_equiv_pos_as_xyz
  1  'x, y, z'
loop_
 _atom_site_type_symbol
 _atom_site_label
 _atom_site_symmetry_multiplicity
 _atom_site_fract_x
 _atom_site_fract_y
 _atom_site_fract_z
 _atom_site_occupancy
  Sr  Sr0  1  0.146290  0.146290  0.146290  1
  Hg  Hg1  1  0.855675  0.855675  0.855675  1
  Pd  Pd2  1  0.997845  0.500977  0.500977  1
  Pd  Pd3  1  0.500977  0.997845  0.500977  1
  Pd  Pd4  1  0.500977  0.500977  0.997845  1
  O  O5  1  0.605510  0.605510  0.605510  1
  O  O6  1  0.393670  0.393670  0.393670  1
  O  O7  1  0.115578  0.115578  0.564692  1
  O  O8  1  0.564692  0.115578  0.115578  1
  O  O9  1  0.115578  0.564692  0.115578  1
  O  O10  1  0.442136  0.880536  0.880536  1
  O  O11  1  0.880536  0.880536  0.442136  1
  O  O12  1  0.880536  0.442136  0.880536  1
