# generated using pymatgen
data_Ba3Nb2VO9
_symmetry_space_group_name_H-M   'P 1'
_cell_length_a   5.86421314
_cell_length_b   5.86028294
_cell_length_c   7.19807210
_cell_angle_alpha   89.95792870
_cell_angle_beta   89.98642048
_cell_angle_gamma   120.00073301
_symmetry_Int_Tables_number   1
_chemical_formula_structural   Ba3Nb2VO9
_chemical_formula_sum   'Ba3 Nb2 V1 O9'
_cell_volume   214.22577608
_cell_formula_units_Z   1
loop_
 _symmetry_equiv_pos_site_id
 _symmetry_equiv_pos_as_xyz
  1  'x, y, z'
loop_
 _atom_site_type_symbol
 _atom_site_label
 _atom_site_symmetry_multiplicity
 _atom_site_fract_x
 _atom_site_fract_y
 _atom_site_fract_z
 _atom_site_occupancy
  Ba  Ba0  1  0.000000  0.000000  0.000000  1
  Ba  Ba1  1  0.332668  0.666057  0.665702  1
  Ba  Ba2  1  0.667332  0.333943  0.334298  1
  Nb  Nb3  1  0.333180  0.666451  0.176861  1
  Nb  Nb4  1  0.666820  0.333549  0.823139  1
  V  V5  1  0.000000  0.000000  0.500000  1
  O  O6  1  0.500000  0.500000  0.000000  1
  O  O7  1  0.500000  0.000000  0.000000  1
  O  O8  1  0.000000  0.500000  0.000000  1
  O  O9  1  0.170912  0.828300  0.325662  1
  O  O10  1  0.170974  0.342373  0.326095  1
  O  O11  1  0.657042  0.828246  0.325658  1
  O  O12  1  0.829088  0.171700  0.674338  1
  O  O13  1  0.829027  0.657627  0.673905  1
  O  O14  1  0.342958  0.171754  0.674342  1
