# generated using pymatgen
data_Sc4VRe3Tc4
_symmetry_space_group_name_H-M   'P 1'
_cell_length_a   5.24369562
_cell_length_b   5.24369603
_cell_length_c   8.60647900
_cell_angle_alpha   90.00000000
_cell_angle_beta   90.00000000
_cell_angle_gamma   119.82265581
_symmetry_Int_Tables_number   1
_chemical_formula_structural   Sc4VRe3Tc4
_chemical_formula_sum   'Sc4 V1 Re3 Tc4'
_cell_volume   205.30733100
_cell_formula_units_Z   1
loop_
 _symmetry_equiv_pos_site_id
 _symmetry_equiv_pos_as_xyz
  1  'x, y, z'
loop_
 _atom_site_type_symbol
 _atom_site_label
 _atom_site_symmetry_multiplicity
 _atom_site_fract_x
 _atom_site_fract_y
 _atom_site_fract_z
 _atom_site_occupancy
  Sc  Sc0  1  0.333192  0.666808  0.441452  1
  Sc  Sc1  1  0.666900  0.333100  0.563850  1
  Sc  Sc2  1  0.666900  0.333100  0.936150  1
  Sc  Sc3  1  0.333192  0.666808  0.058548  1
  V  V4  1  0.829693  0.170307  0.250000  1
  Re  Re5  1  0.168503  0.831497  0.750000  1
  Re  Re6  1  0.169211  0.340792  0.750000  1
  Re  Re7  1  0.659208  0.830789  0.750000  1
  Tc  Tc8  1  0.000175  0.999825  0.493195  1
  Tc  Tc9  1  0.000175  0.999825  0.006805  1
  Tc  Tc10  1  0.824839  0.651988  0.250000  1
  Tc  Tc11  1  0.348012  0.175161  0.250000  1
