# generated using pymatgen
data_CeYTc2C3
_symmetry_space_group_name_H-M   'P 1'
_cell_length_a   6.12656209
_cell_length_b   6.12656293
_cell_length_c   5.74361973
_cell_angle_alpha   66.40166404
_cell_angle_beta   66.40166084
_cell_angle_gamma   31.61749916
_symmetry_Int_Tables_number   1
_chemical_formula_structural   CeYTc2C3
_chemical_formula_sum   'Ce1 Y1 Tc2 C3'
_cell_volume   102.77314485
_cell_formula_units_Z   1
loop_
 _symmetry_equiv_pos_site_id
 _symmetry_equiv_pos_as_xyz
  1  'x, y, z'
loop_
 _atom_site_type_symbol
 _atom_site_label
 _atom_site_symmetry_multiplicity
 _atom_site_fract_x
 _atom_site_fract_y
 _atom_site_fract_z
 _atom_site_occupancy
  Ce  Ce0  1  0.607042  0.607042  0.184431  1
  Y  Y1  1  0.392303  0.392303  0.820506  1
  Tc  Tc2  1  0.158218  0.158218  0.676526  1
  Tc  Tc3  1  0.841333  0.841333  0.322225  1
  C  C4  1  0.999579  0.999579  0.996120  1
  C  C5  1  0.249581  0.249581  0.269746  1
  C  C6  1  0.751944  0.751944  0.730445  1
