# generated using pymatgen
data_Sr12Ge11Au13
_symmetry_space_group_name_H-M   'P 1'
_cell_length_a   4.70304900
_cell_length_b   8.04696113
_cell_length_c   23.20775100
_cell_angle_alpha   89.87182960
_cell_angle_beta   90.00000000
_cell_angle_gamma   90.00000000
_symmetry_Int_Tables_number   1
_chemical_formula_structural   Sr12Ge11Au13
_chemical_formula_sum   'Sr12 Ge11 Au13'
_cell_volume   878.30099931
_cell_formula_units_Z   1
loop_
 _symmetry_equiv_pos_site_id
 _symmetry_equiv_pos_as_xyz
  1  'x, y, z'
loop_
 _atom_site_type_symbol
 _atom_site_label
 _atom_site_symmetry_multiplicity
 _atom_site_fract_x
 _atom_site_fract_y
 _atom_site_fract_z
 _atom_site_occupancy
  Sr  Sr0  1  0.750000  0.213797  0.497811  1
  Sr  Sr1  1  0.250000  0.793002  0.166422  1
  Sr  Sr2  1  0.250000  0.786109  0.500126  1
  Sr  Sr3  1  0.250000  0.800679  0.831081  1
  Sr  Sr4  1  0.250000  0.705992  0.332833  1
  Sr  Sr5  1  0.750000  0.196727  0.834647  1
  Sr  Sr6  1  0.750000  0.285533  0.999128  1
  Sr  Sr7  1  0.750000  0.287959  0.665927  1
  Sr  Sr8  1  0.750000  0.293211  0.333418  1
  Sr  Sr9  1  0.250000  0.713375  0.667365  1
  Sr  Sr10  1  0.250000  0.715337  0.001003  1
  Sr  Sr11  1  0.750000  0.205472  0.167594  1
  Ge  Ge12  1  0.250000  0.412088  0.565227  1
  Ge  Ge13  1  0.250000  0.082502  0.392916  1
  Ge  Ge14  1  0.250000  0.088400  0.067424  1
  Ge  Ge15  1  0.250000  0.418592  0.894262  1
  Ge  Ge16  1  0.750000  0.581977  0.106549  1
  Ge  Ge17  1  0.250000  0.424980  0.776154  1
  Ge  Ge18  1  0.750000  0.580741  0.226028  1
  Ge  Ge19  1  0.750000  0.587014  0.432002  1
  Ge  Ge20  1  0.750000  0.911357  0.935483  1
  Ge  Ge21  1  0.250000  0.081120  0.273732  1
  Ge  Ge22  1  0.750000  0.917345  0.600919  1
  Au  Au23  1  0.750000  0.910883  0.727908  1
  Au  Au24  1  0.250000  0.085424  0.592810  1
  Au  Au25  1  0.250000  0.108070  0.739253  1
  Au  Au26  1  0.750000  0.585435  0.905129  1
  Au  Au27  1  0.750000  0.913765  0.403558  1
  Au  Au28  1  0.750000  0.581274  0.567482  1
  Au  Au29  1  0.750000  0.568399  0.767558  1
  Au  Au30  1  0.250000  0.417917  0.431491  1
  Au  Au31  1  0.250000  0.415679  0.237483  1
  Au  Au32  1  0.750000  0.918018  0.068458  1
  Au  Au33  1  0.250000  0.415293  0.095473  1
  Au  Au34  1  0.250000  0.081386  0.932871  1
  Au  Au35  1  0.750000  0.915145  0.262471  1
