# generated using pymatgen
data_La2GdHo3Ta2O14
_symmetry_space_group_name_H-M   'P 1'
_cell_length_a   6.52537955
_cell_length_b   6.53750039
_cell_length_c   7.63816701
_cell_angle_alpha   90.00416520
_cell_angle_beta   89.99640850
_cell_angle_gamma   109.03970909
_symmetry_Int_Tables_number   1
_chemical_formula_structural   La2GdHo3Ta2O14
_chemical_formula_sum   'La2 Gd1 Ho3 Ta2 O14'
_cell_volume   308.01577807
_cell_formula_units_Z   1
loop_
 _symmetry_equiv_pos_site_id
 _symmetry_equiv_pos_as_xyz
  1  'x, y, z'
loop_
 _atom_site_type_symbol
 _atom_site_label
 _atom_site_symmetry_multiplicity
 _atom_site_fract_x
 _atom_site_fract_y
 _atom_site_fract_z
 _atom_site_occupancy
  La  La0  1  0.497935  0.498203  0.501132  1
  La  La1  1  0.497327  0.497475  0.998866  1
  Gd  Gd2  1  0.000217  0.531466  0.249770  1
  Ho  Ho3  1  0.999015  0.466523  0.749822  1
  Ho  Ho4  1  0.532788  0.001223  0.750136  1
  Ho  Ho5  1  0.467174  0.998344  0.250146  1
  Ta  Ta6  1  0.999739  0.999174  0.501032  1
  Ta  Ta7  1  0.999688  0.999069  0.998983  1
  O  O8  1  0.932843  0.061806  0.749995  1
  O  O9  1  0.063643  0.940856  0.250003  1
  O  O10  1  0.358588  0.644845  0.249926  1
  O  O11  1  0.644881  0.354063  0.749969  1
  O  O12  1  0.362569  0.639178  0.750036  1
  O  O13  1  0.632045  0.358775  0.250056  1
  O  O14  1  0.318778  0.063919  0.966789  1
  O  O15  1  0.682804  0.936827  0.465426  1
  O  O16  1  0.318454  0.063515  0.533610  1
  O  O17  1  0.683166  0.937256  0.034956  1
  O  O18  1  0.070656  0.320433  0.473120  1
  O  O19  1  0.933529  0.683330  0.963464  1
  O  O20  1  0.933248  0.683148  0.536208  1
  O  O21  1  0.070916  0.320569  0.026556  1
