# generated using pymatgen
data_ErTa5NbCl18
_symmetry_space_group_name_H-M   'P 1'
_cell_length_a   10.13910129
_cell_length_b   10.13527122
_cell_length_c   10.14106837
_cell_angle_alpha   56.06681586
_cell_angle_beta   56.08455232
_cell_angle_gamma   56.10957871
_symmetry_Int_Tables_number   1
_chemical_formula_structural   ErTa5NbCl18
_chemical_formula_sum   'Er1 Ta5 Nb1 Cl18'
_cell_volume   670.11611369
_cell_formula_units_Z   1
loop_
 _symmetry_equiv_pos_site_id
 _symmetry_equiv_pos_as_xyz
  1  'x, y, z'
loop_
 _atom_site_type_symbol
 _atom_site_label
 _atom_site_symmetry_multiplicity
 _atom_site_fract_x
 _atom_site_fract_y
 _atom_site_fract_z
 _atom_site_occupancy
  Er  Er0  1  0.000649  0.000171  0.999694  1
  Ta  Ta1  1  0.350884  0.591679  0.698338  1
  Ta  Ta2  1  0.698110  0.350818  0.591990  1
  Ta  Ta3  1  0.301697  0.648832  0.408267  1
  Ta  Ta4  1  0.648921  0.407986  0.301921  1
  Ta  Ta5  1  0.591591  0.697651  0.351388  1
  Nb  Nb6  1  0.407846  0.301168  0.649488  1
  Cl  Cl7  1  0.569593  0.161149  0.439832  1
  Cl  Cl8  1  0.221476  0.374158  0.909060  1
  Cl  Cl9  1  0.907312  0.222841  0.372442  1
  Cl  Cl10  1  0.372499  0.907588  0.222525  1
  Cl  Cl11  1  0.777369  0.627703  0.092466  1
  Cl  Cl12  1  0.092734  0.777215  0.627498  1
  Cl  Cl13  1  0.706294  0.953161  0.161483  1
  Cl  Cl14  1  0.953489  0.161622  0.706145  1
  Cl  Cl15  1  0.161283  0.706433  0.953366  1
  Cl  Cl16  1  0.292178  0.043957  0.840746  1
  Cl  Cl17  1  0.046553  0.838867  0.293603  1
  Cl  Cl18  1  0.838720  0.294020  0.046348  1
  Cl  Cl19  1  0.557526  0.432347  0.838507  1
  Cl  Cl20  1  0.159583  0.444877  0.566125  1
  Cl  Cl21  1  0.442508  0.567708  0.161451  1
  Cl  Cl22  1  0.432386  0.838763  0.557454  1
  Cl  Cl23  1  0.838680  0.557654  0.432219  1
  Cl  Cl24  1  0.630120  0.091632  0.777643  1
