# generated using pymatgen
data_U2AlFeC3
_symmetry_space_group_name_H-M   'P 1'
_cell_length_a   3.21606600
_cell_length_b   5.01391300
_cell_length_c   11.21476000
_cell_angle_alpha   90.00000000
_cell_angle_beta   90.00000000
_cell_angle_gamma   90.00000000
_symmetry_Int_Tables_number   1
_chemical_formula_structural   U2AlFeC3
_chemical_formula_sum   'U4 Al2 Fe2 C6'
_cell_volume   180.83884752
_cell_formula_units_Z   2
loop_
 _symmetry_equiv_pos_site_id
 _symmetry_equiv_pos_as_xyz
  1  'x, y, z'
loop_
 _atom_site_type_symbol
 _atom_site_label
 _atom_site_symmetry_multiplicity
 _atom_site_fract_x
 _atom_site_fract_y
 _atom_site_fract_z
 _atom_site_occupancy
  U  U0  1  0.500000  0.840612  0.150201  1
  U  U1  1  0.000000  0.340612  0.349799  1
  U  U2  1  0.000000  0.654090  0.650552  1
  U  U3  1  0.500000  0.154090  0.849448  1
  Al  Al4  1  0.500000  0.154813  0.577122  1
  Al  Al5  1  0.000000  0.654813  0.922878  1
  Fe  Fe6  1  0.500000  0.830813  0.406735  1
  Fe  Fe7  1  0.000000  0.330813  0.093265  1
  C  C8  1  0.000000  0.169358  0.694067  1
  C  C9  1  0.500000  0.669358  0.805933  1
  C  C10  1  0.000000  0.837067  0.315301  1
  C  C11  1  0.000000  0.013247  0.999341  1
  C  C12  1  0.500000  0.337067  0.184699  1
  C  C13  1  0.500000  0.513247  0.500659  1
