# generated using pymatgen
data_NdDyMnCo16
_symmetry_space_group_name_H-M   'P 1'
_cell_length_a   6.30355654
_cell_length_b   6.30355566
_cell_length_c   6.30355607
_cell_angle_alpha   83.17336875
_cell_angle_beta   83.17337019
_cell_angle_gamma   83.17337388
_symmetry_Int_Tables_number   1
_chemical_formula_structural   NdDyMnCo16
_chemical_formula_sum   'Nd1 Dy1 Mn1 Co16'
_cell_volume   245.53432395
_cell_formula_units_Z   1
loop_
 _symmetry_equiv_pos_site_id
 _symmetry_equiv_pos_as_xyz
  1  'x, y, z'
loop_
 _atom_site_type_symbol
 _atom_site_label
 _atom_site_symmetry_multiplicity
 _atom_site_fract_x
 _atom_site_fract_y
 _atom_site_fract_z
 _atom_site_occupancy
  Nd  Nd0  1  0.347101  0.347101  0.347101  1
  Dy  Dy1  1  0.656601  0.656601  0.656601  1
  Mn  Mn2  1  0.096313  0.096313  0.096313  1
  Co  Co3  1  0.712250  0.287814  0.997681  1
  Co  Co4  1  0.997681  0.712250  0.287814  1
  Co  Co5  1  0.287814  0.997681  0.712250  1
  Co  Co6  1  0.997681  0.287814  0.712250  1
  Co  Co7  1  0.712250  0.997681  0.287814  1
  Co  Co8  1  0.287814  0.712250  0.997681  1
  Co  Co9  1  0.348119  0.348119  0.849398  1
  Co  Co10  1  0.849398  0.348119  0.348119  1
  Co  Co11  1  0.348119  0.849398  0.348119  1
  Co  Co12  1  0.656275  0.656275  0.150582  1
  Co  Co13  1  0.150582  0.656275  0.656275  1
  Co  Co14  1  0.656275  0.150582  0.656275  1
  Co  Co15  1  0.996254  0.996254  0.504777  1
  Co  Co16  1  0.504777  0.996254  0.996254  1
  Co  Co17  1  0.996254  0.504777  0.996254  1
  Co  Co18  1  0.898448  0.898448  0.898448  1
