# generated using pymatgen
data_YbSm2YNi13C4
_symmetry_space_group_name_H-M   'P 1'
_cell_length_a   8.37830433
_cell_length_b   8.37830459
_cell_length_c   3.88198600
_cell_angle_alpha   90.00000000
_cell_angle_beta   90.00000000
_cell_angle_gamma   90.48736642
_symmetry_Int_Tables_number   1
_chemical_formula_structural   YbSm2YNi13C4
_chemical_formula_sum   'Yb1 Sm2 Y1 Ni13 C4'
_cell_volume   272.48997513
_cell_formula_units_Z   1
loop_
 _symmetry_equiv_pos_site_id
 _symmetry_equiv_pos_as_xyz
  1  'x, y, z'
loop_
 _atom_site_type_symbol
 _atom_site_label
 _atom_site_symmetry_multiplicity
 _atom_site_fract_x
 _atom_site_fract_y
 _atom_site_fract_z
 _atom_site_occupancy
  Yb  Yb0  1  0.192647  0.807353  0.500000  1
  Sm  Sm1  1  0.344887  0.348094  0.500000  1
  Sm  Sm2  1  0.651906  0.655113  0.500000  1
  Y  Y3  1  0.812373  0.187627  0.500000  1
  Ni  Ni4  1  0.000995  0.999005  0.000000  1
  Ni  Ni5  1  0.214041  0.572240  0.000000  1
  Ni  Ni6  1  0.785583  0.431055  0.000000  1
  Ni  Ni7  1  0.427760  0.785959  0.000000  1
  Ni  Ni8  1  0.568945  0.214417  0.000000  1
  Ni  Ni9  1  0.997913  0.501343  0.500000  1
  Ni  Ni10  1  0.498657  0.002087  0.500000  1
  Ni  Ni11  1  0.070632  0.289582  0.000000  1
  Ni  Ni12  1  0.928405  0.711700  0.000000  1
  Ni  Ni13  1  0.710418  0.929368  0.000000  1
  Ni  Ni14  1  0.288300  0.071595  0.000000  1
  Ni  Ni15  1  0.123198  0.113911  0.500000  1
  Ni  Ni16  1  0.886089  0.876802  0.500000  1
  C  C17  1  0.000480  0.501700  0.000000  1
  C  C18  1  0.498300  0.999520  0.000000  1
  C  C19  1  0.441860  0.558140  0.000000  1
  C  C20  1  0.556610  0.443390  0.000000  1
