# generated using pymatgen
data_Dy6TmRh3
_symmetry_space_group_name_H-M   'P 1'
_cell_length_a   9.77577500
_cell_length_b   9.77577396
_cell_length_c   6.16280600
_cell_angle_alpha   90.00000000
_cell_angle_beta   90.00000000
_cell_angle_gamma   120.00000691
_symmetry_Int_Tables_number   1
_chemical_formula_structural   Dy6TmRh3
_chemical_formula_sum   'Dy12 Tm2 Rh6'
_cell_volume   510.04846679
_cell_formula_units_Z   2
loop_
 _symmetry_equiv_pos_site_id
 _symmetry_equiv_pos_as_xyz
  1  'x, y, z'
loop_
 _atom_site_type_symbol
 _atom_site_label
 _atom_site_symmetry_multiplicity
 _atom_site_fract_x
 _atom_site_fract_y
 _atom_site_fract_z
 _atom_site_occupancy
  Dy  Dy0  1  0.875782  0.751563  0.741510  1
  Dy  Dy1  1  0.248437  0.124218  0.741510  1
  Dy  Dy2  1  0.875782  0.124218  0.741510  1
  Dy  Dy3  1  0.124218  0.248437  0.241510  1
  Dy  Dy4  1  0.751563  0.875782  0.241510  1
  Dy  Dy5  1  0.124218  0.875782  0.241510  1
  Dy  Dy6  1  0.458991  0.917983  0.547885  1
  Dy  Dy7  1  0.082017  0.541009  0.547885  1
  Dy  Dy8  1  0.458991  0.541009  0.547885  1
  Dy  Dy9  1  0.541009  0.082017  0.047885  1
  Dy  Dy10  1  0.917983  0.458991  0.047885  1
  Dy  Dy11  1  0.541009  0.458991  0.047885  1
  Tm  Tm12  1  0.666667  0.333333  0.533008  1
  Tm  Tm13  1  0.333333  0.666667  0.033008  1
  Rh  Rh14  1  0.190344  0.380687  0.813176  1
  Rh  Rh15  1  0.619313  0.809656  0.813176  1
  Rh  Rh16  1  0.190344  0.809656  0.813176  1
  Rh  Rh17  1  0.809656  0.619313  0.313176  1
  Rh  Rh18  1  0.380687  0.190344  0.313176  1
  Rh  Rh19  1  0.809656  0.190344  0.313176  1
