# generated using pymatgen
data_TcS2ClO9
_symmetry_space_group_name_H-M   'P 1'
_cell_length_a   7.32739647
_cell_length_b   7.93604355
_cell_length_c   8.29122560
_cell_angle_alpha   90.01680935
_cell_angle_beta   100.77741613
_cell_angle_gamma   111.83777429
_symmetry_Int_Tables_number   1
_chemical_formula_structural   TcS2ClO9
_chemical_formula_sum   'Tc2 S4 Cl2 O18'
_cell_volume   438.35531395
_cell_formula_units_Z   2
loop_
 _symmetry_equiv_pos_site_id
 _symmetry_equiv_pos_as_xyz
  1  'x, y, z'
loop_
 _atom_site_type_symbol
 _atom_site_label
 _atom_site_symmetry_multiplicity
 _atom_site_fract_x
 _atom_site_fract_y
 _atom_site_fract_z
 _atom_site_occupancy
  Tc  Tc0  1  0.766253  0.301272  0.696936  1
  Tc  Tc1  1  0.233747  0.698728  0.303064  1
  S  S2  1  0.090131  0.733251  0.876831  1
  S  S3  1  0.909869  0.266749  0.123169  1
  S  S4  1  0.662806  0.650198  0.781426  1
  S  S5  1  0.337194  0.349802  0.218574  1
  Cl  Cl6  1  0.999899  0.186373  0.686664  1
  Cl  Cl7  1  0.000101  0.813627  0.313336  1
  O  O8  1  0.555141  0.111839  0.649203  1
  O  O9  1  0.444859  0.888161  0.350797  1
  O  O10  1  0.775951  0.409439  0.520973  1
  O  O11  1  0.224049  0.590561  0.479027  1
  O  O12  1  0.162875  0.855270  0.756362  1
  O  O13  1  0.837125  0.144730  0.243638  1
  O  O14  1  0.214311  0.785598  0.043563  1
  O  O15  1  0.785689  0.214402  0.956437  1
  O  O16  1  0.032806  0.537720  0.829224  1
  O  O17  1  0.967194  0.462280  0.170776  1
  O  O18  1  0.879258  0.749640  0.910433  1
  O  O19  1  0.120742  0.250360  0.089567  1
  O  O20  1  0.522951  0.683463  0.862146  1
  O  O21  1  0.477049  0.316537  0.137854  1
  O  O22  1  0.686747  0.707079  0.619763  1
  O  O23  1  0.313253  0.292921  0.380237  1
  O  O24  1  0.631701  0.445730  0.791329  1
  O  O25  1  0.368299  0.554270  0.208671  1
