# generated using pymatgen
data_Er2Hf5ZrF30
_symmetry_space_group_name_H-M   'P 1'
_cell_length_a   8.12336237
_cell_length_b   8.12417374
_cell_length_c   8.11240729
_cell_angle_alpha   79.75506376
_cell_angle_beta   79.80198512
_cell_angle_gamma   100.14954043
_symmetry_Int_Tables_number   1
_chemical_formula_structural   Er2Hf5ZrF30
_chemical_formula_sum   'Er2 Hf5 Zr1 F30'
_cell_volume   506.45933227
_cell_formula_units_Z   1
loop_
 _symmetry_equiv_pos_site_id
 _symmetry_equiv_pos_as_xyz
  1  'x, y, z'
loop_
 _atom_site_type_symbol
 _atom_site_label
 _atom_site_symmetry_multiplicity
 _atom_site_fract_x
 _atom_site_fract_y
 _atom_site_fract_z
 _atom_site_occupancy
  Er  Er0  1  0.677308  0.322719  0.749537  1
  Er  Er1  1  0.321633  0.677082  0.251028  1
  Hf  Hf2  1  0.251532  0.748523  0.750065  1
  Hf  Hf3  1  0.748494  0.251377  0.249760  1
  Hf  Hf4  1  0.822741  0.752232  0.325298  1
  Hf  Hf5  1  0.247626  0.177267  0.174577  1
  Hf  Hf6  1  0.177859  0.248412  0.674476  1
  Zr  Zr7  1  0.752080  0.822622  0.825226  1
  F  F8  1  0.151334  0.183727  0.946034  1
  F  F9  1  0.685945  0.561992  0.849450  1
  F  F10  1  0.038820  0.657047  0.316614  1
  F  F11  1  0.654773  0.040922  0.817122  1
  F  F12  1  0.565316  0.687687  0.348060  1
  F  F13  1  0.183866  0.151628  0.446215  1
  F  F14  1  0.850822  0.816732  0.056078  1
  F  F15  1  0.312028  0.434617  0.152407  1
  F  F16  1  0.961234  0.343063  0.683483  1
  F  F17  1  0.342607  0.960923  0.183808  1
  F  F18  1  0.434959  0.312409  0.651864  1
  F  F19  1  0.818082  0.850016  0.550147  1
  F  F20  1  0.968964  0.034715  0.749241  1
  F  F21  1  0.544106  0.752132  0.030108  1
  F  F22  1  0.247289  0.454249  0.472169  1
  F  F23  1  0.453730  0.247163  0.972253  1
  F  F24  1  0.752795  0.546001  0.528094  1
  F  F25  1  0.033255  0.967539  0.249827  1
  F  F26  1  0.220228  0.724920  0.002577  1
  F  F27  1  0.223682  0.493231  0.779506  1
  F  F28  1  0.995239  0.723117  0.776953  1
  F  F29  1  0.724732  0.994694  0.277098  1
  F  F30  1  0.493262  0.223306  0.279645  1
  F  F31  1  0.725150  0.220044  0.502498  1
  F  F32  1  0.779889  0.274827  0.997196  1
  F  F33  1  0.776535  0.506582  0.220351  1
  F  F34  1  0.005412  0.275089  0.222402  1
  F  F35  1  0.275308  0.005271  0.722473  1
  F  F36  1  0.506526  0.776310  0.718870  1
  F  F37  1  0.274837  0.779816  0.497491  1
