# generated using pymatgen
data_Gd4CuNi3
_symmetry_space_group_name_H-M   'P 1'
_cell_length_a   4.24767900
_cell_length_b   5.48605106
_cell_length_c   7.05737100
_cell_angle_alpha   89.81676143
_cell_angle_beta   90.00000000
_cell_angle_gamma   90.00000000
_symmetry_Int_Tables_number   1
_chemical_formula_structural   Gd4CuNi3
_chemical_formula_sum   'Gd4 Cu1 Ni3'
_cell_volume   164.45696148
_cell_formula_units_Z   1
loop_
 _symmetry_equiv_pos_site_id
 _symmetry_equiv_pos_as_xyz
  1  'x, y, z'
loop_
 _atom_site_type_symbol
 _atom_site_label
 _atom_site_symmetry_multiplicity
 _atom_site_fract_x
 _atom_site_fract_y
 _atom_site_fract_z
 _atom_site_occupancy
  Gd  Gd0  1  0.000000  0.636767  0.315171  1
  Gd  Gd1  1  0.000000  0.859428  0.821083  1
  Gd  Gd2  1  0.500000  0.369170  0.688287  1
  Gd  Gd3  1  0.500000  0.135063  0.173663  1
  Cu  Cu4  1  0.000000  0.126190  0.465069  1
  Ni  Ni5  1  0.000000  0.367342  0.964046  1
  Ni  Ni6  1  0.500000  0.876677  0.534401  1
  Ni  Ni7  1  0.500000  0.629365  0.038280  1
