# generated using pymatgen
data_Ta2OsS6
_symmetry_space_group_name_H-M   'P 1'
_cell_length_a   5.63257588
_cell_length_b   5.63257650
_cell_length_c   7.38711346
_cell_angle_alpha   82.70677793
_cell_angle_beta   82.70677385
_cell_angle_gamma   120.00680753
_symmetry_Int_Tables_number   1
_chemical_formula_structural   Ta2OsS6
_chemical_formula_sum   'Ta2 Os1 S6'
_cell_volume   196.29863647
_cell_formula_units_Z   1
loop_
 _symmetry_equiv_pos_site_id
 _symmetry_equiv_pos_as_xyz
  1  'x, y, z'
loop_
 _atom_site_type_symbol
 _atom_site_label
 _atom_site_symmetry_multiplicity
 _atom_site_fract_x
 _atom_site_fract_y
 _atom_site_fract_z
 _atom_site_occupancy
  Ta  Ta0  1  0.833380  0.499952  0.499921  1
  Ta  Ta1  1  0.499952  0.833380  0.499921  1
  Os  Os2  1  0.166618  0.166618  0.499958  1
  S  S3  1  0.564105  0.239537  0.281326  1
  S  S4  1  0.239537  0.564105  0.281326  1
  S  S5  1  0.914837  0.914837  0.281353  1
  S  S6  1  0.769062  0.769062  0.718863  1
  S  S7  1  0.418540  0.093873  0.718816  1
  S  S8  1  0.093873  0.418540  0.718816  1
