# generated using pymatgen
data_SmCd(CuO2)4
_symmetry_space_group_name_H-M   'P 1'
_cell_length_a   6.30170049
_cell_length_b   6.30447742
_cell_length_c   6.28784679
_cell_angle_alpha   125.36497851
_cell_angle_beta   125.50701526
_cell_angle_gamma   80.80872267
_symmetry_Int_Tables_number   1
_chemical_formula_structural   SmCd(CuO2)4
_chemical_formula_sum   'Sm1 Cd1 Cu4 O8'
_cell_volume   159.86916785
_cell_formula_units_Z   1
loop_
 _symmetry_equiv_pos_site_id
 _symmetry_equiv_pos_as_xyz
  1  'x, y, z'
loop_
 _atom_site_type_symbol
 _atom_site_label
 _atom_site_symmetry_multiplicity
 _atom_site_fract_x
 _atom_site_fract_y
 _atom_site_fract_z
 _atom_site_occupancy
  Sm  Sm0  1  0.749864  0.250066  0.499940  1
  Cd  Cd1  1  0.999944  0.999981  0.999977  1
  Cu  Cu2  1  0.372501  0.626759  0.248245  1
  Cu  Cu3  1  0.373374  0.621526  0.745936  1
  Cu  Cu4  1  0.875869  0.627516  0.254274  1
  Cu  Cu5  1  0.378517  0.124280  0.751821  1
  O  O6  1  0.166758  0.593386  0.860536  1
  O  O7  1  0.733015  0.306287  0.139558  1
  O  O8  1  0.347141  0.978567  0.925600  1
  O  O9  1  0.694250  0.832952  0.426382  1
  O  O10  1  0.052596  0.421607  0.074426  1
  O  O11  1  0.406569  0.267187  0.573207  1
  O  O12  1  0.021077  0.946989  0.368302  1
  O  O13  1  0.578524  0.652897  0.631796  1
