# generated using pymatgen
data_ErTm3B12IrRh
_symmetry_space_group_name_H-M   'P 1'
_cell_length_a   3.61523700
_cell_length_b   9.12273628
_cell_length_c   11.45370524
_cell_angle_alpha   90.11025587
_cell_angle_beta   90.00003584
_cell_angle_gamma   90.00003467
_symmetry_Int_Tables_number   1
_chemical_formula_structural   ErTm3B12IrRh
_chemical_formula_sum   'Er2 Tm6 B24 Ir2 Rh2'
_cell_volume   377.75227757
_cell_formula_units_Z   2
loop_
 _symmetry_equiv_pos_site_id
 _symmetry_equiv_pos_as_xyz
  1  'x, y, z'
loop_
 _atom_site_type_symbol
 _atom_site_label
 _atom_site_symmetry_multiplicity
 _atom_site_fract_x
 _atom_site_fract_y
 _atom_site_fract_z
 _atom_site_occupancy
  Er  Er0  1  0.499996  0.322669  0.414111  1
  Er  Er1  1  0.500004  0.677331  0.585889  1
  Tm  Tm2  1  0.499996  0.179624  0.912860  1
  Tm  Tm3  1  0.500004  0.820376  0.087140  1
  Tm  Tm4  1  0.500000  0.445233  0.126458  1
  Tm  Tm5  1  0.500000  0.554767  0.873542  1
  Tm  Tm6  1  0.500001  0.056581  0.626002  1
  Tm  Tm7  1  0.499999  0.943419  0.373998  1
  B  B8  1  0.000003  0.108905  0.470301  1
  B  B9  1  0.999997  0.891095  0.529699  1
  B  B10  1  0.000000  0.390651  0.970383  1
  B  B11  1  0.000000  0.609349  0.029617  1
  B  B12  1  0.000003  0.132350  0.316243  1
  B  B13  1  0.999997  0.867650  0.683757  1
  B  B14  1  0.000002  0.366665  0.816623  1
  B  B15  1  0.999998  0.633335  0.183377  1
  B  B16  1  0.000002  0.054021  0.065228  1
  B  B17  1  0.999998  0.945979  0.934772  1
  B  B18  1  0.000006  0.446409  0.565177  1
  B  B19  1  0.999994  0.553591  0.434823  1
  B  B20  1  0.999995  0.482250  0.286679  1
  B  B21  1  0.000005  0.517750  0.713321  1
  B  B22  1  0.000001  0.018086  0.786477  1
  B  B23  1  0.999999  0.981914  0.213523  1
  B  B24  1  0.000001  0.250134  0.078769  1
  B  B25  1  0.999999  0.749866  0.921231  1
  B  B26  1  0.000004  0.250695  0.579236  1
  B  B27  1  0.999996  0.749305  0.420764  1
  B  B28  1  0.000001  0.294280  0.235388  1
  B  B29  1  0.999999  0.705720  0.764612  1
  B  B30  1  0.000004  0.205527  0.736332  1
  B  B31  1  0.999996  0.794473  0.263668  1
  Ir  Ir32  1  0.500000  0.138674  0.177787  1
  Ir  Ir33  1  0.500000  0.861326  0.822213  1
  Rh  Rh34  1  0.500009  0.360098  0.680228  1
  Rh  Rh35  1  0.499991  0.639902  0.319772  1
