# generated using pymatgen
data_Pa7Pt10
_symmetry_space_group_name_H-M   'P 1'
_cell_length_a   8.56298345
_cell_length_b   8.56276720
_cell_length_c   10.15058300
_cell_angle_alpha   90.00000000
_cell_angle_beta   90.00000000
_cell_angle_gamma   107.26109568
_symmetry_Int_Tables_number   1
_chemical_formula_structural   Pa7Pt10
_chemical_formula_sum   'Pa14 Pt20'
_cell_volume   710.74947259
_cell_formula_units_Z   2
loop_
 _symmetry_equiv_pos_site_id
 _symmetry_equiv_pos_as_xyz
  1  'x, y, z'
loop_
 _atom_site_type_symbol
 _atom_site_label
 _atom_site_symmetry_multiplicity
 _atom_site_fract_x
 _atom_site_fract_y
 _atom_site_fract_z
 _atom_site_occupancy
  Pa  Pa0  1  0.688052  0.311952  0.999999  1
  Pa  Pa1  1  0.311948  0.688048  0.000001  1
  Pa  Pa2  1  0.811948  0.188048  0.499999  1
  Pa  Pa3  1  0.188052  0.811952  0.500001  1
  Pa  Pa4  1  0.000000  0.000000  0.000000  1
  Pa  Pa5  1  0.500000  0.500000  0.500000  1
  Pa  Pa6  1  0.998669  0.498675  0.250000  1
  Pa  Pa7  1  0.001331  0.501325  0.750000  1
  Pa  Pa8  1  0.501331  0.001325  0.750000  1
  Pa  Pa9  1  0.498669  0.998675  0.250000  1
  Pa  Pa10  1  0.308665  0.308661  0.190728  1
  Pa  Pa11  1  0.691335  0.691339  0.809272  1
  Pa  Pa12  1  0.191335  0.191339  0.690728  1
  Pa  Pa13  1  0.808665  0.808661  0.309272  1
  Pt  Pt14  1  0.850904  0.140695  0.208697  1
  Pt  Pt15  1  0.149096  0.859305  0.791303  1
  Pt  Pt16  1  0.649096  0.359305  0.708697  1
  Pt  Pt17  1  0.640699  0.350912  0.291303  1
  Pt  Pt18  1  0.350904  0.640695  0.291303  1
  Pt  Pt19  1  0.359301  0.649088  0.708697  1
  Pt  Pt20  1  0.859301  0.149088  0.791303  1
  Pt  Pt21  1  0.140699  0.850912  0.208697  1
  Pt  Pt22  1  0.935023  0.643717  0.996039  1
  Pt  Pt23  1  0.064977  0.356283  0.003961  1
  Pt  Pt24  1  0.564977  0.856283  0.496039  1
  Pt  Pt25  1  0.143718  0.435023  0.503958  1
  Pt  Pt26  1  0.435023  0.143717  0.503961  1
  Pt  Pt27  1  0.856282  0.564977  0.496042  1
  Pt  Pt28  1  0.356282  0.064977  0.003958  1
  Pt  Pt29  1  0.643718  0.935023  0.996042  1
  Pt  Pt30  1  0.104087  0.104087  0.396993  1
  Pt  Pt31  1  0.895913  0.895913  0.603007  1
  Pt  Pt32  1  0.395913  0.395913  0.896993  1
  Pt  Pt33  1  0.604087  0.604087  0.103007  1
