# generated using pymatgen
data_Pr2Y4ScCo17P12
_symmetry_space_group_name_H-M   'P 1'
_cell_length_a   3.75004800
_cell_length_b   10.66948700
_cell_length_c   12.37190300
_cell_angle_alpha   90.00000000
_cell_angle_beta   90.00000000
_cell_angle_gamma   90.00000000
_symmetry_Int_Tables_number   1
_chemical_formula_structural   Pr2Y4ScCo17P12
_chemical_formula_sum   'Pr2 Y4 Sc1 Co17 P12'
_cell_volume   495.01330443
_cell_formula_units_Z   1
loop_
 _symmetry_equiv_pos_site_id
 _symmetry_equiv_pos_as_xyz
  1  'x, y, z'
loop_
 _atom_site_type_symbol
 _atom_site_label
 _atom_site_symmetry_multiplicity
 _atom_site_fract_x
 _atom_site_fract_y
 _atom_site_fract_z
 _atom_site_occupancy
  Pr  Pr0  1  0.000000  0.500000  0.528529  1
  Pr  Pr1  1  0.500000  0.000000  0.477120  1
  Y  Y2  1  0.500000  0.821053  0.206236  1
  Y  Y3  1  0.500000  0.178947  0.206236  1
  Y  Y4  1  0.000000  0.682814  0.796742  1
  Y  Y5  1  0.000000  0.317186  0.796742  1
  Sc  Sc6  1  0.500000  0.500000  0.149422  1
  Co  Co7  1  0.000000  0.000000  0.840195  1
  Co  Co8  1  0.500000  0.500000  0.707593  1
  Co  Co9  1  0.000000  0.000000  0.292102  1
  Co  Co10  1  0.000000  0.500000  0.984647  1
  Co  Co11  1  0.500000  0.000000  0.012105  1
  Co  Co12  1  0.500000  0.326553  0.990173  1
  Co  Co13  1  0.500000  0.673447  0.990173  1
  Co  Co14  1  0.000000  0.162427  0.001568  1
  Co  Co15  1  0.000000  0.837573  0.001568  1
  Co  Co16  1  0.500000  0.294698  0.432526  1
  Co  Co17  1  0.500000  0.705302  0.432526  1
  Co  Co18  1  0.000000  0.202857  0.572070  1
  Co  Co19  1  0.000000  0.797143  0.572070  1
  Co  Co20  1  0.500000  0.881057  0.710952  1
  Co  Co21  1  0.500000  0.118943  0.710952  1
  Co  Co22  1  0.000000  0.621989  0.293020  1
  Co  Co23  1  0.000000  0.378011  0.293020  1
  P  P24  1  0.500000  0.500000  0.884783  1
  P  P25  1  0.000000  0.000000  0.114462  1
  P  P26  1  0.500000  0.500000  0.352831  1
  P  P27  1  0.000000  0.000000  0.659912  1
  P  P28  1  0.500000  0.305043  0.619393  1
  P  P29  1  0.500000  0.694957  0.619393  1
  P  P30  1  0.000000  0.193030  0.384686  1
  P  P31  1  0.000000  0.806970  0.384686  1
  P  P32  1  0.500000  0.851125  0.890303  1
  P  P33  1  0.500000  0.148875  0.890303  1
  P  P34  1  0.000000  0.663262  0.100479  1
  P  P35  1  0.000000  0.336738  0.100479  1
