# generated using pymatgen
data_Ta12Al8Ir4C3N
_symmetry_space_group_name_H-M   'P 1'
_cell_length_a   8.30327164
_cell_length_b   8.30327204
_cell_length_c   8.30327084
_cell_angle_alpha   60.11091031
_cell_angle_beta   60.11091345
_cell_angle_gamma   60.11090626
_symmetry_Int_Tables_number   1
_chemical_formula_structural   Ta12Al8Ir4C3N
_chemical_formula_sum   'Ta12 Al8 Ir4 C3 N1'
_cell_volume   405.80992454
_cell_formula_units_Z   1
loop_
 _symmetry_equiv_pos_site_id
 _symmetry_equiv_pos_as_xyz
  1  'x, y, z'
loop_
 _atom_site_type_symbol
 _atom_site_label
 _atom_site_symmetry_multiplicity
 _atom_site_fract_x
 _atom_site_fract_y
 _atom_site_fract_z
 _atom_site_occupancy
  Ta  Ta0  1  0.565415  0.934629  0.565415  1
  Ta  Ta1  1  0.315371  0.684585  0.684585  1
  Ta  Ta2  1  0.685122  0.314386  0.314386  1
  Ta  Ta3  1  0.314386  0.685122  0.314386  1
  Ta  Ta4  1  0.684585  0.684585  0.315371  1
  Ta  Ta5  1  0.314386  0.314386  0.685122  1
  Ta  Ta6  1  0.565415  0.565415  0.934629  1
  Ta  Ta7  1  0.934629  0.565415  0.565415  1
  Ta  Ta8  1  0.564878  0.935614  0.935614  1
  Ta  Ta9  1  0.935614  0.935614  0.564878  1
  Ta  Ta10  1  0.684585  0.315371  0.684585  1
  Ta  Ta11  1  0.935614  0.564878  0.935614  1
  Al  Al12  1  0.916382  0.916382  0.916382  1
  Al  Al13  1  0.999718  0.333350  0.333350  1
  Al  Al14  1  0.333350  0.999718  0.333350  1
  Al  Al15  1  0.333350  0.333350  0.999718  1
  Al  Al16  1  0.916650  0.250282  0.916650  1
  Al  Al17  1  0.916650  0.916650  0.250282  1
  Al  Al18  1  0.250282  0.916650  0.916650  1
  Al  Al19  1  0.333618  0.333618  0.333618  1
  Ir  Ir20  1  0.125000  0.125000  0.125000  1
  Ir  Ir21  1  0.625000  0.125000  0.125000  1
  Ir  Ir22  1  0.125000  0.625000  0.125000  1
  Ir  Ir23  1  0.125000  0.125000  0.625000  1
  C  C24  1  0.125000  0.625000  0.625000  1
  C  C25  1  0.625000  0.125000  0.625000  1
  C  C26  1  0.625000  0.625000  0.125000  1
  N  N27  1  0.625000  0.625000  0.625000  1
