# generated using pymatgen
data_Tb2YHf3(SnRh)6
_symmetry_space_group_name_H-M   'P 1'
_cell_length_a   7.48069230
_cell_length_b   7.47942838
_cell_length_c   7.54658300
_cell_angle_alpha   90.00000000
_cell_angle_beta   90.00000000
_cell_angle_gamma   120.00393292
_symmetry_Int_Tables_number   1
_chemical_formula_structural   Tb2YHf3(SnRh)6
_chemical_formula_sum   'Tb2 Y1 Hf3 Sn6 Rh6'
_cell_volume   365.65706676
_cell_formula_units_Z   1
loop_
 _symmetry_equiv_pos_site_id
 _symmetry_equiv_pos_as_xyz
  1  'x, y, z'
loop_
 _atom_site_type_symbol
 _atom_site_label
 _atom_site_symmetry_multiplicity
 _atom_site_fract_x
 _atom_site_fract_y
 _atom_site_fract_z
 _atom_site_occupancy
  Tb  Tb0  1  0.001207  0.407496  0.250000  1
  Tb  Tb1  1  0.594119  0.592301  0.250000  1
  Y  Y2  1  0.405109  0.999330  0.250000  1
  Hf  Hf3  1  0.998050  0.391577  0.750000  1
  Hf  Hf4  1  0.605923  0.608772  0.750000  1
  Hf  Hf5  1  0.394610  0.999883  0.750000  1
  Sn  Sn6  1  0.266678  0.266290  0.508495  1
  Sn  Sn7  1  0.999952  0.733583  0.508866  1
  Sn  Sn8  1  0.999952  0.733583  0.991134  1
  Sn  Sn9  1  0.733686  0.000197  0.504829  1
  Sn  Sn10  1  0.733686  0.000197  0.995171  1
  Sn  Sn11  1  0.266678  0.266290  0.991505  1
  Rh  Rh12  1  0.333427  0.666733  0.540907  1
  Rh  Rh13  1  0.666850  0.333412  0.541526  1
  Rh  Rh14  1  0.333427  0.666733  0.959093  1
  Rh  Rh15  1  0.998021  0.000321  0.750000  1
  Rh  Rh16  1  0.001773  0.999890  0.250000  1
  Rh  Rh17  1  0.666850  0.333412  0.958474  1
