# generated using pymatgen
data_Nd2Bi2Ir3RhO14
_symmetry_space_group_name_H-M   'P 1'
_cell_length_a   7.38599892
_cell_length_b   7.35251277
_cell_length_c   7.38580820
_cell_angle_alpha   60.14901213
_cell_angle_beta   60.30520665
_cell_angle_gamma   60.14985347
_symmetry_Int_Tables_number   1
_chemical_formula_structural   Nd2Bi2Ir3RhO14
_chemical_formula_sum   'Nd2 Bi2 Ir3 Rh1 O14'
_cell_volume   284.90598160
_cell_formula_units_Z   1
loop_
 _symmetry_equiv_pos_site_id
 _symmetry_equiv_pos_as_xyz
  1  'x, y, z'
loop_
 _atom_site_type_symbol
 _atom_site_label
 _atom_site_symmetry_multiplicity
 _atom_site_fract_x
 _atom_site_fract_y
 _atom_site_fract_z
 _atom_site_occupancy
  Nd  Nd0  1  0.125000  0.125000  0.125000  1
  Nd  Nd1  1  0.125000  0.625000  0.125000  1
  Bi  Bi2  1  0.625000  0.125000  0.125000  1
  Bi  Bi3  1  0.125000  0.125000  0.625000  1
  Ir  Ir4  1  0.625000  0.625000  0.625000  1
  Ir  Ir5  1  0.125000  0.625000  0.625000  1
  Ir  Ir6  1  0.625000  0.125000  0.625000  1
  Rh  Rh7  1  0.625000  0.625000  0.125000  1
  O  O8  1  0.251649  0.247110  0.254130  1
  O  O9  1  0.286990  0.709915  0.293180  1
  O  O10  1  0.955761  0.956223  0.545550  1
  O  O11  1  0.545363  0.952180  0.550277  1
  O  O12  1  0.709490  0.707456  0.294727  1
  O  O13  1  0.955761  0.542466  0.545550  1
  O  O14  1  0.704637  0.297820  0.699723  1
  O  O15  1  0.294239  0.293777  0.704450  1
  O  O16  1  0.709490  0.288328  0.294727  1
  O  O17  1  0.294239  0.707534  0.704450  1
  O  O18  1  0.963010  0.540085  0.956820  1
  O  O19  1  0.540510  0.542544  0.955273  1
  O  O20  1  0.998351  0.002890  0.995870  1
  O  O21  1  0.540510  0.961672  0.955273  1
