# generated using pymatgen
data_Er3BeCo9GeB4
_symmetry_space_group_name_H-M   'P 1'
_cell_length_a   5.06971000
_cell_length_b   5.06971030
_cell_length_c   9.43428900
_cell_angle_alpha   90.00000000
_cell_angle_beta   90.00000000
_cell_angle_gamma   119.99999802
_symmetry_Int_Tables_number   1
_chemical_formula_structural   Er3BeCo9GeB4
_chemical_formula_sum   'Er3 Be1 Co9 Ge1 B4'
_cell_volume   209.99360866
_cell_formula_units_Z   1
loop_
 _symmetry_equiv_pos_site_id
 _symmetry_equiv_pos_as_xyz
  1  'x, y, z'
loop_
 _atom_site_type_symbol
 _atom_site_label
 _atom_site_symmetry_multiplicity
 _atom_site_fract_x
 _atom_site_fract_y
 _atom_site_fract_z
 _atom_site_occupancy
  Er  Er0  1  0.000000  0.000000  0.000000  1
  Er  Er1  1  0.000000  0.000000  0.661059  1
  Er  Er2  1  0.000000  0.000000  0.338941  1
  Be  Be3  1  0.333333  0.666667  0.000000  1
  Co  Co4  1  0.500514  0.499486  0.500000  1
  Co  Co5  1  0.500514  0.001028  0.500000  1
  Co  Co6  1  0.998972  0.499486  0.500000  1
  Co  Co7  1  0.497962  0.502038  0.801710  1
  Co  Co8  1  0.497962  0.995923  0.801710  1
  Co  Co9  1  0.004077  0.502038  0.801710  1
  Co  Co10  1  0.497962  0.502038  0.198290  1
  Co  Co11  1  0.497962  0.995923  0.198290  1
  Co  Co12  1  0.004077  0.502038  0.198290  1
  Ge  Ge13  1  0.666667  0.333333  0.000000  1
  B  B14  1  0.666667  0.333333  0.655348  1
  B  B15  1  0.333333  0.666667  0.653205  1
  B  B16  1  0.333333  0.666667  0.346795  1
  B  B17  1  0.666667  0.333333  0.344652  1
