# generated using pymatgen
data_La7HfH24
_symmetry_space_group_name_H-M   'P 1'
_cell_length_a   6.92182200
_cell_length_b   6.92182200
_cell_length_c   6.92182200
_cell_angle_alpha   90.00000000
_cell_angle_beta   90.00000000
_cell_angle_gamma   90.00000000
_symmetry_Int_Tables_number   1
_chemical_formula_structural   La7HfH24
_chemical_formula_sum   'La7 Hf1 H24'
_cell_volume   331.63570399
_cell_formula_units_Z   1
loop_
 _symmetry_equiv_pos_site_id
 _symmetry_equiv_pos_as_xyz
  1  'x, y, z'
loop_
 _atom_site_type_symbol
 _atom_site_label
 _atom_site_symmetry_multiplicity
 _atom_site_fract_x
 _atom_site_fract_y
 _atom_site_fract_z
 _atom_site_occupancy
  La  La0  1  0.000000  0.000000  0.000000  1
  La  La1  1  0.254515  0.000000  0.500000  1
  La  La2  1  0.745485  0.000000  0.500000  1
  La  La3  1  0.000000  0.500000  0.254515  1
  La  La4  1  0.000000  0.500000  0.745485  1
  La  La5  1  0.500000  0.745485  0.000000  1
  La  La6  1  0.500000  0.254515  0.000000  1
  Hf  Hf7  1  0.500000  0.500000  0.500000  1
  H  H8  1  0.000000  0.156696  0.311566  1
  H  H9  1  0.500000  0.225575  0.644744  1
  H  H10  1  0.500000  0.774425  0.355256  1
  H  H11  1  0.774425  0.644744  0.500000  1
  H  H12  1  0.225575  0.644744  0.500000  1
  H  H13  1  0.355256  0.500000  0.774425  1
  H  H14  1  0.644744  0.500000  0.774425  1
  H  H15  1  0.311566  0.000000  0.156696  1
  H  H16  1  0.156696  0.311566  0.000000  1
  H  H17  1  0.843304  0.688434  0.000000  1
  H  H18  1  0.311566  0.000000  0.843304  1
  H  H19  1  0.843304  0.311566  0.000000  1
  H  H20  1  0.688434  0.000000  0.156696  1
  H  H21  1  0.688434  0.000000  0.843304  1
  H  H22  1  0.156696  0.688434  0.000000  1
  H  H23  1  0.000000  0.843304  0.688434  1
  H  H24  1  0.000000  0.156696  0.688434  1
  H  H25  1  0.000000  0.843304  0.311566  1
  H  H26  1  0.644744  0.500000  0.225575  1
  H  H27  1  0.355256  0.500000  0.225575  1
  H  H28  1  0.774425  0.355256  0.500000  1
  H  H29  1  0.225575  0.355256  0.500000  1
  H  H30  1  0.500000  0.774425  0.644744  1
  H  H31  1  0.500000  0.225575  0.355256  1
