# generated using pymatgen
data_Yb4Ga5Ag4Ge3
_symmetry_space_group_name_H-M   'P 1'
_cell_length_a   4.39409500
_cell_length_b   7.01848502
_cell_length_c   10.31762357
_cell_angle_alpha   89.89285959
_cell_angle_beta   90.00000000
_cell_angle_gamma   90.00000000
_symmetry_Int_Tables_number   1
_chemical_formula_structural   Yb4Ga5Ag4Ge3
_chemical_formula_sum   'Yb4 Ga5 Ag4 Ge3'
_cell_volume   318.19381928
_cell_formula_units_Z   1
loop_
 _symmetry_equiv_pos_site_id
 _symmetry_equiv_pos_as_xyz
  1  'x, y, z'
loop_
 _atom_site_type_symbol
 _atom_site_label
 _atom_site_symmetry_multiplicity
 _atom_site_fract_x
 _atom_site_fract_y
 _atom_site_fract_z
 _atom_site_occupancy
  Yb  Yb0  1  0.250000  0.774961  0.828534  1
  Yb  Yb1  1  0.750000  0.226603  0.171731  1
  Yb  Yb2  1  0.750000  0.725174  0.329562  1
  Yb  Yb3  1  0.250000  0.273594  0.671011  1
  Ga  Ga4  1  0.250000  0.202782  0.964800  1
  Ga  Ga5  1  0.250000  0.932373  0.149531  1
  Ga  Ga6  1  0.750000  0.074135  0.849020  1
  Ga  Ga7  1  0.750000  0.572428  0.652150  1
  Ga  Ga8  1  0.250000  0.428322  0.348653  1
  Ag  Ag9  1  0.250000  0.539043  0.100277  1
  Ag  Ag10  1  0.750000  0.455585  0.899761  1
  Ag  Ag11  1  0.750000  0.960340  0.601170  1
  Ag  Ag12  1  0.250000  0.038212  0.399172  1
  Ge  Ge13  1  0.250000  0.703121  0.535978  1
  Ge  Ge14  1  0.750000  0.296017  0.463848  1
  Ge  Ge15  1  0.750000  0.797310  0.034803  1
