# generated using pymatgen
data_DyY2CoSn3Rh2
_symmetry_space_group_name_H-M   'P 1'
_cell_length_a   7.47308373
_cell_length_b   7.50635688
_cell_length_c   3.85975400
_cell_angle_alpha   90.00000000
_cell_angle_beta   90.00000000
_cell_angle_gamma   120.14738579
_symmetry_Int_Tables_number   1
_chemical_formula_structural   DyY2CoSn3Rh2
_chemical_formula_sum   'Dy1 Y2 Co1 Sn3 Rh2'
_cell_volume   187.22869096
_cell_formula_units_Z   1
loop_
 _symmetry_equiv_pos_site_id
 _symmetry_equiv_pos_as_xyz
  1  'x, y, z'
loop_
 _atom_site_type_symbol
 _atom_site_label
 _atom_site_symmetry_multiplicity
 _atom_site_fract_x
 _atom_site_fract_y
 _atom_site_fract_z
 _atom_site_occupancy
  Dy  Dy0  1  0.000000  0.593577  0.500000  1
  Y  Y1  1  0.405318  0.405301  0.500000  1
  Y  Y2  1  0.594682  0.999983  0.500000  1
  Co  Co3  1  0.000000  0.998903  0.500000  1
  Sn  Sn4  1  0.749303  0.749405  0.000000  1
  Sn  Sn5  1  0.250697  0.000102  0.000000  1
  Sn  Sn6  1  0.000000  0.250188  0.000000  1
  Rh  Rh7  1  0.669950  0.336245  0.000000  1
  Rh  Rh8  1  0.330050  0.666296  0.000000  1
