# generated using pymatgen
data_La4Sn8Ir3Pd
_symmetry_space_group_name_H-M   'P 1'
_cell_length_a   8.99260526
_cell_length_b   8.99260459
_cell_length_c   9.70503739
_cell_angle_alpha   89.66903227
_cell_angle_beta   90.33096791
_cell_angle_gamma   149.58084810
_symmetry_Int_Tables_number   1
_chemical_formula_structural   La4Sn8Ir3Pd
_chemical_formula_sum   'La4 Sn8 Ir3 Pd1'
_cell_volume   397.36287936
_cell_formula_units_Z   1
loop_
 _symmetry_equiv_pos_site_id
 _symmetry_equiv_pos_as_xyz
  1  'x, y, z'
loop_
 _atom_site_type_symbol
 _atom_site_label
 _atom_site_symmetry_multiplicity
 _atom_site_fract_x
 _atom_site_fract_y
 _atom_site_fract_z
 _atom_site_occupancy
  La  La0  1  0.504025  0.495975  0.499747  1
  La  La1  1  0.499723  0.500277  0.001642  1
  La  La2  1  0.294402  0.705598  0.248860  1
  La  La3  1  0.703431  0.296569  0.750015  1
  Sn  Sn4  1  0.910868  0.089132  0.752095  1
  Sn  Sn5  1  0.925518  0.074482  0.247679  1
  Sn  Sn6  1  0.089112  0.910888  0.250144  1
  Sn  Sn7  1  0.075085  0.924915  0.749805  1
  Sn  Sn8  1  0.696527  0.303473  0.408203  1
  Sn  Sn9  1  0.301853  0.698147  0.592882  1
  Sn  Sn10  1  0.301574  0.698426  0.911274  1
  Sn  Sn11  1  0.697743  0.302257  0.088428  1
  Ir  Ir12  1  0.147120  0.852880  0.505862  1
  Ir  Ir13  1  0.852230  0.147770  0.003966  1
  Ir  Ir14  1  0.147299  0.852701  0.995145  1
  Pd  Pd15  1  0.853491  0.146509  0.494255  1
