# generated using pymatgen
data_Sr4FeCo5N6
_symmetry_space_group_name_H-M   'P 1'
_cell_length_a   6.48446047
_cell_length_b   6.45998738
_cell_length_c   6.31392382
_cell_angle_alpha   87.71997565
_cell_angle_beta   88.14565402
_cell_angle_gamma   117.52376232
_symmetry_Int_Tables_number   1
_chemical_formula_structural   Sr4FeCo5N6
_chemical_formula_sum   'Sr4 Fe1 Co5 N6'
_cell_volume   233.98216724
_cell_formula_units_Z   1
loop_
 _symmetry_equiv_pos_site_id
 _symmetry_equiv_pos_as_xyz
  1  'x, y, z'
loop_
 _atom_site_type_symbol
 _atom_site_label
 _atom_site_symmetry_multiplicity
 _atom_site_fract_x
 _atom_site_fract_y
 _atom_site_fract_z
 _atom_site_occupancy
  Sr  Sr0  1  0.833297  0.675077  0.899229  1
  Sr  Sr1  1  0.328837  0.166106  0.601850  1
  Sr  Sr2  1  0.168764  0.328862  0.102830  1
  Sr  Sr3  1  0.676846  0.833919  0.397048  1
  Fe  Fe4  1  0.155382  0.551173  0.605428  1
  Co  Co5  1  0.809092  0.194241  0.750276  1
  Co  Co6  1  0.191622  0.805996  0.252135  1
  Co  Co7  1  0.554411  0.158263  0.108150  1
  Co  Co8  1  0.444302  0.843555  0.894657  1
  Co  Co9  1  0.838422  0.442134  0.388525  1
  N  N10  1  0.402535  0.595015  0.745100  1
  N  N11  1  0.591082  0.408800  0.247813  1
  N  N12  1  0.023586  0.733326  0.503922  1
  N  N13  1  0.736456  0.023022  0.998176  1
  N  N14  1  0.983029  0.264301  0.501737  1
  N  N15  1  0.262337  0.976209  0.003123  1
