# generated using pymatgen
data_Tm3Sc2SnBi2
_symmetry_space_group_name_H-M   'P 1'
_cell_length_a   6.18807300
_cell_length_b   8.83952931
_cell_length_c   8.85410182
_cell_angle_alpha   119.94556873
_cell_angle_beta   90.00008227
_cell_angle_gamma   89.99983461
_symmetry_Int_Tables_number   1
_chemical_formula_structural   Tm3Sc2SnBi2
_chemical_formula_sum   'Tm6 Sc4 Sn2 Bi4'
_cell_volume   419.66007609
_cell_formula_units_Z   2
loop_
 _symmetry_equiv_pos_site_id
 _symmetry_equiv_pos_as_xyz
  1  'x, y, z'
loop_
 _atom_site_type_symbol
 _atom_site_label
 _atom_site_symmetry_multiplicity
 _atom_site_fract_x
 _atom_site_fract_y
 _atom_site_fract_z
 _atom_site_occupancy
  Tm  Tm0  1  0.750003  0.237965  0.000000  1
  Tm  Tm1  1  0.750002  0.760854  0.760164  1
  Tm  Tm2  1  0.750002  0.000690  0.239836  1
  Tm  Tm3  1  0.250002  0.764556  0.000000  1
  Tm  Tm4  1  0.250006  0.238892  0.244808  1
  Tm  Tm5  1  0.250006  0.994084  0.755192  1
  Sc  Sc6  1  0.495895  0.332482  0.663042  1
  Sc  Sc7  1  0.495895  0.669440  0.336958  1
  Sc  Sc8  1  0.004096  0.669432  0.336955  1
  Sc  Sc9  1  0.004096  0.332477  0.663045  1
  Sn  Sn10  1  0.249987  0.603414  0.604648  1
  Sn  Sn11  1  0.249987  0.998766  0.395352  1
  Bi  Bi12  1  0.750005  0.603171  0.000000  1
  Bi  Bi13  1  0.750011  0.397975  0.396363  1
  Bi  Bi14  1  0.750011  0.001612  0.603637  1
  Bi  Bi15  1  0.249991  0.394190  0.000000  1
