# generated using pymatgen
data_CrB2MoW
_symmetry_space_group_name_H-M   'P 1'
_cell_length_a   5.84195437
_cell_length_b   5.84195437
_cell_length_c   3.13410400
_cell_angle_alpha   90.00000000
_cell_angle_beta   90.00000000
_cell_angle_gamma   89.95923945
_symmetry_Int_Tables_number   1
_chemical_formula_structural   CrB2MoW
_chemical_formula_sum   'Cr2 B4 Mo2 W2'
_cell_volume   106.96202459
_cell_formula_units_Z   2
loop_
 _symmetry_equiv_pos_site_id
 _symmetry_equiv_pos_as_xyz
  1  'x, y, z'
loop_
 _atom_site_type_symbol
 _atom_site_label
 _atom_site_symmetry_multiplicity
 _atom_site_fract_x
 _atom_site_fract_y
 _atom_site_fract_z
 _atom_site_occupancy
  Cr  Cr0  1  0.000000  0.000000  0.000000  1
  Cr  Cr1  1  0.500000  0.500000  0.000000  1
  B  B2  1  0.114361  0.614361  0.000000  1
  B  B3  1  0.885639  0.385639  0.000000  1
  B  B4  1  0.614450  0.885550  0.000000  1
  B  B5  1  0.385550  0.114450  0.000000  1
  Mo  Mo6  1  0.176257  0.323743  0.500000  1
  Mo  Mo7  1  0.823743  0.676257  0.500000  1
  W  W8  1  0.677255  0.177255  0.500000  1
  W  W9  1  0.322745  0.822745  0.500000  1
