# generated using pymatgen
data_Rb2Zr2MnNiTe6
_symmetry_space_group_name_H-M   'P 1'
_cell_length_a   8.66792557
_cell_length_b   8.66792497
_cell_length_c   10.87734500
_cell_angle_alpha   90.00000000
_cell_angle_beta   90.00000000
_cell_angle_gamma   152.21080711
_symmetry_Int_Tables_number   1
_chemical_formula_structural   Rb2Zr2MnNiTe6
_chemical_formula_sum   'Rb2 Zr2 Mn1 Ni1 Te6'
_cell_volume   381.01661808
_cell_formula_units_Z   1
loop_
 _symmetry_equiv_pos_site_id
 _symmetry_equiv_pos_as_xyz
  1  'x, y, z'
loop_
 _atom_site_type_symbol
 _atom_site_label
 _atom_site_symmetry_multiplicity
 _atom_site_fract_x
 _atom_site_fract_y
 _atom_site_fract_z
 _atom_site_occupancy
  Rb  Rb0  1  0.750947  0.249055  0.250000  1
  Rb  Rb1  1  0.251105  0.748897  0.750000  1
  Zr  Zr2  1  0.502871  0.497131  0.017101  1
  Zr  Zr3  1  0.502871  0.497131  0.482899  1
  Mn  Mn4  1  0.969363  0.030639  0.750000  1
  Ni  Ni5  1  0.023236  0.976766  0.250000  1
  Te  Te6  1  0.118537  0.881465  0.064649  1
  Te  Te7  1  0.430263  0.569740  0.250000  1
  Te  Te8  1  0.118537  0.881465  0.435350  1
  Te  Te9  1  0.881202  0.118800  0.550767  1
  Te  Te10  1  0.569879  0.430124  0.750000  1
  Te  Te11  1  0.881202  0.118800  0.949233  1
