# generated using pymatgen
data_AcSb12IrOs2Ru
_symmetry_space_group_name_H-M   'P 1'
_cell_length_a   8.17294440
_cell_length_b   8.16256933
_cell_length_c   8.18320516
_cell_angle_alpha   109.49830101
_cell_angle_beta   109.54034256
_cell_angle_gamma   109.44770568
_symmetry_Int_Tables_number   1
_chemical_formula_structural   AcSb12IrOs2Ru
_chemical_formula_sum   'Ac1 Sb12 Ir1 Os2 Ru1'
_cell_volume   419.87166025
_cell_formula_units_Z   1
loop_
 _symmetry_equiv_pos_site_id
 _symmetry_equiv_pos_as_xyz
  1  'x, y, z'
loop_
 _atom_site_type_symbol
 _atom_site_label
 _atom_site_symmetry_multiplicity
 _atom_site_fract_x
 _atom_site_fract_y
 _atom_site_fract_z
 _atom_site_occupancy
  Ac  Ac0  1  0.000000  0.000000  0.000000  1
  Sb  Sb1  1  0.842174  0.657076  0.502070  1
  Sb  Sb2  1  0.157826  0.342924  0.497930  1
  Sb  Sb3  1  0.158536  0.660382  0.818254  1
  Sb  Sb4  1  0.841464  0.339618  0.181746  1
  Sb  Sb5  1  0.659711  0.501810  0.841704  1
  Sb  Sb6  1  0.340289  0.498190  0.158296  1
  Sb  Sb7  1  0.656601  0.815111  0.154572  1
  Sb  Sb8  1  0.343399  0.184889  0.845428  1
  Sb  Sb9  1  0.501821  0.842920  0.660948  1
  Sb  Sb10  1  0.498179  0.157080  0.339052  1
  Sb  Sb11  1  0.184979  0.842495  0.340439  1
  Sb  Sb12  1  0.815021  0.157505  0.659561  1
  Ir  Ir13  1  0.000000  0.000000  0.500000  1
  Os  Os14  1  0.500000  0.500000  0.500000  1
  Os  Os15  1  0.000000  0.500000  0.000000  1
  Ru  Ru16  1  0.500000  0.000000  0.000000  1
