# generated using pymatgen
data_La(NdIn2)5
_symmetry_space_group_name_H-M   'P 1'
_cell_length_a   6.62265756
_cell_length_b   6.62265706
_cell_length_c   10.61094985
_cell_angle_alpha   90.02892900
_cell_angle_beta   90.02892812
_cell_angle_gamma   101.81955705
_symmetry_Int_Tables_number   1
_chemical_formula_structural   La(NdIn2)5
_chemical_formula_sum   'La1 Nd5 In10'
_cell_volume   455.52430403
_cell_formula_units_Z   1
loop_
 _symmetry_equiv_pos_site_id
 _symmetry_equiv_pos_as_xyz
  1  'x, y, z'
loop_
 _atom_site_type_symbol
 _atom_site_label
 _atom_site_symmetry_multiplicity
 _atom_site_fract_x
 _atom_site_fract_y
 _atom_site_fract_z
 _atom_site_occupancy
  La  La0  1  0.203186  0.796814  0.500000  1
  Nd  Nd1  1  0.631841  0.631591  0.249904  1
  Nd  Nd2  1  0.368409  0.368159  0.750096  1
  Nd  Nd3  1  0.202678  0.797322  0.000000  1
  Nd  Nd4  1  0.797203  0.202797  0.500000  1
  Nd  Nd5  1  0.797092  0.202908  0.000000  1
  In  In6  1  0.013050  0.013687  0.249390  1
  In  In7  1  0.986313  0.986950  0.750610  1
  In  In8  1  0.309011  0.308770  0.049452  1
  In  In9  1  0.691230  0.690989  0.950548  1
  In  In10  1  0.309275  0.309426  0.450208  1
  In  In11  1  0.690574  0.690725  0.549792  1
  In  In12  1  0.502694  0.074954  0.249674  1
  In  In13  1  0.925046  0.497306  0.750326  1
  In  In14  1  0.498066  0.925667  0.750574  1
  In  In15  1  0.074333  0.501934  0.249426  1
