# generated using pymatgen
data_Tb5Lu3(CoAg)2
_symmetry_space_group_name_H-M   'P 1'
_cell_length_a   9.33242154
_cell_length_b   9.33242141
_cell_length_c   9.33242200
_cell_angle_alpha   59.99999792
_cell_angle_beta   59.99999837
_cell_angle_gamma   59.99999847
_symmetry_Int_Tables_number   1
_chemical_formula_structural   Tb5Lu3(CoAg)2
_chemical_formula_sum   'Tb10 Lu6 Co4 Ag4'
_cell_volume   574.73552574
_cell_formula_units_Z   2
loop_
 _symmetry_equiv_pos_site_id
 _symmetry_equiv_pos_as_xyz
  1  'x, y, z'
loop_
 _atom_site_type_symbol
 _atom_site_label
 _atom_site_symmetry_multiplicity
 _atom_site_fract_x
 _atom_site_fract_y
 _atom_site_fract_z
 _atom_site_occupancy
  Tb  Tb0  1  0.938748  0.561251  0.561252  1
  Tb  Tb1  1  0.561251  0.938748  0.938749  1
  Tb  Tb2  1  0.561252  0.938748  0.561252  1
  Tb  Tb3  1  0.938748  0.561251  0.938749  1
  Tb  Tb4  1  0.561252  0.561251  0.938749  1
  Tb  Tb5  1  0.938748  0.938748  0.561252  1
  Tb  Tb6  1  0.350004  0.350004  0.350004  1
  Tb  Tb7  1  0.350004  0.350004  0.949989  1
  Tb  Tb8  1  0.350004  0.949989  0.350004  1
  Tb  Tb9  1  0.949989  0.350004  0.350004  1
  Lu  Lu10  1  0.815142  0.184858  0.184858  1
  Lu  Lu11  1  0.184858  0.815142  0.815142  1
  Lu  Lu12  1  0.184858  0.815142  0.184858  1
  Lu  Lu13  1  0.815142  0.184858  0.815142  1
  Lu  Lu14  1  0.184858  0.184858  0.815142  1
  Lu  Lu15  1  0.815142  0.815142  0.184858  1
  Co  Co16  1  0.140507  0.140507  0.140507  1
  Co  Co17  1  0.140507  0.140507  0.578480  1
  Co  Co18  1  0.140507  0.578480  0.140507  1
  Co  Co19  1  0.578480  0.140507  0.140507  1
  Ag  Ag20  1  0.581118  0.581118  0.581118  1
  Ag  Ag21  1  0.581118  0.581118  0.256647  1
  Ag  Ag22  1  0.581118  0.256647  0.581118  1
  Ag  Ag23  1  0.256647  0.581118  0.581118  1
