# generated using pymatgen
data_TiNb6Co8Si14Mo
_symmetry_space_group_name_H-M   'P 1'
_cell_length_a   9.18284212
_cell_length_b   9.18289325
_cell_length_c   9.18433403
_cell_angle_alpha   94.26531956
_cell_angle_beta   94.16398192
_cell_angle_gamma   148.53870235
_symmetry_Int_Tables_number   1
_chemical_formula_structural   TiNb6Co8Si14Mo
_chemical_formula_sum   'Ti1 Nb6 Co8 Si14 Mo1'
_cell_volume   389.07818871
_cell_formula_units_Z   1
loop_
 _symmetry_equiv_pos_site_id
 _symmetry_equiv_pos_as_xyz
  1  'x, y, z'
loop_
 _atom_site_type_symbol
 _atom_site_label
 _atom_site_symmetry_multiplicity
 _atom_site_fract_x
 _atom_site_fract_y
 _atom_site_fract_z
 _atom_site_occupancy
  Ti  Ti0  1  0.692072  0.500296  0.192366  1
  Nb  Nb1  1  0.867002  0.866699  0.733693  1
  Nb  Nb2  1  0.865673  0.133780  0.999470  1
  Nb  Nb3  1  0.133315  0.865288  0.998590  1
  Nb  Nb4  1  0.500390  0.691739  0.192125  1
  Nb  Nb5  1  0.500805  0.310648  0.811483  1
  Nb  Nb6  1  0.309479  0.499958  0.809411  1
  Co  Co7  1  0.398863  0.899020  0.797699  1
  Co  Co8  1  0.101510  0.601742  0.202893  1
  Co  Co9  1  0.100358  0.899032  0.498776  1
  Co  Co10  1  0.399088  0.600336  0.499576  1
  Co  Co11  1  0.599738  0.398408  0.498778  1
  Co  Co12  1  0.899254  0.100498  0.499576  1
  Co  Co13  1  0.898671  0.398825  0.797688  1
  Co  Co14  1  0.601144  0.101373  0.202869  1
  Si  Si15  1  0.291370  0.291260  0.582619  1
  Si  Si16  1  0.706997  0.706066  0.413070  1
  Si  Si17  1  0.708213  0.293526  0.001681  1
  Si  Si18  1  0.291887  0.708264  0.000224  1
  Si  Si19  1  0.001792  0.294888  0.296724  1
  Si  Si20  1  0.999385  0.701648  0.701115  1
  Si  Si21  1  0.702642  0.999648  0.702210  1
  Si  Si22  1  0.293510  0.001279  0.294742  1
  Si  Si23  1  0.500138  0.906838  0.406933  1
  Si  Si24  1  0.499674  0.094202  0.593761  1
  Si  Si25  1  0.093336  0.499529  0.592968  1
  Si  Si26  1  0.905428  0.499875  0.405364  1
  Si  Si27  1  0.752387  0.751773  0.003891  1
  Si  Si28  1  0.252120  0.251503  0.003894  1
  Mo  Mo29  1  0.133757  0.132061  0.265809  1
