# generated using pymatgen
data_Li2EuZn9
_symmetry_space_group_name_H-M   'P 1'
_cell_length_a   8.49356949
_cell_length_b   8.43879928
_cell_length_c   8.43879950
_cell_angle_alpha   98.96465132
_cell_angle_beta   99.61816181
_cell_angle_gamma   132.19454629
_symmetry_Int_Tables_number   1
_chemical_formula_structural   Li2EuZn9
_chemical_formula_sum   'Li4 Eu2 Zn18'
_cell_volume   410.99697726
_cell_formula_units_Z   2
loop_
 _symmetry_equiv_pos_site_id
 _symmetry_equiv_pos_as_xyz
  1  'x, y, z'
loop_
 _atom_site_type_symbol
 _atom_site_label
 _atom_site_symmetry_multiplicity
 _atom_site_fract_x
 _atom_site_fract_y
 _atom_site_fract_z
 _atom_site_occupancy
  Li  Li0  1  0.745778  0.247045  0.498733  1
  Li  Li1  1  0.506766  0.504345  0.002421  1
  Li  Li2  1  0.184626  0.518341  0.081105  1
  Li  Li3  1  0.184626  0.103520  0.666284  1
  Eu  Eu4  1  0.995017  0.992946  0.002070  1
  Eu  Eu5  1  0.248145  0.748172  0.499973  1
  Zn  Zn6  1  0.120814  0.376209  0.744606  1
  Zn  Zn7  1  0.622582  0.873681  0.251422  1
  Zn  Zn8  1  0.622582  0.371160  0.748901  1
  Zn  Zn9  1  0.625721  0.376979  0.248742  1
  Zn  Zn10  1  0.763531  0.934608  0.587204  1
  Zn  Zn11  1  0.763531  0.176328  0.828924  1
  Zn  Zn12  1  0.431901  0.515912  0.330401  1
  Zn  Zn13  1  0.431901  0.101500  0.915989  1
  Zn  Zn14  1  0.352615  0.936068  0.172675  1
  Zn  Zn15  1  0.352615  0.179939  0.416546  1
  Zn  Zn16  1  0.065034  0.236620  0.413575  1
  Zn  Zn17  1  0.065034  0.651459  0.828414  1
  Zn  Zn18  1  0.484408  0.811131  0.917124  1
  Zn  Zn19  1  0.484408  0.567284  0.673277  1
  Zn  Zn20  1  0.821049  0.236126  0.170684  1
  Zn  Zn21  1  0.821049  0.650365  0.584923  1
  Zn  Zn22  1  0.903134  0.817611  0.330483  1
  Zn  Zn23  1  0.903134  0.572651  0.085523  1
