# generated using pymatgen
data_VZnNiP3PbO12
_symmetry_space_group_name_H-M   'P 1'
_cell_length_a   9.20936040
_cell_length_b   9.20935927
_cell_length_c   9.20935900
_cell_angle_alpha   137.43717844
_cell_angle_beta   110.09370653
_cell_angle_gamma   85.40610872
_symmetry_Int_Tables_number   1
_chemical_formula_structural   VZnNiP3PbO12
_chemical_formula_sum   'V2 Zn2 Ni2 P6 Pb2 O24'
_cell_volume   477.41160610
_cell_formula_units_Z   2
loop_
 _symmetry_equiv_pos_site_id
 _symmetry_equiv_pos_as_xyz
  1  'x, y, z'
loop_
 _atom_site_type_symbol
 _atom_site_label
 _atom_site_symmetry_multiplicity
 _atom_site_fract_x
 _atom_site_fract_y
 _atom_site_fract_z
 _atom_site_occupancy
  V  V0  1  0.499576  0.000000  0.499576  1
  V  V1  1  0.000424  0.500000  0.500424  1
  Zn  Zn2  1  0.115048  0.615048  0.000000  1
  Zn  Zn3  1  0.384952  0.384952  0.500000  1
  Ni  Ni4  1  0.618335  0.618335  0.500000  1
  Ni  Ni5  1  0.881665  0.381665  0.000000  1
  P  P6  1  0.750000  0.343099  0.593099  1
  P  P7  1  0.250000  0.656901  0.406901  1
  P  P8  1  0.821672  0.821672  0.500000  1
  P  P9  1  0.678328  0.178328  0.000000  1
  P  P10  1  0.322901  0.822901  0.000000  1
  P  P11  1  0.177099  0.177099  0.500000  1
  Pb  Pb12  1  0.750000  0.853939  0.103939  1
  Pb  Pb13  1  0.250000  0.146061  0.896061  1
  O  O14  1  0.654265  0.117029  0.457308  1
  O  O15  1  0.340280  0.882971  0.537235  1
  O  O16  1  0.159720  0.696956  0.542692  1
  O  O17  1  0.845735  0.303044  0.462765  1
  O  O18  1  0.633993  0.487898  0.616674  1
  O  O19  1  0.128776  0.512102  0.146095  1
  O  O20  1  0.371224  0.517320  0.383326  1
  O  O21  1  0.866007  0.482680  0.853905  1
  O  O22  1  0.922025  0.066589  0.720518  1
  O  O23  1  0.653928  0.933411  0.855435  1
  O  O24  1  0.425800  0.704673  0.858965  1
  O  O25  1  0.154292  0.295327  0.721127  1
  O  O26  1  0.074200  0.933166  0.278873  1
  O  O27  1  0.345708  0.066834  0.141035  1
  O  O28  1  0.577975  0.298492  0.144565  1
  O  O29  1  0.846072  0.701508  0.279482  1
  O  O30  1  0.634267  0.791046  0.435367  1
  O  O31  1  0.644319  0.208954  0.843221  1
  O  O32  1  0.135894  0.699194  0.842148  1
  O  O33  1  0.142954  0.300806  0.436700  1
  O  O34  1  0.364106  0.206255  0.563300  1
  O  O35  1  0.357046  0.793745  0.157852  1
  O  O36  1  0.865733  0.301098  0.156779  1
  O  O37  1  0.855681  0.698902  0.564633  1
