# generated using pymatgen
data_Ba2HgAs3Pt2
_symmetry_space_group_name_H-M   'P 1'
_cell_length_a   9.53920109
_cell_length_b   9.53920079
_cell_length_c   4.69577000
_cell_angle_alpha   90.00000000
_cell_angle_beta   90.00000000
_cell_angle_gamma   151.68287338
_symmetry_Int_Tables_number   1
_chemical_formula_structural   Ba2HgAs3Pt2
_chemical_formula_sum   'Ba2 Hg1 As3 Pt2'
_cell_volume   202.68937174
_cell_formula_units_Z   1
loop_
 _symmetry_equiv_pos_site_id
 _symmetry_equiv_pos_as_xyz
  1  'x, y, z'
loop_
 _atom_site_type_symbol
 _atom_site_label
 _atom_site_symmetry_multiplicity
 _atom_site_fract_x
 _atom_site_fract_y
 _atom_site_fract_z
 _atom_site_occupancy
  Ba  Ba0  1  0.386999  0.613001  0.250000  1
  Ba  Ba1  1  0.613698  0.386302  0.750000  1
  Hg  Hg2  1  0.040605  0.959395  0.250000  1
  As  As3  1  0.951929  0.048071  0.750000  1
  As  As4  1  0.248577  0.751423  0.750000  1
  As  As5  1  0.752996  0.247004  0.250000  1
  Pt  Pt6  1  0.811641  0.188359  0.750000  1
  Pt  Pt7  1  0.193555  0.806445  0.250000  1
