# generated using pymatgen
data_Cs6Na4TiVP6
_symmetry_space_group_name_H-M   'P 1'
_cell_length_a   10.52935656
_cell_length_b   10.52935758
_cell_length_c   16.53660500
_cell_angle_alpha   90.00000000
_cell_angle_beta   90.00000000
_cell_angle_gamma   142.30501000
_symmetry_Int_Tables_number   1
_chemical_formula_structural   Cs6Na4TiVP6
_chemical_formula_sum   'Cs12 Na8 Ti2 V2 P12'
_cell_volume   1121.02832634
_cell_formula_units_Z   2
loop_
 _symmetry_equiv_pos_site_id
 _symmetry_equiv_pos_as_xyz
  1  'x, y, z'
loop_
 _atom_site_type_symbol
 _atom_site_label
 _atom_site_symmetry_multiplicity
 _atom_site_fract_x
 _atom_site_fract_y
 _atom_site_fract_z
 _atom_site_occupancy
  Cs  Cs0  1  0.943683  0.609195  0.827087  1
  Cs  Cs1  1  0.556317  0.890805  0.327087  1
  Cs  Cs2  1  0.390805  0.056317  0.172913  1
  Cs  Cs3  1  0.056903  0.391053  0.172660  1
  Cs  Cs4  1  0.891053  0.556903  0.327340  1
  Cs  Cs5  1  0.443097  0.108947  0.672660  1
  Cs  Cs6  1  0.608947  0.943097  0.827340  1
  Cs  Cs7  1  0.277194  0.276557  0.316728  1
  Cs  Cs8  1  0.776557  0.777194  0.183272  1
  Cs  Cs9  1  0.222806  0.223443  0.816728  1
  Cs  Cs10  1  0.723443  0.722806  0.683272  1
  Cs  Cs11  1  0.109195  0.443683  0.672913  1
  Na  Na12  1  0.920897  0.079103  0.000000  1
  Na  Na13  1  0.579103  0.420897  0.500000  1
  Na  Na14  1  0.078434  0.921566  0.000000  1
  Na  Na15  1  0.421566  0.578434  0.500000  1
  Na  Na16  1  0.755608  0.244392  0.000000  1
  Na  Na17  1  0.744392  0.255608  0.500000  1
  Na  Na18  1  0.245770  0.754230  0.000000  1
  Na  Na19  1  0.254230  0.745770  0.500000  1
  Ti  Ti20  1  0.417587  0.582413  0.000000  1
  Ti  Ti21  1  0.082413  0.917587  0.500000  1
  V  V22  1  0.582951  0.417049  0.000000  1
  V  V23  1  0.917049  0.082951  0.500000  1
  P  P24  1  0.846397  0.547472  0.082587  1
  P  P25  1  0.452528  0.153603  0.917413  1
  P  P26  1  0.653603  0.952528  0.582587  1
  P  P27  1  0.946896  0.641431  0.586796  1
  P  P28  1  0.141431  0.446896  0.913204  1
  P  P29  1  0.553104  0.858569  0.086796  1
  P  P30  1  0.358569  0.053104  0.413204  1
  P  P31  1  0.182455  0.187609  0.577128  1
  P  P32  1  0.687609  0.682455  0.922872  1
  P  P33  1  0.317545  0.312391  0.077128  1
  P  P34  1  0.047472  0.346397  0.417413  1
  P  P35  1  0.812391  0.817545  0.422872  1
