# generated using pymatgen
data_LaDy(PdO2)4
_symmetry_space_group_name_H-M   'P 1'
_cell_length_a   6.60923455
_cell_length_b   6.60923432
_cell_length_c   6.60923444
_cell_angle_alpha   126.92824631
_cell_angle_beta   126.92825856
_cell_angle_gamma   78.36776763
_symmetry_Int_Tables_number   1
_chemical_formula_structural   LaDy(PdO2)4
_chemical_formula_sum   'La1 Dy1 Pd4 O8'
_cell_volume   178.66045941
_cell_formula_units_Z   1
loop_
 _symmetry_equiv_pos_site_id
 _symmetry_equiv_pos_as_xyz
  1  'x, y, z'
loop_
 _atom_site_type_symbol
 _atom_site_label
 _atom_site_symmetry_multiplicity
 _atom_site_fract_x
 _atom_site_fract_y
 _atom_site_fract_z
 _atom_site_occupancy
  La  La0  1  0.000000  0.000000  0.000000  1
  Dy  Dy1  1  0.750000  0.250000  0.500000  1
  Pd  Pd2  1  0.379300  0.622597  0.252367  1
  Pd  Pd3  1  0.873067  0.620700  0.243297  1
  Pd  Pd4  1  0.377403  0.629770  0.756703  1
  Pd  Pd5  1  0.370230  0.126933  0.747633  1
  O  O6  1  0.600100  0.965156  0.968317  1
  O  O7  1  0.409080  0.856707  0.160940  1
  O  O8  1  0.695767  0.248138  0.839060  1
  O  O9  1  0.996838  0.631783  0.031683  1
  O  O10  1  0.143293  0.304233  0.552372  1
  O  O11  1  0.368217  0.399900  0.365056  1
  O  O12  1  0.751862  0.590920  0.447628  1
  O  O13  1  0.034844  0.003162  0.634944  1
