# generated using pymatgen
data_Dy7ErTlCd3Au8
_symmetry_space_group_name_H-M   'P 1'
_cell_length_a   8.02613801
_cell_length_b   8.02157008
_cell_length_c   7.33988700
_cell_angle_alpha   90.02763516
_cell_angle_beta   90.00231292
_cell_angle_gamma   89.91345773
_symmetry_Int_Tables_number   1
_chemical_formula_structural   Dy7ErTlCd3Au8
_chemical_formula_sum   'Dy7 Er1 Tl1 Cd3 Au8'
_cell_volume   472.55768773
_cell_formula_units_Z   1
loop_
 _symmetry_equiv_pos_site_id
 _symmetry_equiv_pos_as_xyz
  1  'x, y, z'
loop_
 _atom_site_type_symbol
 _atom_site_label
 _atom_site_symmetry_multiplicity
 _atom_site_fract_x
 _atom_site_fract_y
 _atom_site_fract_z
 _atom_site_occupancy
  Dy  Dy0  1  0.168919  0.834693  0.500651  1
  Dy  Dy1  1  0.337407  0.329363  0.999076  1
  Dy  Dy2  1  0.667224  0.666492  0.999122  1
  Dy  Dy3  1  0.671532  0.676129  0.500809  1
  Dy  Dy4  1  0.325810  0.325471  0.500762  1
  Dy  Dy5  1  0.174464  0.828825  0.999199  1
  Dy  Dy6  1  0.823083  0.173172  0.999268  1
  Er  Er7  1  0.833657  0.164532  0.501084  1
  Tl  Tl8  1  0.999966  0.500341  0.249932  1
  Cd  Cd9  1  0.499743  0.999975  0.249265  1
  Cd  Cd10  1  0.000051  0.500323  0.749926  1
  Cd  Cd11  1  0.499929  0.000024  0.750789  1
  Au  Au12  1  0.625875  0.367331  0.262184  1
  Au  Au13  1  0.375125  0.630983  0.254751  1
  Au  Au14  1  0.126531  0.131225  0.757525  1
  Au  Au15  1  0.871661  0.870561  0.756781  1
  Au  Au16  1  0.370256  0.627710  0.744161  1
  Au  Au17  1  0.630679  0.370961  0.737787  1
  Au  Au18  1  0.867734  0.875910  0.244055  1
  Au  Au19  1  0.130351  0.125977  0.242871  1
