# generated using pymatgen
data_Hf18FeRe5PW3
_symmetry_space_group_name_H-M   'P 1'
_cell_length_a   8.53115900
_cell_length_b   8.60119215
_cell_length_c   8.61652284
_cell_angle_alpha   119.93976823
_cell_angle_beta   90.00000000
_cell_angle_gamma   90.00000000
_symmetry_Int_Tables_number   1
_chemical_formula_structural   Hf18FeRe5PW3
_chemical_formula_sum   'Hf18 Fe1 Re5 P1 W3'
_cell_volume   547.88906190
_cell_formula_units_Z   1
loop_
 _symmetry_equiv_pos_site_id
 _symmetry_equiv_pos_as_xyz
  1  'x, y, z'
loop_
 _atom_site_type_symbol
 _atom_site_label
 _atom_site_symmetry_multiplicity
 _atom_site_fract_x
 _atom_site_fract_y
 _atom_site_fract_z
 _atom_site_occupancy
  Hf  Hf0  1  0.548985  0.804305  0.608607  1
  Hf  Hf1  1  0.548386  0.803962  0.195780  1
  Hf  Hf2  1  0.548393  0.391772  0.195755  1
  Hf  Hf3  1  0.442214  0.201766  0.403529  1
  Hf  Hf4  1  0.442287  0.201737  0.798244  1
  Hf  Hf5  1  0.442316  0.596552  0.798263  1
  Hf  Hf6  1  0.057786  0.201766  0.403529  1
  Hf  Hf7  1  0.057713  0.201737  0.798244  1
  Hf  Hf8  1  0.057684  0.596552  0.798263  1
  Hf  Hf9  1  0.951015  0.804305  0.608607  1
  Hf  Hf10  1  0.951614  0.803962  0.195780  1
  Hf  Hf11  1  0.951607  0.391772  0.195755  1
  Hf  Hf12  1  0.750000  0.459621  0.919256  1
  Hf  Hf13  1  0.750000  0.460865  0.540771  1
  Hf  Hf14  1  0.750000  0.079918  0.540787  1
  Hf  Hf15  1  0.250000  0.539858  0.079702  1
  Hf  Hf16  1  0.250000  0.540527  0.460155  1
  Hf  Hf17  1  0.250000  0.919594  0.460132  1
  Fe  Fe18  1  0.250000  0.334013  0.667889  1
  Re  Re19  1  0.750000  0.111563  0.888295  1
  Re  Re20  1  0.750000  0.776724  0.888324  1
  Re  Re21  1  0.250000  0.888586  0.777151  1
  Re  Re22  1  0.250000  0.888185  0.111383  1
  Re  Re23  1  0.250000  0.223197  0.111368  1
  P  P24  1  0.750000  0.667073  0.334199  1
  W  W25  1  0.750000  0.110971  0.221993  1
  W  W26  1  0.499526  0.999558  0.999119  1
  W  W27  1  0.000474  0.999558  0.999119  1
