# generated using pymatgen
data_LaPrGePtI2
_symmetry_space_group_name_H-M   'P 1'
_cell_length_a   4.44061800
_cell_length_b   4.44061664
_cell_length_c   11.79499400
_cell_angle_alpha   90.00000000
_cell_angle_beta   90.00000000
_cell_angle_gamma   119.99999525
_symmetry_Int_Tables_number   1
_chemical_formula_structural   LaPrGePtI2
_chemical_formula_sum   'La1 Pr1 Ge1 Pt1 I2'
_cell_volume   201.42578899
_cell_formula_units_Z   1
loop_
 _symmetry_equiv_pos_site_id
 _symmetry_equiv_pos_as_xyz
  1  'x, y, z'
loop_
 _atom_site_type_symbol
 _atom_site_label
 _atom_site_symmetry_multiplicity
 _atom_site_fract_x
 _atom_site_fract_y
 _atom_site_fract_z
 _atom_site_occupancy
  La  La0  1  0.000000  0.000000  0.841495  1
  Pr  Pr1  1  0.000000  0.000000  0.160639  1
  Ge  Ge2  1  0.666667  0.333333  0.012647  1
  Pt  Pt3  1  0.333333  0.666667  0.992329  1
  I  I4  1  0.666667  0.333333  0.656773  1
  I  I5  1  0.333333  0.666667  0.336117  1
