# generated using pymatgen
data_Sr2SbWO7
_symmetry_space_group_name_H-M   'P 1'
_cell_length_a   7.56444809
_cell_length_b   7.56444782
_cell_length_c   7.56444795
_cell_angle_alpha   119.76801242
_cell_angle_beta   118.37767663
_cell_angle_gamma   91.61762277
_symmetry_Int_Tables_number   1
_chemical_formula_structural   Sr2SbWO7
_chemical_formula_sum   'Sr4 Sb2 W2 O14'
_cell_volume   310.16741619
_cell_formula_units_Z   2
loop_
 _symmetry_equiv_pos_site_id
 _symmetry_equiv_pos_as_xyz
  1  'x, y, z'
loop_
 _atom_site_type_symbol
 _atom_site_label
 _atom_site_symmetry_multiplicity
 _atom_site_fract_x
 _atom_site_fract_y
 _atom_site_fract_z
 _atom_site_occupancy
  Sr  Sr0  1  0.500000  0.500000  0.500000  1
  Sr  Sr1  1  0.500000  0.000000  0.000000  1
  Sr  Sr2  1  0.500000  0.500000  0.000000  1
  Sr  Sr3  1  0.000000  0.000000  0.000000  1
  Sb  Sb4  1  0.000000  0.500000  0.000000  1
  Sb  Sb5  1  0.000000  0.000000  0.500000  1
  W  W6  1  0.000000  0.500000  0.500000  1
  W  W7  1  0.500000  0.000000  0.500000  1
  O  O8  1  0.951434  0.587926  0.774789  1
  O  O9  1  0.048566  0.823355  0.636493  1
  O  O10  1  0.686863  0.912074  0.363507  1
  O  O11  1  0.313137  0.676645  0.225211  1
  O  O12  1  0.048566  0.412074  0.225211  1
  O  O13  1  0.951434  0.176645  0.363507  1
  O  O14  1  0.313137  0.087926  0.636493  1
  O  O15  1  0.686863  0.323355  0.774789  1
  O  O16  1  0.096969  0.250000  0.846969  1
  O  O17  1  0.903031  0.750000  0.153031  1
  O  O18  1  0.691313  0.407331  0.283982  1
  O  O19  1  0.308687  0.592669  0.716018  1
  O  O20  1  0.376651  0.092669  0.283982  1
  O  O21  1  0.623349  0.907331  0.716018  1
