# generated using pymatgen
data_DyEr5Tm10(CdIr)4
_symmetry_space_group_name_H-M   'P 1'
_cell_length_a   9.53535058
_cell_length_b   9.52962518
_cell_length_c   9.52962622
_cell_angle_alpha   59.94681845
_cell_angle_beta   59.98012732
_cell_angle_gamma   59.98012725
_symmetry_Int_Tables_number   1
_chemical_formula_structural   DyEr5Tm10(CdIr)4
_chemical_formula_sum   'Dy1 Er5 Tm10 Cd4 Ir4'
_cell_volume   611.88257469
_cell_formula_units_Z   1
loop_
 _symmetry_equiv_pos_site_id
 _symmetry_equiv_pos_as_xyz
  1  'x, y, z'
loop_
 _atom_site_type_symbol
 _atom_site_label
 _atom_site_symmetry_multiplicity
 _atom_site_fract_x
 _atom_site_fract_y
 _atom_site_fract_z
 _atom_site_occupancy
  Dy  Dy0  1  0.187625  0.812375  0.812375  1
  Er  Er1  1  0.812227  0.187773  0.187773  1
  Er  Er2  1  0.811978  0.188250  0.812211  1
  Er  Er3  1  0.187561  0.812211  0.188250  1
  Er  Er4  1  0.811978  0.812211  0.188250  1
  Er  Er5  1  0.187561  0.188250  0.812211  1
  Tm  Tm6  1  0.598912  0.599053  0.599053  1
  Tm  Tm7  1  0.599093  0.599339  0.202475  1
  Tm  Tm8  1  0.599093  0.202475  0.599339  1
  Tm  Tm9  1  0.202981  0.599053  0.599053  1
  Tm  Tm10  1  0.060707  0.439293  0.439293  1
  Tm  Tm11  1  0.439204  0.060796  0.060796  1
  Tm  Tm12  1  0.439612  0.060505  0.438876  1
  Tm  Tm13  1  0.061007  0.438876  0.060505  1
  Tm  Tm14  1  0.439612  0.438876  0.060505  1
  Tm  Tm15  1  0.061007  0.060505  0.438876  1
  Cd  Cd16  1  0.830823  0.830968  0.830968  1
  Cd  Cd17  1  0.831208  0.831078  0.506503  1
  Cd  Cd18  1  0.831208  0.506503  0.831078  1
  Cd  Cd19  1  0.507239  0.830968  0.830968  1
  Ir  Ir20  1  0.391514  0.392003  0.392003  1
  Ir  Ir21  1  0.391684  0.391850  0.824782  1
  Ir  Ir22  1  0.391684  0.824782  0.391850  1
  Ir  Ir23  1  0.824479  0.392003  0.392003  1
