# generated using pymatgen
data_Tb4Nd2Ho4TlIn7Pd4
_symmetry_space_group_name_H-M   'P 1'
_cell_length_a   3.64922100
_cell_length_b   8.21515000
_cell_length_c   18.43088400
_cell_angle_alpha   90.00000000
_cell_angle_beta   90.00000000
_cell_angle_gamma   90.00000000
_symmetry_Int_Tables_number   1
_chemical_formula_structural   Tb4Nd2Ho4TlIn7Pd4
_chemical_formula_sum   'Tb4 Nd2 Ho4 Tl1 In7 Pd4'
_cell_volume   552.53758961
_cell_formula_units_Z   1
loop_
 _symmetry_equiv_pos_site_id
 _symmetry_equiv_pos_as_xyz
  1  'x, y, z'
loop_
 _atom_site_type_symbol
 _atom_site_label
 _atom_site_symmetry_multiplicity
 _atom_site_fract_x
 _atom_site_fract_y
 _atom_site_fract_z
 _atom_site_occupancy
  Tb  Tb0  1  0.000000  0.739017  0.282112  1
  Tb  Tb1  1  0.000000  0.261401  0.717754  1
  Tb  Tb2  1  0.000000  0.761379  0.781604  1
  Tb  Tb3  1  0.000000  0.238550  0.218206  1
  Nd  Nd4  1  0.000000  0.499910  0.499987  1
  Nd  Nd5  1  0.000000  0.001173  0.000225  1
  Ho  Ho6  1  0.000000  0.619336  0.085056  1
  Ho  Ho7  1  0.000000  0.379529  0.915634  1
  Ho  Ho8  1  0.000000  0.880074  0.584101  1
  Ho  Ho9  1  0.000000  0.119684  0.415887  1
  Tl  Tl10  1  0.500000  0.701337  0.932593  1
  In  In11  1  0.500000  0.299015  0.067991  1
  In  In12  1  0.500000  0.799256  0.432213  1
  In  In13  1  0.500000  0.200507  0.567852  1
  In  In14  1  0.500000  0.583747  0.652719  1
  In  In15  1  0.500000  0.416617  0.347196  1
  In  In16  1  0.500000  0.917029  0.152895  1
  In  In17  1  0.500000  0.085397  0.846873  1
  Pd  Pd18  1  0.500000  0.524272  0.195183  1
  Pd  Pd19  1  0.500000  0.473375  0.803835  1
  Pd  Pd20  1  0.500000  0.975218  0.695222  1
  Pd  Pd21  1  0.500000  0.024178  0.304862  1
