# generated using pymatgen
data_Tb2SmCo8TcP6
_symmetry_space_group_name_H-M   'P 1'
_cell_length_a   3.73222900
_cell_length_b   10.55933300
_cell_length_c   12.28122000
_cell_angle_alpha   90.00000000
_cell_angle_beta   90.00000000
_cell_angle_gamma   90.00000000
_symmetry_Int_Tables_number   1
_chemical_formula_structural   Tb2SmCo8TcP6
_chemical_formula_sum   'Tb4 Sm2 Co16 Tc2 P12'
_cell_volume   484.00102381
_cell_formula_units_Z   2
loop_
 _symmetry_equiv_pos_site_id
 _symmetry_equiv_pos_as_xyz
  1  'x, y, z'
loop_
 _atom_site_type_symbol
 _atom_site_label
 _atom_site_symmetry_multiplicity
 _atom_site_fract_x
 _atom_site_fract_y
 _atom_site_fract_z
 _atom_site_occupancy
  Tb  Tb0  1  0.500000  0.817419  0.205405  1
  Tb  Tb1  1  0.500000  0.182581  0.205405  1
  Tb  Tb2  1  0.000000  0.682581  0.794595  1
  Tb  Tb3  1  0.000000  0.317419  0.794595  1
  Sm  Sm4  1  0.000000  0.500000  0.523918  1
  Sm  Sm5  1  0.500000  0.000000  0.476082  1
  Co  Co6  1  0.500000  0.500000  0.704546  1
  Co  Co7  1  0.000000  0.000000  0.295454  1
  Co  Co8  1  0.000000  0.500000  0.987329  1
  Co  Co9  1  0.500000  0.000000  0.012671  1
  Co  Co10  1  0.500000  0.332109  0.990372  1
  Co  Co11  1  0.500000  0.667891  0.990372  1
  Co  Co12  1  0.000000  0.167891  0.009628  1
  Co  Co13  1  0.000000  0.832109  0.009628  1
  Co  Co14  1  0.500000  0.296266  0.430308  1
  Co  Co15  1  0.500000  0.703734  0.430308  1
  Co  Co16  1  0.000000  0.203734  0.569692  1
  Co  Co17  1  0.000000  0.796266  0.569692  1
  Co  Co18  1  0.500000  0.879660  0.709232  1
  Co  Co19  1  0.500000  0.120340  0.709232  1
  Co  Co20  1  0.000000  0.620340  0.290768  1
  Co  Co21  1  0.000000  0.379660  0.290768  1
  Tc  Tc22  1  0.500000  0.500000  0.155465  1
  Tc  Tc23  1  0.000000  0.000000  0.844535  1
  P  P24  1  0.500000  0.500000  0.882406  1
  P  P25  1  0.000000  0.000000  0.117594  1
  P  P26  1  0.500000  0.500000  0.346152  1
  P  P27  1  0.000000  0.000000  0.653848  1
  P  P28  1  0.500000  0.309448  0.616506  1
  P  P29  1  0.500000  0.690552  0.616506  1
  P  P30  1  0.000000  0.190552  0.383494  1
  P  P31  1  0.000000  0.809448  0.383494  1
  P  P32  1  0.500000  0.846436  0.893497  1
  P  P33  1  0.500000  0.153564  0.893497  1
  P  P34  1  0.000000  0.653564  0.106503  1
  P  P35  1  0.000000  0.346436  0.106503  1
