# generated using pymatgen
data_Tm3Zn3NiGe2
_symmetry_space_group_name_H-M   'P 1'
_cell_length_a   6.74878900
_cell_length_b   6.74878863
_cell_length_c   4.19814100
_cell_angle_alpha   90.00000000
_cell_angle_beta   90.00000000
_cell_angle_gamma   120.00000673
_symmetry_Int_Tables_number   1
_chemical_formula_structural   Tm3Zn3NiGe2
_chemical_formula_sum   'Tm3 Zn3 Ni1 Ge2'
_cell_volume   165.59198016
_cell_formula_units_Z   1
loop_
 _symmetry_equiv_pos_site_id
 _symmetry_equiv_pos_as_xyz
  1  'x, y, z'
loop_
 _atom_site_type_symbol
 _atom_site_label
 _atom_site_symmetry_multiplicity
 _atom_site_fract_x
 _atom_site_fract_y
 _atom_site_fract_z
 _atom_site_occupancy
  Tm  Tm0  1  0.405166  0.000000  0.000000  1
  Tm  Tm1  1  0.000000  0.405167  0.000000  1
  Tm  Tm2  1  0.594834  0.594834  0.000000  1
  Zn  Zn3  1  0.768611  0.000000  0.499999  1
  Zn  Zn4  1  0.231390  0.231390  0.499999  1
  Zn  Zn5  1  0.000000  0.768611  0.499999  1
  Ni  Ni6  1  0.000000  0.000000  0.000000  1
  Ge  Ge7  1  0.666667  0.333333  0.499999  1
  Ge  Ge8  1  0.333333  0.666666  0.499999  1
