# generated using pymatgen
data_Lu3As2Se
_symmetry_space_group_name_H-M   'P 1'
_cell_length_a   6.96052049
_cell_length_b   6.96052129
_cell_length_c   6.96052146
_cell_angle_alpha   146.38173842
_cell_angle_beta   131.89028288
_cell_angle_gamma   59.97015147
_symmetry_Int_Tables_number   1
_chemical_formula_structural   Lu3As2Se
_chemical_formula_sum   'Lu3 As2 Se1'
_cell_volume   137.72158569
_cell_formula_units_Z   1
loop_
 _symmetry_equiv_pos_site_id
 _symmetry_equiv_pos_as_xyz
  1  'x, y, z'
loop_
 _atom_site_type_symbol
 _atom_site_label
 _atom_site_symmetry_multiplicity
 _atom_site_fract_x
 _atom_site_fract_y
 _atom_site_fract_z
 _atom_site_occupancy
  Lu  Lu0  1  0.000000  0.000000  0.000000  1
  Lu  Lu1  1  0.672983  0.672983  0.000000  1
  Lu  Lu2  1  0.327017  0.327017  0.000000  1
  As  As3  1  0.165275  0.665275  0.500000  1
  As  As4  1  0.834725  0.334725  0.500000  1
  Se  Se5  1  0.500000  0.000000  0.500000  1
