# generated using pymatgen
data_La5SmAl24(OsPt)4
_symmetry_space_group_name_H-M   'P 1'
_cell_length_a   9.01349823
_cell_length_b   8.95733321
_cell_length_c   9.69325300
_cell_angle_alpha   89.99998549
_cell_angle_beta   90.00030043
_cell_angle_gamma   119.76391049
_symmetry_Int_Tables_number   1
_chemical_formula_structural   La5SmAl24(OsPt)4
_chemical_formula_sum   'La5 Sm1 Al24 Os4 Pt4'
_cell_volume   679.36092547
_cell_formula_units_Z   1
loop_
 _symmetry_equiv_pos_site_id
 _symmetry_equiv_pos_as_xyz
  1  'x, y, z'
loop_
 _atom_site_type_symbol
 _atom_site_label
 _atom_site_symmetry_multiplicity
 _atom_site_fract_x
 _atom_site_fract_y
 _atom_site_fract_z
 _atom_site_occupancy
  La  La0  1  0.186526  0.378630  0.249989  1
  La  La1  1  0.813295  0.620935  0.750003  1
  La  La2  1  0.622477  0.810180  0.250008  1
  La  La3  1  0.378062  0.189559  0.749993  1
  La  La4  1  0.186662  0.805675  0.249976  1
  Sm  Sm5  1  0.812503  0.195914  0.749996  1
  Al  Al6  1  0.328841  0.663612  0.022832  1
  Al  Al7  1  0.672379  0.334938  0.973637  1
  Al  Al8  1  0.672374  0.334943  0.526352  1
  Al  Al9  1  0.328825  0.663614  0.477170  1
  Al  Al10  1  0.156834  0.326257  0.575834  1
  Al  Al11  1  0.841018  0.672526  0.425457  1
  Al  Al12  1  0.676703  0.839650  0.574998  1
  Al  Al13  1  0.841005  0.672521  0.074544  1
  Al  Al14  1  0.324148  0.162424  0.426137  1
  Al  Al15  1  0.156836  0.326253  0.924157  1
  Al  Al16  1  0.159054  0.831923  0.576765  1
  Al  Al17  1  0.324155  0.162429  0.073851  1
  Al  Al18  1  0.840859  0.168119  0.425731  1
  Al  Al19  1  0.676700  0.839651  0.925016  1
  Al  Al20  1  0.840850  0.168110  0.074265  1
  Al  Al21  1  0.159056  0.831922  0.923217  1
  Al  Al22  1  0.566675  0.130064  0.250006  1
  Al  Al23  1  0.436165  0.872217  0.750004  1
  Al  Al24  1  0.871738  0.434736  0.250001  1
  Al  Al25  1  0.126175  0.562586  0.750003  1
  Al  Al26  1  0.565076  0.435292  0.250004  1
  Al  Al27  1  0.434833  0.564775  0.750003  1
  Al  Al28  1  0.995234  0.997007  0.250010  1
  Al  Al29  1  0.002559  0.004692  0.750008  1
  Os  Os30  1  0.999889  0.499435  0.999609  1
  Os  Os31  1  0.999889  0.499453  0.500397  1
  Os  Os32  1  0.999705  0.000253  0.999798  1
  Os  Os33  1  0.999708  0.000250  0.500210  1
  Pt  Pt34  1  0.501005  0.000283  0.999632  1
  Pt  Pt35  1  0.501006  0.000283  0.500382  1
  Pt  Pt36  1  0.500592  0.499440  0.999472  1
  Pt  Pt37  1  0.500587  0.499447  0.500535  1
