# generated using pymatgen
data_Pr2Y2Ir3RhO14
_symmetry_space_group_name_H-M   'P 1'
_cell_length_a   7.34137965
_cell_length_b   7.34137968
_cell_length_c   7.29629498
_cell_angle_alpha   60.20023990
_cell_angle_beta   60.20023852
_cell_angle_gamma   60.45781321
_symmetry_Int_Tables_number   1
_chemical_formula_structural   Pr2Y2Ir3RhO14
_chemical_formula_sum   'Pr2 Y2 Ir3 Rh1 O14'
_cell_volume   279.85935037
_cell_formula_units_Z   1
loop_
 _symmetry_equiv_pos_site_id
 _symmetry_equiv_pos_as_xyz
  1  'x, y, z'
loop_
 _atom_site_type_symbol
 _atom_site_label
 _atom_site_symmetry_multiplicity
 _atom_site_fract_x
 _atom_site_fract_y
 _atom_site_fract_z
 _atom_site_occupancy
  Pr  Pr0  1  0.625000  0.125000  0.125000  1
  Pr  Pr1  1  0.125000  0.625000  0.125000  1
  Y  Y2  1  0.125000  0.125000  0.625000  1
  Y  Y3  1  0.125000  0.125000  0.125000  1
  Ir  Ir4  1  0.125000  0.625000  0.625000  1
  Ir  Ir5  1  0.625000  0.125000  0.625000  1
  Ir  Ir6  1  0.625000  0.625000  0.125000  1
  Rh  Rh7  1  0.625000  0.625000  0.625000  1
  O  O8  1  0.710674  0.710674  0.286384  1
  O  O9  1  0.293551  0.293551  0.710892  1
  O  O10  1  0.719001  0.286003  0.702353  1
  O  O11  1  0.292384  0.718823  0.293243  1
  O  O12  1  0.286003  0.719001  0.702353  1
  O  O13  1  0.718823  0.292384  0.293243  1
  O  O14  1  0.539326  0.539326  0.963616  1
  O  O15  1  0.956449  0.956449  0.539108  1
  O  O16  1  0.530999  0.963997  0.547647  1
  O  O17  1  0.957616  0.531177  0.956757  1
  O  O18  1  0.963997  0.530999  0.547647  1
  O  O19  1  0.531177  0.957616  0.956757  1
  O  O20  1  0.241583  0.241583  0.257665  1
  O  O21  1  0.008417  0.008417  0.992335  1
