# generated using pymatgen
data_Er4Ga6Ir6Pt
_symmetry_space_group_name_H-M   'P 1'
_cell_length_a   7.28992353
_cell_length_b   7.28992241
_cell_length_c   7.28992400
_cell_angle_alpha   109.47121949
_cell_angle_beta   109.47121637
_cell_angle_gamma   109.47122015
_symmetry_Int_Tables_number   1
_chemical_formula_structural   Er4Ga6Ir6Pt
_chemical_formula_sum   'Er4 Ga6 Ir6 Pt1'
_cell_volume   298.22704159
_cell_formula_units_Z   1
loop_
 _symmetry_equiv_pos_site_id
 _symmetry_equiv_pos_as_xyz
  1  'x, y, z'
loop_
 _atom_site_type_symbol
 _atom_site_label
 _atom_site_symmetry_multiplicity
 _atom_site_fract_x
 _atom_site_fract_y
 _atom_site_fract_z
 _atom_site_occupancy
  Er  Er0  1  0.000000  0.000000  0.500000  1
  Er  Er1  1  0.000000  0.500000  0.000000  1
  Er  Er2  1  0.500000  0.000000  0.000000  1
  Er  Er3  1  0.500000  0.500000  0.500000  1
  Ga  Ga4  1  0.683039  0.683039  0.000000  1
  Ga  Ga5  1  0.316961  0.000000  0.316961  1
  Ga  Ga6  1  0.000000  0.316961  0.316961  1
  Ga  Ga7  1  0.316961  0.316961  0.000000  1
  Ga  Ga8  1  0.683039  0.000000  0.683039  1
  Ga  Ga9  1  0.000000  0.683039  0.683039  1
  Ir  Ir10  1  0.750000  0.250000  0.500000  1
  Ir  Ir11  1  0.750000  0.500000  0.250000  1
  Ir  Ir12  1  0.500000  0.250000  0.750000  1
  Ir  Ir13  1  0.250000  0.500000  0.750000  1
  Ir  Ir14  1  0.250000  0.750000  0.500000  1
  Ir  Ir15  1  0.500000  0.750000  0.250000  1
  Pt  Pt16  1  0.000000  0.000000  0.000000  1
