# generated using pymatgen
data_In3Sn5(B3Ir7)2
_symmetry_space_group_name_H-M   'P 1'
_cell_length_a   9.35093400
_cell_length_b   9.39141845
_cell_length_c   5.71656600
_cell_angle_alpha   90.00000000
_cell_angle_beta   90.00000000
_cell_angle_gamma   119.85557549
_symmetry_Int_Tables_number   1
_chemical_formula_structural   In3Sn5(B3Ir7)2
_chemical_formula_sum   'In3 Sn5 B6 Ir14'
_cell_volume   435.39379488
_cell_formula_units_Z   1
loop_
 _symmetry_equiv_pos_site_id
 _symmetry_equiv_pos_as_xyz
  1  'x, y, z'
loop_
 _atom_site_type_symbol
 _atom_site_label
 _atom_site_symmetry_multiplicity
 _atom_site_fract_x
 _atom_site_fract_y
 _atom_site_fract_z
 _atom_site_occupancy
  In  In0  1  0.666568  0.335170  0.250000  1
  In  In1  1  0.413078  0.505798  0.250000  1
  In  In2  1  0.092178  0.585168  0.250000  1
  Sn  Sn3  1  0.497340  0.907088  0.250000  1
  Sn  Sn4  1  0.503721  0.093818  0.750000  1
  Sn  Sn5  1  0.908511  0.412770  0.750000  1
  Sn  Sn6  1  0.586718  0.496217  0.750000  1
  Sn  Sn7  1  0.331486  0.664226  0.750000  1
  B  B8  1  0.210627  0.037855  0.250000  1
  B  B9  1  0.962968  0.173583  0.250000  1
  B  B10  1  0.826734  0.789543  0.250000  1
  B  B11  1  0.172923  0.208537  0.750000  1
  B  B12  1  0.038413  0.827860  0.750000  1
  B  B13  1  0.792231  0.963592  0.750000  1
  Ir  Ir14  1  0.000240  0.999692  0.999952  1
  Ir  Ir15  1  0.771443  0.122639  0.999251  1
  Ir  Ir16  1  0.350349  0.226925  0.999818  1
  Ir  Ir17  1  0.876428  0.650450  0.998531  1
  Ir  Ir18  1  0.771443  0.122639  0.500749  1
  Ir  Ir19  1  0.350349  0.226925  0.500182  1
  Ir  Ir20  1  0.876428  0.650450  0.501469  1
  Ir  Ir21  1  0.000240  0.999692  0.500048  1
  Ir  Ir22  1  0.120312  0.347967  0.503746  1
  Ir  Ir23  1  0.649464  0.773440  0.502898  1
  Ir  Ir24  1  0.230015  0.878274  0.501474  1
  Ir  Ir25  1  0.120312  0.347967  0.996254  1
  Ir  Ir26  1  0.649464  0.773440  0.997102  1
  Ir  Ir27  1  0.230015  0.878274  0.998526  1
