# generated using pymatgen
data_PrNd3Mn2Zn2O12
_symmetry_space_group_name_H-M   'P 1'
_cell_length_a   5.46802134
_cell_length_b   5.67484088
_cell_length_c   7.79043125
_cell_angle_alpha   89.98248423
_cell_angle_beta   89.98644862
_cell_angle_gamma   89.93903651
_symmetry_Int_Tables_number   1
_chemical_formula_structural   PrNd3Mn2Zn2O12
_chemical_formula_sum   'Pr1 Nd3 Mn2 Zn2 O12'
_cell_volume   241.73810348
_cell_formula_units_Z   1
loop_
 _symmetry_equiv_pos_site_id
 _symmetry_equiv_pos_as_xyz
  1  'x, y, z'
loop_
 _atom_site_type_symbol
 _atom_site_label
 _atom_site_symmetry_multiplicity
 _atom_site_fract_x
 _atom_site_fract_y
 _atom_site_fract_z
 _atom_site_occupancy
  Pr  Pr0  1  0.986449  0.056617  0.249388  1
  Nd  Nd1  1  0.486089  0.441846  0.749328  1
  Nd  Nd2  1  0.014172  0.941042  0.750795  1
  Nd  Nd3  1  0.514167  0.558399  0.250715  1
  Mn  Mn4  1  0.999622  0.499931  0.500580  1
  Mn  Mn5  1  0.500382  0.999763  0.999494  1
  Zn  Zn6  1  0.499875  0.000004  0.500701  1
  Zn  Zn7  1  0.000054  0.499418  0.999654  1
  O  O8  1  0.090334  0.476351  0.260218  1
  O  O9  1  0.590710  0.026848  0.759882  1
  O  O10  1  0.909681  0.526009  0.740011  1
  O  O11  1  0.413819  0.973715  0.239823  1
  O  O12  1  0.284619  0.693414  0.546067  1
  O  O13  1  0.784681  0.805694  0.043777  1
  O  O14  1  0.713860  0.307783  0.454917  1
  O  O15  1  0.214623  0.192938  0.953831  1
  O  O16  1  0.191082  0.216340  0.550275  1
  O  O17  1  0.690055  0.284631  0.048858  1
  O  O18  1  0.807303  0.782434  0.451776  1
  O  O19  1  0.308423  0.716823  0.949907  1
