# generated using pymatgen
data_Nb3SbS6
_symmetry_space_group_name_H-M   'P 1'
_cell_length_a   5.83394500
_cell_length_b   5.83394601
_cell_length_c   14.04370300
_cell_angle_alpha   90.00000000
_cell_angle_beta   90.00000000
_cell_angle_gamma   120.00049993
_symmetry_Int_Tables_number   1
_chemical_formula_structural   Nb3SbS6
_chemical_formula_sum   'Nb6 Sb2 S12'
_cell_volume   413.93754212
_cell_formula_units_Z   2
loop_
 _symmetry_equiv_pos_site_id
 _symmetry_equiv_pos_as_xyz
  1  'x, y, z'
loop_
 _atom_site_type_symbol
 _atom_site_label
 _atom_site_symmetry_multiplicity
 _atom_site_fract_x
 _atom_site_fract_y
 _atom_site_fract_z
 _atom_site_occupancy
  Nb  Nb0  1  0.000007  0.000008  0.000000  1
  Nb  Nb1  1  0.333336  0.666670  0.000037  1
  Nb  Nb2  1  0.333330  0.666666  0.499962  1
  Nb  Nb3  1  0.999992  0.999993  0.500000  1
  Nb  Nb4  1  0.666666  0.333331  0.500038  1
  Nb  Nb5  1  0.666671  0.333335  0.999962  1
  Sb  Sb6  1  0.000000  0.000000  0.250000  1
  Sb  Sb7  1  0.000000  0.000000  0.750000  1
  S  S8  1  0.662964  0.000087  0.112457  1
  S  S9  1  0.999930  0.662887  0.112459  1
  S  S10  1  0.337128  0.337048  0.112457  1
  S  S11  1  0.662952  0.662872  0.387543  1
  S  S12  1  0.337114  0.000071  0.387541  1
  S  S13  1  0.999913  0.337036  0.387543  1
  S  S14  1  0.000071  0.337114  0.612459  1
  S  S15  1  0.337037  0.999912  0.612457  1
  S  S16  1  0.662872  0.662953  0.612457  1
  S  S17  1  0.337046  0.337127  0.887543  1
  S  S18  1  0.000088  0.662964  0.887543  1
  S  S19  1  0.662886  0.999930  0.887541  1
