# generated using pymatgen
data_SrPr6P12Pd17
_symmetry_space_group_name_H-M   'P 1'
_cell_length_a   12.48173385
_cell_length_b   12.48173238
_cell_length_c   13.69012663
_cell_angle_alpha   68.08575688
_cell_angle_beta   68.08576019
_cell_angle_gamma   18.99810833
_symmetry_Int_Tables_number   1
_chemical_formula_structural   SrPr6P12Pd17
_chemical_formula_sum   'Sr1 Pr6 P12 Pd17'
_cell_volume   642.68670770
_cell_formula_units_Z   1
loop_
 _symmetry_equiv_pos_site_id
 _symmetry_equiv_pos_as_xyz
  1  'x, y, z'
loop_
 _atom_site_type_symbol
 _atom_site_label
 _atom_site_symmetry_multiplicity
 _atom_site_fract_x
 _atom_site_fract_y
 _atom_site_fract_z
 _atom_site_occupancy
  Sr  Sr0  1  0.365984  0.365984  0.001115  1
  Pr  Pr1  1  0.500186  0.500186  0.500245  1
  Pr  Pr2  1  0.634266  0.634266  0.999772  1
  Pr  Pr3  1  0.232925  0.232925  0.314807  1
  Pr  Pr4  1  0.766748  0.766748  0.685375  1
  Pr  Pr5  1  0.418235  0.418235  0.261553  1
  Pr  Pr6  1  0.581756  0.581756  0.738702  1
  P  P7  1  0.060681  0.060681  0.925239  1
  P  P8  1  0.939806  0.939806  0.075169  1
  P  P9  1  0.887119  0.887119  0.825528  1
  P  P10  1  0.113088  0.113088  0.172923  1
  P  P11  1  0.188173  0.188173  0.618879  1
  P  P12  1  0.811693  0.811693  0.381741  1
  P  P13  1  0.364869  0.364869  0.579402  1
  P  P14  1  0.634981  0.634981  0.420727  1
  P  P15  1  0.010551  0.010551  0.670872  1
  P  P16  1  0.989359  0.989359  0.329483  1
  P  P17  1  0.232938  0.232938  0.881367  1
  P  P18  1  0.766353  0.766353  0.119673  1
  Pd  Pd19  1  0.838488  0.838488  0.194302  1
  Pd  Pd20  1  0.161238  0.161238  0.806159  1
  Pd  Pd21  1  0.026315  0.026315  0.124978  1
  Pd  Pd22  1  0.974335  0.974335  0.874141  1
  Pd  Pd23  1  0.890043  0.890043  0.458309  1
  Pd  Pd24  1  0.110040  0.110040  0.541621  1
  Pd  Pd25  1  0.500741  0.500741  0.000136  1
  Pd  Pd26  1  0.547140  0.547140  0.253871  1
  Pd  Pd27  1  0.452843  0.452843  0.745045  1
  Pd  Pd28  1  0.296590  0.296590  0.486875  1
  Pd  Pd29  1  0.703427  0.703427  0.512969  1
  Pd  Pd30  1  0.666059  0.666059  0.221873  1
  Pd  Pd31  1  0.333611  0.333611  0.777485  1
  Pd  Pd32  1  0.907667  0.907667  0.643471  1
  Pd  Pd33  1  0.092341  0.092341  0.356063  1
  Pd  Pd34  1  0.217498  0.217498  0.070186  1
  Pd  Pd35  1  0.781911  0.781911  0.929945  1
