# generated using pymatgen
data_Sr5NdSn8BiSb
_symmetry_space_group_name_H-M   'P 1'
_cell_length_a   8.99797466
_cell_length_b   8.99797638
_cell_length_c   8.99797669
_cell_angle_alpha   120.28361079
_cell_angle_beta   120.28360431
_cell_angle_gamma   89.50947545
_symmetry_Int_Tables_number   1
_chemical_formula_structural   Sr5NdSn8BiSb
_chemical_formula_sum   'Sr5 Nd1 Sn8 Bi1 Sb1'
_cell_volume   512.90452002
_cell_formula_units_Z   1
loop_
 _symmetry_equiv_pos_site_id
 _symmetry_equiv_pos_as_xyz
  1  'x, y, z'
loop_
 _atom_site_type_symbol
 _atom_site_label
 _atom_site_symmetry_multiplicity
 _atom_site_fract_x
 _atom_site_fract_y
 _atom_site_fract_z
 _atom_site_occupancy
  Sr  Sr0  1  0.753076  0.753076  0.000000  1
  Sr  Sr1  1  0.159687  0.665077  0.824750  1
  Sr  Sr2  1  0.840329  0.334939  0.175250  1
  Sr  Sr3  1  0.665077  0.840329  0.505390  1
  Sr  Sr4  1  0.334939  0.159687  0.494610  1
  Nd  Nd5  1  0.246545  0.246545  0.000000  1
  Sn  Sn6  1  0.832270  0.329770  0.787215  1
  Sn  Sn7  1  0.170940  0.666899  0.212684  1
  Sn  Sn8  1  0.542555  0.045055  0.212785  1
  Sn  Sn9  1  0.329770  0.542555  0.497500  1
  Sn  Sn10  1  0.958256  0.170940  0.504041  1
  Sn  Sn11  1  0.454215  0.958256  0.787316  1
  Sn  Sn12  1  0.666899  0.454215  0.495959  1
  Sn  Sn13  1  0.045055  0.832270  0.502500  1
  Bi  Bi14  1  0.495226  0.495226  0.000000  1
  Sb  Sb15  1  0.005161  0.005161  0.000000  1
