# generated using pymatgen
data_Eu3Hg(PPd4)5
_symmetry_space_group_name_H-M   'P 1'
_cell_length_a   8.76084132
_cell_length_b   8.77829673
_cell_length_c   8.77829600
_cell_angle_alpha   59.86848281
_cell_angle_beta   60.06575118
_cell_angle_gamma   60.06575159
_symmetry_Int_Tables_number   1
_chemical_formula_structural   Eu3Hg(PPd4)5
_chemical_formula_sum   'Eu3 Hg1 P5 Pd20'
_cell_volume   477.36197226
_cell_formula_units_Z   1
loop_
 _symmetry_equiv_pos_site_id
 _symmetry_equiv_pos_as_xyz
  1  'x, y, z'
loop_
 _atom_site_type_symbol
 _atom_site_label
 _atom_site_symmetry_multiplicity
 _atom_site_fract_x
 _atom_site_fract_y
 _atom_site_fract_z
 _atom_site_occupancy
  Eu  Eu0  1  0.252971  0.247029  0.247029  1
  Eu  Eu1  1  0.752971  0.747029  0.747029  1
  Eu  Eu2  1  0.995811  0.004189  0.004189  1
  Hg  Hg3  1  0.736055  0.263945  0.263945  1
  P  P4  1  0.261891  0.738109  0.738109  1
  P  P5  1  0.270554  0.729446  0.261560  1
  P  P6  1  0.738440  0.261560  0.729446  1
  P  P7  1  0.270554  0.261560  0.729446  1
  P  P8  1  0.738440  0.729446  0.261560  1
  Pd  Pd9  1  0.360144  0.395765  0.395765  1
  Pd  Pd10  1  0.607930  0.616346  0.616346  1
  Pd  Pd11  1  0.383654  0.392070  0.840622  1
  Pd  Pd12  1  0.383654  0.840622  0.392070  1
  Pd  Pd13  1  0.604235  0.639856  0.151672  1
  Pd  Pd14  1  0.604235  0.151672  0.639856  1
  Pd  Pd15  1  0.848328  0.395765  0.395765  1
  Pd  Pd16  1  0.159378  0.616346  0.616346  1
  Pd  Pd17  1  0.344787  0.000582  0.000582  1
  Pd  Pd18  1  0.654050  0.000582  0.000582  1
  Pd  Pd19  1  0.999418  0.345950  0.655213  1
  Pd  Pd20  1  0.999418  0.655213  0.345950  1
  Pd  Pd21  1  0.026591  0.352458  0.973409  1
  Pd  Pd22  1  0.647542  0.973409  0.352458  1
  Pd  Pd23  1  0.997925  0.655518  0.002075  1
  Pd  Pd24  1  0.344482  0.002075  0.655518  1
  Pd  Pd25  1  0.026591  0.973409  0.352458  1
  Pd  Pd26  1  0.997925  0.002075  0.655518  1
  Pd  Pd27  1  0.647542  0.352458  0.973409  1
  Pd  Pd28  1  0.344482  0.655518  0.002075  1
