# generated using pymatgen
data_Tb2TiP7Ru5Rh6
_symmetry_space_group_name_H-M   'P 1'
_cell_length_a   3.87962323
_cell_length_b   9.59337342
_cell_length_c   9.54750188
_cell_angle_alpha   119.79181911
_cell_angle_beta   90.04667347
_cell_angle_gamma   89.95836686
_symmetry_Int_Tables_number   1
_chemical_formula_structural   Tb2TiP7Ru5Rh6
_chemical_formula_sum   'Tb2 Ti1 P7 Ru5 Rh6'
_cell_volume   308.38151914
_cell_formula_units_Z   1
loop_
 _symmetry_equiv_pos_site_id
 _symmetry_equiv_pos_as_xyz
  1  'x, y, z'
loop_
 _atom_site_type_symbol
 _atom_site_label
 _atom_site_symmetry_multiplicity
 _atom_site_fract_x
 _atom_site_fract_y
 _atom_site_fract_z
 _atom_site_occupancy
  Tb  Tb0  1  0.261106  0.667948  0.333808  1
  Tb  Tb1  1  0.761155  0.334425  0.666408  1
  Ti  Ti2  1  0.764799  0.099378  0.883522  1
  P  P3  1  0.268904  0.996021  0.998284  1
  P  P4  1  0.760793  0.881148  0.593835  1
  P  P5  1  0.761986  0.402627  0.283640  1
  P  P6  1  0.761461  0.718261  0.117799  1
  P  P7  1  0.260911  0.114983  0.407224  1
  P  P8  1  0.260698  0.591353  0.707917  1
  P  P9  1  0.262310  0.295265  0.884149  1
  Ru  Ru10  1  0.761321  0.140991  0.239742  1
  Ru  Ru11  1  0.760965  0.761844  0.895261  1
  Ru  Ru12  1  0.261603  0.883650  0.154243  1
  Ru  Ru13  1  0.260798  0.837991  0.723498  1
  Ru  Ru14  1  0.262236  0.270164  0.115777  1
  Rh  Rh15  1  0.761072  0.610488  0.550632  1
  Rh  Rh16  1  0.761628  0.443498  0.054312  1
  Rh  Rh17  1  0.761609  0.943994  0.385524  1
  Rh  Rh18  1  0.261161  0.373408  0.441373  1
  Rh  Rh19  1  0.261111  0.561529  0.933387  1
  Rh  Rh20  1  0.262373  0.071035  0.629666  1
